# generated using pymatgen
data_MgSc3B4(SbRh5)2
_symmetry_space_group_name_H-M   'P 1'
_cell_length_a   9.36637105
_cell_length_b   9.36637105
_cell_length_c   3.22195200
_cell_angle_alpha   90.00000000
_cell_angle_beta   90.00000000
_cell_angle_gamma   89.94575284
_symmetry_Int_Tables_number   1
_chemical_formula_structural   MgSc3B4(SbRh5)2
_chemical_formula_sum   'Mg1 Sc3 B4 Sb2 Rh10'
_cell_volume   282.65819951
_cell_formula_units_Z   1
loop_
 _symmetry_equiv_pos_site_id
 _symmetry_equiv_pos_as_xyz
  1  'x, y, z'
loop_
 _atom_site_type_symbol
 _atom_site_label
 _atom_site_symmetry_multiplicity
 _atom_site_fract_x
 _atom_site_fract_y
 _atom_site_fract_z
 _atom_site_occupancy
  Mg  Mg0  1  0.825618  0.325618  0.000000  1
  Sc  Sc1  1  0.326551  0.174886  0.000000  1
  Sc  Sc2  1  0.674886  0.826551  0.000000  1
  Sc  Sc3  1  0.171893  0.671893  0.000000  1
  B  B4  1  0.622295  0.122295  0.000000  1
  B  B5  1  0.120007  0.378874  0.000000  1
  B  B6  1  0.878874  0.620007  0.000000  1
  B  B7  1  0.379438  0.879438  0.000000  1
  Sb  Sb8  1  0.999844  0.000102  0.000000  1
  Sb  Sb9  1  0.500102  0.499844  0.000000  1
  Rh  Rh10  1  0.075963  0.221217  0.500000  1
  Rh  Rh11  1  0.221285  0.927091  0.500000  1
  Rh  Rh12  1  0.777339  0.070552  0.500000  1
  Rh  Rh13  1  0.928016  0.779274  0.500000  1
  Rh  Rh14  1  0.427091  0.721285  0.500000  1
  Rh  Rh15  1  0.570552  0.277339  0.500000  1
  Rh  Rh16  1  0.721217  0.575963  0.500000  1
  Rh  Rh17  1  0.279274  0.428016  0.500000  1
  Rh  Rh18  1  0.499396  0.999396  0.500000  1
  Rh  Rh19  1  0.000359  0.500359  0.500000  1
