# generated using pymatgen
data_LiTb9Y7Cd3Pt4
_symmetry_space_group_name_H-M   'P 1'
_cell_length_a   9.74301437
_cell_length_b   9.74301430
_cell_length_c   9.73349661
_cell_angle_alpha   59.89905403
_cell_angle_beta   59.89905849
_cell_angle_gamma   59.92261594
_symmetry_Int_Tables_number   1
_chemical_formula_structural   LiTb9Y7Cd3Pt4
_chemical_formula_sum   'Li1 Tb9 Y7 Cd3 Pt4'
_cell_volume   651.96216570
_cell_formula_units_Z   1
loop_
 _symmetry_equiv_pos_site_id
 _symmetry_equiv_pos_as_xyz
  1  'x, y, z'
loop_
 _atom_site_type_symbol
 _atom_site_label
 _atom_site_symmetry_multiplicity
 _atom_site_fract_x
 _atom_site_fract_y
 _atom_site_fract_z
 _atom_site_occupancy
  Li  Li0  1  0.571936  0.571936  0.571098  1
  Tb  Tb1  1  0.351102  0.351102  0.351007  1
  Tb  Tb2  1  0.352025  0.352025  0.944568  1
  Tb  Tb3  1  0.352495  0.944745  0.351970  1
  Tb  Tb4  1  0.944745  0.352495  0.351970  1
  Tb  Tb5  1  0.809617  0.191970  0.192181  1
  Tb  Tb6  1  0.188084  0.812211  0.812605  1
  Tb  Tb7  1  0.191970  0.809617  0.192181  1
  Tb  Tb8  1  0.812211  0.188084  0.812605  1
  Tb  Tb9  1  0.192175  0.192175  0.809948  1
  Y  Y10  1  0.811897  0.811897  0.188383  1
  Y  Y11  1  0.936590  0.564892  0.565125  1
  Y  Y12  1  0.563650  0.936011  0.936160  1
  Y  Y13  1  0.564892  0.936590  0.565125  1
  Y  Y14  1  0.936011  0.563650  0.936160  1
  Y  Y15  1  0.564650  0.564650  0.936963  1
  Y  Y16  1  0.936295  0.936295  0.563410  1
  Cd  Cd17  1  0.582714  0.582714  0.252983  1
  Cd  Cd18  1  0.582375  0.253262  0.582441  1
  Cd  Cd19  1  0.253262  0.582375  0.582441  1
  Pt  Pt20  1  0.143951  0.143951  0.144513  1
  Pt  Pt21  1  0.142932  0.142932  0.570988  1
  Pt  Pt22  1  0.143682  0.570739  0.142588  1
  Pt  Pt23  1  0.570739  0.143682  0.142588  1
