# generated using pymatgen
data_EuLuTcH6
_symmetry_space_group_name_H-M   'P 1'
_cell_length_a   5.10448602
_cell_length_b   5.10448725
_cell_length_c   5.10448500
_cell_angle_alpha   59.99999516
_cell_angle_beta   59.99998720
_cell_angle_gamma   59.99998820
_symmetry_Int_Tables_number   1
_chemical_formula_structural   EuLuTcH6
_chemical_formula_sum   'Eu1 Lu1 Tc1 H6'
_cell_volume   94.04614108
_cell_formula_units_Z   1
loop_
 _symmetry_equiv_pos_site_id
 _symmetry_equiv_pos_as_xyz
  1  'x, y, z'
loop_
 _atom_site_type_symbol
 _atom_site_label
 _atom_site_symmetry_multiplicity
 _atom_site_fract_x
 _atom_site_fract_y
 _atom_site_fract_z
 _atom_site_occupancy
  Eu  Eu0  1  0.250000  0.250000  0.250000  1
  Lu  Lu1  1  0.750000  0.750000  0.750000  1
  Tc  Tc2  1  0.000000  0.000000  0.000000  1
  H  H3  1  0.753074  0.753074  0.246926  1
  H  H4  1  0.246926  0.753074  0.246926  1
  H  H5  1  0.753074  0.246926  0.246926  1
  H  H6  1  0.246926  0.246926  0.753074  1
  H  H7  1  0.753074  0.246926  0.753074  1
  H  H8  1  0.246926  0.753074  0.753074  1
