# generated using pymatgen
data_AlV3TcS8
_symmetry_space_group_name_H-M   'P 1'
_cell_length_a   6.89435066
_cell_length_b   6.89435053
_cell_length_c   6.81429154
_cell_angle_alpha   59.61059795
_cell_angle_beta   59.61059807
_cell_angle_gamma   60.00000704
_symmetry_Int_Tables_number   1
_chemical_formula_structural   AlV3TcS8
_chemical_formula_sum   'Al1 V3 Tc1 S8'
_cell_volume   227.67275112
_cell_formula_units_Z   1
loop_
 _symmetry_equiv_pos_site_id
 _symmetry_equiv_pos_as_xyz
  1  'x, y, z'
loop_
 _atom_site_type_symbol
 _atom_site_label
 _atom_site_symmetry_multiplicity
 _atom_site_fract_x
 _atom_site_fract_y
 _atom_site_fract_z
 _atom_site_occupancy
  Al  Al0  1  0.001696  0.001696  0.994912  1
  V  V1  1  0.608293  0.186298  0.597115  1
  V  V2  1  0.186298  0.608293  0.597115  1
  V  V3  1  0.608293  0.608293  0.597115  1
  Tc  Tc4  1  0.601543  0.601543  0.195369  1
  S  S5  1  0.373073  0.373073  0.880783  1
  S  S6  1  0.365125  0.892318  0.377433  1
  S  S7  1  0.892318  0.365125  0.377433  1
  S  S8  1  0.365125  0.365125  0.377433  1
  S  S9  1  0.865588  0.865588  0.403235  1
  S  S10  1  0.862188  0.408270  0.867352  1
  S  S11  1  0.408270  0.862188  0.867352  1
  S  S12  1  0.862188  0.862188  0.867352  1
