# generated using pymatgen
data_Ba4Nb2CdSnO12
_symmetry_space_group_name_H-M   'P 1'
_cell_length_a   5.93361984
_cell_length_b   5.91460076
_cell_length_c   10.29395600
_cell_angle_alpha   107.08576935
_cell_angle_beta   73.23575177
_cell_angle_gamma   120.35088781
_symmetry_Int_Tables_number   1
_chemical_formula_structural   Ba4Nb2CdSnO12
_chemical_formula_sum   'Ba4 Nb2 Cd1 Sn1 O12'
_cell_volume   293.67269669
_cell_formula_units_Z   1
loop_
 _symmetry_equiv_pos_site_id
 _symmetry_equiv_pos_as_xyz
  1  'x, y, z'
loop_
 _atom_site_type_symbol
 _atom_site_label
 _atom_site_symmetry_multiplicity
 _atom_site_fract_x
 _atom_site_fract_y
 _atom_site_fract_z
 _atom_site_occupancy
  Ba  Ba0  1  0.625203  0.374965  0.124475  1
  Ba  Ba1  1  0.124455  0.875478  0.626593  1
  Ba  Ba2  1  0.875541  0.124517  0.373404  1
  Ba  Ba3  1  0.374813  0.625055  0.875525  1
  Nb  Nb4  1  0.249512  0.749965  0.250944  1
  Nb  Nb5  1  0.750490  0.250028  0.749060  1
  Cd  Cd6  1  0.999996  0.999996  0.000002  1
  Sn  Sn7  1  0.500004  0.500021  0.499992  1
  O  O8  1  0.127788  0.396406  0.139902  1
  O  O9  1  0.628184  0.877856  0.621379  1
  O  O10  1  0.372326  0.626806  0.378052  1
  O  O11  1  0.870299  0.131016  0.860604  1
  O  O12  1  0.600741  0.869876  0.139703  1
  O  O13  1  0.123397  0.373071  0.621864  1
  O  O14  1  0.371802  0.122118  0.378626  1
  O  O15  1  0.872210  0.603609  0.860104  1
  O  O16  1  0.129710  0.868996  0.139393  1
  O  O17  1  0.627667  0.373183  0.621950  1
  O  O18  1  0.876590  0.626916  0.378133  1
  O  O19  1  0.399270  0.130120  0.860297  1
