# generated using pymatgen
data_Tm6Fe5Co18
_symmetry_space_group_name_H-M   'P 1'
_cell_length_a   8.31648007
_cell_length_b   8.31381605
_cell_length_c   8.32937500
_cell_angle_alpha   59.93807736
_cell_angle_beta   59.94869966
_cell_angle_gamma   60.15355810
_symmetry_Int_Tables_number   1
_chemical_formula_structural   Tm6Fe5Co18
_chemical_formula_sum   'Tm6 Fe5 Co18'
_cell_volume   407.34822489
_cell_formula_units_Z   1
loop_
 _symmetry_equiv_pos_site_id
 _symmetry_equiv_pos_as_xyz
  1  'x, y, z'
loop_
 _atom_site_type_symbol
 _atom_site_label
 _atom_site_symmetry_multiplicity
 _atom_site_fract_x
 _atom_site_fract_y
 _atom_site_fract_z
 _atom_site_occupancy
  Tm  Tm0  1  0.712121  0.714565  0.286657  1
  Tm  Tm1  1  0.288677  0.712604  0.287339  1
  Tm  Tm2  1  0.711323  0.287396  0.288621  1
  Tm  Tm3  1  0.287879  0.285435  0.713343  1
  Tm  Tm4  1  0.711323  0.287396  0.712661  1
  Tm  Tm5  1  0.288677  0.712604  0.711379  1
  Fe  Fe6  1  0.000000  0.000000  0.000000  1
  Fe  Fe7  1  0.000000  0.000000  0.500000  1
  Fe  Fe8  1  0.000000  0.500000  0.500000  1
  Fe  Fe9  1  0.500000  0.500000  0.000000  1
  Fe  Fe10  1  0.000000  0.500000  0.000000  1
  Co  Co11  1  0.500000  0.000000  0.500000  1
  Co  Co12  1  0.500000  0.000000  0.000000  1
  Co  Co13  1  0.876239  0.877915  0.368794  1
  Co  Co14  1  0.877374  0.366368  0.878129  1
  Co  Co15  1  0.371280  0.876742  0.875989  1
  Co  Co16  1  0.876239  0.877915  0.877052  1
  Co  Co17  1  0.123761  0.122085  0.631206  1
  Co  Co18  1  0.122626  0.633632  0.121871  1
  Co  Co19  1  0.628720  0.123258  0.124011  1
  Co  Co20  1  0.123761  0.122085  0.122948  1
  Co  Co21  1  0.676776  0.677225  0.970380  1
  Co  Co22  1  0.676212  0.969881  0.676953  1
  Co  Co23  1  0.971564  0.675489  0.676473  1
  Co  Co24  1  0.676776  0.677225  0.675619  1
  Co  Co25  1  0.323224  0.322775  0.029620  1
  Co  Co26  1  0.323788  0.030119  0.323047  1
  Co  Co27  1  0.028436  0.324511  0.323527  1
  Co  Co28  1  0.323224  0.322775  0.324381  1
