# generated using pymatgen
data_Tb15TmMgAg3Ir4
_symmetry_space_group_name_H-M   'P 1'
_cell_length_a   9.55420440
_cell_length_b   9.59806663
_cell_length_c   9.59806773
_cell_angle_alpha   60.46624814
_cell_angle_beta   60.49854245
_cell_angle_gamma   60.49854181
_symmetry_Int_Tables_number   1
_chemical_formula_structural   Tb15TmMgAg3Ir4
_chemical_formula_sum   'Tb15 Tm1 Mg1 Ag3 Ir4'
_cell_volume   629.22900225
_cell_formula_units_Z   1
loop_
 _symmetry_equiv_pos_site_id
 _symmetry_equiv_pos_as_xyz
  1  'x, y, z'
loop_
 _atom_site_type_symbol
 _atom_site_label
 _atom_site_symmetry_multiplicity
 _atom_site_fract_x
 _atom_site_fract_y
 _atom_site_fract_z
 _atom_site_occupancy
  Tb  Tb0  1  0.814182  0.187375  0.187375  1
  Tb  Tb1  1  0.064562  0.437556  0.061182  1
  Tb  Tb2  1  0.060847  0.646509  0.646509  1
  Tb  Tb3  1  0.649132  0.651614  0.651614  1
  Tb  Tb4  1  0.064562  0.061182  0.437556  1
  Tb  Tb5  1  0.190774  0.810750  0.188760  1
  Tb  Tb6  1  0.814412  0.812550  0.186682  1
  Tb  Tb7  1  0.814412  0.186682  0.812550  1
  Tb  Tb8  1  0.437156  0.062044  0.437685  1
  Tb  Tb9  1  0.437156  0.437685  0.062044  1
  Tb  Tb10  1  0.436506  0.063043  0.063043  1
  Tb  Tb11  1  0.064888  0.437274  0.437274  1
  Tb  Tb12  1  0.190774  0.188760  0.810750  1
  Tb  Tb13  1  0.649712  0.651177  0.047715  1
  Tb  Tb14  1  0.649712  0.047715  0.651177  1
  Tm  Tm15  1  0.190084  0.811167  0.811167  1
  Mg  Mg16  1  0.712638  0.429049  0.429049  1
  Ag  Ag17  1  0.417659  0.415682  0.750477  1
  Ag  Ag18  1  0.417659  0.750477  0.415682  1
  Ag  Ag19  1  0.417718  0.415621  0.415621  1
  Ir  Ir20  1  0.859053  0.856035  0.426952  1
  Ir  Ir21  1  0.859053  0.426952  0.856035  1
  Ir  Ir22  1  0.862295  0.856406  0.856406  1
  Ir  Ir23  1  0.425060  0.856698  0.856698  1
