# generated using pymatgen
data_Lu2Zr4Pb5
_symmetry_space_group_name_H-M   'P 1'
_cell_length_a   6.08066464
_cell_length_b   9.16203840
_cell_length_c   11.37994438
_cell_angle_alpha   113.73782314
_cell_angle_beta   105.49569020
_cell_angle_gamma   90.00000316
_symmetry_Int_Tables_number   1
_chemical_formula_structural   Lu2Zr4Pb5
_chemical_formula_sum   'Lu4 Zr8 Pb10'
_cell_volume   555.08613644
_cell_formula_units_Z   2
loop_
 _symmetry_equiv_pos_site_id
 _symmetry_equiv_pos_as_xyz
  1  'x, y, z'
loop_
 _atom_site_type_symbol
 _atom_site_label
 _atom_site_symmetry_multiplicity
 _atom_site_fract_x
 _atom_site_fract_y
 _atom_site_fract_z
 _atom_site_occupancy
  Lu  Lu0  1  0.143914  0.253812  0.287828  1
  Lu  Lu1  1  0.856086  0.746188  0.712172  1
  Lu  Lu2  1  0.643914  0.034016  0.287828  1
  Lu  Lu3  1  0.356086  0.965984  0.712172  1
  Zr  Zr4  1  0.562017  0.312017  0.624032  1
  Zr  Zr5  1  0.437983  0.687983  0.375968  1
  Zr  Zr6  1  0.937983  0.687983  0.375968  1
  Zr  Zr7  1  0.062017  0.312017  0.624032  1
  Zr  Zr8  1  0.434243  0.671815  0.868486  1
  Zr  Zr9  1  0.565757  0.328185  0.131514  1
  Zr  Zr10  1  0.934243  0.196670  0.868486  1
  Zr  Zr11  1  0.065757  0.803330  0.131514  1
  Pb  Pb12  1  0.288633  0.590865  0.577265  1
  Pb  Pb13  1  0.711367  0.409135  0.422735  1
  Pb  Pb14  1  0.788633  0.986400  0.577265  1
  Pb  Pb15  1  0.211367  0.013600  0.422735  1
  Pb  Pb16  1  0.250000  0.000000  0.000000  1
  Pb  Pb17  1  0.750000  0.000000  0.000000  1
  Pb  Pb18  1  0.067094  0.460773  0.134188  1
  Pb  Pb19  1  0.932906  0.539227  0.865812  1
  Pb  Pb20  1  0.567094  0.673415  0.134188  1
  Pb  Pb21  1  0.432906  0.326585  0.865812  1
