# generated using pymatgen
data_Tb8YEr11Bi12
_symmetry_space_group_name_H-M   'P 1'
_cell_length_a   8.24719913
_cell_length_b   9.47475706
_cell_length_c   12.06863208
_cell_angle_alpha   89.99186432
_cell_angle_beta   90.02719116
_cell_angle_gamma   89.99932157
_symmetry_Int_Tables_number   1
_chemical_formula_structural   Tb8YEr11Bi12
_chemical_formula_sum   'Tb8 Y1 Er11 Bi12'
_cell_volume   943.04530666
_cell_formula_units_Z   1
loop_
 _symmetry_equiv_pos_site_id
 _symmetry_equiv_pos_as_xyz
  1  'x, y, z'
loop_
 _atom_site_type_symbol
 _atom_site_label
 _atom_site_symmetry_multiplicity
 _atom_site_fract_x
 _atom_site_fract_y
 _atom_site_fract_z
 _atom_site_occupancy
  Tb  Tb0  1  0.186251  0.749977  0.718752  1
  Tb  Tb1  1  0.686269  0.749971  0.781243  1
  Tb  Tb2  1  0.813674  0.249764  0.281071  1
  Tb  Tb3  1  0.313624  0.249933  0.218645  1
  Tb  Tb4  1  0.806710  0.436789  0.559749  1
  Tb  Tb5  1  0.353909  0.749949  0.215655  1
  Tb  Tb6  1  0.853858  0.749750  0.284253  1
  Tb  Tb7  1  0.645420  0.249590  0.784485  1
  Y  Y8  1  0.146371  0.249597  0.715786  1
  Er  Er9  1  0.025522  0.749821  0.988819  1
  Er  Er10  1  0.525284  0.749954  0.511330  1
  Er  Er11  1  0.974663  0.249995  0.011200  1
  Er  Er12  1  0.474010  0.249740  0.488666  1
  Er  Er13  1  0.306799  0.435360  0.940389  1
  Er  Er14  1  0.806544  0.064590  0.559797  1
  Er  Er15  1  0.693365  0.935332  0.059691  1
  Er  Er16  1  0.193110  0.564747  0.440303  1
  Er  Er17  1  0.693240  0.564719  0.059703  1
  Er  Er18  1  0.193578  0.935433  0.440148  1
  Er  Er19  1  0.306744  0.064581  0.940434  1
  Bi  Bi20  1  0.433781  0.003770  0.673045  1
  Bi  Bi21  1  0.934126  0.495848  0.827249  1
  Bi  Bi22  1  0.566128  0.503762  0.326861  1
  Bi  Bi23  1  0.066212  0.995933  0.172892  1
  Bi  Bi24  1  0.566099  0.995940  0.327037  1
  Bi  Bi25  1  0.066300  0.503879  0.172807  1
  Bi  Bi26  1  0.433398  0.495909  0.673110  1
  Bi  Bi27  1  0.933957  0.003954  0.827112  1
  Bi  Bi28  1  0.407871  0.749993  0.957747  1
  Bi  Bi29  1  0.908526  0.751846  0.541874  1
  Bi  Bi30  1  0.592196  0.250041  0.042315  1
  Bi  Bi31  1  0.092460  0.249533  0.457835  1
