# generated using pymatgen
data_Sr8Ca7Pr5Pb16
_symmetry_space_group_name_H-M   'P 1'
_cell_length_a   8.42101942
_cell_length_b   8.87321606
_cell_length_c   16.76138500
_cell_angle_alpha   90.00470727
_cell_angle_beta   90.03331190
_cell_angle_gamma   90.04736053
_symmetry_Int_Tables_number   1
_chemical_formula_structural   Sr8Ca7Pr5Pb16
_chemical_formula_sum   'Sr8 Ca7 Pr5 Pb16'
_cell_volume   1252.43560117
_cell_formula_units_Z   1
loop_
 _symmetry_equiv_pos_site_id
 _symmetry_equiv_pos_as_xyz
  1  'x, y, z'
loop_
 _atom_site_type_symbol
 _atom_site_label
 _atom_site_symmetry_multiplicity
 _atom_site_fract_x
 _atom_site_fract_y
 _atom_site_fract_z
 _atom_site_occupancy
  Sr  Sr0  1  0.498620  0.678955  0.595249  1
  Sr  Sr1  1  0.998287  0.819964  0.906119  1
  Sr  Sr2  1  0.501697  0.319551  0.093497  1
  Sr  Sr3  1  0.001512  0.182348  0.407379  1
  Sr  Sr4  1  0.500518  0.320641  0.404510  1
  Sr  Sr5  1  0.000366  0.181268  0.094679  1
  Sr  Sr6  1  0.499190  0.682228  0.904466  1
  Sr  Sr7  1  0.999161  0.817596  0.595047  1
  Ca  Ca8  1  0.833516  0.664787  0.123755  1
  Ca  Ca9  1  0.665447  0.165183  0.875765  1
  Ca  Ca10  1  0.166956  0.335000  0.624311  1
  Ca  Ca11  1  0.835028  0.501905  0.749791  1
  Ca  Ca12  1  0.333790  0.997721  0.750394  1
  Ca  Ca13  1  0.165049  0.496900  0.248380  1
  Ca  Ca14  1  0.666920  0.003205  0.248898  1
  Pr  Pr15  1  0.665055  0.167600  0.625587  1
  Pr  Pr16  1  0.165673  0.334072  0.874620  1
  Pr  Pr17  1  0.333960  0.836131  0.124003  1
  Pr  Pr18  1  0.834361  0.665811  0.375654  1
  Pr  Pr19  1  0.334535  0.832383  0.375605  1
  Pb  Pb20  1  0.668957  0.959546  0.460389  1
  Pb  Pb21  1  0.169503  0.538756  0.039996  1
  Pb  Pb22  1  0.330460  0.038252  0.959200  1
  Pb  Pb23  1  0.830518  0.461252  0.539916  1
  Pb  Pb24  1  0.330304  0.039413  0.539668  1
  Pb  Pb25  1  0.828513  0.459165  0.960417  1
  Pb  Pb26  1  0.671219  0.960065  0.040077  1
  Pb  Pb27  1  0.172589  0.540406  0.460301  1
  Pb  Pb28  1  0.467080  0.385859  0.750172  1
  Pb  Pb29  1  0.966611  0.115664  0.749447  1
  Pb  Pb30  1  0.532362  0.615367  0.250547  1
  Pb  Pb31  1  0.032865  0.884068  0.250951  1
  Pb  Pb32  1  0.706074  0.864333  0.748857  1
  Pb  Pb33  1  0.205198  0.636826  0.750870  1
  Pb  Pb34  1  0.294367  0.134208  0.250272  1
  Pb  Pb35  1  0.793741  0.363570  0.251207  1
