# generated using pymatgen
data_Li3Y3MgSn4
_symmetry_space_group_name_H-M   'P 1'
_cell_length_a   4.60587708
_cell_length_b   7.27867408
_cell_length_c   8.73322337
_cell_angle_alpha   115.04913069
_cell_angle_beta   105.28964604
_cell_angle_gamma   89.99999651
_symmetry_Int_Tables_number   1
_chemical_formula_structural   Li3Y3MgSn4
_chemical_formula_sum   'Li3 Y3 Mg1 Sn4'
_cell_volume   253.75628883
_cell_formula_units_Z   1
loop_
 _symmetry_equiv_pos_site_id
 _symmetry_equiv_pos_as_xyz
  1  'x, y, z'
loop_
 _atom_site_type_symbol
 _atom_site_label
 _atom_site_symmetry_multiplicity
 _atom_site_fract_x
 _atom_site_fract_y
 _atom_site_fract_z
 _atom_site_occupancy
  Li  Li0  1  0.331180  0.010586  0.662358  1
  Li  Li1  1  0.669594  0.976291  0.339187  1
  Li  Li2  1  0.321414  0.627256  0.642830  1
  Y  Y3  1  0.874978  0.369668  0.749956  1
  Y  Y4  1  0.126117  0.646043  0.252232  1
  Y  Y5  1  0.001489  0.003726  0.002979  1
  Mg  Mg6  1  0.676268  0.370472  0.352536  1
  Sn  Sn7  1  0.218223  0.192623  0.436448  1
  Sn  Sn8  1  0.786659  0.799195  0.573319  1
  Sn  Sn9  1  0.497803  0.303490  0.995605  1
  Sn  Sn10  1  0.496274  0.700653  0.992548  1
