# generated using pymatgen
data_Sc8Si16Mo5W7
_symmetry_space_group_name_H-M   'P 1'
_cell_length_a   6.58667965
_cell_length_b   6.79031472
_cell_length_c   12.66538061
_cell_angle_alpha   89.97453262
_cell_angle_beta   90.02458330
_cell_angle_gamma   89.92257276
_symmetry_Int_Tables_number   1
_chemical_formula_structural   Sc8Si16Mo5W7
_chemical_formula_sum   'Sc8 Si16 Mo5 W7'
_cell_volume   566.46647347
_cell_formula_units_Z   1
loop_
 _symmetry_equiv_pos_site_id
 _symmetry_equiv_pos_as_xyz
  1  'x, y, z'
loop_
 _atom_site_type_symbol
 _atom_site_label
 _atom_site_symmetry_multiplicity
 _atom_site_fract_x
 _atom_site_fract_y
 _atom_site_fract_z
 _atom_site_occupancy
  Sc  Sc0  1  0.493188  0.669577  0.593064  1
  Sc  Sc1  1  0.993253  0.830157  0.907468  1
  Sc  Sc2  1  0.506960  0.330516  0.092728  1
  Sc  Sc3  1  0.005975  0.170388  0.407283  1
  Sc  Sc4  1  0.506062  0.329656  0.407187  1
  Sc  Sc5  1  0.005940  0.170168  0.092786  1
  Sc  Sc6  1  0.493834  0.670225  0.907423  1
  Sc  Sc7  1  0.993880  0.829854  0.592838  1
  Si  Si8  1  0.667316  0.962423  0.454807  1
  Si  Si9  1  0.168022  0.537653  0.044530  1
  Si  Si10  1  0.331839  0.037387  0.955237  1
  Si  Si11  1  0.832094  0.462384  0.544655  1
  Si  Si12  1  0.333244  0.036622  0.544692  1
  Si  Si13  1  0.832760  0.462487  0.955517  1
  Si  Si14  1  0.667441  0.962801  0.044730  1
  Si  Si15  1  0.166906  0.538100  0.455012  1
  Si  Si16  1  0.464714  0.379946  0.749508  1
  Si  Si17  1  0.964459  0.120009  0.750346  1
  Si  Si18  1  0.534771  0.620869  0.250218  1
  Si  Si19  1  0.036308  0.879545  0.250588  1
  Si  Si20  1  0.698111  0.857660  0.749625  1
  Si  Si21  1  0.197964  0.642453  0.750390  1
  Si  Si22  1  0.302188  0.141914  0.249809  1
  Si  Si23  1  0.801913  0.357715  0.250187  1
  Mo  Mo24  1  0.668860  0.163717  0.623652  1
  Mo  Mo25  1  0.169193  0.336689  0.876094  1
  Mo  Mo26  1  0.331836  0.835535  0.124492  1
  Mo  Mo27  1  0.830704  0.663581  0.375946  1
  Mo  Mo28  1  0.332408  0.835440  0.375114  1
  W  W29  1  0.832568  0.663691  0.125314  1
  W  W30  1  0.667006  0.164721  0.874441  1
  W  W31  1  0.167745  0.335655  0.625284  1
  W  W32  1  0.833683  0.503295  0.749906  1
  W  W33  1  0.333272  0.996321  0.750225  1
  W  W34  1  0.165991  0.496500  0.249568  1
  W  W35  1  0.667593  0.004346  0.249338  1
