# generated using pymatgen
data_Tm3Ni8Ir
_symmetry_space_group_name_H-M   'P 1'
_cell_length_a   4.90378610
_cell_length_b   4.90378621
_cell_length_c   8.73509887
_cell_angle_alpha   73.69834630
_cell_angle_beta   73.69834687
_cell_angle_gamma   60.00000745
_symmetry_Int_Tables_number   1
_chemical_formula_structural   Tm3Ni8Ir
_chemical_formula_sum   'Tm3 Ni8 Ir1'
_cell_volume   172.09185690
_cell_formula_units_Z   1
loop_
 _symmetry_equiv_pos_site_id
 _symmetry_equiv_pos_as_xyz
  1  'x, y, z'
loop_
 _atom_site_type_symbol
 _atom_site_label
 _atom_site_symmetry_multiplicity
 _atom_site_fract_x
 _atom_site_fract_y
 _atom_site_fract_z
 _atom_site_occupancy
  Tm  Tm0  1  0.138167  0.138167  0.585499  1
  Tm  Tm1  1  0.861833  0.861833  0.414501  1
  Tm  Tm2  1  0.000000  0.000000  0.000000  1
  Ni  Ni3  1  0.077529  0.581857  0.758757  1
  Ni  Ni4  1  0.581857  0.581857  0.758757  1
  Ni  Ni5  1  0.581857  0.077529  0.758757  1
  Ni  Ni6  1  0.922471  0.418143  0.241243  1
  Ni  Ni7  1  0.418143  0.418143  0.241243  1
  Ni  Ni8  1  0.418143  0.922471  0.241243  1
  Ni  Ni9  1  0.333445  0.333445  0.999665  1
  Ni  Ni10  1  0.666555  0.666555  0.000335  1
  Ir  Ir11  1  0.500000  0.500000  0.500000  1
