# generated using pymatgen
data_YbY2TmRu8
_symmetry_space_group_name_H-M   'P 1'
_cell_length_a   5.24080552
_cell_length_b   5.24122701
_cell_length_c   8.96518870
_cell_angle_alpha   89.97522182
_cell_angle_beta   90.04778985
_cell_angle_gamma   120.01653759
_symmetry_Int_Tables_number   1
_chemical_formula_structural   YbY2TmRu8
_chemical_formula_sum   'Yb1 Y2 Tm1 Ru8'
_cell_volume   213.23011122
_cell_formula_units_Z   1
loop_
 _symmetry_equiv_pos_site_id
 _symmetry_equiv_pos_as_xyz
  1  'x, y, z'
loop_
 _atom_site_type_symbol
 _atom_site_label
 _atom_site_symmetry_multiplicity
 _atom_site_fract_x
 _atom_site_fract_y
 _atom_site_fract_z
 _atom_site_occupancy
  Yb  Yb0  1  0.666643  0.333350  0.935179  1
  Y  Y1  1  0.333322  0.666648  0.432867  1
  Y  Y2  1  0.333325  0.666630  0.062291  1
  Tm  Tm3  1  0.666747  0.333354  0.573065  1
  Ru  Ru4  1  0.000027  0.000066  0.498993  1
  Ru  Ru5  1  0.999996  0.000035  0.999191  1
  Ru  Ru6  1  0.170131  0.340100  0.748487  1
  Ru  Ru7  1  0.170092  0.830042  0.748488  1
  Ru  Ru8  1  0.659706  0.829795  0.748486  1
  Ru  Ru9  1  0.829009  0.657933  0.250982  1
  Ru  Ru10  1  0.828886  0.171060  0.250981  1
  Ru  Ru11  1  0.342117  0.170987  0.250991  1
