# generated using pymatgen
data_La7Pr5Pt3RhBr12
_symmetry_space_group_name_H-M   'P 1'
_cell_length_a   10.64152692
_cell_length_b   10.64773943
_cell_length_c   10.63247578
_cell_angle_alpha   108.92258124
_cell_angle_beta   109.14445614
_cell_angle_gamma   109.79405047
_symmetry_Int_Tables_number   1
_chemical_formula_structural   La7Pr5Pt3RhBr12
_chemical_formula_sum   'La7 Pr5 Pt3 Rh1 Br12'
_cell_volume   933.64151167
_cell_formula_units_Z   1
loop_
 _symmetry_equiv_pos_site_id
 _symmetry_equiv_pos_as_xyz
  1  'x, y, z'
loop_
 _atom_site_type_symbol
 _atom_site_label
 _atom_site_symmetry_multiplicity
 _atom_site_fract_x
 _atom_site_fract_y
 _atom_site_fract_z
 _atom_site_occupancy
  La  La0  1  0.470747  0.481944  0.237961  1
  La  La1  1  0.745054  0.234569  0.261334  1
  La  La2  1  0.753371  0.016048  0.487202  1
  La  La3  1  0.235545  0.472234  0.487495  1
  La  La4  1  0.266539  0.752792  0.235901  1
  La  La5  1  0.027637  0.261695  0.016370  1
  La  La6  1  0.017794  0.027918  0.260478  1
  Pr  Pr7  1  0.485197  0.747834  0.012615  1
  Pr  Pr8  1  0.481689  0.237786  0.469690  1
  Pr  Pr9  1  0.016947  0.485618  0.751621  1
  Pr  Pr10  1  0.264051  0.015296  0.028615  1
  Pr  Pr11  1  0.236402  0.265839  0.752273  1
  Pt  Pt12  1  0.501077  0.000859  0.250378  1
  Pt  Pt13  1  0.999140  0.248405  0.496452  1
  Pt  Pt14  1  0.250814  0.499174  0.003317  1
  Rh  Rh15  1  0.246972  0.251356  0.249188  1
  Br  Br16  1  0.250704  0.755906  0.748763  1
  Br  Br17  1  0.507905  0.502934  0.754886  1
  Br  Br18  1  0.992613  0.743841  0.991341  1
  Br  Br19  1  0.744921  0.252100  0.751447  1
  Br  Br20  1  0.999443  0.992068  0.747433  1
  Br  Br21  1  0.252532  0.000476  0.507713  1
  Br  Br22  1  0.755656  0.507338  0.508287  1
  Br  Br23  1  0.500511  0.247944  0.991893  1
  Br  Br24  1  0.753425  0.745506  0.247256  1
  Br  Br25  1  0.742610  0.992816  0.991022  1
  Br  Br26  1  0.995273  0.504508  0.250189  1
  Br  Br27  1  0.505429  0.755197  0.508880  1
