# generated using pymatgen
data_Mg2Ni3SbO8
_symmetry_space_group_name_H-M   'P 1'
_cell_length_a   6.00466257
_cell_length_b   6.09818679
_cell_length_c   10.39326858
_cell_angle_alpha   106.45769673
_cell_angle_beta   89.98883441
_cell_angle_gamma   60.49108282
_symmetry_Int_Tables_number   1
_chemical_formula_structural   Mg2Ni3SbO8
_chemical_formula_sum   'Mg4 Ni6 Sb2 O16'
_cell_volume   313.15378961
_cell_formula_units_Z   2
loop_
 _symmetry_equiv_pos_site_id
 _symmetry_equiv_pos_as_xyz
  1  'x, y, z'
loop_
 _atom_site_type_symbol
 _atom_site_label
 _atom_site_symmetry_multiplicity
 _atom_site_fract_x
 _atom_site_fract_y
 _atom_site_fract_z
 _atom_site_occupancy
  Mg  Mg0  1  0.300999  0.397993  0.566374  1
  Mg  Mg1  1  0.800990  0.397978  0.066368  1
  Mg  Mg2  1  0.199084  0.601817  0.933631  1
  Mg  Mg3  1  0.699047  0.602027  0.433641  1
  Ni  Ni4  1  0.249958  0.999958  0.749942  1
  Ni  Ni5  1  0.749845  0.000192  0.249979  1
  Ni  Ni6  1  0.000021  0.000108  0.499997  1
  Ni  Ni7  1  0.749946  0.000053  0.750046  1
  Ni  Ni8  1  0.249881  0.000151  0.249963  1
  Ni  Ni9  1  0.500186  0.999871  0.999948  1
  Sb  Sb10  1  0.750029  0.499899  0.750009  1
  Sb  Sb11  1  0.249972  0.500041  0.249996  1
  O  O12  1  0.102190  0.795628  0.632687  1
  O  O13  1  0.602056  0.795671  0.132702  1
  O  O14  1  0.397886  0.204163  0.867317  1
  O  O15  1  0.897898  0.204408  0.367294  1
  O  O16  1  0.872445  0.255601  0.863105  1
  O  O17  1  0.372385  0.255774  0.363108  1
  O  O18  1  0.641649  0.255283  0.632540  1
  O  O19  1  0.141626  0.255360  0.132542  1
  O  O20  1  0.102881  0.255316  0.632333  1
  O  O21  1  0.602788  0.255345  0.132267  1
  O  O22  1  0.397149  0.744628  0.867720  1
  O  O23  1  0.897126  0.744778  0.367717  1
  O  O24  1  0.858408  0.744587  0.867511  1
  O  O25  1  0.358392  0.744758  0.367456  1
  O  O26  1  0.627619  0.744257  0.636912  1
  O  O27  1  0.127544  0.744356  0.136892  1
