# generated using pymatgen
data_CaTb2Co9(GeB2)2
_symmetry_space_group_name_H-M   'P 1'
_cell_length_a   5.17420401
_cell_length_b   5.17506834
_cell_length_c   9.43379101
_cell_angle_alpha   90.00033710
_cell_angle_beta   89.99974578
_cell_angle_gamma   119.98951687
_symmetry_Int_Tables_number   1
_chemical_formula_structural   CaTb2Co9(GeB2)2
_chemical_formula_sum   'Ca1 Tb2 Co9 Ge2 B4'
_cell_volume   218.78744035
_cell_formula_units_Z   1
loop_
 _symmetry_equiv_pos_site_id
 _symmetry_equiv_pos_as_xyz
  1  'x, y, z'
loop_
 _atom_site_type_symbol
 _atom_site_label
 _atom_site_symmetry_multiplicity
 _atom_site_fract_x
 _atom_site_fract_y
 _atom_site_fract_z
 _atom_site_occupancy
  Ca  Ca0  1  0.999975  0.000005  0.000006  1
  Tb  Tb1  1  0.000013  0.000000  0.337754  1
  Tb  Tb2  1  0.999991  0.999991  0.662237  1
  Co  Co3  1  0.499994  0.999998  0.499993  1
  Co  Co4  1  0.500001  0.500006  0.500003  1
  Co  Co5  1  0.999995  0.499997  0.500001  1
  Co  Co6  1  0.500015  0.999996  0.204890  1
  Co  Co7  1  0.500004  0.499996  0.204872  1
  Co  Co8  1  0.000002  0.499999  0.204896  1
  Co  Co9  1  0.499995  0.000006  0.795130  1
  Co  Co10  1  0.499990  0.500007  0.795123  1
  Co  Co11  1  0.999992  0.500008  0.795101  1
  Ge  Ge12  1  0.333251  0.666590  0.000004  1
  Ge  Ge13  1  0.666708  0.333413  0.000004  1
  B  B14  1  0.333369  0.666639  0.348594  1
  B  B15  1  0.666625  0.333349  0.348593  1
  B  B16  1  0.666610  0.333340  0.651400  1
  B  B17  1  0.333369  0.666657  0.651399  1
