# generated using pymatgen
data_NpCr3(AgS4)2
_symmetry_space_group_name_H-M   'P 1'
_cell_length_a   7.42561413
_cell_length_b   7.42561404
_cell_length_c   7.42561436
_cell_angle_alpha   58.67223757
_cell_angle_beta   58.67223578
_cell_angle_gamma   58.67224554
_symmetry_Int_Tables_number   1
_chemical_formula_structural   NpCr3(AgS4)2
_chemical_formula_sum   'Np1 Cr3 Ag2 S8'
_cell_volume   280.73708318
_cell_formula_units_Z   1
loop_
 _symmetry_equiv_pos_site_id
 _symmetry_equiv_pos_as_xyz
  1  'x, y, z'
loop_
 _atom_site_type_symbol
 _atom_site_label
 _atom_site_symmetry_multiplicity
 _atom_site_fract_x
 _atom_site_fract_y
 _atom_site_fract_z
 _atom_site_occupancy
  Np  Np0  1  0.500000  0.500000  0.500000  1
  Cr  Cr1  1  0.500000  0.000000  0.500000  1
  Cr  Cr2  1  0.500000  0.500000  0.000000  1
  Cr  Cr3  1  0.000000  0.500000  0.500000  1
  Ag  Ag4  1  0.132138  0.132138  0.132138  1
  Ag  Ag5  1  0.867862  0.867862  0.867862  1
  S  S6  1  0.249348  0.714568  0.249348  1
  S  S7  1  0.750652  0.750652  0.285432  1
  S  S8  1  0.285432  0.750652  0.750652  1
  S  S9  1  0.733264  0.733264  0.733264  1
  S  S10  1  0.714568  0.249348  0.249348  1
  S  S11  1  0.266736  0.266736  0.266736  1
  S  S12  1  0.750652  0.285432  0.750652  1
  S  S13  1  0.249348  0.249348  0.714568  1
