# generated using pymatgen
data_NaTb2CuS4
_symmetry_space_group_name_H-M   'P 1'
_cell_length_a   3.91783400
_cell_length_b   6.82551213
_cell_length_c   13.79544900
_cell_angle_alpha   90.00000000
_cell_angle_beta   90.00000000
_cell_angle_gamma   73.32159953
_symmetry_Int_Tables_number   1
_chemical_formula_structural   NaTb2CuS4
_chemical_formula_sum   'Na2 Tb4 Cu2 S8'
_cell_volume   353.38753877
_cell_formula_units_Z   2
loop_
 _symmetry_equiv_pos_site_id
 _symmetry_equiv_pos_as_xyz
  1  'x, y, z'
loop_
 _atom_site_type_symbol
 _atom_site_label
 _atom_site_symmetry_multiplicity
 _atom_site_fract_x
 _atom_site_fract_y
 _atom_site_fract_z
 _atom_site_occupancy
  Na  Na0  1  0.890117  0.219765  0.250000  1
  Na  Na1  1  0.109882  0.780236  0.750000  1
  Tb  Tb2  1  0.634662  0.730675  0.066293  1
  Tb  Tb3  1  0.634662  0.730675  0.433707  1
  Tb  Tb4  1  0.365337  0.269326  0.566293  1
  Tb  Tb5  1  0.365337  0.269326  0.933707  1
  Cu  Cu6  1  0.160239  0.679522  0.250000  1
  Cu  Cu7  1  0.839760  0.320478  0.750000  1
  S  S8  1  0.000000  0.000000  0.000000  1
  S  S9  1  0.269682  0.460635  0.115571  1
  S  S10  1  0.557771  0.884457  0.250000  1
  S  S11  1  0.269682  0.460635  0.384429  1
  S  S12  1  0.000000  0.000000  0.500000  1
  S  S13  1  0.730317  0.539365  0.615571  1
  S  S14  1  0.442228  0.115543  0.750000  1
  S  S15  1  0.730317  0.539365  0.884429  1
