# generated using pymatgen
data_Pr14Ho5ErSn16
_symmetry_space_group_name_H-M   'P 1'
_cell_length_a   8.18368510
_cell_length_b   8.42387712
_cell_length_c   15.99863500
_cell_angle_alpha   90.24506893
_cell_angle_beta   89.99121347
_cell_angle_gamma   89.99298433
_symmetry_Int_Tables_number   1
_chemical_formula_structural   Pr14Ho5ErSn16
_chemical_formula_sum   'Pr14 Ho5 Er1 Sn16'
_cell_volume   1102.90951125
_cell_formula_units_Z   1
loop_
 _symmetry_equiv_pos_site_id
 _symmetry_equiv_pos_as_xyz
  1  'x, y, z'
loop_
 _atom_site_type_symbol
 _atom_site_label
 _atom_site_symmetry_multiplicity
 _atom_site_fract_x
 _atom_site_fract_y
 _atom_site_fract_z
 _atom_site_occupancy
  Pr  Pr0  1  0.350788  0.834149  0.120108  1
  Pr  Pr1  1  0.849092  0.665434  0.380101  1
  Pr  Pr2  1  0.350266  0.833371  0.377290  1
  Pr  Pr3  1  0.848897  0.665291  0.122726  1
  Pr  Pr4  1  0.648307  0.166407  0.877155  1
  Pr  Pr5  1  0.149336  0.336974  0.622092  1
  Pr  Pr6  1  0.492076  0.679875  0.598779  1
  Pr  Pr7  1  0.992201  0.821633  0.901037  1
  Pr  Pr8  1  0.505335  0.316117  0.096128  1
  Pr  Pr9  1  0.004079  0.180635  0.404364  1
  Pr  Pr10  1  0.507007  0.317050  0.404639  1
  Pr  Pr11  1  0.005612  0.180142  0.094681  1
  Pr  Pr12  1  0.493452  0.680442  0.901416  1
  Pr  Pr13  1  0.993209  0.820911  0.599274  1
  Ho  Ho14  1  0.652106  0.166250  0.628751  1
  Ho  Ho15  1  0.152758  0.336276  0.872530  1
  Ho  Ho16  1  0.818320  0.500558  0.749315  1
  Ho  Ho17  1  0.318505  0.001635  0.750934  1
  Ho  Ho18  1  0.181326  0.498830  0.249150  1
  Er  Er19  1  0.682335  0.000865  0.250145  1
  Sn  Sn20  1  0.688176  0.966192  0.464326  1
  Sn  Sn21  1  0.189403  0.531455  0.038017  1
  Sn  Sn22  1  0.301286  0.042499  0.954890  1
  Sn  Sn23  1  0.800780  0.458179  0.545293  1
  Sn  Sn24  1  0.321433  0.038512  0.544726  1
  Sn  Sn25  1  0.821012  0.463498  0.954993  1
  Sn  Sn26  1  0.693592  0.962716  0.041563  1
  Sn  Sn27  1  0.193020  0.533237  0.455177  1
  Sn  Sn28  1  0.454192  0.384499  0.751061  1
  Sn  Sn29  1  0.955354  0.119052  0.749014  1
  Sn  Sn30  1  0.545700  0.611500  0.249423  1
  Sn  Sn31  1  0.045978  0.885062  0.250858  1
  Sn  Sn32  1  0.687190  0.854286  0.749292  1
  Sn  Sn33  1  0.187445  0.647359  0.750826  1
  Sn  Sn34  1  0.308686  0.147025  0.249473  1
  Sn  Sn35  1  0.811743  0.352082  0.250457  1
