# generated using pymatgen
data_Pr16CdHg3Pt4
_symmetry_space_group_name_H-M   'P 1'
_cell_length_a   10.06794206
_cell_length_b   10.08227062
_cell_length_c   10.08227100
_cell_angle_alpha   59.99999546
_cell_angle_beta   59.95290566
_cell_angle_gamma   59.95290377
_symmetry_Int_Tables_number   1
_chemical_formula_structural   Pr16CdHg3Pt4
_chemical_formula_sum   'Pr16 Cd1 Hg3 Pt4'
_cell_volume   723.15749901
_cell_formula_units_Z   1
loop_
 _symmetry_equiv_pos_site_id
 _symmetry_equiv_pos_as_xyz
  1  'x, y, z'
loop_
 _atom_site_type_symbol
 _atom_site_label
 _atom_site_symmetry_multiplicity
 _atom_site_fract_x
 _atom_site_fract_y
 _atom_site_fract_z
 _atom_site_occupancy
  Pr  Pr0  1  0.351782  0.351288  0.351288  1
  Pr  Pr1  1  0.351782  0.351288  0.945642  1
  Pr  Pr2  1  0.351782  0.945642  0.351288  1
  Pr  Pr3  1  0.943480  0.352173  0.352173  1
  Pr  Pr4  1  0.807481  0.192486  0.192486  1
  Pr  Pr5  1  0.191152  0.808365  0.808365  1
  Pr  Pr6  1  0.191152  0.808365  0.192118  1
  Pr  Pr7  1  0.807481  0.192486  0.807547  1
  Pr  Pr8  1  0.191152  0.192118  0.808365  1
  Pr  Pr9  1  0.807481  0.807547  0.192486  1
  Pr  Pr10  1  0.935790  0.563657  0.563657  1
  Pr  Pr11  1  0.562813  0.936919  0.936919  1
  Pr  Pr12  1  0.562813  0.936919  0.563348  1
  Pr  Pr13  1  0.935790  0.563657  0.936895  1
  Pr  Pr14  1  0.562813  0.563348  0.936919  1
  Pr  Pr15  1  0.935790  0.936895  0.563657  1
  Cd  Cd16  1  0.259894  0.580035  0.580035  1
  Hg  Hg17  1  0.583174  0.585486  0.585486  1
  Hg  Hg18  1  0.583174  0.585486  0.245852  1
  Hg  Hg19  1  0.583174  0.245852  0.585486  1
  Pt  Pt20  1  0.143300  0.143384  0.143384  1
  Pt  Pt21  1  0.143300  0.143384  0.569932  1
  Pt  Pt22  1  0.143300  0.569932  0.143384  1
  Pt  Pt23  1  0.570151  0.143283  0.143283  1
