# generated using pymatgen
data_NaPr6RuBr12
_symmetry_space_group_name_H-M   'P 1'
_cell_length_a   9.61671641
_cell_length_b   9.61067560
_cell_length_c   9.60811334
_cell_angle_alpha   107.28477204
_cell_angle_beta   107.04295635
_cell_angle_gamma   107.10209760
_symmetry_Int_Tables_number   1
_chemical_formula_structural   NaPr6RuBr12
_chemical_formula_sum   'Na1 Pr6 Ru1 Br12'
_cell_volume   736.63261264
_cell_formula_units_Z   1
loop_
 _symmetry_equiv_pos_site_id
 _symmetry_equiv_pos_as_xyz
  1  'x, y, z'
loop_
 _atom_site_type_symbol
 _atom_site_label
 _atom_site_symmetry_multiplicity
 _atom_site_fract_x
 _atom_site_fract_y
 _atom_site_fract_z
 _atom_site_occupancy
  Na  Na0  1  0.500000  0.500000  0.500000  1
  Pr  Pr1  1  0.113864  0.321325  0.031409  1
  Pr  Pr2  1  0.321818  0.031029  0.114302  1
  Pr  Pr3  1  0.030815  0.112204  0.317894  1
  Pr  Pr4  1  0.969186  0.887796  0.682107  1
  Pr  Pr5  1  0.678182  0.968972  0.885698  1
  Pr  Pr6  1  0.886136  0.678675  0.968591  1
  Ru  Ru7  1  0.000000  0.000000  0.000000  1
  Br  Br8  1  0.216400  0.683100  0.071968  1
  Br  Br9  1  0.455759  0.373411  0.156881  1
  Br  Br10  1  0.683910  0.073239  0.216533  1
  Br  Br11  1  0.927311  0.782921  0.316603  1
  Br  Br12  1  0.156587  0.455849  0.373740  1
  Br  Br13  1  0.373346  0.156822  0.455945  1
  Br  Br14  1  0.626654  0.843178  0.544056  1
  Br  Br15  1  0.843414  0.544151  0.626260  1
  Br  Br16  1  0.072690  0.217079  0.683398  1
  Br  Br17  1  0.316091  0.926762  0.783467  1
  Br  Br18  1  0.544241  0.626589  0.843120  1
  Br  Br19  1  0.783600  0.316900  0.928032  1
