# generated using pymatgen
data_Tb4SiCl6
_symmetry_space_group_name_H-M   'P 1'
_cell_length_a   3.97854800
_cell_length_b   12.83296800
_cell_length_c   13.63535600
_cell_angle_alpha   90.00000000
_cell_angle_beta   90.00000000
_cell_angle_gamma   90.00000000
_symmetry_Int_Tables_number   1
_chemical_formula_structural   Tb4SiCl6
_chemical_formula_sum   'Tb8 Si2 Cl12'
_cell_volume   696.17463313
_cell_formula_units_Z   2
loop_
 _symmetry_equiv_pos_site_id
 _symmetry_equiv_pos_as_xyz
  1  'x, y, z'
loop_
 _atom_site_type_symbol
 _atom_site_label
 _atom_site_symmetry_multiplicity
 _atom_site_fract_x
 _atom_site_fract_y
 _atom_site_fract_z
 _atom_site_occupancy
  Tb  Tb0  1  0.500000  0.120833  0.337287  1
  Tb  Tb1  1  0.500000  0.879167  0.662713  1
  Tb  Tb2  1  0.500000  0.620833  0.162713  1
  Tb  Tb3  1  0.500000  0.379167  0.837287  1
  Tb  Tb4  1  0.000000  0.123543  0.581183  1
  Tb  Tb5  1  0.000000  0.876457  0.418817  1
  Tb  Tb6  1  0.000000  0.623543  0.918817  1
  Tb  Tb7  1  0.000000  0.376457  0.081183  1
  Si  Si8  1  0.500000  0.000000  0.500000  1
  Si  Si9  1  0.500000  0.500000  0.000000  1
  Cl  Cl10  1  0.500000  0.244758  0.163935  1
  Cl  Cl11  1  0.500000  0.755242  0.836065  1
  Cl  Cl12  1  0.500000  0.744758  0.336065  1
  Cl  Cl13  1  0.500000  0.255242  0.663935  1
  Cl  Cl14  1  0.000000  0.250111  0.407806  1
  Cl  Cl15  1  0.000000  0.749889  0.592194  1
  Cl  Cl16  1  0.000000  0.750111  0.092194  1
  Cl  Cl17  1  0.000000  0.249889  0.907806  1
  Cl  Cl18  1  0.000000  0.005899  0.247786  1
  Cl  Cl19  1  0.000000  0.994101  0.752214  1
  Cl  Cl20  1  0.000000  0.505899  0.252214  1
  Cl  Cl21  1  0.000000  0.494101  0.747786  1
