# generated using pymatgen
data_Ho2ErGa2Si3
_symmetry_space_group_name_H-M   'P 1'
_cell_length_a   5.88941134
_cell_length_b   5.88941188
_cell_length_c   9.35184800
_cell_angle_alpha   90.00000000
_cell_angle_beta   90.00000000
_cell_angle_gamma   102.71799723
_symmetry_Int_Tables_number   1
_chemical_formula_structural   Ho2ErGa2Si3
_chemical_formula_sum   'Ho4 Er2 Ga4 Si6'
_cell_volume   316.41214350
_cell_formula_units_Z   2
loop_
 _symmetry_equiv_pos_site_id
 _symmetry_equiv_pos_as_xyz
  1  'x, y, z'
loop_
 _atom_site_type_symbol
 _atom_site_label
 _atom_site_symmetry_multiplicity
 _atom_site_fract_x
 _atom_site_fract_y
 _atom_site_fract_z
 _atom_site_occupancy
  Ho  Ho0  1  0.801668  0.198332  0.000000  1
  Ho  Ho1  1  0.198332  0.801668  0.000000  1
  Ho  Ho2  1  0.198332  0.801668  0.500000  1
  Ho  Ho3  1  0.801668  0.198332  0.500000  1
  Er  Er4  1  0.659675  0.659675  0.250000  1
  Er  Er5  1  0.340325  0.340325  0.750000  1
  Ga  Ga6  1  0.321584  0.321584  0.053515  1
  Ga  Ga7  1  0.678416  0.678416  0.946485  1
  Ga  Ga8  1  0.678416  0.678416  0.553515  1
  Ga  Ga9  1  0.321584  0.321584  0.446485  1
  Si  Si10  1  0.093941  0.487431  0.250000  1
  Si  Si11  1  0.906059  0.512569  0.750000  1
  Si  Si12  1  0.487431  0.093941  0.250000  1
  Si  Si13  1  0.512569  0.906059  0.750000  1
  Si  Si14  1  0.053810  0.053810  0.250000  1
  Si  Si15  1  0.946190  0.946190  0.750000  1
