# generated using pymatgen
data_TaBe4Nb4Sn
_symmetry_space_group_name_H-M   'P 1'
_cell_length_a   6.45724300
_cell_length_b   6.45724300
_cell_length_c   3.47913300
_cell_angle_alpha   90.00000000
_cell_angle_beta   90.00000000
_cell_angle_gamma   90.00000000
_symmetry_Int_Tables_number   1
_chemical_formula_structural   TaBe4Nb4Sn
_chemical_formula_sum   'Ta1 Be4 Nb4 Sn1'
_cell_volume   145.06588490
_cell_formula_units_Z   1
loop_
 _symmetry_equiv_pos_site_id
 _symmetry_equiv_pos_as_xyz
  1  'x, y, z'
loop_
 _atom_site_type_symbol
 _atom_site_label
 _atom_site_symmetry_multiplicity
 _atom_site_fract_x
 _atom_site_fract_y
 _atom_site_fract_z
 _atom_site_occupancy
  Ta  Ta0  1  0.000000  0.000000  0.000000  1
  Be  Be1  1  0.111049  0.618275  0.000000  1
  Be  Be2  1  0.888951  0.381725  0.000000  1
  Be  Be3  1  0.618275  0.888951  0.000000  1
  Be  Be4  1  0.381725  0.111049  0.000000  1
  Nb  Nb5  1  0.681562  0.169505  0.500000  1
  Nb  Nb6  1  0.318438  0.830495  0.500000  1
  Nb  Nb7  1  0.169505  0.318438  0.500000  1
  Nb  Nb8  1  0.830495  0.681562  0.500000  1
  Sn  Sn9  1  0.500000  0.500000  0.000000  1
