# generated using pymatgen
data_YBe12Cu
_symmetry_space_group_name_H-M   'P 1'
_cell_length_a   7.28877660
_cell_length_b   7.33506358
_cell_length_c   7.27195739
_cell_angle_alpha   59.86472625
_cell_angle_beta   59.83285144
_cell_angle_gamma   59.63773325
_symmetry_Int_Tables_number   1
_chemical_formula_structural   YBe12Cu
_chemical_formula_sum   'Y2 Be24 Cu2'
_cell_volume   273.52729356
_cell_formula_units_Z   2
loop_
 _symmetry_equiv_pos_site_id
 _symmetry_equiv_pos_as_xyz
  1  'x, y, z'
loop_
 _atom_site_type_symbol
 _atom_site_label
 _atom_site_symmetry_multiplicity
 _atom_site_fract_x
 _atom_site_fract_y
 _atom_site_fract_z
 _atom_site_occupancy
  Y  Y0  1  0.253156  0.246844  0.253156  1
  Y  Y1  1  0.746844  0.753156  0.746844  1
  Be  Be2  1  0.500000  0.500000  0.500000  1
  Be  Be3  1  0.000000  0.000000  0.000000  1
  Be  Be4  1  0.564829  0.793657  0.435171  1
  Be  Be5  1  0.435171  0.206343  0.564829  1
  Be  Be6  1  0.289149  0.935636  0.710851  1
  Be  Be7  1  0.710851  0.064364  0.289149  1
  Be  Be8  1  0.931415  0.278538  0.068585  1
  Be  Be9  1  0.068585  0.721462  0.931415  1
  Be  Be10  1  0.207960  0.799553  0.557582  1
  Be  Be11  1  0.792040  0.200447  0.442418  1
  Be  Be12  1  0.442418  0.565095  0.792040  1
  Be  Be13  1  0.557582  0.434905  0.207960  1
  Be  Be14  1  0.711878  0.286192  0.936202  1
  Be  Be15  1  0.288122  0.713808  0.063798  1
  Be  Be16  1  0.063798  0.934272  0.288122  1
  Be  Be17  1  0.936202  0.065728  0.711878  1
  Be  Be18  1  0.566148  0.206767  0.791295  1
  Be  Be19  1  0.433852  0.793233  0.208705  1
  Be  Be20  1  0.791295  0.435791  0.566148  1
  Be  Be21  1  0.208705  0.564209  0.433852  1
  Be  Be22  1  0.936062  0.713128  0.290746  1
  Be  Be23  1  0.063938  0.286872  0.709254  1
  Be  Be24  1  0.290746  0.060064  0.936062  1
  Be  Be25  1  0.709254  0.939936  0.063938  1
  Cu  Cu26  1  0.803663  0.557536  0.196337  1
  Cu  Cu27  1  0.196337  0.442464  0.803663  1
