# generated using pymatgen
data_Li2Pr8Ho9ScSi15Ge
_symmetry_space_group_name_H-M   'P 1'
_cell_length_a   7.34363500
_cell_length_b   7.76202173
_cell_length_c   14.79259700
_cell_angle_alpha   90.00000000
_cell_angle_beta   90.00000000
_cell_angle_gamma   89.95196823
_symmetry_Int_Tables_number   1
_chemical_formula_structural   Li2Pr8Ho9ScSi15Ge
_chemical_formula_sum   'Li2 Pr8 Ho9 Sc1 Si15 Ge1'
_cell_volume   843.19924749
_cell_formula_units_Z   1
loop_
 _symmetry_equiv_pos_site_id
 _symmetry_equiv_pos_as_xyz
  1  'x, y, z'
loop_
 _atom_site_type_symbol
 _atom_site_label
 _atom_site_symmetry_multiplicity
 _atom_site_fract_x
 _atom_site_fract_y
 _atom_site_fract_z
 _atom_site_occupancy
  Li  Li0  1  0.655627  0.990217  0.750071  1
  Li  Li1  1  0.845205  0.491686  0.250049  1
  Pr  Pr2  1  0.014276  0.187285  0.399385  1
  Pr  Pr3  1  0.525793  0.324539  0.398187  1
  Pr  Pr4  1  0.485039  0.686752  0.898100  1
  Pr  Pr5  1  0.486271  0.687427  0.602118  1
  Pr  Pr6  1  0.975058  0.824595  0.602784  1
  Pr  Pr7  1  0.975684  0.823895  0.897312  1
  Pr  Pr8  1  0.525563  0.324970  0.101518  1
  Pr  Pr9  1  0.014846  0.187822  0.100208  1
  Ho  Ho10  1  0.332695  0.172589  0.625844  1
  Ho  Ho11  1  0.679131  0.811707  0.374355  1
  Ho  Ho12  1  0.166972  0.673620  0.376057  1
  Ho  Ho13  1  0.821129  0.311823  0.873037  1
  Ho  Ho14  1  0.820162  0.311853  0.626948  1
  Ho  Ho15  1  0.344818  0.007445  0.249944  1
  Ho  Ho16  1  0.331569  0.174294  0.874718  1
  Ho  Ho17  1  0.167689  0.673241  0.123643  1
  Ho  Ho18  1  0.679469  0.811200  0.125381  1
  Sc  Sc19  1  0.154375  0.506613  0.751051  1
  Si  Si20  1  0.270413  0.875839  0.750091  1
  Si  Si21  1  0.465535  0.607933  0.249982  1
  Si  Si22  1  0.034759  0.107536  0.749968  1
  Si  Si23  1  0.521154  0.402903  0.750000  1
  Si  Si24  1  0.972515  0.897901  0.249885  1
  Si  Si25  1  0.723505  0.111659  0.249856  1
  Si  Si26  1  0.849363  0.536349  0.028215  1
  Si  Si27  1  0.351435  0.968702  0.040370  1
  Si  Si28  1  0.148273  0.469957  0.956093  1
  Si  Si29  1  0.650724  0.036291  0.530041  1
  Si  Si30  1  0.351234  0.968734  0.459562  1
  Si  Si31  1  0.844901  0.537241  0.470999  1
  Si  Si32  1  0.783836  0.609279  0.749914  1
  Si  Si33  1  0.226652  0.381405  0.250010  1
  Si  Si34  1  0.650640  0.036182  0.969814  1
  Ge  Ge35  1  0.153690  0.468511  0.544490  1
