# generated using pymatgen
data_Th14IrOs4Ru
_symmetry_space_group_name_H-M   'P 1'
_cell_length_a   10.04502377
_cell_length_b   10.02574414
_cell_length_c   6.35291789
_cell_angle_alpha   90.05963504
_cell_angle_beta   89.83331697
_cell_angle_gamma   120.09288946
_symmetry_Int_Tables_number   1
_chemical_formula_structural   Th14IrOs4Ru
_chemical_formula_sum   'Th14 Ir1 Os4 Ru1'
_cell_volume   553.55694439
_cell_formula_units_Z   1
loop_
 _symmetry_equiv_pos_site_id
 _symmetry_equiv_pos_as_xyz
  1  'x, y, z'
loop_
 _atom_site_type_symbol
 _atom_site_label
 _atom_site_symmetry_multiplicity
 _atom_site_fract_x
 _atom_site_fract_y
 _atom_site_fract_z
 _atom_site_occupancy
  Th  Th0  1  0.461732  0.540617  0.298804  1
  Th  Th1  1  0.079855  0.542849  0.298665  1
  Th  Th2  1  0.919317  0.459593  0.799348  1
  Th  Th3  1  0.254245  0.124373  0.502599  1
  Th  Th4  1  0.541298  0.080177  0.799725  1
  Th  Th5  1  0.748036  0.874506  0.003769  1
  Th  Th6  1  0.666600  0.333753  0.285311  1
  Th  Th7  1  0.126530  0.874411  0.001770  1
  Th  Th8  1  0.458415  0.919068  0.299623  1
  Th  Th9  1  0.541287  0.460846  0.799552  1
  Th  Th10  1  0.870706  0.124945  0.501995  1
  Th  Th11  1  0.125559  0.251526  0.003956  1
  Th  Th12  1  0.874536  0.748107  0.502920  1
  Th  Th13  1  0.334380  0.668028  0.788712  1
  Ir  Ir14  1  0.186451  0.374695  0.549500  1
  Os  Os15  1  0.813961  0.625655  0.050618  1
  Os  Os16  1  0.813435  0.188178  0.051239  1
  Os  Os17  1  0.623689  0.811422  0.550380  1
  Os  Os18  1  0.373906  0.186748  0.049095  1
  Ru  Ru19  1  0.186059  0.810504  0.546414  1
