# generated using pymatgen
data_Dy13Ho7Co3Bi8Ru
_symmetry_space_group_name_H-M   'P 1'
_cell_length_a   7.97418291
_cell_length_b   8.91262616
_cell_length_c   12.41394153
_cell_angle_alpha   89.98463941
_cell_angle_beta   90.21749488
_cell_angle_gamma   90.01501430
_symmetry_Int_Tables_number   1
_chemical_formula_structural   Dy13Ho7Co3Bi8Ru
_chemical_formula_sum   'Dy13 Ho7 Co3 Bi8 Ru1'
_cell_volume   882.26371808
_cell_formula_units_Z   1
loop_
 _symmetry_equiv_pos_site_id
 _symmetry_equiv_pos_as_xyz
  1  'x, y, z'
loop_
 _atom_site_type_symbol
 _atom_site_label
 _atom_site_symmetry_multiplicity
 _atom_site_fract_x
 _atom_site_fract_y
 _atom_site_fract_z
 _atom_site_occupancy
  Dy  Dy0  1  0.847036  0.750101  0.800330  1
  Dy  Dy1  1  0.151970  0.249942  0.198420  1
  Dy  Dy2  1  0.348072  0.249954  0.699096  1
  Dy  Dy3  1  0.653532  0.750021  0.296239  1
  Dy  Dy4  1  0.379134  0.749992  0.692718  1
  Dy  Dy5  1  0.618067  0.249999  0.310747  1
  Dy  Dy6  1  0.881136  0.249868  0.811386  1
  Dy  Dy7  1  0.117648  0.750207  0.187036  1
  Dy  Dy8  1  0.949036  0.750010  0.503735  1
  Dy  Dy9  1  0.050817  0.250004  0.496892  1
  Dy  Dy10  1  0.450908  0.249866  0.997296  1
  Dy  Dy11  1  0.549799  0.750099  0.002510  1
  Dy  Dy12  1  0.175441  0.534731  0.936916  1
  Ho  Ho13  1  0.676161  0.042692  0.564613  1
  Ho  Ho14  1  0.325068  0.965312  0.436430  1
  Ho  Ho15  1  0.174324  0.965290  0.937009  1
  Ho  Ho16  1  0.325050  0.534666  0.436456  1
  Ho  Ho17  1  0.824822  0.036931  0.063052  1
  Ho  Ho18  1  0.676161  0.457328  0.564622  1
  Ho  Ho19  1  0.824402  0.463105  0.063154  1
  Co  Co20  1  0.433987  0.249994  0.491006  1
  Co  Co21  1  0.060601  0.249682  0.992274  1
  Co  Co22  1  0.936788  0.750359  0.007243  1
  Bi  Bi23  1  0.570945  0.491514  0.826749  1
  Bi  Bi24  1  0.428706  0.508010  0.173340  1
  Bi  Bi25  1  0.070751  0.507743  0.674168  1
  Bi  Bi26  1  0.428765  0.991977  0.173313  1
  Bi  Bi27  1  0.930565  0.492179  0.325987  1
  Bi  Bi28  1  0.570569  0.008425  0.826851  1
  Bi  Bi29  1  0.930583  0.007788  0.326002  1
  Bi  Bi30  1  0.070834  0.992216  0.674344  1
  Ru  Ru31  1  0.568324  0.749996  0.510065  1
