# generated using pymatgen
data_Er16Zr3ScIr12
_symmetry_space_group_name_H-M   'P 1'
_cell_length_a   10.76039400
_cell_length_b   10.76039400
_cell_length_c   6.23407400
_cell_angle_alpha   90.00000000
_cell_angle_beta   90.00000000
_cell_angle_gamma   90.00000000
_symmetry_Int_Tables_number   1
_chemical_formula_structural   Er16Zr3ScIr12
_chemical_formula_sum   'Er16 Zr3 Sc1 Ir12'
_cell_volume   721.81898488
_cell_formula_units_Z   1
loop_
 _symmetry_equiv_pos_site_id
 _symmetry_equiv_pos_as_xyz
  1  'x, y, z'
loop_
 _atom_site_type_symbol
 _atom_site_label
 _atom_site_symmetry_multiplicity
 _atom_site_fract_x
 _atom_site_fract_y
 _atom_site_fract_z
 _atom_site_occupancy
  Er  Er0  1  0.290018  0.086088  0.375273  1
  Er  Er1  1  0.289773  0.913463  0.875543  1
  Er  Er2  1  0.710227  0.086537  0.875543  1
  Er  Er3  1  0.709982  0.913912  0.375273  1
  Er  Er4  1  0.586428  0.789538  0.876513  1
  Er  Er5  1  0.585786  0.211247  0.375839  1
  Er  Er6  1  0.414214  0.788753  0.375839  1
  Er  Er7  1  0.413572  0.210462  0.876513  1
  Er  Er8  1  0.211247  0.414214  0.624161  1
  Er  Er9  1  0.210462  0.586428  0.123487  1
  Er  Er10  1  0.789538  0.413572  0.123487  1
  Er  Er11  1  0.788753  0.585786  0.624161  1
  Er  Er12  1  0.913463  0.710227  0.124457  1
  Er  Er13  1  0.913912  0.290018  0.624727  1
  Er  Er14  1  0.086088  0.709982  0.624727  1
  Er  Er15  1  0.086537  0.289773  0.124457  1
  Zr  Zr16  1  0.000000  0.000000  0.500000  1
  Zr  Zr17  1  0.000000  0.000000  0.000000  1
  Zr  Zr18  1  0.500000  0.500000  0.000000  1
  Sc  Sc19  1  0.500000  0.500000  0.500000  1
  Ir  Ir20  1  0.853233  0.146772  0.250520  1
  Ir  Ir21  1  0.853228  0.853233  0.749480  1
  Ir  Ir22  1  0.146772  0.146767  0.749480  1
  Ir  Ir23  1  0.146767  0.853228  0.250520  1
  Ir  Ir24  1  0.647286  0.352283  0.752192  1
  Ir  Ir25  1  0.647717  0.647286  0.247808  1
  Ir  Ir26  1  0.352283  0.352714  0.247808  1
  Ir  Ir27  1  0.352714  0.647717  0.752192  1
  Ir  Ir28  1  0.500000  0.000000  0.122910  1
  Ir  Ir29  1  0.500000  0.000000  0.622591  1
  Ir  Ir30  1  0.000000  0.500000  0.877090  1
  Ir  Ir31  1  0.000000  0.500000  0.377409  1
