# generated using pymatgen
data_Hf4Zr2Zn16Cu7Si
_symmetry_space_group_name_H-M   'P 1'
_cell_length_a   8.62361249
_cell_length_b   8.62361168
_cell_length_c   8.63693400
_cell_angle_alpha   59.94888309
_cell_angle_beta   59.94888620
_cell_angle_gamma   60.10223388
_symmetry_Int_Tables_number   1
_chemical_formula_structural   Hf4Zr2Zn16Cu7Si
_chemical_formula_sum   'Hf4 Zr2 Zn16 Cu7 Si1'
_cell_volume   454.17263387
_cell_formula_units_Z   1
loop_
 _symmetry_equiv_pos_site_id
 _symmetry_equiv_pos_as_xyz
  1  'x, y, z'
loop_
 _atom_site_type_symbol
 _atom_site_label
 _atom_site_symmetry_multiplicity
 _atom_site_fract_x
 _atom_site_fract_y
 _atom_site_fract_z
 _atom_site_occupancy
  Hf  Hf0  1  0.710546  0.289454  0.289454  1
  Hf  Hf1  1  0.289454  0.710546  0.710546  1
  Hf  Hf2  1  0.289454  0.710546  0.289454  1
  Hf  Hf3  1  0.710546  0.289454  0.710546  1
  Zr  Zr4  1  0.288787  0.288787  0.711213  1
  Zr  Zr5  1  0.711213  0.711213  0.288787  1
  Zn  Zn6  1  0.121261  0.121261  0.123012  1
  Zn  Zn7  1  0.878739  0.878739  0.876988  1
  Zn  Zn8  1  0.121261  0.121261  0.634467  1
  Zn  Zn9  1  0.123012  0.634467  0.121261  1
  Zn  Zn10  1  0.878739  0.878739  0.365533  1
  Zn  Zn11  1  0.876988  0.365533  0.878739  1
  Zn  Zn12  1  0.634467  0.123012  0.121261  1
  Zn  Zn13  1  0.365533  0.876988  0.878739  1
  Zn  Zn14  1  0.336328  0.336328  0.335622  1
  Zn  Zn15  1  0.663672  0.663672  0.664378  1
  Zn  Zn16  1  0.336328  0.336328  0.991721  1
  Zn  Zn17  1  0.335622  0.991721  0.336328  1
  Zn  Zn18  1  0.663672  0.663672  0.008279  1
  Zn  Zn19  1  0.664378  0.008279  0.663672  1
  Zn  Zn20  1  0.991721  0.335622  0.336328  1
  Zn  Zn21  1  0.008279  0.664378  0.663672  1
  Cu  Cu22  1  0.500000  0.000000  0.000000  1
  Cu  Cu23  1  0.000000  0.500000  0.500000  1
  Cu  Cu24  1  0.000000  0.500000  0.000000  1
  Cu  Cu25  1  0.500000  0.000000  0.500000  1
  Cu  Cu26  1  0.000000  0.000000  0.500000  1
  Cu  Cu27  1  0.500000  0.500000  0.000000  1
  Cu  Cu28  1  0.000000  0.000000  0.000000  1
  Si  Si29  1  0.500000  0.500000  0.500000  1
