# generated using pymatgen
data_Nd6RhCl11
_symmetry_space_group_name_H-M   'P 1'
_cell_length_a   8.28577284
_cell_length_b   8.28577258
_cell_length_c   7.38205900
_cell_angle_alpha   87.08463312
_cell_angle_beta   87.08463322
_cell_angle_gamma   101.33835766
_symmetry_Int_Tables_number   1
_chemical_formula_structural   Nd6RhCl11
_chemical_formula_sum   'Nd6 Rh1 Cl11'
_cell_volume   495.31427061
_cell_formula_units_Z   1
loop_
 _symmetry_equiv_pos_site_id
 _symmetry_equiv_pos_as_xyz
  1  'x, y, z'
loop_
 _atom_site_type_symbol
 _atom_site_label
 _atom_site_symmetry_multiplicity
 _atom_site_fract_x
 _atom_site_fract_y
 _atom_site_fract_z
 _atom_site_occupancy
  Nd  Nd0  1  0.708472  0.017808  0.772057  1
  Nd  Nd1  1  0.191533  0.191533  0.761398  1
  Nd  Nd2  1  0.982192  0.291528  0.227943  1
  Nd  Nd3  1  0.017808  0.708472  0.772057  1
  Nd  Nd4  1  0.808467  0.808467  0.238602  1
  Nd  Nd5  1  0.291528  0.982192  0.227943  1
  Rh  Rh6  1  0.000000  0.000000  0.000000  1
  Cl  Cl7  1  0.000000  0.000000  0.500000  1
  Cl  Cl8  1  0.662255  0.093939  0.364680  1
  Cl  Cl9  1  0.488638  0.200963  0.942226  1
  Cl  Cl10  1  0.302764  0.302764  0.364901  1
  Cl  Cl11  1  0.906061  0.337745  0.635320  1
  Cl  Cl12  1  0.200963  0.488638  0.942226  1
  Cl  Cl13  1  0.799037  0.511362  0.057774  1
  Cl  Cl14  1  0.093939  0.662255  0.364680  1
  Cl  Cl15  1  0.697236  0.697236  0.635099  1
  Cl  Cl16  1  0.511362  0.799037  0.057774  1
  Cl  Cl17  1  0.337745  0.906061  0.635320  1
