# generated using pymatgen
data_Sm2Th2(Al8Pd3)3
_symmetry_space_group_name_H-M   'P 1'
_cell_length_a   7.62378997
_cell_length_b   7.64310326
_cell_length_c   13.32271100
_cell_angle_alpha   84.54157749
_cell_angle_beta   79.15043166
_cell_angle_gamma   59.89714070
_symmetry_Int_Tables_number   1
_chemical_formula_structural   Sm2Th2(Al8Pd3)3
_chemical_formula_sum   'Sm2 Th2 Al24 Pd9'
_cell_volume   659.59800058
_cell_formula_units_Z   1
loop_
 _symmetry_equiv_pos_site_id
 _symmetry_equiv_pos_as_xyz
  1  'x, y, z'
loop_
 _atom_site_type_symbol
 _atom_site_label
 _atom_site_symmetry_multiplicity
 _atom_site_fract_x
 _atom_site_fract_y
 _atom_site_fract_z
 _atom_site_occupancy
  Sm  Sm0  1  0.734177  0.497611  0.808011  1
  Sm  Sm1  1  0.265823  0.502389  0.191989  1
  Th  Th2  1  0.394902  0.168019  0.806541  1
  Th  Th3  1  0.605098  0.831981  0.193459  1
  Al  Al4  1  0.688340  0.832163  0.946078  1
  Al  Al5  1  0.311660  0.167837  0.053922  1
  Al  Al6  1  0.144482  0.834361  0.560228  1
  Al  Al7  1  0.855518  0.165639  0.439772  1
  Al  Al8  1  0.480439  0.166970  0.557946  1
  Al  Al9  1  0.519561  0.833030  0.442054  1
  Al  Al10  1  0.212827  0.167273  0.334844  1
  Al  Al11  1  0.787173  0.832727  0.665156  1
  Al  Al12  1  0.436774  0.510189  0.665539  1
  Al  Al13  1  0.563226  0.489811  0.334461  1
  Al  Al14  1  0.108236  0.158675  0.664111  1
  Al  Al15  1  0.891764  0.841325  0.335889  1
  Al  Al16  1  0.349617  0.503587  0.947104  1
  Al  Al17  1  0.650383  0.496413  0.052896  1
  Al  Al18  1  0.014334  0.165187  0.956615  1
  Al  Al19  1  0.985666  0.834813  0.043385  1
  Al  Al20  1  0.186290  0.501329  0.440780  1
  Al  Al21  1  0.813710  0.498671  0.559220  1
  Al  Al22  1  0.735689  0.164261  0.184499  1
  Al  Al23  1  0.264311  0.835739  0.815501  1
  Al  Al24  1  0.062057  0.634046  0.813895  1
  Al  Al25  1  0.937943  0.365954  0.186105  1
  Al  Al26  1  0.860671  0.038614  0.815216  1
  Al  Al27  1  0.139329  0.961386  0.184784  1
  Pd  Pd28  1  0.121094  0.493368  0.636864  1
  Pd  Pd29  1  0.878906  0.506632  0.363136  1
  Pd  Pd30  1  0.656791  0.170628  0.999610  1
  Pd  Pd31  1  0.343209  0.829372  0.000390  1
  Pd  Pd32  1  0.539561  0.166050  0.362911  1
  Pd  Pd33  1  0.460439  0.833950  0.637089  1
  Pd  Pd34  1  0.778855  0.173933  0.637403  1
  Pd  Pd35  1  0.221145  0.826067  0.362597  1
  Pd  Pd36  1  0.000000  0.500000  0.000000  1
