# generated using pymatgen
data_Nd3Sm3NiCl10
_symmetry_space_group_name_H-M   'P 1'
_cell_length_a   7.27622253
_cell_length_b   9.11578776
_cell_length_c   9.19147753
_cell_angle_alpha   108.54156482
_cell_angle_beta   95.46196372
_cell_angle_gamma   106.28039018
_symmetry_Int_Tables_number   1
_chemical_formula_structural   Nd3Sm3NiCl10
_chemical_formula_sum   'Nd3 Sm3 Ni1 Cl10'
_cell_volume   543.33412531
_cell_formula_units_Z   1
loop_
 _symmetry_equiv_pos_site_id
 _symmetry_equiv_pos_as_xyz
  1  'x, y, z'
loop_
 _atom_site_type_symbol
 _atom_site_label
 _atom_site_symmetry_multiplicity
 _atom_site_fract_x
 _atom_site_fract_y
 _atom_site_fract_z
 _atom_site_occupancy
  Nd  Nd0  1  0.141492  0.056019  0.753023  1
  Nd  Nd1  1  0.857262  0.944609  0.246981  1
  Nd  Nd2  1  0.967628  0.305982  0.100197  1
  Sm  Sm3  1  0.033147  0.698005  0.901631  1
  Sm  Sm4  1  0.360425  0.136502  0.182956  1
  Sm  Sm5  1  0.639539  0.861610  0.816679  1
  Ni  Ni6  1  0.999629  0.000396  0.000075  1
  Cl  Cl7  1  0.550264  0.170385  0.922596  1
  Cl  Cl8  1  0.446550  0.826330  0.075504  1
  Cl  Cl9  1  0.350576  0.446130  0.264879  1
  Cl  Cl10  1  0.657935  0.553987  0.736228  1
  Cl  Cl11  1  0.237397  0.071804  0.440359  1
  Cl  Cl12  1  0.761384  0.925686  0.558926  1
  Cl  Cl13  1  0.774280  0.245961  0.340412  1
  Cl  Cl14  1  0.222574  0.752683  0.662675  1
  Cl  Cl15  1  0.086348  0.369527  0.833436  1
  Cl  Cl16  1  0.913567  0.634386  0.163443  1
