# generated using pymatgen
data_Tb7YbSc11Si16Tc
_symmetry_space_group_name_H-M   'P 1'
_cell_length_a   7.03653900
_cell_length_b   7.37267481
_cell_length_c   13.95590342
_cell_angle_alpha   89.99500083
_cell_angle_beta   89.90883708
_cell_angle_gamma   90.01762282
_symmetry_Int_Tables_number   1
_chemical_formula_structural   Tb7YbSc11Si16Tc
_chemical_formula_sum   'Tb7 Yb1 Sc11 Si16 Tc1'
_cell_volume   724.00499264
_cell_formula_units_Z   1
loop_
 _symmetry_equiv_pos_site_id
 _symmetry_equiv_pos_as_xyz
  1  'x, y, z'
loop_
 _atom_site_type_symbol
 _atom_site_label
 _atom_site_symmetry_multiplicity
 _atom_site_fract_x
 _atom_site_fract_y
 _atom_site_fract_z
 _atom_site_occupancy
  Tb  Tb0  1  0.992435  0.819321  0.899548  1
  Tb  Tb1  1  0.486629  0.671903  0.901356  1
  Tb  Tb2  1  0.992975  0.818972  0.600060  1
  Tb  Tb3  1  0.511509  0.323490  0.095843  1
  Tb  Tb4  1  0.012721  0.176924  0.407522  1
  Tb  Tb5  1  0.512658  0.323621  0.404571  1
  Tb  Tb6  1  0.486632  0.672025  0.598775  1
  Yb  Yb7  1  0.009834  0.174488  0.092141  1
  Sc  Sc8  1  0.842621  0.495305  0.250429  1
  Sc  Sc9  1  0.340767  0.004200  0.249388  1
  Sc  Sc10  1  0.657526  0.997068  0.749923  1
  Sc  Sc11  1  0.325230  0.178277  0.627425  1
  Sc  Sc12  1  0.672441  0.824765  0.374979  1
  Sc  Sc13  1  0.172289  0.674827  0.377216  1
  Sc  Sc14  1  0.673551  0.825619  0.125366  1
  Sc  Sc15  1  0.828467  0.330643  0.628198  1
  Sc  Sc16  1  0.325464  0.178000  0.872401  1
  Sc  Sc17  1  0.828278  0.330311  0.872072  1
  Sc  Sc18  1  0.172684  0.674793  0.123208  1
  Si  Si19  1  0.029364  0.122511  0.750387  1
  Si  Si20  1  0.971278  0.882313  0.251424  1
  Si  Si21  1  0.469469  0.618044  0.250200  1
  Si  Si22  1  0.519803  0.392214  0.750154  1
  Si  Si23  1  0.285639  0.865695  0.749654  1
  Si  Si24  1  0.716718  0.126773  0.251746  1
  Si  Si25  1  0.216880  0.375249  0.251622  1
  Si  Si26  1  0.793998  0.626780  0.749929  1
  Si  Si27  1  0.154597  0.465578  0.547492  1
  Si  Si28  1  0.843475  0.536346  0.463168  1
  Si  Si29  1  0.346644  0.964418  0.463140  1
  Si  Si30  1  0.842594  0.539681  0.035693  1
  Si  Si31  1  0.656725  0.034187  0.540149  1
  Si  Si32  1  0.153914  0.466254  0.950855  1
  Si  Si33  1  0.653395  0.032381  0.958415  1
  Si  Si34  1  0.350323  0.963449  0.036451  1
  Tc  Tc35  1  0.150474  0.493574  0.749102  1
