# generated using pymatgen
data_La3MnAlSe7
_symmetry_space_group_name_H-M   'P 1'
_cell_length_a   10.61267400
_cell_length_b   10.61267325
_cell_length_c   6.52491000
_cell_angle_alpha   90.00000000
_cell_angle_beta   90.00000000
_cell_angle_gamma   119.99999610
_symmetry_Int_Tables_number   1
_chemical_formula_structural   La3MnAlSe7
_chemical_formula_sum   'La6 Mn2 Al2 Se14'
_cell_volume   636.43607900
_cell_formula_units_Z   2
loop_
 _symmetry_equiv_pos_site_id
 _symmetry_equiv_pos_as_xyz
  1  'x, y, z'
loop_
 _atom_site_type_symbol
 _atom_site_label
 _atom_site_symmetry_multiplicity
 _atom_site_fract_x
 _atom_site_fract_y
 _atom_site_fract_z
 _atom_site_occupancy
  La  La0  1  0.771262  0.146635  0.738295  1
  La  La1  1  0.375373  0.228738  0.738295  1
  La  La2  1  0.853365  0.624627  0.738295  1
  La  La3  1  0.228738  0.853365  0.238295  1
  La  La4  1  0.624627  0.771262  0.238295  1
  La  La5  1  0.146635  0.375373  0.238295  1
  Mn  Mn6  1  0.000000  0.000000  0.529756  1
  Mn  Mn7  1  0.000000  0.000000  0.029756  1
  Al  Al8  1  0.666667  0.333333  0.154338  1
  Al  Al9  1  0.333333  0.666667  0.654338  1
  Se  Se10  1  0.857790  0.095704  0.306118  1
  Se  Se11  1  0.237912  0.142210  0.306118  1
  Se  Se12  1  0.904296  0.762088  0.306118  1
  Se  Se13  1  0.142210  0.904296  0.806118  1
  Se  Se14  1  0.762088  0.857790  0.806118  1
  Se  Se15  1  0.095704  0.237912  0.806118  1
  Se  Se16  1  0.905129  0.424068  0.008806  1
  Se  Se17  1  0.518939  0.094871  0.008806  1
  Se  Se18  1  0.575932  0.481061  0.008806  1
  Se  Se19  1  0.094871  0.575932  0.508806  1
  Se  Se20  1  0.481061  0.905129  0.508806  1
  Se  Se21  1  0.424068  0.518939  0.508806  1
  Se  Se22  1  0.666667  0.333333  0.520299  1
  Se  Se23  1  0.333333  0.666667  0.020299  1
