# generated using pymatgen
data_Tm(ThRh2)5
_symmetry_space_group_name_H-M   'P 1'
_cell_length_a   5.95987303
_cell_length_b   5.95987366
_cell_length_c   9.20566400
_cell_angle_alpha   90.00000000
_cell_angle_beta   90.00000000
_cell_angle_gamma   104.07181377
_symmetry_Int_Tables_number   1
_chemical_formula_structural   Tm(ThRh2)5
_chemical_formula_sum   'Tm1 Th5 Rh10'
_cell_volume   317.17373600
_cell_formula_units_Z   1
loop_
 _symmetry_equiv_pos_site_id
 _symmetry_equiv_pos_as_xyz
  1  'x, y, z'
loop_
 _atom_site_type_symbol
 _atom_site_label
 _atom_site_symmetry_multiplicity
 _atom_site_fract_x
 _atom_site_fract_y
 _atom_site_fract_z
 _atom_site_occupancy
  Tm  Tm0  1  0.394421  0.394421  0.250000  1
  Th  Th1  1  0.612662  0.612662  0.750000  1
  Th  Th2  1  0.792899  0.201570  0.495319  1
  Th  Th3  1  0.201570  0.792899  0.004681  1
  Th  Th4  1  0.201570  0.792899  0.495319  1
  Th  Th5  1  0.792899  0.201570  0.004681  1
  Rh  Rh6  1  0.691950  0.691950  0.049814  1
  Rh  Rh7  1  0.691950  0.691950  0.450186  1
  Rh  Rh8  1  0.301820  0.301820  0.956968  1
  Rh  Rh9  1  0.301820  0.301820  0.543032  1
  Rh  Rh10  1  0.504270  0.052075  0.750000  1
  Rh  Rh11  1  0.495448  0.957907  0.250000  1
  Rh  Rh12  1  0.993705  0.993705  0.250000  1
  Rh  Rh13  1  0.013033  0.013033  0.750000  1
  Rh  Rh14  1  0.052075  0.504270  0.750000  1
  Rh  Rh15  1  0.957907  0.495448  0.250000  1
