# generated using pymatgen
data_Tb4Er8TcRu3
_symmetry_space_group_name_H-M   'P 1'
_cell_length_a   6.28744208
_cell_length_b   7.29659722
_cell_length_c   9.14357800
_cell_angle_alpha   90.00000000
_cell_angle_beta   90.00000000
_cell_angle_gamma   90.02401905
_symmetry_Int_Tables_number   1
_chemical_formula_structural   Tb4Er8TcRu3
_chemical_formula_sum   'Tb4 Er8 Tc1 Ru3'
_cell_volume   419.47927282
_cell_formula_units_Z   1
loop_
 _symmetry_equiv_pos_site_id
 _symmetry_equiv_pos_as_xyz
  1  'x, y, z'
loop_
 _atom_site_type_symbol
 _atom_site_label
 _atom_site_symmetry_multiplicity
 _atom_site_fract_x
 _atom_site_fract_y
 _atom_site_fract_z
 _atom_site_occupancy
  Tb  Tb0  1  0.866357  0.540756  0.250000  1
  Tb  Tb1  1  0.629774  0.042397  0.250000  1
  Tb  Tb2  1  0.135691  0.456938  0.750000  1
  Tb  Tb3  1  0.364802  0.957446  0.750000  1
  Er  Er4  1  0.331998  0.675642  0.065433  1
  Er  Er5  1  0.168636  0.176013  0.434853  1
  Er  Er6  1  0.669176  0.324006  0.565313  1
  Er  Er7  1  0.833367  0.824860  0.936136  1
  Er  Er8  1  0.669176  0.324006  0.934687  1
  Er  Er9  1  0.833367  0.824860  0.563864  1
  Er  Er10  1  0.331998  0.675642  0.434567  1
  Er  Er11  1  0.168636  0.176013  0.065147  1
  Tc  Tc12  1  0.039504  0.885981  0.250000  1
  Ru  Ru13  1  0.458715  0.385294  0.250000  1
  Ru  Ru14  1  0.957622  0.115807  0.750000  1
  Ru  Ru15  1  0.541182  0.614338  0.750000  1
