# generated using pymatgen
data_Lu2Fe4Co8P7
_symmetry_space_group_name_H-M   'P 1'
_cell_length_a   3.59416700
_cell_length_b   8.95844756
_cell_length_c   8.94272880
_cell_angle_alpha   120.05224395
_cell_angle_beta   90.00000000
_cell_angle_gamma   90.00000000
_symmetry_Int_Tables_number   1
_chemical_formula_structural   Lu2Fe4Co8P7
_chemical_formula_sum   'Lu2 Fe4 Co8 P7'
_cell_volume   249.23144055
_cell_formula_units_Z   1
loop_
 _symmetry_equiv_pos_site_id
 _symmetry_equiv_pos_as_xyz
  1  'x, y, z'
loop_
 _atom_site_type_symbol
 _atom_site_label
 _atom_site_symmetry_multiplicity
 _atom_site_fract_x
 _atom_site_fract_y
 _atom_site_fract_z
 _atom_site_occupancy
  Lu  Lu0  1  0.000000  0.666313  0.332679  1
  Lu  Lu1  1  0.500000  0.333166  0.666379  1
  Fe  Fe2  1  0.500000  0.615393  0.050320  1
  Fe  Fe3  1  0.500000  0.124902  0.906504  1
  Fe  Fe4  1  0.500000  0.092638  0.217097  1
  Fe  Fe5  1  0.500000  0.783223  0.876435  1
  Co  Co6  1  0.000000  0.369995  0.938440  1
  Co  Co7  1  0.000000  0.061959  0.433529  1
  Co  Co8  1  0.000000  0.567479  0.629214  1
  Co  Co9  1  0.000000  0.882134  0.723346  1
  Co  Co10  1  0.000000  0.276242  0.158941  1
  Co  Co11  1  0.000000  0.842720  0.117781  1
  Co  Co12  1  0.500000  0.949193  0.564007  1
  Co  Co13  1  0.500000  0.435472  0.385695  1
  P  P14  1  0.000000  0.114555  0.703827  1
  P  P15  1  0.000000  0.296019  0.411194  1
  P  P16  1  0.000000  0.588514  0.886257  1
  P  P17  1  0.500000  0.710230  0.596211  1
  P  P18  1  0.500000  0.405040  0.114238  1
  P  P19  1  0.500000  0.884373  0.288165  1
  P  P20  1  0.000000  0.000439  0.999742  1
