# generated using pymatgen
data_Ho7FeSn23Ir5
_symmetry_space_group_name_H-M   'P 1'
_cell_length_a   9.83418074
_cell_length_b   9.83417932
_cell_length_c   10.05522663
_cell_angle_alpha   90.03521836
_cell_angle_beta   89.96478178
_cell_angle_gamma   119.97289357
_symmetry_Int_Tables_number   1
_chemical_formula_structural   Ho7FeSn23Ir5
_chemical_formula_sum   'Ho7 Fe1 Sn23 Ir5'
_cell_volume   842.39785836
_cell_formula_units_Z   1
loop_
 _symmetry_equiv_pos_site_id
 _symmetry_equiv_pos_as_xyz
  1  'x, y, z'
loop_
 _atom_site_type_symbol
 _atom_site_label
 _atom_site_symmetry_multiplicity
 _atom_site_fract_x
 _atom_site_fract_y
 _atom_site_fract_z
 _atom_site_occupancy
  Ho  Ho0  1  0.000709  0.999291  0.999183  1
  Ho  Ho1  1  0.519173  0.480827  0.693501  1
  Ho  Ho2  1  0.518043  0.037629  0.693829  1
  Ho  Ho3  1  0.962371  0.481957  0.693829  1
  Ho  Ho4  1  0.038981  0.519864  0.306413  1
  Ho  Ho5  1  0.480136  0.961019  0.306413  1
  Ho  Ho6  1  0.480793  0.519207  0.306407  1
  Fe  Fe7  1  0.168068  0.831932  0.802074  1
  Sn  Sn8  1  0.666688  0.333312  0.172876  1
  Sn  Sn9  1  0.666860  0.333140  0.876944  1
  Sn  Sn10  1  0.333352  0.666648  0.123325  1
  Sn  Sn11  1  0.352554  0.352579  0.999911  1
  Sn  Sn12  1  0.004911  0.654718  0.994796  1
  Sn  Sn13  1  0.646817  0.999891  0.999951  1
  Sn  Sn14  1  0.647421  0.647446  0.999911  1
  Sn  Sn15  1  0.330558  0.669442  0.824880  1
  Sn  Sn16  1  0.445153  0.222727  0.456903  1
  Sn  Sn17  1  0.221072  0.778928  0.548853  1
  Sn  Sn18  1  0.222496  0.445182  0.543472  1
  Sn  Sn19  1  0.554818  0.777504  0.543472  1
  Sn  Sn20  1  0.119352  0.880648  0.284475  1
  Sn  Sn21  1  0.777273  0.554847  0.456903  1
  Sn  Sn22  1  0.777344  0.222656  0.456775  1
  Sn  Sn23  1  0.345282  0.995089  0.994796  1
  Sn  Sn24  1  0.118995  0.237435  0.284384  1
  Sn  Sn25  1  0.762565  0.881005  0.284384  1
  Sn  Sn26  1  0.234886  0.111440  0.720081  1
  Sn  Sn27  1  0.888560  0.765114  0.720081  1
  Sn  Sn28  1  0.880975  0.119025  0.715505  1
  Sn  Sn29  1  0.999966  0.000034  0.499561  1
  Sn  Sn30  1  0.000109  0.353183  0.999951  1
  Ir  Ir31  1  0.169411  0.336815  0.800889  1
  Ir  Ir32  1  0.663185  0.830589  0.800889  1
  Ir  Ir33  1  0.337963  0.168002  0.197757  1
  Ir  Ir34  1  0.831998  0.662037  0.197757  1
  Ir  Ir35  1  0.831160  0.168840  0.198869  1
