# generated using pymatgen
data_Tb3SmMn2(Co3O10)2
_symmetry_space_group_name_H-M   'P 1'
_cell_length_a   5.70589616
_cell_length_b   7.33520516
_cell_length_c   8.48490147
_cell_angle_alpha   89.89678623
_cell_angle_beta   90.00073510
_cell_angle_gamma   90.02739309
_symmetry_Int_Tables_number   1
_chemical_formula_structural   Tb3SmMn2(Co3O10)2
_chemical_formula_sum   'Tb3 Sm1 Mn2 Co6 O20'
_cell_volume   355.12576189
_cell_formula_units_Z   1
loop_
 _symmetry_equiv_pos_site_id
 _symmetry_equiv_pos_as_xyz
  1  'x, y, z'
loop_
 _atom_site_type_symbol
 _atom_site_label
 _atom_site_symmetry_multiplicity
 _atom_site_fract_x
 _atom_site_fract_y
 _atom_site_fract_z
 _atom_site_occupancy
  Tb  Tb0  1  0.000410  0.640294  0.326928  1
  Tb  Tb1  1  0.999647  0.860660  0.828230  1
  Tb  Tb2  1  0.999445  0.139376  0.172194  1
  Sm  Sm3  1  0.000543  0.361342  0.671859  1
  Mn  Mn4  1  0.741995  0.500506  0.000620  1
  Mn  Mn5  1  0.257642  0.998487  0.499518  1
  Co  Co6  1  0.498942  0.088611  0.851066  1
  Co  Co7  1  0.498606  0.910450  0.150056  1
  Co  Co8  1  0.501390  0.591643  0.649483  1
  Co  Co9  1  0.501145  0.410857  0.349503  1
  Co  Co10  1  0.256326  0.500634  0.000664  1
  Co  Co11  1  0.743945  0.998404  0.499410  1
  O  O12  1  0.243358  0.897246  0.289617  1
  O  O13  1  0.244925  0.097587  0.710438  1
  O  O14  1  0.756318  0.396987  0.209969  1
  O  O15  1  0.754156  0.605672  0.791145  1
  O  O16  1  0.753764  0.095763  0.707348  1
  O  O17  1  0.754627  0.899071  0.292834  1
  O  O18  1  0.247571  0.603936  0.794243  1
  O  O19  1  0.245012  0.399079  0.206976  1
  O  O20  1  0.497602  0.344926  0.932588  1
  O  O21  1  0.497542  0.655347  0.068285  1
  O  O22  1  0.502686  0.843451  0.564342  1
  O  O23  1  0.502116  0.155345  0.433559  1
  O  O24  1  0.274924  0.000684  0.001006  1
  O  O25  1  0.723086  0.502885  0.498107  1
  O  O26  1  0.724785  0.000513  0.000871  1
  O  O27  1  0.277429  0.503067  0.498012  1
  O  O28  1  0.999018  0.160418  0.444859  1
  O  O29  1  0.999473  0.835515  0.553630  1
  O  O30  1  0.000598  0.663236  0.054081  1
  O  O31  1  0.000973  0.338007  0.948556  1
