# generated using pymatgen
data_SrCaYGa8Ag3
_symmetry_space_group_name_H-M   'P 1'
_cell_length_a   4.39196687
_cell_length_b   8.49308331
_cell_length_c   8.49308442
_cell_angle_alpha   70.08588052
_cell_angle_beta   75.01527746
_cell_angle_gamma   75.01528624
_symmetry_Int_Tables_number   1
_chemical_formula_structural   SrCaYGa8Ag3
_chemical_formula_sum   'Sr1 Ca1 Y1 Ga8 Ag3'
_cell_volume   282.61608401
_cell_formula_units_Z   1
loop_
 _symmetry_equiv_pos_site_id
 _symmetry_equiv_pos_as_xyz
  1  'x, y, z'
loop_
 _atom_site_type_symbol
 _atom_site_label
 _atom_site_symmetry_multiplicity
 _atom_site_fract_x
 _atom_site_fract_y
 _atom_site_fract_z
 _atom_site_occupancy
  Sr  Sr0  1  0.000659  0.999341  0.999341  1
  Ca  Ca1  1  0.302311  0.697689  0.697689  1
  Y  Y2  1  0.700907  0.299093  0.299093  1
  Ga  Ga3  1  0.336735  0.294856  0.031675  1
  Ga  Ga4  1  0.664045  0.700737  0.971172  1
  Ga  Ga5  1  0.336735  0.031675  0.294856  1
  Ga  Ga6  1  0.664045  0.971172  0.700737  1
  Ga  Ga7  1  0.143007  0.573204  0.140782  1
  Ga  Ga8  1  0.854504  0.425322  0.865671  1
  Ga  Ga9  1  0.143007  0.140782  0.573204  1
  Ga  Ga10  1  0.854504  0.865671  0.425322  1
  Ag  Ag11  1  0.499424  0.305449  0.695703  1
  Ag  Ag12  1  0.499424  0.695703  0.305449  1
  Ag  Ag13  1  0.000694  0.499306  0.499306  1
