# generated using pymatgen
data_Ho16In2Hg2IrPdPt2
_symmetry_space_group_name_H-M   'P 1'
_cell_length_a   9.66481484
_cell_length_b   9.66491107
_cell_length_c   9.67321300
_cell_angle_alpha   60.07192883
_cell_angle_beta   60.02871515
_cell_angle_gamma   60.00033298
_symmetry_Int_Tables_number   1
_chemical_formula_structural   Ho16In2Hg2IrPdPt2
_chemical_formula_sum   'Ho16 In2 Hg2 Ir1 Pd1 Pt2'
_cell_volume   639.40795862
_cell_formula_units_Z   1
loop_
 _symmetry_equiv_pos_site_id
 _symmetry_equiv_pos_as_xyz
  1  'x, y, z'
loop_
 _atom_site_type_symbol
 _atom_site_label
 _atom_site_symmetry_multiplicity
 _atom_site_fract_x
 _atom_site_fract_y
 _atom_site_fract_z
 _atom_site_occupancy
  Ho  Ho0  1  0.436179  0.437435  0.062222  1
  Ho  Ho1  1  0.645533  0.646012  0.062498  1
  Ho  Ho2  1  0.186793  0.810576  0.192957  1
  Ho  Ho3  1  0.067292  0.437700  0.059963  1
  Ho  Ho4  1  0.190657  0.810596  0.807732  1
  Ho  Ho5  1  0.066925  0.439136  0.432364  1
  Ho  Ho6  1  0.810690  0.185260  0.193949  1
  Ho  Ho7  1  0.650823  0.651575  0.645016  1
  Ho  Ho8  1  0.810274  0.189437  0.808327  1
  Ho  Ho9  1  0.191575  0.189036  0.809035  1
  Ho  Ho10  1  0.054605  0.650841  0.644671  1
  Ho  Ho11  1  0.437908  0.066168  0.059023  1
  Ho  Ho12  1  0.063251  0.063721  0.434367  1
  Ho  Ho13  1  0.649973  0.055672  0.644514  1
  Ho  Ho14  1  0.809601  0.809571  0.193576  1
  Ho  Ho15  1  0.439568  0.065923  0.433902  1
  In  In16  1  0.415807  0.748600  0.418625  1
  In  In17  1  0.748145  0.416193  0.418580  1
  Hg  Hg18  1  0.413312  0.413125  0.414501  1
  Hg  Hg19  1  0.413588  0.414213  0.758428  1
  Ir  Ir20  1  0.857125  0.857623  0.428314  1
  Pd  Pd21  1  0.855538  0.429828  0.859233  1
  Pt  Pt22  1  0.429682  0.856019  0.859269  1
  Pt  Pt23  1  0.855157  0.855741  0.858936  1
