# generated using pymatgen
data_TbHo3Al2(CdPd2)2
_symmetry_space_group_name_H-M   'P 1'
_cell_length_a   4.38925800
_cell_length_b   6.98298719
_cell_length_c   8.19971642
_cell_angle_alpha   88.42182299
_cell_angle_beta   90.00000000
_cell_angle_gamma   90.00000000
_symmetry_Int_Tables_number   1
_chemical_formula_structural   TbHo3Al2(CdPd2)2
_chemical_formula_sum   'Tb1 Ho3 Al2 Cd2 Pd4'
_cell_volume   251.22706160
_cell_formula_units_Z   1
loop_
 _symmetry_equiv_pos_site_id
 _symmetry_equiv_pos_as_xyz
  1  'x, y, z'
loop_
 _atom_site_type_symbol
 _atom_site_label
 _atom_site_symmetry_multiplicity
 _atom_site_fract_x
 _atom_site_fract_y
 _atom_site_fract_z
 _atom_site_occupancy
  Tb  Tb0  1  0.750000  0.963103  0.312522  1
  Ho  Ho1  1  0.250000  0.537981  0.823034  1
  Ho  Ho2  1  0.750000  0.462094  0.176644  1
  Ho  Ho3  1  0.250000  0.036877  0.688170  1
  Al  Al4  1  0.250000  0.141528  0.056815  1
  Al  Al5  1  0.750000  0.858625  0.942443  1
  Cd  Cd6  1  0.250000  0.642932  0.436060  1
  Cd  Cd7  1  0.750000  0.356764  0.564288  1
  Pd  Pd8  1  0.750000  0.759123  0.640998  1
  Pd  Pd9  1  0.250000  0.241575  0.359628  1
  Pd  Pd10  1  0.750000  0.228400  0.897691  1
  Pd  Pd11  1  0.250000  0.770998  0.101709  1
