# generated using pymatgen
data_CaErAlO4
_symmetry_space_group_name_H-M   'P 1'
_cell_length_a   11.26799400
_cell_length_b   5.23969600
_cell_length_c   6.53346100
_cell_angle_alpha   89.99949201
_cell_angle_beta   89.99985866
_cell_angle_gamma   90.00033893
_symmetry_Int_Tables_number   1
_chemical_formula_structural   CaErAlO4
_chemical_formula_sum   'Ca4 Er4 Al4 O16'
_cell_volume   385.74117639
_cell_formula_units_Z   4
loop_
 _symmetry_equiv_pos_site_id
 _symmetry_equiv_pos_as_xyz
  1  'x, y, z'
loop_
 _atom_site_type_symbol
 _atom_site_label
 _atom_site_symmetry_multiplicity
 _atom_site_fract_x
 _atom_site_fract_y
 _atom_site_fract_z
 _atom_site_occupancy
  Ca  Ca0  1  0.499995  0.500010  0.487176  1
  Ca  Ca1  1  0.500021  0.499973  0.987169  1
  Ca  Ca2  1  0.999984  0.000029  0.987085  1
  Ca  Ca3  1  0.999984  0.999994  0.487146  1
  Er  Er4  1  0.221483  0.502758  0.237152  1
  Er  Er5  1  0.778523  0.497225  0.737146  1
  Er  Er6  1  0.278521  0.002750  0.737166  1
  Er  Er7  1  0.721480  0.997235  0.237155  1
  Al  Al8  1  0.400928  0.060342  0.237147  1
  Al  Al9  1  0.599075  0.939656  0.737142  1
  Al  Al10  1  0.099076  0.560345  0.737138  1
  Al  Al11  1  0.900925  0.439653  0.237125  1
  O  O12  1  0.396663  0.726346  0.237120  1
  O  O13  1  0.603353  0.273650  0.737139  1
  O  O14  1  0.103345  0.226351  0.737120  1
  O  O15  1  0.896646  0.773657  0.237124  1
  O  O16  1  0.170847  0.721080  0.525785  1
  O  O17  1  0.829157  0.278925  0.025781  1
  O  O18  1  0.329151  0.221083  0.025792  1
  O  O19  1  0.670844  0.778920  0.525789  1
  O  O20  1  0.329139  0.221081  0.448521  1
  O  O21  1  0.670859  0.778916  0.948511  1
  O  O22  1  0.170855  0.721076  0.948508  1
  O  O23  1  0.829149  0.278920  0.448503  1
  O  O24  1  0.547345  0.194588  0.237156  1
  O  O25  1  0.452647  0.805426  0.737146  1
  O  O26  1  0.952660  0.694576  0.737133  1
  O  O27  1  0.047347  0.305435  0.237128  1
