# generated using pymatgen
data_AcSmZn4Ru
_symmetry_space_group_name_H-M   'P 1'
_cell_length_a   7.16377000
_cell_length_b   7.16377000
_cell_length_c   5.58485600
_cell_angle_alpha   90.00000000
_cell_angle_beta   90.00000000
_cell_angle_gamma   90.00000000
_symmetry_Int_Tables_number   1
_chemical_formula_structural   AcSmZn4Ru
_chemical_formula_sum   'Ac2 Sm2 Zn8 Ru2'
_cell_volume   286.61257940
_cell_formula_units_Z   2
loop_
 _symmetry_equiv_pos_site_id
 _symmetry_equiv_pos_as_xyz
  1  'x, y, z'
loop_
 _atom_site_type_symbol
 _atom_site_label
 _atom_site_symmetry_multiplicity
 _atom_site_fract_x
 _atom_site_fract_y
 _atom_site_fract_z
 _atom_site_occupancy
  Ac  Ac0  1  0.000000  0.500000  0.786864  1
  Ac  Ac1  1  0.500000  0.000000  0.213136  1
  Sm  Sm2  1  0.000000  0.000000  0.000000  1
  Sm  Sm3  1  0.500000  0.500000  0.000000  1
  Zn  Zn4  1  0.184197  0.684197  0.305665  1
  Zn  Zn5  1  0.815803  0.684197  0.305665  1
  Zn  Zn6  1  0.815803  0.315803  0.305665  1
  Zn  Zn7  1  0.315803  0.184197  0.694335  1
  Zn  Zn8  1  0.184197  0.315803  0.305665  1
  Zn  Zn9  1  0.684197  0.184197  0.694335  1
  Zn  Zn10  1  0.684197  0.815803  0.694335  1
  Zn  Zn11  1  0.315803  0.815803  0.694335  1
  Ru  Ru12  1  0.500000  0.500000  0.500000  1
  Ru  Ru13  1  0.000000  0.000000  0.500000  1
