# generated using pymatgen
data_Tm8Sc12Sn11Sb5
_symmetry_space_group_name_H-M   'P 1'
_cell_length_a   7.78220441
_cell_length_b   7.81518005
_cell_length_c   14.71974335
_cell_angle_alpha   90.01382624
_cell_angle_beta   89.49473847
_cell_angle_gamma   90.05691455
_symmetry_Int_Tables_number   1
_chemical_formula_structural   Tm8Sc12Sn11Sb5
_chemical_formula_sum   'Tm8 Sc12 Sn11 Sb5'
_cell_volume   895.20963288
_cell_formula_units_Z   1
loop_
 _symmetry_equiv_pos_site_id
 _symmetry_equiv_pos_as_xyz
  1  'x, y, z'
loop_
 _atom_site_type_symbol
 _atom_site_label
 _atom_site_symmetry_multiplicity
 _atom_site_fract_x
 _atom_site_fract_y
 _atom_site_fract_z
 _atom_site_occupancy
  Tm  Tm0  1  0.982420  0.177883  0.092926  1
  Tm  Tm1  1  0.019836  0.822427  0.906559  1
  Tm  Tm2  1  0.519174  0.678657  0.904973  1
  Tm  Tm3  1  0.024515  0.819895  0.596995  1
  Tm  Tm4  1  0.477151  0.322721  0.095452  1
  Tm  Tm5  1  0.975236  0.179366  0.403162  1
  Tm  Tm6  1  0.476230  0.318590  0.402779  1
  Tm  Tm7  1  0.524550  0.680842  0.597103  1
  Sc  Sc8  1  0.183060  0.494464  0.751968  1
  Sc  Sc9  1  0.816159  0.505538  0.249240  1
  Sc  Sc10  1  0.316717  0.995318  0.249028  1
  Sc  Sc11  1  0.682747  0.005044  0.751105  1
  Sc  Sc12  1  0.358709  0.155709  0.625632  1
  Sc  Sc13  1  0.641548  0.844302  0.374117  1
  Sc  Sc14  1  0.139902  0.655802  0.374940  1
  Sc  Sc15  1  0.645109  0.839946  0.128017  1
  Sc  Sc16  1  0.860484  0.344011  0.625068  1
  Sc  Sc17  1  0.355280  0.160033  0.871990  1
  Sc  Sc18  1  0.855172  0.340827  0.873386  1
  Sc  Sc19  1  0.145520  0.658956  0.126529  1
  Sn  Sn20  1  0.047929  0.123354  0.748355  1
  Sn  Sn21  1  0.952116  0.876600  0.251400  1
  Sn  Sn22  1  0.449948  0.623158  0.252228  1
  Sn  Sn23  1  0.549775  0.376902  0.747670  1
  Sn  Sn24  1  0.324831  0.847572  0.750244  1
  Sn  Sn25  1  0.675109  0.152762  0.248844  1
  Sn  Sn26  1  0.172119  0.347732  0.249802  1
  Sn  Sn27  1  0.826059  0.652659  0.750578  1
  Sn  Sn28  1  0.200495  0.457676  0.956965  1
  Sn  Sn29  1  0.694565  0.041968  0.957803  1
  Sn  Sn30  1  0.306614  0.957888  0.042599  1
  Sb  Sb31  1  0.207908  0.457683  0.543120  1
  Sb  Sb32  1  0.792588  0.542228  0.456869  1
  Sb  Sb33  1  0.293480  0.957777  0.456616  1
  Sb  Sb34  1  0.800023  0.541723  0.042738  1
  Sb  Sb35  1  0.706920  0.041987  0.543199  1
