# generated using pymatgen
data_CeSmCo2(Sb2Pd)2
_symmetry_space_group_name_H-M   'P 1'
_cell_length_a   4.51609100
_cell_length_b   4.51609100
_cell_length_c   10.06495900
_cell_angle_alpha   90.00000000
_cell_angle_beta   90.00000000
_cell_angle_gamma   90.00000000
_symmetry_Int_Tables_number   1
_chemical_formula_structural   CeSmCo2(Sb2Pd)2
_chemical_formula_sum   'Ce1 Sm1 Co2 Sb4 Pd2'
_cell_volume   205.27562307
_cell_formula_units_Z   1
loop_
 _symmetry_equiv_pos_site_id
 _symmetry_equiv_pos_as_xyz
  1  'x, y, z'
loop_
 _atom_site_type_symbol
 _atom_site_label
 _atom_site_symmetry_multiplicity
 _atom_site_fract_x
 _atom_site_fract_y
 _atom_site_fract_z
 _atom_site_occupancy
  Ce  Ce0  1  0.500000  0.000000  0.745468  1
  Sm  Sm1  1  0.000000  0.500000  0.252600  1
  Co  Co2  1  0.000000  0.500000  0.609328  1
  Co  Co3  1  0.500000  0.000000  0.390740  1
  Sb  Sb4  1  0.000000  0.000000  0.500177  1
  Sb  Sb5  1  0.500000  0.500000  0.500177  1
  Sb  Sb6  1  0.000000  0.500000  0.853027  1
  Sb  Sb7  1  0.500000  0.000000  0.148162  1
  Pd  Pd8  1  0.000000  0.000000  0.000160  1
  Pd  Pd9  1  0.500000  0.500000  0.000160  1
