# generated using pymatgen
data_Tb2Lu2Al18RePd5
_symmetry_space_group_name_H-M   'P 1'
_cell_length_a   7.60647068
_cell_length_b   7.61966798
_cell_length_c   9.49081313
_cell_angle_alpha   89.82205321
_cell_angle_beta   89.66896296
_cell_angle_gamma   119.28041582
_symmetry_Int_Tables_number   1
_chemical_formula_structural   Tb2Lu2Al18RePd5
_chemical_formula_sum   'Tb2 Lu2 Al18 Re1 Pd5'
_cell_volume   479.77722594
_cell_formula_units_Z   1
loop_
 _symmetry_equiv_pos_site_id
 _symmetry_equiv_pos_as_xyz
  1  'x, y, z'
loop_
 _atom_site_type_symbol
 _atom_site_label
 _atom_site_symmetry_multiplicity
 _atom_site_fract_x
 _atom_site_fract_y
 _atom_site_fract_z
 _atom_site_occupancy
  Tb  Tb0  1  0.996018  0.673963  0.248262  1
  Tb  Tb1  1  0.003982  0.326037  0.751738  1
  Lu  Lu2  1  0.674566  0.995525  0.247703  1
  Lu  Lu3  1  0.325434  0.004475  0.752297  1
  Al  Al4  1  0.131493  0.131595  0.247586  1
  Al  Al5  1  0.868507  0.868405  0.752414  1
  Al  Al6  1  0.998993  0.329903  0.075959  1
  Al  Al7  1  0.001007  0.670097  0.924041  1
  Al  Al8  1  0.999184  0.663755  0.579254  1
  Al  Al9  1  0.338312  0.001554  0.421783  1
  Al  Al10  1  0.000816  0.336245  0.420746  1
  Al  Al11  1  0.661688  0.998446  0.578217  1
  Al  Al12  1  0.667370  0.999607  0.925567  1
  Al  Al13  1  0.332630  0.000393  0.074433  1
  Al  Al14  1  0.334084  0.333253  0.556882  1
  Al  Al15  1  0.665916  0.666748  0.443118  1
  Al  Al16  1  0.669776  0.670639  0.053571  1
  Al  Al17  1  0.330224  0.329362  0.946429  1
  Al  Al18  1  0.343052  0.550329  0.249163  1
  Al  Al19  1  0.656948  0.449671  0.750837  1
  Al  Al20  1  0.549436  0.341173  0.249201  1
  Al  Al21  1  0.450564  0.658827  0.750799  1
  Re  Re22  1  0.000000  0.000000  0.000000  1
  Pd  Pd23  1  0.671891  0.327432  0.999589  1
  Pd  Pd24  1  0.328109  0.672568  0.000411  1
  Pd  Pd25  1  0.328164  0.673380  0.500043  1
  Pd  Pd26  1  0.671836  0.326620  0.499957  1
  Pd  Pd27  1  0.000000  0.000000  0.500000  1
