# generated using pymatgen
data_LiHf5SiAs5Ru6
_symmetry_space_group_name_H-M   'P 1'
_cell_length_a   7.62049641
_cell_length_b   7.64627474
_cell_length_c   7.62049733
_cell_angle_alpha   127.92310478
_cell_angle_beta   120.99893501
_cell_angle_gamma   82.45755951
_symmetry_Int_Tables_number   1
_chemical_formula_structural   LiHf5SiAs5Ru6
_chemical_formula_sum   'Li1 Hf5 Si1 As5 Ru6'
_cell_volume   288.75289293
_cell_formula_units_Z   1
loop_
 _symmetry_equiv_pos_site_id
 _symmetry_equiv_pos_as_xyz
  1  'x, y, z'
loop_
 _atom_site_type_symbol
 _atom_site_label
 _atom_site_symmetry_multiplicity
 _atom_site_fract_x
 _atom_site_fract_y
 _atom_site_fract_z
 _atom_site_occupancy
  Li  Li0  1  0.467874  0.698056  0.730182  1
  Hf  Hf1  1  0.524938  0.257420  0.232483  1
  Hf  Hf2  1  0.750447  0.838122  0.587675  1
  Hf  Hf3  1  0.249100  0.836654  0.087552  1
  Hf  Hf4  1  0.053656  0.257047  0.703391  1
  Hf  Hf5  1  0.947601  0.651392  0.203790  1
  Si  Si6  1  0.284332  0.279229  0.494898  1
  As  As7  1  0.723786  0.229756  0.005969  1
  As  As8  1  0.332100  0.588777  0.260169  1
  As  As9  1  0.667018  0.914219  0.245123  1
  As  As10  1  0.169094  0.914219  0.747200  1
  As  As11  1  0.828608  0.588777  0.756677  1
  Ru  Ru12  1  0.486461  0.493813  0.982849  1
  Ru  Ru13  1  0.010965  0.493813  0.507352  1
  Ru  Ru14  1  0.093383  0.247025  0.097824  1
  Ru  Ru15  1  0.916442  0.012130  0.167137  1
  Ru  Ru16  1  0.344991  0.012130  0.595687  1
  Ru  Ru17  1  0.649200  0.247025  0.653640  1
