# generated using pymatgen
data_La17Pr3Si15I
_symmetry_space_group_name_H-M   'P 1'
_cell_length_a   8.09860623
_cell_length_b   8.03979054
_cell_length_c   15.55718604
_cell_angle_alpha   89.88839529
_cell_angle_beta   89.12559304
_cell_angle_gamma   89.74911412
_symmetry_Int_Tables_number   1
_chemical_formula_structural   La17Pr3Si15I
_chemical_formula_sum   'La17 Pr3 Si15 I1'
_cell_volume   1012.81600030
_cell_formula_units_Z   1
loop_
 _symmetry_equiv_pos_site_id
 _symmetry_equiv_pos_as_xyz
  1  'x, y, z'
loop_
 _atom_site_type_symbol
 _atom_site_label
 _atom_site_symmetry_multiplicity
 _atom_site_fract_x
 _atom_site_fract_y
 _atom_site_fract_z
 _atom_site_occupancy
  La  La0  1  0.309085  0.311456  0.000722  1
  La  La1  1  0.190161  0.808320  0.250217  1
  La  La2  1  0.793659  0.190116  0.753118  1
  La  La3  1  0.685641  0.688882  0.494718  1
  La  La4  1  0.379314  0.007770  0.444418  1
  La  La5  1  0.498066  0.873645  0.697891  1
  La  La6  1  0.510323  0.120492  0.197549  1
  La  La7  1  0.875660  0.487835  0.299363  1
  La  La8  1  0.119839  0.517626  0.805842  1
  La  La9  1  0.629991  0.985377  0.952824  1
  La  La10  1  0.995020  0.386433  0.541920  1
  La  La11  1  0.991500  0.620801  0.054546  1
  La  La12  1  0.136723  0.987084  0.876949  1
  La  La13  1  0.516954  0.629000  0.127475  1
  La  La14  1  0.493388  0.379969  0.628440  1
  La  La15  1  0.633540  0.521646  0.877475  1
  La  La16  1  0.368907  0.478645  0.374276  1
  Pr  Pr17  1  0.870870  0.018560  0.375408  1
  Pr  Pr18  1  0.983413  0.127916  0.125573  1
  Pr  Pr19  1  0.004834  0.852125  0.619533  1
  Si  Si20  1  0.330397  0.698544  0.953093  1
  Si  Si21  1  0.662817  0.300961  0.451664  1
  Si  Si22  1  0.703230  0.333698  0.051695  1
  Si  Si23  1  0.302021  0.670623  0.547907  1
  Si  Si24  1  0.802680  0.834342  0.201854  1
  Si  Si25  1  0.164966  0.195569  0.298097  1
  Si  Si26  1  0.841605  0.804118  0.796788  1
  Si  Si27  1  0.287407  0.922870  0.058921  1
  Si  Si28  1  0.578579  0.790883  0.308038  1
  Si  Si29  1  0.451219  0.209923  0.826167  1
  Si  Si30  1  0.793697  0.576938  0.690738  1
  Si  Si31  1  0.208026  0.420214  0.191849  1
  Si  Si32  1  0.705536  0.076534  0.558780  1
  Si  Si33  1  0.925372  0.289437  0.942299  1
  Si  Si34  1  0.076816  0.713500  0.439777  1
  I  I35  1  0.178745  0.168142  0.684076  1
