# generated using pymatgen
data_Dy3ScAl8
_symmetry_space_group_name_H-M   'P 1'
_cell_length_a   9.56605383
_cell_length_b   9.56605390
_cell_length_c   9.56605401
_cell_angle_alpha   33.55048936
_cell_angle_beta   33.55048991
_cell_angle_gamma   33.55048858
_symmetry_Int_Tables_number   1
_chemical_formula_structural   Dy3ScAl8
_chemical_formula_sum   'Dy3 Sc1 Al8'
_cell_volume   238.16109661
_cell_formula_units_Z   1
loop_
 _symmetry_equiv_pos_site_id
 _symmetry_equiv_pos_as_xyz
  1  'x, y, z'
loop_
 _atom_site_type_symbol
 _atom_site_label
 _atom_site_symmetry_multiplicity
 _atom_site_fract_x
 _atom_site_fract_y
 _atom_site_fract_z
 _atom_site_occupancy
  Dy  Dy0  1  0.312536  0.312536  0.312536  1
  Dy  Dy1  1  0.688390  0.688390  0.688390  1
  Dy  Dy2  1  0.186523  0.186523  0.186523  1
  Sc  Sc3  1  0.812685  0.812685  0.812685  1
  Al  Al4  1  0.499681  0.499681  0.499681  1
  Al  Al5  1  0.000192  0.000192  0.000192  1
  Al  Al6  1  0.250765  0.250765  0.750784  1
  Al  Al7  1  0.749662  0.749662  0.248356  1
  Al  Al8  1  0.250765  0.750784  0.250765  1
  Al  Al9  1  0.749662  0.248356  0.749662  1
  Al  Al10  1  0.750784  0.250765  0.250765  1
  Al  Al11  1  0.248356  0.749662  0.749662  1
