# generated using pymatgen
data_Sr8Li3Mg4Si16Hg
_symmetry_space_group_name_H-M   'P 1'
_cell_length_a   4.38628700
_cell_length_b   11.36466415
_cell_length_c   14.41983903
_cell_angle_alpha   89.75362204
_cell_angle_beta   90.00000000
_cell_angle_gamma   90.00000000
_symmetry_Int_Tables_number   1
_chemical_formula_structural   Sr8Li3Mg4Si16Hg
_chemical_formula_sum   'Sr8 Li3 Mg4 Si16 Hg1'
_cell_volume   718.80327579
_cell_formula_units_Z   1
loop_
 _symmetry_equiv_pos_site_id
 _symmetry_equiv_pos_as_xyz
  1  'x, y, z'
loop_
 _atom_site_type_symbol
 _atom_site_label
 _atom_site_symmetry_multiplicity
 _atom_site_fract_x
 _atom_site_fract_y
 _atom_site_fract_z
 _atom_site_occupancy
  Sr  Sr0  1  0.250000  0.518647  0.201201  1
  Sr  Sr1  1  0.250000  0.743969  0.940155  1
  Sr  Sr2  1  0.750000  0.256378  0.061999  1
  Sr  Sr3  1  0.750000  0.248768  0.557059  1
  Sr  Sr4  1  0.250000  0.754387  0.439879  1
  Sr  Sr5  1  0.250000  0.975700  0.697430  1
  Sr  Sr6  1  0.750000  0.026732  0.301253  1
  Sr  Sr7  1  0.750000  0.476741  0.801428  1
  Li  Li8  1  0.750000  0.556332  0.556182  1
  Li  Li9  1  0.750000  0.942729  0.060114  1
  Li  Li10  1  0.750000  0.321390  0.315814  1
  Mg  Mg11  1  0.250000  0.054113  0.944984  1
  Mg  Mg12  1  0.250000  0.677189  0.686992  1
  Mg  Mg13  1  0.750000  0.175877  0.809697  1
  Mg  Mg14  1  0.250000  0.822707  0.186436  1
  Si  Si15  1  0.750000  0.950799  0.869453  1
  Si  Si16  1  0.250000  0.451524  0.633111  1
  Si  Si17  1  0.750000  0.547133  0.367397  1
  Si  Si18  1  0.250000  0.036881  0.471137  1
  Si  Si19  1  0.250000  0.050978  0.133355  1
  Si  Si20  1  0.250000  0.274008  0.720470  1
  Si  Si21  1  0.750000  0.723505  0.277850  1
  Si  Si22  1  0.750000  0.774916  0.777156  1
  Si  Si23  1  0.250000  0.215046  0.386886  1
  Si  Si24  1  0.750000  0.966997  0.528274  1
  Si  Si25  1  0.750000  0.532871  0.030459  1
  Si  Si26  1  0.250000  0.465753  0.971412  1
  Si  Si27  1  0.250000  0.286022  0.890655  1
  Si  Si28  1  0.750000  0.783832  0.606938  1
  Si  Si29  1  0.750000  0.715394  0.107411  1
  Si  Si30  1  0.250000  0.225578  0.223223  1
  Hg  Hg31  1  0.250000  0.447102  0.444190  1
