# generated using pymatgen
data_Nd3Cd5Ru
_symmetry_space_group_name_H-M   'P 1'
_cell_length_a   8.27711000
_cell_length_b   8.27710991
_cell_length_c   3.86501600
_cell_angle_alpha   90.00000000
_cell_angle_beta   90.00000000
_cell_angle_gamma   119.99999238
_symmetry_Int_Tables_number   1
_chemical_formula_structural   Nd3Cd5Ru
_chemical_formula_sum   'Nd3 Cd5 Ru1'
_cell_volume   229.31866774
_cell_formula_units_Z   1
loop_
 _symmetry_equiv_pos_site_id
 _symmetry_equiv_pos_as_xyz
  1  'x, y, z'
loop_
 _atom_site_type_symbol
 _atom_site_label
 _atom_site_symmetry_multiplicity
 _atom_site_fract_x
 _atom_site_fract_y
 _atom_site_fract_z
 _atom_site_occupancy
  Nd  Nd0  1  0.427095  0.040879  0.000000  1
  Nd  Nd1  1  0.613784  0.572905  0.000000  1
  Nd  Nd2  1  0.959121  0.386216  0.000000  1
  Cd  Cd3  1  0.724008  0.997371  0.500000  1
  Cd  Cd4  1  0.273363  0.275992  0.500000  1
  Cd  Cd5  1  0.002629  0.726637  0.500000  1
  Cd  Cd6  1  0.333333  0.666667  0.500000  1
  Cd  Cd7  1  0.000000  0.000000  0.000000  1
  Ru  Ru8  1  0.666667  0.333333  0.500000  1
