# generated using pymatgen
data_NpPa6Zn23
_symmetry_space_group_name_H-M   'P 1'
_cell_length_a   9.05340239
_cell_length_b   9.05340214
_cell_length_c   9.05340100
_cell_angle_alpha   59.99999321
_cell_angle_beta   59.99999413
_cell_angle_gamma   59.99998884
_symmetry_Int_Tables_number   1
_chemical_formula_structural   NpPa6Zn23
_chemical_formula_sum   'Np1 Pa6 Zn23'
_cell_volume   524.71117812
_cell_formula_units_Z   1
loop_
 _symmetry_equiv_pos_site_id
 _symmetry_equiv_pos_as_xyz
  1  'x, y, z'
loop_
 _atom_site_type_symbol
 _atom_site_label
 _atom_site_symmetry_multiplicity
 _atom_site_fract_x
 _atom_site_fract_y
 _atom_site_fract_z
 _atom_site_occupancy
  Np  Np0  1  0.500000  0.500000  0.500000  1
  Pa  Pa1  1  0.696542  0.303458  0.303458  1
  Pa  Pa2  1  0.303458  0.696542  0.696542  1
  Pa  Pa3  1  0.303458  0.696542  0.303458  1
  Pa  Pa4  1  0.696542  0.303458  0.696542  1
  Pa  Pa5  1  0.303458  0.303458  0.696542  1
  Pa  Pa6  1  0.696542  0.696542  0.303458  1
  Zn  Zn7  1  0.120227  0.120227  0.120227  1
  Zn  Zn8  1  0.879773  0.879773  0.879773  1
  Zn  Zn9  1  0.120227  0.120227  0.639321  1
  Zn  Zn10  1  0.120227  0.639321  0.120227  1
  Zn  Zn11  1  0.879773  0.879773  0.360679  1
  Zn  Zn12  1  0.879773  0.360679  0.879773  1
  Zn  Zn13  1  0.639321  0.120227  0.120227  1
  Zn  Zn14  1  0.360679  0.879773  0.879773  1
  Zn  Zn15  1  0.500000  0.000000  0.000000  1
  Zn  Zn16  1  0.000000  0.500000  0.500000  1
  Zn  Zn17  1  0.000000  0.500000  0.000000  1
  Zn  Zn18  1  0.500000  0.000000  0.500000  1
  Zn  Zn19  1  0.000000  0.000000  0.500000  1
  Zn  Zn20  1  0.500000  0.500000  0.000000  1
  Zn  Zn21  1  0.326225  0.326225  0.326225  1
  Zn  Zn22  1  0.673775  0.673775  0.673775  1
  Zn  Zn23  1  0.326225  0.326225  0.021327  1
  Zn  Zn24  1  0.326225  0.021327  0.326225  1
  Zn  Zn25  1  0.673775  0.673775  0.978673  1
  Zn  Zn26  1  0.673775  0.978673  0.673775  1
  Zn  Zn27  1  0.021327  0.326225  0.326225  1
  Zn  Zn28  1  0.978673  0.673775  0.673775  1
  Zn  Zn29  1  0.000000  0.000000  0.000000  1
