# generated using pymatgen
data_Pr4As7Ir7Rh
_symmetry_space_group_name_H-M   'P 1'
_cell_length_a   4.14808800
_cell_length_b   13.26674192
_cell_length_c   13.66159057
_cell_angle_alpha   81.66127952
_cell_angle_beta   90.00000000
_cell_angle_gamma   90.00000000
_symmetry_Int_Tables_number   1
_chemical_formula_structural   Pr4As7Ir7Rh
_chemical_formula_sum   'Pr8 As14 Ir14 Rh2'
_cell_volume   743.87113584
_cell_formula_units_Z   2
loop_
 _symmetry_equiv_pos_site_id
 _symmetry_equiv_pos_as_xyz
  1  'x, y, z'
loop_
 _atom_site_type_symbol
 _atom_site_label
 _atom_site_symmetry_multiplicity
 _atom_site_fract_x
 _atom_site_fract_y
 _atom_site_fract_z
 _atom_site_occupancy
  Pr  Pr0  1  0.250000  0.098885  0.793932  1
  Pr  Pr1  1  0.750000  0.901115  0.206068  1
  Pr  Pr2  1  0.250000  0.286833  0.102832  1
  Pr  Pr3  1  0.750000  0.713167  0.897168  1
  Pr  Pr4  1  0.250000  0.519260  0.293561  1
  Pr  Pr5  1  0.750000  0.480740  0.706439  1
  Pr  Pr6  1  0.250000  0.208557  0.437732  1
  Pr  Pr7  1  0.750000  0.791443  0.562268  1
  As  As8  1  0.250000  0.057548  0.099290  1
  As  As9  1  0.750000  0.942452  0.900710  1
  As  As10  1  0.250000  0.310496  0.688550  1
  As  As11  1  0.750000  0.689504  0.311450  1
  As  As12  1  0.250000  0.607352  0.566224  1
  As  As13  1  0.750000  0.392648  0.433776  1
  As  As14  1  0.250000  0.848210  0.719509  1
  As  As15  1  0.750000  0.151790  0.280491  1
  As  As16  1  0.750000  0.256797  0.917876  1
  As  As17  1  0.250000  0.743203  0.082124  1
  As  As18  1  0.750000  0.095047  0.587111  1
  As  As19  1  0.250000  0.904953  0.412889  1
  As  As20  1  0.750000  0.471891  0.128682  1
  As  As21  1  0.250000  0.528109  0.871318  1
  Ir  Ir22  1  0.250000  0.665498  0.733174  1
  Ir  Ir23  1  0.750000  0.334502  0.266826  1
  Ir  Ir24  1  0.250000  0.555473  0.045298  1
  Ir  Ir25  1  0.750000  0.444527  0.954702  1
  Ir  Ir26  1  0.250000  0.053232  0.278037  1
  Ir  Ir27  1  0.750000  0.946768  0.721963  1
  Ir  Ir28  1  0.250000  0.424931  0.526714  1
  Ir  Ir29  1  0.750000  0.575069  0.473286  1
  Ir  Ir30  1  0.250000  0.918259  0.997860  1
  Ir  Ir31  1  0.750000  0.081741  0.002140  1
  Ir  Ir32  1  0.250000  0.722302  0.399912  1
  Ir  Ir33  1  0.750000  0.277698  0.600088  1
  Ir  Ir34  1  0.250000  0.343732  0.860434  1
  Ir  Ir35  1  0.750000  0.656268  0.139566  1
  Rh  Rh36  1  0.250000  0.989163  0.574158  1
  Rh  Rh37  1  0.750000  0.010837  0.425842  1
