# generated using pymatgen
data_Dy11Y5MgAg3Rh4
_symmetry_space_group_name_H-M   'P 1'
_cell_length_a   9.53711635
_cell_length_b   9.56438105
_cell_length_c   9.56445633
_cell_angle_alpha   60.30051281
_cell_angle_beta   60.32712379
_cell_angle_gamma   60.32620203
_symmetry_Int_Tables_number   1
_chemical_formula_structural   Dy11Y5MgAg3Rh4
_chemical_formula_sum   'Dy11 Y5 Mg1 Ag3 Rh4'
_cell_volume   621.34431767
_cell_formula_units_Z   1
loop_
 _symmetry_equiv_pos_site_id
 _symmetry_equiv_pos_as_xyz
  1  'x, y, z'
loop_
 _atom_site_type_symbol
 _atom_site_label
 _atom_site_symmetry_multiplicity
 _atom_site_fract_x
 _atom_site_fract_y
 _atom_site_fract_z
 _atom_site_occupancy
  Dy  Dy0  1  0.601245  0.598632  0.598635  1
  Dy  Dy1  1  0.600184  0.598502  0.202579  1
  Dy  Dy2  1  0.600151  0.202615  0.598510  1
  Dy  Dy3  1  0.185453  0.604879  0.604882  1
  Dy  Dy4  1  0.059948  0.438420  0.438437  1
  Dy  Dy5  1  0.435918  0.063053  0.063042  1
  Dy  Dy6  1  0.435560  0.063241  0.436526  1
  Dy  Dy7  1  0.059775  0.438903  0.061033  1
  Dy  Dy8  1  0.435565  0.436532  0.063240  1
  Dy  Dy9  1  0.059782  0.061028  0.438899  1
  Dy  Dy10  1  0.185136  0.813333  0.813336  1
  Y  Y11  1  0.815269  0.185481  0.185502  1
  Y  Y12  1  0.813893  0.186271  0.814840  1
  Y  Y13  1  0.184750  0.813844  0.186632  1
  Y  Y14  1  0.813890  0.814837  0.186283  1
  Y  Y15  1  0.184736  0.186621  0.813864  1
  Mg  Mg16  1  0.539363  0.820716  0.820710  1
  Ag  Ag17  1  0.832736  0.834671  0.834668  1
  Ag  Ag18  1  0.832666  0.834828  0.499512  1
  Ag  Ag19  1  0.832666  0.499502  0.834829  1
  Rh  Rh20  1  0.388468  0.394357  0.394327  1
  Rh  Rh21  1  0.390396  0.395844  0.820957  1
  Rh  Rh22  1  0.390417  0.820947  0.395801  1
  Rh  Rh23  1  0.822034  0.392946  0.392955  1
