# generated using pymatgen
data_Ho7Er3Ru3Rh
_symmetry_space_group_name_H-M   'P 1'
_cell_length_a   6.30794930
_cell_length_b   7.29037195
_cell_length_c   8.42637802
_cell_angle_alpha   96.78683285
_cell_angle_beta   111.88241940
_cell_angle_gamma   90.04757290
_symmetry_Int_Tables_number   1
_chemical_formula_structural   Ho7Er3Ru3Rh
_chemical_formula_sum   'Ho7 Er3 Ru3 Rh1'
_cell_volume   356.64335061
_cell_formula_units_Z   1
loop_
 _symmetry_equiv_pos_site_id
 _symmetry_equiv_pos_as_xyz
  1  'x, y, z'
loop_
 _atom_site_type_symbol
 _atom_site_label
 _atom_site_symmetry_multiplicity
 _atom_site_fract_x
 _atom_site_fract_y
 _atom_site_fract_z
 _atom_site_occupancy
  Ho  Ho0  1  0.792922  0.582116  0.814730  1
  Ho  Ho1  1  0.980150  0.915182  0.188780  1
  Ho  Ho2  1  0.208192  0.415360  0.186185  1
  Ho  Ho3  1  0.024104  0.085991  0.814646  1
  Ho  Ho4  1  0.203753  0.683342  0.563755  1
  Ho  Ho5  1  0.642575  0.814926  0.432888  1
  Ho  Ho6  1  0.793002  0.314776  0.434876  1
  Er  Er7  1  0.356830  0.186707  0.563763  1
  Er  Er8  1  0.419148  0.749089  0.000754  1
  Er  Er9  1  0.580371  0.252104  0.001203  1
  Ru  Ru10  1  0.823712  0.576802  0.219631  1
  Ru  Ru11  1  0.396205  0.075533  0.220850  1
  Ru  Ru12  1  0.177737  0.424114  0.779479  1
  Rh  Rh13  1  0.601301  0.923957  0.778460  1
