# generated using pymatgen
data_PrNdAl3SiAu4
_symmetry_space_group_name_H-M   'P 1'
_cell_length_a   4.37576700
_cell_length_b   4.37576700
_cell_length_c   10.64838300
_cell_angle_alpha   90.00000000
_cell_angle_beta   90.00000000
_cell_angle_gamma   90.00000000
_symmetry_Int_Tables_number   1
_chemical_formula_structural   PrNdAl3SiAu4
_chemical_formula_sum   'Pr1 Nd1 Al3 Si1 Au4'
_cell_volume   203.88817608
_cell_formula_units_Z   1
loop_
 _symmetry_equiv_pos_site_id
 _symmetry_equiv_pos_as_xyz
  1  'x, y, z'
loop_
 _atom_site_type_symbol
 _atom_site_label
 _atom_site_symmetry_multiplicity
 _atom_site_fract_x
 _atom_site_fract_y
 _atom_site_fract_z
 _atom_site_occupancy
  Pr  Pr0  1  0.500000  0.000000  0.760482  1
  Nd  Nd1  1  0.000000  0.500000  0.245317  1
  Al  Al2  1  0.000000  0.000000  0.500262  1
  Al  Al3  1  0.500000  0.500000  0.500262  1
  Al  Al4  1  0.500000  0.000000  0.132734  1
  Si  Si5  1  0.000000  0.500000  0.864518  1
  Au  Au6  1  0.000000  0.000000  0.997787  1
  Au  Au7  1  0.500000  0.500000  0.997787  1
  Au  Au8  1  0.000000  0.500000  0.632520  1
  Au  Au9  1  0.500000  0.000000  0.368332  1
