# generated using pymatgen
data_Cs2KErBi2
_symmetry_space_group_name_H-M   'P 1'
_cell_length_a   10.38881481
_cell_length_b   10.38881520
_cell_length_c   10.38881600
_cell_angle_alpha   129.30785552
_cell_angle_beta   135.02839440
_cell_angle_gamma   70.06559973
_symmetry_Int_Tables_number   1
_chemical_formula_structural   Cs2KErBi2
_chemical_formula_sum   'Cs4 K2 Er2 Bi4'
_cell_volume   601.25386965
_cell_formula_units_Z   2
loop_
 _symmetry_equiv_pos_site_id
 _symmetry_equiv_pos_as_xyz
  1  'x, y, z'
loop_
 _atom_site_type_symbol
 _atom_site_label
 _atom_site_symmetry_multiplicity
 _atom_site_fract_x
 _atom_site_fract_y
 _atom_site_fract_z
 _atom_site_occupancy
  Cs  Cs0  1  0.679081  0.459324  0.780244  1
  Cs  Cs1  1  0.820919  0.101163  0.280244  1
  Cs  Cs2  1  0.179081  0.898837  0.719756  1
  Cs  Cs3  1  0.320919  0.540676  0.219756  1
  K  K4  1  0.750000  0.000000  0.750000  1
  K  K5  1  0.250000  0.000000  0.250000  1
  Er  Er6  1  0.250000  0.500000  0.750000  1
  Er  Er7  1  0.750000  0.500000  0.250000  1
  Bi  Bi8  1  0.406529  0.204397  0.797867  1
  Bi  Bi9  1  0.593471  0.795603  0.202133  1
  Bi  Bi10  1  0.093471  0.391338  0.297867  1
  Bi  Bi11  1  0.906529  0.608662  0.702133  1
