# generated using pymatgen
data_TbDy(Co2O5)2
_symmetry_space_group_name_H-M   'P 1'
_cell_length_a   5.62605800
_cell_length_b   7.24178119
_cell_length_c   8.47889022
_cell_angle_alpha   89.97394758
_cell_angle_beta   90.00000000
_cell_angle_gamma   90.00000000
_symmetry_Int_Tables_number   1
_chemical_formula_structural   TbDy(Co2O5)2
_chemical_formula_sum   'Tb2 Dy2 Co8 O20'
_cell_volume   345.45268357
_cell_formula_units_Z   2
loop_
 _symmetry_equiv_pos_site_id
 _symmetry_equiv_pos_as_xyz
  1  'x, y, z'
loop_
 _atom_site_type_symbol
 _atom_site_label
 _atom_site_symmetry_multiplicity
 _atom_site_fract_x
 _atom_site_fract_y
 _atom_site_fract_z
 _atom_site_occupancy
  Tb  Tb0  1  0.000000  0.358649  0.673651  1
  Tb  Tb1  1  0.000000  0.641351  0.326349  1
  Dy  Dy2  1  0.000000  0.858634  0.826559  1
  Dy  Dy3  1  0.000000  0.141366  0.173441  1
  Co  Co4  1  0.743708  0.000000  0.500000  1
  Co  Co5  1  0.500000  0.597362  0.646871  1
  Co  Co6  1  0.500000  0.402638  0.353129  1
  Co  Co7  1  0.500000  0.903032  0.146773  1
  Co  Co8  1  0.500000  0.096968  0.853227  1
  Co  Co9  1  0.256447  0.500000  0.000000  1
  Co  Co10  1  0.743553  0.500000  0.000000  1
  Co  Co11  1  0.256292  0.000000  0.500000  1
  O  O12  1  0.000000  0.338205  0.947971  1
  O  O13  1  0.724888  0.000000  0.000000  1
  O  O14  1  0.275112  0.000000  0.000000  1
  O  O15  1  0.500000  0.154287  0.442311  1
  O  O16  1  0.000000  0.161407  0.446838  1
  O  O17  1  0.723746  0.500000  0.500000  1
  O  O18  1  0.000000  0.838593  0.553162  1
  O  O19  1  0.754329  0.598942  0.789325  1
  O  O20  1  0.245707  0.097386  0.711121  1
  O  O21  1  0.500000  0.654293  0.057994  1
  O  O22  1  0.500000  0.345707  0.942006  1
  O  O23  1  0.000000  0.661795  0.052029  1
  O  O24  1  0.754293  0.902614  0.288879  1
  O  O25  1  0.754329  0.401058  0.210675  1
  O  O26  1  0.754293  0.097386  0.711121  1
  O  O27  1  0.245671  0.598942  0.789325  1
  O  O28  1  0.276254  0.500000  0.500000  1
  O  O29  1  0.245707  0.902614  0.288879  1
  O  O30  1  0.245671  0.401058  0.210675  1
  O  O31  1  0.500000  0.845713  0.557689  1
