# generated using pymatgen
data_Y7Er11Sc2CdIn5Ru2
_symmetry_space_group_name_H-M   'P 1'
_cell_length_a   9.49423340
_cell_length_b   9.49451371
_cell_length_c   9.71562100
_cell_angle_alpha   90.00000000
_cell_angle_beta   90.04847754
_cell_angle_gamma   120.00097866
_symmetry_Int_Tables_number   1
_chemical_formula_structural   Y7Er11Sc2CdIn5Ru2
_chemical_formula_sum   'Y7 Er11 Sc2 Cd1 In5 Ru2'
_cell_volume   758.45415737
_cell_formula_units_Z   1
loop_
 _symmetry_equiv_pos_site_id
 _symmetry_equiv_pos_as_xyz
  1  'x, y, z'
loop_
 _atom_site_type_symbol
 _atom_site_label
 _atom_site_symmetry_multiplicity
 _atom_site_fract_x
 _atom_site_fract_y
 _atom_site_fract_z
 _atom_site_occupancy
  Y  Y0  1  0.583440  0.791720  0.060595  1
  Y  Y1  1  0.538705  0.459618  0.250984  1
  Y  Y2  1  0.538705  0.079088  0.250984  1
  Y  Y3  1  0.924488  0.462245  0.250267  1
  Y  Y4  1  0.464456  0.541846  0.749169  1
  Y  Y5  1  0.464456  0.922609  0.749169  1
  Y  Y6  1  0.081078  0.540538  0.750115  1
  Er  Er7  1  0.208281  0.792442  0.440287  1
  Er  Er8  1  0.208281  0.415839  0.440287  1
  Er  Er9  1  0.581951  0.790975  0.439001  1
  Er  Er10  1  0.792083  0.209364  0.559776  1
  Er  Er11  1  0.792083  0.582719  0.559776  1
  Er  Er12  1  0.416428  0.208214  0.560934  1
  Er  Er13  1  0.792651  0.209806  0.939805  1
  Er  Er14  1  0.792651  0.582845  0.939805  1
  Er  Er15  1  0.417239  0.208619  0.939279  1
  Er  Er16  1  0.208079  0.792354  0.060053  1
  Er  Er17  1  0.208079  0.415725  0.060053  1
  Sc  Sc18  1  0.996313  0.998157  0.502068  1
  Sc  Sc19  1  0.997625  0.998812  0.997808  1
  Cd  Cd20  1  0.778354  0.889177  0.749704  1
  In  In21  1  0.888558  0.110733  0.249720  1
  In  In22  1  0.888558  0.777827  0.249720  1
  In  In23  1  0.220837  0.110420  0.250176  1
  In  In24  1  0.111101  0.888761  0.749967  1
  In  In25  1  0.111101  0.222338  0.749967  1
  Ru  Ru26  1  0.328322  0.664161  0.250841  1
  Ru  Ru27  1  0.666098  0.333049  0.749691  1
