# generated using pymatgen
data_TbY2In3AgRh2
_symmetry_space_group_name_H-M   'P 1'
_cell_length_a   7.81677953
_cell_length_b   7.81857086
_cell_length_c   3.82290100
_cell_angle_alpha   90.00000000
_cell_angle_beta   90.00000000
_cell_angle_gamma   120.03448824
_symmetry_Int_Tables_number   1
_chemical_formula_structural   TbY2In3AgRh2
_chemical_formula_sum   'Tb1 Y2 In3 Ag1 Rh2'
_cell_volume   202.26833002
_cell_formula_units_Z   1
loop_
 _symmetry_equiv_pos_site_id
 _symmetry_equiv_pos_as_xyz
  1  'x, y, z'
loop_
 _atom_site_type_symbol
 _atom_site_label
 _atom_site_symmetry_multiplicity
 _atom_site_fract_x
 _atom_site_fract_y
 _atom_site_fract_z
 _atom_site_occupancy
  Tb  Tb0  1  0.973689  0.585934  0.500000  1
  Y  Y1  1  0.413413  0.387569  0.500000  1
  Y  Y2  1  0.612370  0.025985  0.500000  1
  In  In3  1  0.002620  0.259418  0.000000  1
  In  In4  1  0.257153  0.997542  0.000000  1
  In  In5  1  0.740147  0.743097  0.000000  1
  Ag  Ag6  1  0.333269  0.666681  0.000000  1
  Rh  Rh7  1  0.999978  0.999752  0.500000  1
  Rh  Rh8  1  0.667360  0.334022  0.000000  1
