# generated using pymatgen
data_DyEr2(NiIr2)3
_symmetry_space_group_name_H-M   'P 1'
_cell_length_a   5.28110296
_cell_length_b   5.28110322
_cell_length_c   8.73597600
_cell_angle_alpha   72.40649448
_cell_angle_beta   72.40649359
_cell_angle_gamma   59.99999887
_symmetry_Int_Tables_number   1
_chemical_formula_structural   DyEr2(NiIr2)3
_chemical_formula_sum   'Dy1 Er2 Ni3 Ir6'
_cell_volume   197.73522150
_cell_formula_units_Z   1
loop_
 _symmetry_equiv_pos_site_id
 _symmetry_equiv_pos_as_xyz
  1  'x, y, z'
loop_
 _atom_site_type_symbol
 _atom_site_label
 _atom_site_symmetry_multiplicity
 _atom_site_fract_x
 _atom_site_fract_y
 _atom_site_fract_z
 _atom_site_occupancy
  Dy  Dy0  1  0.000000  0.000000  0.000000  1
  Er  Er1  1  0.140660  0.140660  0.578018  1
  Er  Er2  1  0.859340  0.859340  0.421982  1
  Ni  Ni3  1  0.332999  0.332999  0.001003  1
  Ni  Ni4  1  0.667001  0.667001  0.998997  1
  Ni  Ni5  1  0.500000  0.500000  0.500000  1
  Ir  Ir6  1  0.081015  0.582842  0.753300  1
  Ir  Ir7  1  0.582842  0.582842  0.753300  1
  Ir  Ir8  1  0.582842  0.081015  0.753300  1
  Ir  Ir9  1  0.918985  0.417158  0.246700  1
  Ir  Ir10  1  0.417158  0.417158  0.246700  1
  Ir  Ir11  1  0.417158  0.918985  0.246700  1
