# generated using pymatgen
data_YHo7(Tm3Pt4)4
_symmetry_space_group_name_H-M   'P 1'
_cell_length_a   7.41645509
_cell_length_b   7.50809709
_cell_length_c   14.61028303
_cell_angle_alpha   89.99506885
_cell_angle_beta   89.99441928
_cell_angle_gamma   90.01717563
_symmetry_Int_Tables_number   1
_chemical_formula_structural   YHo7(Tm3Pt4)4
_chemical_formula_sum   'Y1 Ho7 Tm12 Pt16'
_cell_volume   813.55113897
_cell_formula_units_Z   1
loop_
 _symmetry_equiv_pos_site_id
 _symmetry_equiv_pos_as_xyz
  1  'x, y, z'
loop_
 _atom_site_type_symbol
 _atom_site_label
 _atom_site_symmetry_multiplicity
 _atom_site_fract_x
 _atom_site_fract_y
 _atom_site_fract_z
 _atom_site_occupancy
  Y  Y0  1  0.500810  0.679472  0.592526  1
  Ho  Ho1  1  0.001101  0.820340  0.907415  1
  Ho  Ho2  1  0.498910  0.320368  0.092650  1
  Ho  Ho3  1  0.998951  0.179639  0.407347  1
  Ho  Ho4  1  0.498846  0.320236  0.407331  1
  Ho  Ho5  1  0.998922  0.179637  0.092643  1
  Ho  Ho6  1  0.501086  0.679615  0.907361  1
  Ho  Ho7  1  0.001089  0.820366  0.592581  1
  Tm  Tm8  1  0.656786  0.167728  0.622609  1
  Tm  Tm9  1  0.156783  0.332317  0.877381  1
  Tm  Tm10  1  0.343202  0.832280  0.122603  1
  Tm  Tm11  1  0.843229  0.667724  0.377384  1
  Tm  Tm12  1  0.343125  0.832348  0.377336  1
  Tm  Tm13  1  0.843223  0.667699  0.122619  1
  Tm  Tm14  1  0.656759  0.167700  0.877410  1
  Tm  Tm15  1  0.156698  0.332235  0.622623  1
  Tm  Tm16  1  0.819371  0.510966  0.750063  1
  Tm  Tm17  1  0.319268  0.989098  0.750065  1
  Tm  Tm18  1  0.180692  0.488997  0.250014  1
  Tm  Tm19  1  0.680714  0.010988  0.249985  1
  Pt  Pt20  1  0.683429  0.966926  0.458214  1
  Pt  Pt21  1  0.183305  0.533311  0.041672  1
  Pt  Pt22  1  0.316679  0.033351  0.958348  1
  Pt  Pt23  1  0.817330  0.466250  0.541547  1
  Pt  Pt24  1  0.316494  0.033782  0.541560  1
  Pt  Pt25  1  0.816685  0.466686  0.958335  1
  Pt  Pt26  1  0.683297  0.966685  0.041657  1
  Pt  Pt27  1  0.183093  0.533208  0.458235  1
  Pt  Pt28  1  0.454223  0.386038  0.750154  1
  Pt  Pt29  1  0.954277  0.113719  0.750017  1
  Pt  Pt30  1  0.545703  0.613733  0.249983  1
  Pt  Pt31  1  0.045706  0.886275  0.249988  1
  Pt  Pt32  1  0.682954  0.857029  0.750294  1
  Pt  Pt33  1  0.182428  0.643256  0.750092  1
  Pt  Pt34  1  0.317420  0.143297  0.249980  1
  Pt  Pt35  1  0.817410  0.356703  0.249977  1
