# generated using pymatgen
data_Pr2CdSi5AsPd20
_symmetry_space_group_name_H-M   'P 1'
_cell_length_a   8.75069907
_cell_length_b   8.79294815
_cell_length_c   8.79294801
_cell_angle_alpha   59.68237399
_cell_angle_beta   60.15882009
_cell_angle_gamma   60.15882118
_symmetry_Int_Tables_number   1
_chemical_formula_structural   Pr2CdSi5AsPd20
_chemical_formula_sum   'Pr2 Cd1 Si5 As1 Pd20'
_cell_volume   478.38423758
_cell_formula_units_Z   1
loop_
 _symmetry_equiv_pos_site_id
 _symmetry_equiv_pos_as_xyz
  1  'x, y, z'
loop_
 _atom_site_type_symbol
 _atom_site_label
 _atom_site_symmetry_multiplicity
 _atom_site_fract_x
 _atom_site_fract_y
 _atom_site_fract_z
 _atom_site_occupancy
  Pr  Pr0  1  0.250150  0.249850  0.249850  1
  Pr  Pr1  1  0.750150  0.749850  0.749850  1
  Cd  Cd2  1  0.001652  0.998348  0.998348  1
  Si  Si3  1  0.266313  0.733687  0.733687  1
  Si  Si4  1  0.265926  0.734074  0.265823  1
  Si  Si5  1  0.734177  0.265823  0.734074  1
  Si  Si6  1  0.265926  0.265823  0.734074  1
  Si  Si7  1  0.734177  0.734074  0.265823  1
  As  As8  1  0.734442  0.265558  0.265558  1
  Pd  Pd9  1  0.379693  0.388540  0.388540  1
  Pd  Pd10  1  0.613376  0.614761  0.614761  1
  Pd  Pd11  1  0.385239  0.386624  0.842898  1
  Pd  Pd12  1  0.385239  0.842898  0.386624  1
  Pd  Pd13  1  0.611460  0.620307  0.156774  1
  Pd  Pd14  1  0.611460  0.156774  0.620307  1
  Pd  Pd15  1  0.843226  0.388540  0.388540  1
  Pd  Pd16  1  0.157102  0.614761  0.614761  1
  Pd  Pd17  1  0.345468  0.999237  0.999237  1
  Pd  Pd18  1  0.656058  0.999237  0.999237  1
  Pd  Pd19  1  0.000763  0.343942  0.654532  1
  Pd  Pd20  1  0.000763  0.654532  0.343942  1
  Pd  Pd21  1  0.006060  0.346174  0.993940  1
  Pd  Pd22  1  0.653826  0.993940  0.346174  1
  Pd  Pd23  1  0.999634  0.655901  0.000366  1
  Pd  Pd24  1  0.344099  0.000366  0.655901  1
  Pd  Pd25  1  0.006060  0.993940  0.346174  1
  Pd  Pd26  1  0.999634  0.000366  0.655901  1
  Pd  Pd27  1  0.653826  0.346174  0.993940  1
  Pd  Pd28  1  0.344099  0.655901  0.000366  1
