# generated using pymatgen
data_TaTi3Al2(B2Ru5)2
_symmetry_space_group_name_H-M   'P 1'
_cell_length_a   9.23205405
_cell_length_b   9.23205405
_cell_length_c   2.99455100
_cell_angle_alpha   90.00000000
_cell_angle_beta   90.00000000
_cell_angle_gamma   89.74393284
_symmetry_Int_Tables_number   1
_chemical_formula_structural   TaTi3Al2(B2Ru5)2
_chemical_formula_sum   'Ta1 Ti3 Al2 B4 Ru10'
_cell_volume   255.22549425
_cell_formula_units_Z   1
loop_
 _symmetry_equiv_pos_site_id
 _symmetry_equiv_pos_as_xyz
  1  'x, y, z'
loop_
 _atom_site_type_symbol
 _atom_site_label
 _atom_site_symmetry_multiplicity
 _atom_site_fract_x
 _atom_site_fract_y
 _atom_site_fract_z
 _atom_site_occupancy
  Ta  Ta0  1  0.675696  0.175696  0.000000  1
  Ti  Ti1  1  0.825561  0.675294  0.000000  1
  Ti  Ti2  1  0.175294  0.325561  0.000000  1
  Ti  Ti3  1  0.323010  0.823010  0.000000  1
  Al  Al4  1  0.499620  0.500029  0.000000  1
  Al  Al5  1  0.000029  0.999620  0.000000  1
  B  B6  1  0.625248  0.872952  0.000000  1
  B  B7  1  0.372952  0.125248  0.000000  1
  B  B8  1  0.125761  0.625761  0.000000  1
  B  B9  1  0.876691  0.376691  0.000000  1
  Ru  Ru10  1  0.572127  0.712679  0.500000  1
  Ru  Ru11  1  0.429729  0.286221  0.500000  1
  Ru  Ru12  1  0.070675  0.786676  0.500000  1
  Ru  Ru13  1  0.929310  0.213744  0.500000  1
  Ru  Ru14  1  0.286676  0.570675  0.500000  1
  Ru  Ru15  1  0.713744  0.429310  0.500000  1
  Ru  Ru16  1  0.212679  0.072127  0.500000  1
  Ru  Ru17  1  0.786221  0.929729  0.500000  1
  Ru  Ru18  1  0.498636  0.998636  0.500000  1
  Ru  Ru19  1  0.000343  0.500343  0.500000  1
