# generated using pymatgen
data_CsNd6Y4(C2Br9)2
_symmetry_space_group_name_H-M   'P 1'
_cell_length_a   10.89059349
_cell_length_b   10.97087500
_cell_length_c   11.12943163
_cell_angle_alpha   113.01320179
_cell_angle_beta   87.68726548
_cell_angle_gamma   118.64715871
_symmetry_Int_Tables_number   1
_chemical_formula_structural   CsNd6Y4(C2Br9)2
_chemical_formula_sum   'Cs1 Nd6 Y4 C4 Br18'
_cell_volume   1056.13564370
_cell_formula_units_Z   1
loop_
 _symmetry_equiv_pos_site_id
 _symmetry_equiv_pos_as_xyz
  1  'x, y, z'
loop_
 _atom_site_type_symbol
 _atom_site_label
 _atom_site_symmetry_multiplicity
 _atom_site_fract_x
 _atom_site_fract_y
 _atom_site_fract_z
 _atom_site_occupancy
  Cs  Cs0  1  0.499881  0.998812  0.499491  1
  Nd  Nd1  1  0.908666  0.585570  0.694187  1
  Nd  Nd2  1  0.115442  0.941839  0.001286  1
  Nd  Nd3  1  0.039400  0.962995  0.662863  1
  Nd  Nd4  1  0.344520  0.286078  0.302626  1
  Nd  Nd5  1  0.715004  0.630914  0.987752  1
  Nd  Nd6  1  0.884184  0.059883  0.999542  1
  Y  Y7  1  0.660309  0.716117  0.701718  1
  Y  Y8  1  0.278571  0.363350  0.015739  1
  Y  Y9  1  0.094181  0.408450  0.301539  1
  Y  Y10  1  0.963186  0.039631  0.330452  1
  C  C11  1  0.156532  0.232362  0.128450  1
  C  C12  1  0.839911  0.768691  0.870751  1
  C  C13  1  0.915920  0.845775  0.792726  1
  C  C14  1  0.080233  0.154994  0.206703  1
  Br  Br15  1  0.447621  0.529558  0.830364  1
  Br  Br16  1  0.388674  0.036109  0.162057  1
  Br  Br17  1  0.771850  0.856999  0.499433  1
  Br  Br18  1  0.841045  0.319574  0.161437  1
  Br  Br19  1  0.544257  0.468246  0.165289  1
  Br  Br20  1  0.220343  0.141522  0.495799  1
  Br  Br21  1  0.316807  0.106224  0.835450  1
  Br  Br22  1  0.689762  0.905196  0.174827  1
  Br  Br23  1  0.978661  0.767952  0.178506  1
  Br  Br24  1  0.933885  0.297305  0.495596  1
  Br  Br25  1  0.028837  0.244433  0.831806  1
  Br  Br26  1  0.071495  0.695503  0.494366  1
  Br  Br27  1  0.260031  0.619253  0.187754  1
  Br  Br28  1  0.736329  0.368248  0.809532  1
  Br  Br29  1  0.635827  0.436569  0.501918  1
  Br  Br30  1  0.167640  0.686104  0.845298  1
  Br  Br31  1  0.611712  0.954569  0.832882  1
  Br  Br32  1  0.359283  0.571176  0.501862  1
