# generated using pymatgen
data_Dy8Hf11Si16Hg
_symmetry_space_group_name_H-M   'P 1'
_cell_length_a   7.29798314
_cell_length_b   7.29798371
_cell_length_c   13.29124402
_cell_angle_alpha   89.77715706
_cell_angle_beta   90.22284231
_cell_angle_gamma   89.82268411
_symmetry_Int_Tables_number   1
_chemical_formula_structural   Dy8Hf11Si16Hg
_chemical_formula_sum   'Dy8 Hf11 Si16 Hg1'
_cell_volume   707.88499517
_cell_formula_units_Z   1
loop_
 _symmetry_equiv_pos_site_id
 _symmetry_equiv_pos_as_xyz
  1  'x, y, z'
loop_
 _atom_site_type_symbol
 _atom_site_label
 _atom_site_symmetry_multiplicity
 _atom_site_fract_x
 _atom_site_fract_y
 _atom_site_fract_z
 _atom_site_occupancy
  Dy  Dy0  1  0.997469  0.346175  0.211679  1
  Dy  Dy1  1  0.004236  0.656489  0.715940  1
  Dy  Dy2  1  0.154836  0.495936  0.465103  1
  Dy  Dy3  1  0.499204  0.846964  0.032989  1
  Dy  Dy4  1  0.846964  0.499204  0.967011  1
  Dy  Dy5  1  0.495936  0.154836  0.534897  1
  Dy  Dy6  1  0.346175  0.997469  0.788321  1
  Dy  Dy7  1  0.656489  0.004236  0.284060  1
  Hf  Hf8  1  0.824602  0.824602  0.500000  1
  Hf  Hf9  1  0.323521  0.676463  0.249985  1
  Hf  Hf10  1  0.676463  0.323521  0.750015  1
  Hf  Hf11  1  0.145263  0.997193  0.375150  1
  Hf  Hf12  1  0.856112  0.002527  0.878000  1
  Hf  Hf13  1  0.504541  0.647059  0.626211  1
  Hf  Hf14  1  0.355650  0.491448  0.877504  1
  Hf  Hf15  1  0.491448  0.355650  0.122496  1
  Hf  Hf16  1  0.647059  0.504541  0.373789  1
  Hf  Hf17  1  0.997193  0.145263  0.624850  1
  Hf  Hf18  1  0.002527  0.856112  0.122000  1
  Si  Si19  1  0.360100  0.295882  0.317151  1
  Si  Si20  1  0.640017  0.703731  0.819282  1
  Si  Si21  1  0.207062  0.860925  0.568686  1
  Si  Si22  1  0.130977  0.772832  0.926493  1
  Si  Si23  1  0.772832  0.130977  0.073507  1
  Si  Si24  1  0.860925  0.207062  0.431314  1
  Si  Si25  1  0.295882  0.360100  0.682849  1
  Si  Si26  1  0.703731  0.640017  0.180718  1
  Si  Si27  1  0.298596  0.048179  0.192639  1
  Si  Si28  1  0.704997  0.950852  0.686302  1
  Si  Si29  1  0.450125  0.795098  0.436053  1
  Si  Si30  1  0.210866  0.569661  0.065090  1
  Si  Si31  1  0.569661  0.210866  0.934910  1
  Si  Si32  1  0.795098  0.450125  0.563947  1
  Si  Si33  1  0.048179  0.298596  0.807361  1
  Si  Si34  1  0.950852  0.704997  0.313698  1
  Hg  Hg35  1  0.174411  0.174411  0.000000  1
