# generated using pymatgen
data_LiGeB6
_symmetry_space_group_name_H-M   'P 1'
_cell_length_a   6.38992743
_cell_length_b   6.38992699
_cell_length_c   8.46088900
_cell_angle_alpha   90.00011126
_cell_angle_beta   89.99989192
_cell_angle_gamma   122.26367098
_symmetry_Int_Tables_number   1
_chemical_formula_structural   LiGeB6
_chemical_formula_sum   'Li4 Ge4 B24'
_cell_volume   292.12790103
_cell_formula_units_Z   4
loop_
 _symmetry_equiv_pos_site_id
 _symmetry_equiv_pos_as_xyz
  1  'x, y, z'
loop_
 _atom_site_type_symbol
 _atom_site_label
 _atom_site_symmetry_multiplicity
 _atom_site_fract_x
 _atom_site_fract_y
 _atom_site_fract_z
 _atom_site_occupancy
  Li  Li0  1  0.325231  0.674768  0.661391  1
  Li  Li1  1  0.825228  0.174772  0.838610  1
  Li  Li2  1  0.174769  0.825231  0.161389  1
  Li  Li3  1  0.674770  0.325230  0.338606  1
  Ge  Ge4  1  0.667372  0.332629  0.620014  1
  Ge  Ge5  1  0.167380  0.832620  0.879982  1
  Ge  Ge6  1  0.832627  0.167373  0.120019  1
  Ge  Ge7  1  0.332623  0.667377  0.379987  1
  B  B8  1  0.309044  0.153944  0.530914  1
  B  B9  1  0.846056  0.690956  0.530914  1
  B  B10  1  0.851514  0.148486  0.555738  1
  B  B11  1  0.098007  0.901993  0.649165  1
  B  B12  1  0.119948  0.197355  0.666062  1
  B  B13  1  0.802645  0.880052  0.666062  1
  B  B14  1  0.302648  0.380051  0.833945  1
  B  B15  1  0.619949  0.697352  0.833945  1
  B  B16  1  0.598008  0.401992  0.850828  1
  B  B17  1  0.351519  0.648481  0.944261  1
  B  B18  1  0.346051  0.190938  0.969082  1
  B  B19  1  0.809062  0.653949  0.969082  1
  B  B20  1  0.190947  0.346053  0.030918  1
  B  B21  1  0.653947  0.809053  0.030918  1
  B  B22  1  0.648482  0.351518  0.055739  1
  B  B23  1  0.401992  0.598008  0.149167  1
  B  B24  1  0.380048  0.302644  0.166060  1
  B  B25  1  0.697356  0.619951  0.166060  1
  B  B26  1  0.197350  0.119948  0.333942  1
  B  B27  1  0.880052  0.802650  0.333942  1
  B  B28  1  0.901993  0.098007  0.350831  1
  B  B29  1  0.148484  0.851516  0.444261  1
  B  B30  1  0.153947  0.309054  0.469085  1
  B  B31  1  0.690946  0.846053  0.469085  1
