# generated using pymatgen
data_K4ZrSnCl12
_symmetry_space_group_name_H-M   'P 1'
_cell_length_a   7.10089500
_cell_length_b   7.10089500
_cell_length_c   10.63462100
_cell_angle_alpha   90.00000000
_cell_angle_beta   90.00000000
_cell_angle_gamma   90.00000000
_symmetry_Int_Tables_number   1
_chemical_formula_structural   K4ZrSnCl12
_chemical_formula_sum   'K4 Zr1 Sn1 Cl12'
_cell_volume   536.22640853
_cell_formula_units_Z   1
loop_
 _symmetry_equiv_pos_site_id
 _symmetry_equiv_pos_as_xyz
  1  'x, y, z'
loop_
 _atom_site_type_symbol
 _atom_site_label
 _atom_site_symmetry_multiplicity
 _atom_site_fract_x
 _atom_site_fract_y
 _atom_site_fract_z
 _atom_site_occupancy
  K  K0  1  0.000000  0.500000  0.250192  1
  K  K1  1  0.500000  0.000000  0.250192  1
  K  K2  1  0.000000  0.500000  0.749808  1
  K  K3  1  0.500000  0.000000  0.749808  1
  Zr  Zr4  1  0.000000  0.000000  0.000000  1
  Sn  Sn5  1  0.500000  0.500000  0.500000  1
  Cl  Cl6  1  0.000000  0.000000  0.235318  1
  Cl  Cl7  1  0.500000  0.500000  0.266492  1
  Cl  Cl8  1  0.000000  0.000000  0.764681  1
  Cl  Cl9  1  0.500000  0.500000  0.733508  1
  Cl  Cl10  1  0.196610  0.289841  0.000000  1
  Cl  Cl11  1  0.710159  0.196610  0.000000  1
  Cl  Cl12  1  0.289841  0.803390  0.000000  1
  Cl  Cl13  1  0.697231  0.214555  0.500000  1
  Cl  Cl14  1  0.302769  0.785445  0.500000  1
  Cl  Cl15  1  0.803390  0.710159  0.000000  1
  Cl  Cl16  1  0.785445  0.697231  0.500000  1
  Cl  Cl17  1  0.214555  0.302769  0.500000  1
