# generated using pymatgen
data_SrU3F12
_symmetry_space_group_name_H-M   'P 1'
_cell_length_a   4.60542130
_cell_length_b   6.85428771
_cell_length_c   7.30856900
_cell_angle_alpha   90.00000000
_cell_angle_beta   90.00000000
_cell_angle_gamma   91.09349192
_symmetry_Int_Tables_number   1
_chemical_formula_structural   SrU3F12
_chemical_formula_sum   'Sr1 U3 F12'
_cell_volume   230.66672450
_cell_formula_units_Z   1
loop_
 _symmetry_equiv_pos_site_id
 _symmetry_equiv_pos_as_xyz
  1  'x, y, z'
loop_
 _atom_site_type_symbol
 _atom_site_label
 _atom_site_symmetry_multiplicity
 _atom_site_fract_x
 _atom_site_fract_y
 _atom_site_fract_z
 _atom_site_occupancy
  Sr  Sr0  1  0.054243  0.365602  0.250000  1
  U  U1  1  0.942388  0.632253  0.750000  1
  U  U2  1  0.436557  0.864354  0.250000  1
  U  U3  1  0.556939  0.133855  0.750000  1
  F  F4  1  0.084001  0.979972  0.750000  1
  F  F5  1  0.581332  0.547534  0.250000  1
  F  F6  1  0.412775  0.478701  0.750000  1
  F  F7  1  0.911385  0.997024  0.250000  1
  F  F8  1  0.389825  0.151655  0.059811  1
  F  F9  1  0.879521  0.338468  0.925738  1
  F  F10  1  0.121475  0.675139  0.447493  1
  F  F11  1  0.619370  0.835091  0.570459  1
  F  F12  1  0.619370  0.835091  0.929541  1
  F  F13  1  0.121475  0.675139  0.052507  1
  F  F14  1  0.879521  0.338468  0.574262  1
  F  F15  1  0.389825  0.151655  0.440189  1
