# generated using pymatgen
data_Y3Er7Cd3Pt
_symmetry_space_group_name_H-M   'P 1'
_cell_length_a   9.62059900
_cell_length_b   9.62059863
_cell_length_c   9.76421500
_cell_angle_alpha   90.00000000
_cell_angle_beta   90.00000000
_cell_angle_gamma   119.99999782
_symmetry_Int_Tables_number   1
_chemical_formula_structural   Y3Er7Cd3Pt
_chemical_formula_sum   'Y6 Er14 Cd6 Pt2'
_cell_volume   782.65828053
_cell_formula_units_Z   2
loop_
 _symmetry_equiv_pos_site_id
 _symmetry_equiv_pos_as_xyz
  1  'x, y, z'
loop_
 _atom_site_type_symbol
 _atom_site_label
 _atom_site_symmetry_multiplicity
 _atom_site_fract_x
 _atom_site_fract_y
 _atom_site_fract_z
 _atom_site_occupancy
  Y  Y0  1  0.541980  0.458020  0.250000  1
  Y  Y1  1  0.541980  0.083960  0.250000  1
  Y  Y2  1  0.916040  0.458020  0.250000  1
  Y  Y3  1  0.458020  0.541980  0.750000  1
  Y  Y4  1  0.458020  0.916040  0.750000  1
  Y  Y5  1  0.083960  0.541980  0.750000  1
  Er  Er6  1  0.000000  0.000000  0.500000  1
  Er  Er7  1  0.000000  0.000000  0.000000  1
  Er  Er8  1  0.208574  0.791426  0.442502  1
  Er  Er9  1  0.208574  0.417149  0.442502  1
  Er  Er10  1  0.582851  0.791426  0.442502  1
  Er  Er11  1  0.791426  0.208574  0.557498  1
  Er  Er12  1  0.791426  0.582851  0.557498  1
  Er  Er13  1  0.417149  0.208574  0.557498  1
  Er  Er14  1  0.791426  0.208574  0.942502  1
  Er  Er15  1  0.791426  0.582851  0.942502  1
  Er  Er16  1  0.417149  0.208574  0.942502  1
  Er  Er17  1  0.208574  0.791426  0.057498  1
  Er  Er18  1  0.208574  0.417149  0.057498  1
  Er  Er19  1  0.582851  0.791426  0.057498  1
  Cd  Cd20  1  0.885583  0.114417  0.250000  1
  Cd  Cd21  1  0.885583  0.771166  0.250000  1
  Cd  Cd22  1  0.228834  0.114417  0.250000  1
  Cd  Cd23  1  0.114417  0.885583  0.750000  1
  Cd  Cd24  1  0.114417  0.228834  0.750000  1
  Cd  Cd25  1  0.771166  0.885583  0.750000  1
  Pt  Pt26  1  0.333333  0.666667  0.250000  1
  Pt  Pt27  1  0.666667  0.333333  0.750000  1
