# generated using pymatgen
data_La3Y7C4I15
_symmetry_space_group_name_H-M   'P 1'
_cell_length_a   9.72851070
_cell_length_b   10.52371430
_cell_length_c   11.67720400
_cell_angle_alpha   93.15628631
_cell_angle_beta   114.27179022
_cell_angle_gamma   109.62422770
_symmetry_Int_Tables_number   1
_chemical_formula_structural   La3Y7C4I15
_chemical_formula_sum   'La3 Y7 C4 I15'
_cell_volume   1000.23479206
_cell_formula_units_Z   1
loop_
 _symmetry_equiv_pos_site_id
 _symmetry_equiv_pos_as_xyz
  1  'x, y, z'
loop_
 _atom_site_type_symbol
 _atom_site_label
 _atom_site_symmetry_multiplicity
 _atom_site_fract_x
 _atom_site_fract_y
 _atom_site_fract_z
 _atom_site_occupancy
  La  La0  1  0.706389  0.568916  0.045187  1
  La  La1  1  0.293035  0.432482  0.955244  1
  La  La2  1  0.663590  0.254233  0.835484  1
  Y  Y3  1  0.590691  0.542547  0.336822  1
  Y  Y4  1  0.351631  0.743081  0.162969  1
  Y  Y5  1  0.766847  0.874191  0.252569  1
  Y  Y6  1  0.525590  0.186319  0.098222  1
  Y  Y7  1  0.236293  0.124341  0.750224  1
  Y  Y8  1  0.405734  0.457496  0.662634  1
  Y  Y9  1  0.473176  0.814742  0.901537  1
  C  C10  1  0.482950  0.297597  0.938228  1
  C  C11  1  0.517550  0.704268  0.062000  1
  C  C12  1  0.454174  0.361950  0.832796  1
  C  C13  1  0.545308  0.638206  0.166800  1
  I  I14  1  0.216292  0.908148  0.940278  1
  I  I15  1  0.113044  0.193130  0.480081  1
  I  I16  1  0.165638  0.565843  0.698579  1
  I  I17  1  0.394855  0.963034  0.652543  1
  I  I18  1  0.698668  0.738480  0.811144  1
  I  I19  1  0.298351  0.261577  0.187000  1
  I  I20  1  0.832283  0.433744  0.301778  1
  I  I21  1  0.884774  0.805334  0.522063  1
  I  I22  1  0.356944  0.626593  0.406978  1
  I  I23  1  0.051334  0.842988  0.225527  1
  I  I24  1  0.786073  0.088869  0.068910  1
  I  I25  1  0.638236  0.380453  0.582822  1
  I  I26  1  0.949088  0.156410  0.775094  1
  I  I27  1  0.590818  0.024521  0.340521  1
  I  I28  1  0.010640  0.510504  0.005963  1
