# generated using pymatgen
data_Ho2Al3Tc
_symmetry_space_group_name_H-M   'P 1'
_cell_length_a   5.50004800
_cell_length_b   5.50004775
_cell_length_c   8.90809400
_cell_angle_alpha   90.00000000
_cell_angle_beta   90.00000000
_cell_angle_gamma   120.00000151
_symmetry_Int_Tables_number   1
_chemical_formula_structural   Ho2Al3Tc
_chemical_formula_sum   'Ho4 Al6 Tc2'
_cell_volume   233.37178916
_cell_formula_units_Z   2
loop_
 _symmetry_equiv_pos_site_id
 _symmetry_equiv_pos_as_xyz
  1  'x, y, z'
loop_
 _atom_site_type_symbol
 _atom_site_label
 _atom_site_symmetry_multiplicity
 _atom_site_fract_x
 _atom_site_fract_y
 _atom_site_fract_z
 _atom_site_occupancy
  Ho  Ho0  1  0.666667  0.333334  0.052334  1
  Ho  Ho1  1  0.666667  0.333334  0.447666  1
  Ho  Ho2  1  0.333334  0.666668  0.552333  1
  Ho  Ho3  1  0.333334  0.666668  0.947667  1
  Al  Al4  1  0.162412  0.324824  0.250000  1
  Al  Al5  1  0.162413  0.837588  0.250000  1
  Al  Al6  1  0.675176  0.837588  0.250000  1
  Al  Al7  1  0.324824  0.162413  0.750000  1
  Al  Al8  1  0.837588  0.162413  0.750000  1
  Al  Al9  1  0.837587  0.675176  0.750000  1
  Tc  Tc10  1  0.000000  0.000000  0.000000  1
  Tc  Tc11  1  0.000000  0.000000  0.500000  1
