# generated using pymatgen
data_La2TcH6
_symmetry_space_group_name_H-M   'P 1'
_cell_length_a   5.32039009
_cell_length_b   5.32039053
_cell_length_c   5.32039000
_cell_angle_alpha   60.00000330
_cell_angle_beta   60.00000055
_cell_angle_gamma   60.00000671
_symmetry_Int_Tables_number   1
_chemical_formula_structural   La2TcH6
_chemical_formula_sum   'La2 Tc1 H6'
_cell_volume   106.49163449
_cell_formula_units_Z   1
loop_
 _symmetry_equiv_pos_site_id
 _symmetry_equiv_pos_as_xyz
  1  'x, y, z'
loop_
 _atom_site_type_symbol
 _atom_site_label
 _atom_site_symmetry_multiplicity
 _atom_site_fract_x
 _atom_site_fract_y
 _atom_site_fract_z
 _atom_site_occupancy
  La  La0  1  0.250000  0.250000  0.250000  1
  La  La1  1  0.750000  0.750000  0.750000  1
  Tc  Tc2  1  0.000000  0.000000  0.000000  1
  H  H3  1  0.761594  0.238406  0.238406  1
  H  H4  1  0.238406  0.761594  0.761594  1
  H  H5  1  0.238406  0.761594  0.238406  1
  H  H6  1  0.761594  0.238406  0.761594  1
  H  H7  1  0.238406  0.238406  0.761594  1
  H  H8  1  0.761594  0.761594  0.238406  1
