# generated using pymatgen
data_Dy2YGa3(Ni3Sn)3
_symmetry_space_group_name_H-M   'P 1'
_cell_length_a   4.06029300
_cell_length_b   9.14311099
_cell_length_c   9.15324600
_cell_angle_alpha   60.12336029
_cell_angle_beta   90.00000000
_cell_angle_gamma   90.00000000
_symmetry_Int_Tables_number   1
_chemical_formula_structural   Dy2YGa3(Ni3Sn)3
_chemical_formula_sum   'Dy2 Y1 Ga3 Ni9 Sn3'
_cell_volume   294.64267278
_cell_formula_units_Z   1
loop_
 _symmetry_equiv_pos_site_id
 _symmetry_equiv_pos_as_xyz
  1  'x, y, z'
loop_
 _atom_site_type_symbol
 _atom_site_label
 _atom_site_symmetry_multiplicity
 _atom_site_fract_x
 _atom_site_fract_y
 _atom_site_fract_z
 _atom_site_occupancy
  Dy  Dy0  1  0.500000  0.666640  0.666567  1
  Dy  Dy1  1  0.000000  0.000076  0.000035  1
  Y  Y2  1  0.500000  0.333375  0.333379  1
  Ga  Ga3  1  0.500000  0.258038  0.742349  1
  Ga  Ga4  1  0.500000  0.742381  0.999554  1
  Ga  Ga5  1  0.500000  0.999683  0.257905  1
  Ni  Ni6  1  0.000000  0.160910  0.205253  1
  Ni  Ni7  1  0.000000  0.204594  0.634568  1
  Ni  Ni8  1  0.000000  0.634216  0.160672  1
  Ni  Ni9  1  0.000000  0.794876  0.838402  1
  Ni  Ni10  1  0.000000  0.366499  0.795121  1
  Ni  Ni11  1  0.000000  0.838569  0.366489  1
  Ni  Ni12  1  0.500000  0.720118  0.279321  1
  Ni  Ni13  1  0.500000  0.279961  0.000584  1
  Ni  Ni14  1  0.500000  0.999883  0.719994  1
  Sn  Sn15  1  0.000000  0.528565  0.471279  1
  Sn  Sn16  1  0.000000  0.471346  0.000093  1
  Sn  Sn17  1  0.000000  0.000169  0.528536  1
