# generated using pymatgen
data_Dy4ErMn2P12Ir17
_symmetry_space_group_name_H-M   'P 1'
_cell_length_a   12.63316900
_cell_length_b   12.72240733
_cell_length_c   3.96817800
_cell_angle_alpha   90.00000000
_cell_angle_beta   90.00000000
_cell_angle_gamma   119.76692607
_symmetry_Int_Tables_number   1
_chemical_formula_structural   Dy4ErMn2P12Ir17
_chemical_formula_sum   'Dy4 Er1 Mn2 P12 Ir17'
_cell_volume   553.62868293
_cell_formula_units_Z   1
loop_
 _symmetry_equiv_pos_site_id
 _symmetry_equiv_pos_as_xyz
  1  'x, y, z'
loop_
 _atom_site_type_symbol
 _atom_site_label
 _atom_site_symmetry_multiplicity
 _atom_site_fract_x
 _atom_site_fract_y
 _atom_site_fract_z
 _atom_site_occupancy
  Dy  Dy0  1  0.668803  0.336306  0.500000  1
  Dy  Dy1  1  0.000003  0.811357  0.000000  1
  Dy  Dy2  1  0.188632  0.188632  0.000000  1
  Dy  Dy3  1  0.813550  0.000014  0.000000  1
  Er  Er4  1  0.332517  0.663694  0.500000  1
  Mn  Mn5  1  0.999649  0.457926  0.500000  1
  Mn  Mn6  1  0.541721  0.542105  0.500000  1
  P  P7  1  0.999770  0.634980  0.500000  1
  P  P8  1  0.364861  0.364987  0.500000  1
  P  P9  1  0.643652  0.000060  0.500000  1
  P  P10  1  0.515334  0.684060  0.000000  1
  P  P11  1  0.309173  0.824379  0.000000  1
  P  P12  1  0.167044  0.481465  0.000000  1
  P  P13  1  0.484499  0.175314  0.000000  1
  P  P14  1  0.685543  0.518821  0.000000  1
  P  P15  1  0.831582  0.315960  0.000000  1
  P  P16  1  0.999839  0.178040  0.500000  1
  P  P17  1  0.821777  0.821983  0.500000  1
  P  P18  1  0.179087  0.999963  0.500000  1
  Ir  Ir19  1  0.505381  0.865505  0.000000  1
  Ir  Ir20  1  0.129884  0.638371  0.000000  1
  Ir  Ir21  1  0.358431  0.492209  0.000000  1
  Ir  Ir22  1  0.490967  0.361704  0.000000  1
  Ir  Ir23  1  0.866861  0.508340  0.000000  1
  Ir  Ir24  1  0.639830  0.133915  0.000000  1
  Ir  Ir25  1  0.462247  0.999990  0.500000  1
  Ir  Ir26  1  0.998204  0.282622  0.000000  1
  Ir  Ir27  1  0.715489  0.717430  0.000000  1
  Ir  Ir28  1  0.287147  0.999931  0.000000  1
  Ir  Ir29  1  0.621903  0.803941  0.500000  1
  Ir  Ir30  1  0.198375  0.821374  0.500000  1
  Ir  Ir31  1  0.178196  0.373640  0.500000  1
  Ir  Ir32  1  0.376787  0.178488  0.500000  1
  Ir  Ir33  1  0.804614  0.626523  0.500000  1
  Ir  Ir34  1  0.818092  0.195964  0.500000  1
  Ir  Ir35  1  0.000555  0.000006  0.500000  1
