# generated using pymatgen
data_Li4AcTb3Si8
_symmetry_space_group_name_H-M   'P 1'
_cell_length_a   3.86478700
_cell_length_b   7.72294423
_cell_length_c   10.43973712
_cell_angle_alpha   89.56713471
_cell_angle_beta   90.00000000
_cell_angle_gamma   90.00000000
_symmetry_Int_Tables_number   1
_chemical_formula_structural   Li4AcTb3Si8
_chemical_formula_sum   'Li4 Ac1 Tb3 Si8'
_cell_volume   311.59152073
_cell_formula_units_Z   1
loop_
 _symmetry_equiv_pos_site_id
 _symmetry_equiv_pos_as_xyz
  1  'x, y, z'
loop_
 _atom_site_type_symbol
 _atom_site_label
 _atom_site_symmetry_multiplicity
 _atom_site_fract_x
 _atom_site_fract_y
 _atom_site_fract_z
 _atom_site_occupancy
  Li  Li0  1  0.250000  0.996913  0.391965  1
  Li  Li1  1  0.750000  0.008617  0.612572  1
  Li  Li2  1  0.250000  0.490285  0.104779  1
  Li  Li3  1  0.750000  0.508962  0.893522  1
  Ac  Ac4  1  0.750000  0.357664  0.363580  1
  Tb  Tb5  1  0.250000  0.131191  0.864104  1
  Tb  Tb6  1  0.750000  0.862453  0.132299  1
  Tb  Tb7  1  0.250000  0.638186  0.638031  1
  Si  Si8  1  0.750000  0.259517  0.059425  1
  Si  Si9  1  0.250000  0.731030  0.930032  1
  Si  Si10  1  0.750000  0.782133  0.430714  1
  Si  Si11  1  0.250000  0.227178  0.583330  1
  Si  Si12  1  0.750000  0.839197  0.820284  1
  Si  Si13  1  0.250000  0.150340  0.167873  1
  Si  Si14  1  0.750000  0.340703  0.688201  1
  Si  Si15  1  0.250000  0.675630  0.319288  1
