# generated using pymatgen
data_Mn3ZnP6SN12
_symmetry_space_group_name_H-M   'P 1'
_cell_length_a   7.20155063
_cell_length_b   7.22221784
_cell_length_c   7.22221569
_cell_angle_alpha   109.52910821
_cell_angle_beta   109.41326915
_cell_angle_gamma   109.41326931
_symmetry_Int_Tables_number   1
_chemical_formula_structural   Mn3ZnP6SN12
_chemical_formula_sum   'Mn3 Zn1 P6 S1 N12'
_cell_volume   289.37118385
_cell_formula_units_Z   1
loop_
 _symmetry_equiv_pos_site_id
 _symmetry_equiv_pos_as_xyz
  1  'x, y, z'
loop_
 _atom_site_type_symbol
 _atom_site_label
 _atom_site_symmetry_multiplicity
 _atom_site_fract_x
 _atom_site_fract_y
 _atom_site_fract_z
 _atom_site_occupancy
  Mn  Mn0  1  0.999804  0.667261  0.000000  1
  Mn  Mn1  1  0.332545  0.332740  0.332740  1
  Mn  Mn2  1  0.999804  0.000000  0.667261  1
  Zn  Zn3  1  0.660696  0.000000  0.000000  1
  P  P4  1  0.750883  0.498977  0.249249  1
  P  P5  1  0.501634  0.750751  0.249728  1
  P  P6  1  0.750883  0.249249  0.498977  1
  P  P7  1  0.251906  0.750272  0.501023  1
  P  P8  1  0.501634  0.249728  0.750751  1
  P  P9  1  0.251906  0.501023  0.750272  1
  S  S10  1  0.986229  0.000000  0.000000  1
  N  N11  1  0.726612  0.441391  0.000000  1
  N  N12  1  0.443422  0.728084  0.000000  1
  N  N13  1  0.715339  0.271917  0.271917  1
  N  N14  1  0.276007  0.717115  0.275180  1
  N  N15  1  0.558891  0.558064  0.282886  1
  N  N16  1  0.726612  0.000000  0.441391  1
  N  N17  1  0.000827  0.724821  0.441935  1
  N  N18  1  0.558891  0.282886  0.558064  1
  N  N19  1  0.285220  0.558608  0.558608  1
  N  N20  1  0.276007  0.275180  0.717115  1
  N  N21  1  0.443422  0.000000  0.728084  1
  N  N22  1  0.000827  0.441935  0.724821  1
