# generated using pymatgen
data_Hf4Ni5IrPt6
_symmetry_space_group_name_H-M   'P 1'
_cell_length_a   5.56036678
_cell_length_b   5.52133953
_cell_length_c   9.02422412
_cell_angle_alpha   89.78892290
_cell_angle_beta   90.41061574
_cell_angle_gamma   119.76531723
_symmetry_Int_Tables_number   1
_chemical_formula_structural   Hf4Ni5IrPt6
_chemical_formula_sum   'Hf4 Ni5 Ir1 Pt6'
_cell_volume   240.49132763
_cell_formula_units_Z   1
loop_
 _symmetry_equiv_pos_site_id
 _symmetry_equiv_pos_as_xyz
  1  'x, y, z'
loop_
 _atom_site_type_symbol
 _atom_site_label
 _atom_site_symmetry_multiplicity
 _atom_site_fract_x
 _atom_site_fract_y
 _atom_site_fract_z
 _atom_site_occupancy
  Hf  Hf0  1  0.001928  0.999427  0.495586  1
  Hf  Hf1  1  0.669973  0.334622  0.753043  1
  Hf  Hf2  1  0.329050  0.670724  0.247141  1
  Hf  Hf3  1  0.002299  0.999463  0.004496  1
  Ni  Ni4  1  0.176584  0.351376  0.750453  1
  Ni  Ni5  1  0.823165  0.648512  0.249725  1
  Ni  Ni6  1  0.346097  0.168945  0.250803  1
  Ni  Ni7  1  0.497861  0.000000  0.497074  1
  Ni  Ni8  1  0.498565  0.000026  0.002504  1
  Ir  Ir9  1  0.999644  0.499825  0.000908  1
  Pt  Pt10  1  0.496460  0.493034  0.005072  1
  Pt  Pt11  1  0.814511  0.162599  0.249662  1
  Pt  Pt12  1  0.496609  0.493244  0.494774  1
  Pt  Pt13  1  0.181183  0.839087  0.750460  1
  Pt  Pt14  1  0.666198  0.839627  0.748927  1
  Pt  Pt15  1  0.999874  0.499488  0.499373  1
