# generated using pymatgen
data_BaCrTeO6
_symmetry_space_group_name_H-M   'P 1'
_cell_length_a   5.26633486
_cell_length_b   5.17463801
_cell_length_c   11.71518689
_cell_angle_alpha   88.77245589
_cell_angle_beta   90.60920140
_cell_angle_gamma   119.43766366
_symmetry_Int_Tables_number   1
_chemical_formula_structural   BaCrTeO6
_chemical_formula_sum   'Ba2 Cr2 Te2 O12'
_cell_volume   277.97244462
_cell_formula_units_Z   2
loop_
 _symmetry_equiv_pos_site_id
 _symmetry_equiv_pos_as_xyz
  1  'x, y, z'
loop_
 _atom_site_type_symbol
 _atom_site_label
 _atom_site_symmetry_multiplicity
 _atom_site_fract_x
 _atom_site_fract_y
 _atom_site_fract_z
 _atom_site_occupancy
  Ba  Ba0  1  0.000000  0.000000  0.000000  1
  Ba  Ba1  1  0.000001  0.000000  0.500000  1
  Cr  Cr2  1  0.320235  0.660094  0.249982  1
  Cr  Cr3  1  0.679765  0.339905  0.750018  1
  Te  Te4  1  0.666685  0.333326  0.250029  1
  Te  Te5  1  0.333315  0.666675  0.749971  1
  O  O6  1  0.609267  0.609594  0.154173  1
  O  O7  1  0.000000  0.389525  0.156148  1
  O  O8  1  0.398365  0.997942  0.154664  1
  O  O9  1  0.999904  0.610508  0.343810  1
  O  O10  1  0.398352  0.400565  0.345310  1
  O  O11  1  0.609168  0.999621  0.345784  1
  O  O12  1  0.390833  0.000380  0.654217  1
  O  O13  1  0.601649  0.599435  0.654690  1
  O  O14  1  0.000097  0.389493  0.656190  1
  O  O15  1  0.601635  0.002059  0.845337  1
  O  O16  1  0.000001  0.610476  0.843853  1
  O  O17  1  0.390734  0.390407  0.845826  1
