# generated using pymatgen
data_Pa3Sb4Pd2Pt
_symmetry_space_group_name_H-M   'P 1'
_cell_length_a   8.47412718
_cell_length_b   8.47412709
_cell_length_c   8.47412649
_cell_angle_alpha   109.61503977
_cell_angle_beta   109.61503463
_cell_angle_gamma   109.18397049
_symmetry_Int_Tables_number   1
_chemical_formula_structural   Pa3Sb4Pd2Pt
_chemical_formula_sum   'Pa6 Sb8 Pd4 Pt2'
_cell_volume   468.44090472
_cell_formula_units_Z   2
loop_
 _symmetry_equiv_pos_site_id
 _symmetry_equiv_pos_as_xyz
  1  'x, y, z'
loop_
 _atom_site_type_symbol
 _atom_site_label
 _atom_site_symmetry_multiplicity
 _atom_site_fract_x
 _atom_site_fract_y
 _atom_site_fract_z
 _atom_site_occupancy
  Pa  Pa0  1  0.872167  0.250000  0.122167  1
  Pa  Pa1  1  0.627833  0.750000  0.377833  1
  Pa  Pa2  1  0.250000  0.127833  0.877833  1
  Pa  Pa3  1  0.750000  0.372167  0.622167  1
  Pa  Pa4  1  0.125000  0.875000  0.250000  1
  Pa  Pa5  1  0.375000  0.625000  0.750000  1
  Sb  Sb6  1  0.676358  0.502835  0.999451  1
  Sb  Sb7  1  0.496616  0.997165  0.673523  1
  Sb  Sb8  1  0.003384  0.676907  0.500549  1
  Sb  Sb9  1  0.823642  0.823093  0.826477  1
  Sb  Sb10  1  0.497165  0.996616  0.173523  1
  Sb  Sb11  1  0.176907  0.503384  0.000549  1
  Sb  Sb12  1  0.002835  0.176358  0.499451  1
  Sb  Sb13  1  0.323093  0.323642  0.326477  1
  Pd  Pd14  1  0.376513  0.250000  0.626513  1
  Pd  Pd15  1  0.123487  0.750000  0.873487  1
  Pd  Pd16  1  0.250000  0.623487  0.373487  1
  Pd  Pd17  1  0.750000  0.876513  0.126513  1
  Pt  Pt18  1  0.625000  0.375000  0.250000  1
  Pt  Pt19  1  0.875000  0.125000  0.750000  1
