# generated using pymatgen
data_HoTi4(ReTc)12
_symmetry_space_group_name_H-M   'P 1'
_cell_length_a   8.37554342
_cell_length_b   8.37554301
_cell_length_c   8.37554300
_cell_angle_alpha   109.47122304
_cell_angle_beta   109.47122203
_cell_angle_gamma   109.47122025
_symmetry_Int_Tables_number   1
_chemical_formula_structural   HoTi4(ReTc)12
_chemical_formula_sum   'Ho1 Ti4 Re12 Tc12'
_cell_volume   452.29004738
_cell_formula_units_Z   1
loop_
 _symmetry_equiv_pos_site_id
 _symmetry_equiv_pos_as_xyz
  1  'x, y, z'
loop_
 _atom_site_type_symbol
 _atom_site_label
 _atom_site_symmetry_multiplicity
 _atom_site_fract_x
 _atom_site_fract_y
 _atom_site_fract_z
 _atom_site_occupancy
  Ho  Ho0  1  0.000000  0.000000  0.000000  1
  Ti  Ti1  1  0.626902  0.000000  0.000000  1
  Ti  Ti2  1  0.000000  0.626902  0.000000  1
  Ti  Ti3  1  0.000000  0.000000  0.626902  1
  Ti  Ti4  1  0.373098  0.373098  0.373098  1
  Re  Re5  1  0.378769  0.194784  0.000000  1
  Re  Re6  1  0.183985  0.805216  0.805216  1
  Re  Re7  1  0.378769  0.000000  0.194784  1
  Re  Re8  1  0.194784  0.378769  0.000000  1
  Re  Re9  1  0.000000  0.378769  0.194784  1
  Re  Re10  1  0.805216  0.183985  0.805216  1
  Re  Re11  1  0.805216  0.805216  0.183985  1
  Re  Re12  1  0.000000  0.194784  0.378769  1
  Re  Re13  1  0.194784  0.000000  0.378769  1
  Re  Re14  1  0.621231  0.621231  0.816015  1
  Re  Re15  1  0.816015  0.621231  0.621231  1
  Re  Re16  1  0.621231  0.816015  0.621231  1
  Tc  Tc17  1  0.401395  0.681446  0.000000  1
  Tc  Tc18  1  0.719948  0.318554  0.318554  1
  Tc  Tc19  1  0.401395  0.000000  0.681446  1
  Tc  Tc20  1  0.681446  0.401395  0.000000  1
  Tc  Tc21  1  0.000000  0.401395  0.681446  1
  Tc  Tc22  1  0.318554  0.719948  0.318554  1
  Tc  Tc23  1  0.318554  0.318554  0.719948  1
  Tc  Tc24  1  0.000000  0.681446  0.401395  1
  Tc  Tc25  1  0.681446  0.000000  0.401395  1
  Tc  Tc26  1  0.598605  0.598605  0.280052  1
  Tc  Tc27  1  0.280052  0.598605  0.598605  1
  Tc  Tc28  1  0.598605  0.280052  0.598605  1
