# generated using pymatgen
data_Pr4GaS3
_symmetry_space_group_name_H-M   'P 1'
_cell_length_a   7.22886748
_cell_length_b   7.22886707
_cell_length_c   7.22886600
_cell_angle_alpha   131.85907993
_cell_angle_beta   131.85907672
_cell_angle_gamma   70.45168091
_symmetry_Int_Tables_number   1
_chemical_formula_structural   Pr4GaS3
_chemical_formula_sum   'Pr4 Ga1 S3'
_cell_volume   205.33041611
_cell_formula_units_Z   1
loop_
 _symmetry_equiv_pos_site_id
 _symmetry_equiv_pos_as_xyz
  1  'x, y, z'
loop_
 _atom_site_type_symbol
 _atom_site_label
 _atom_site_symmetry_multiplicity
 _atom_site_fract_x
 _atom_site_fract_y
 _atom_site_fract_z
 _atom_site_occupancy
  Pr  Pr0  1  0.253887  0.253887  0.000000  1
  Pr  Pr1  1  0.746113  0.746113  0.000000  1
  Pr  Pr2  1  0.499999  0.000000  0.499999  1
  Pr  Pr3  1  0.000000  0.499999  0.499999  1
  Ga  Ga4  1  0.000000  0.000000  0.000000  1
  S  S5  1  0.500000  0.500000  0.000000  1
  S  S6  1  0.750000  0.250000  0.499999  1
  S  S7  1  0.250000  0.750000  0.499999  1
