# generated using pymatgen
data_Hf3ScSiGe5Ir7
_symmetry_space_group_name_H-M   'P 1'
_cell_length_a   7.09111607
_cell_length_b   7.09564272
_cell_length_c   7.09555519
_cell_angle_alpha   109.61255516
_cell_angle_beta   109.41309213
_cell_angle_gamma   109.41361314
_symmetry_Int_Tables_number   1
_chemical_formula_structural   Hf3ScSiGe5Ir7
_chemical_formula_sum   'Hf3 Sc1 Si1 Ge5 Ir7'
_cell_volume   274.74654127
_cell_formula_units_Z   1
loop_
 _symmetry_equiv_pos_site_id
 _symmetry_equiv_pos_as_xyz
  1  'x, y, z'
loop_
 _atom_site_type_symbol
 _atom_site_label
 _atom_site_symmetry_multiplicity
 _atom_site_fract_x
 _atom_site_fract_y
 _atom_site_fract_z
 _atom_site_occupancy
  Hf  Hf0  1  0.000000  0.997452  0.525652  1
  Hf  Hf1  1  0.474182  0.997832  0.997699  1
  Hf  Hf2  1  0.525818  0.523650  0.523517  1
  Sc  Sc3  1  0.000000  0.514307  0.997839  1
  Si  Si4  1  0.000000  0.664754  0.668427  1
  Ge  Ge5  1  0.690991  0.692425  0.006342  1
  Ge  Ge6  1  0.309009  0.001433  0.315351  1
  Ge  Ge7  1  0.000000  0.302162  0.301196  1
  Ge  Ge8  1  0.314244  0.322090  0.006498  1
  Ge  Ge9  1  0.685756  0.007846  0.692254  1
  Ir  Ir10  1  0.749574  0.249913  0.496773  1
  Ir  Ir11  1  0.750358  0.499985  0.252201  1
  Ir  Ir12  1  0.497005  0.249988  0.748891  1
  Ir  Ir13  1  0.250426  0.500338  0.747198  1
  Ir  Ir14  1  0.249642  0.749628  0.501843  1
  Ir  Ir15  1  0.502995  0.752984  0.251888  1
  Ir  Ir16  1  0.000000  0.973213  0.966431  1
