# generated using pymatgen
data_TbTl3(IO3)6
_symmetry_space_group_name_H-M   'P 1'
_cell_length_a   7.26832716
_cell_length_b   7.27297056
_cell_length_c   11.06039800
_cell_angle_alpha   87.53764852
_cell_angle_beta   107.36485042
_cell_angle_gamma   107.72881342
_symmetry_Int_Tables_number   1
_chemical_formula_structural   TbTl3(IO3)6
_chemical_formula_sum   'Tb1 Tl3 I6 O18'
_cell_volume   530.79016931
_cell_formula_units_Z   1
loop_
 _symmetry_equiv_pos_site_id
 _symmetry_equiv_pos_as_xyz
  1  'x, y, z'
loop_
 _atom_site_type_symbol
 _atom_site_label
 _atom_site_symmetry_multiplicity
 _atom_site_fract_x
 _atom_site_fract_y
 _atom_site_fract_z
 _atom_site_occupancy
  Tb  Tb0  1  0.500000  0.500000  0.000000  1
  Tl  Tl1  1  0.000000  0.000000  0.000000  1
  Tl  Tl2  1  0.827533  0.036298  0.598353  1
  Tl  Tl3  1  0.172467  0.963702  0.401647  1
  I  I4  1  0.033825  0.476062  0.191650  1
  I  I5  1  0.966175  0.523938  0.808350  1
  I  I6  1  0.561088  0.962775  0.194677  1
  I  I7  1  0.438912  0.037225  0.805323  1
  I  I8  1  0.413071  0.552631  0.631949  1
  I  I9  1  0.586929  0.447369  0.368051  1
  O  O10  1  0.839539  0.538292  0.056025  1
  O  O11  1  0.160461  0.461708  0.943975  1
  O  O12  1  0.959240  0.549279  0.321087  1
  O  O13  1  0.040760  0.450721  0.678913  1
  O  O14  1  0.925202  0.212418  0.182116  1
  O  O15  1  0.074798  0.787582  0.817884  1
  O  O16  1  0.570283  0.819995  0.061300  1
  O  O17  1  0.429717  0.180005  0.938700  1
  O  O18  1  0.294524  0.856380  0.189190  1
  O  O19  1  0.705476  0.143620  0.810810  1
  O  O20  1  0.686433  0.842302  0.327254  1
  O  O21  1  0.313567  0.157698  0.672746  1
  O  O22  1  0.517115  0.595009  0.806849  1
  O  O23  1  0.482885  0.404991  0.193151  1
  O  O24  1  0.660094  0.566403  0.611022  1
  O  O25  1  0.339906  0.433597  0.388978  1
  O  O26  1  0.409948  0.800777  0.597055  1
  O  O27  1  0.590052  0.199223  0.402945  1
