# generated using pymatgen
data_Yb6TeWO12
_symmetry_space_group_name_H-M   'P 1'
_cell_length_a   6.52502150
_cell_length_b   6.52502093
_cell_length_c   6.52502233
_cell_angle_alpha   91.70379117
_cell_angle_beta   91.70378684
_cell_angle_gamma   91.70380400
_symmetry_Int_Tables_number   1
_chemical_formula_structural   Yb6TeWO12
_chemical_formula_sum   'Yb6 Te1 W1 O12'
_cell_volume   277.43277231
_cell_formula_units_Z   1
loop_
 _symmetry_equiv_pos_site_id
 _symmetry_equiv_pos_as_xyz
  1  'x, y, z'
loop_
 _atom_site_type_symbol
 _atom_site_label
 _atom_site_symmetry_multiplicity
 _atom_site_fract_x
 _atom_site_fract_y
 _atom_site_fract_z
 _atom_site_occupancy
  Yb  Yb0  1  0.933594  0.437506  0.746138  1
  Yb  Yb1  1  0.746138  0.933594  0.437506  1
  Yb  Yb2  1  0.562494  0.253862  0.066406  1
  Yb  Yb3  1  0.437506  0.746138  0.933594  1
  Yb  Yb4  1  0.253862  0.066406  0.562494  1
  Yb  Yb5  1  0.066406  0.562494  0.253862  1
  Te  Te6  1  0.000000  0.000000  0.000000  1
  W  W7  1  0.500000  0.500000  0.500000  1
  O  O8  1  0.935163  0.285483  0.068725  1
  O  O9  1  0.931275  0.064837  0.714517  1
  O  O10  1  0.785831  0.580016  0.453939  1
  O  O11  1  0.714517  0.931275  0.064837  1
  O  O12  1  0.580016  0.453939  0.785831  1
  O  O13  1  0.546061  0.214169  0.419984  1
  O  O14  1  0.453939  0.785831  0.580016  1
  O  O15  1  0.419984  0.546061  0.214169  1
  O  O16  1  0.285483  0.068725  0.935163  1
  O  O17  1  0.214169  0.419984  0.546061  1
  O  O18  1  0.068725  0.935163  0.285483  1
  O  O19  1  0.064837  0.714517  0.931275  1
