# generated using pymatgen
data_Dy4Hf3GeF28
_symmetry_space_group_name_H-M   'P 1'
_cell_length_a   5.64570806
_cell_length_b   8.98009794
_cell_length_c   12.04066775
_cell_angle_alpha   62.40016165
_cell_angle_beta   90.00477399
_cell_angle_gamma   90.00928984
_symmetry_Int_Tables_number   1
_chemical_formula_structural   Dy4Hf3GeF28
_chemical_formula_sum   'Dy4 Hf3 Ge1 F28'
_cell_volume   540.98372154
_cell_formula_units_Z   1
loop_
 _symmetry_equiv_pos_site_id
 _symmetry_equiv_pos_as_xyz
  1  'x, y, z'
loop_
 _atom_site_type_symbol
 _atom_site_label
 _atom_site_symmetry_multiplicity
 _atom_site_fract_x
 _atom_site_fract_y
 _atom_site_fract_z
 _atom_site_occupancy
  Dy  Dy0  1  0.757883  0.818087  0.763730  1
  Dy  Dy1  1  0.258885  0.187602  0.727478  1
  Dy  Dy2  1  0.242302  0.186865  0.241478  1
  Dy  Dy3  1  0.743215  0.812614  0.267616  1
  Hf  Hf4  1  0.756719  0.273814  0.955960  1
  Hf  Hf5  1  0.255511  0.726137  0.543258  1
  Hf  Hf6  1  0.244757  0.726408  0.044509  1
  Ge  Ge7  1  0.741328  0.273561  0.455089  1
  F  F8  1  0.459992  0.708750  0.919485  1
  F  F9  1  0.936193  0.289679  0.571108  1
  F  F10  1  0.539423  0.289368  0.081766  1
  F  F11  1  0.041152  0.709180  0.417959  1
  F  F12  1  0.469831  0.279706  0.540113  1
  F  F13  1  0.949290  0.723057  0.951332  1
  F  F14  1  0.552382  0.716618  0.453898  1
  F  F15  1  0.049014  0.276913  0.051513  1
  F  F16  1  0.774479  0.524602  0.858938  1
  F  F17  1  0.266138  0.475137  0.636853  1
  F  F18  1  0.225037  0.475512  0.144624  1
  F  F19  1  0.729604  0.501792  0.365623  1
  F  F20  1  0.757667  0.023027  0.057639  1
  F  F21  1  0.261171  0.976646  0.446309  1
  F  F22  1  0.241702  0.976027  0.941082  1
  F  F23  1  0.740895  0.044030  0.545541  1
  F  F24  1  0.976814  0.734469  0.642949  1
  F  F25  1  0.483855  0.269234  0.850480  1
  F  F26  1  0.999614  0.268160  0.363719  1
  F  F27  1  0.520051  0.728869  0.148906  1
  F  F28  1  0.039048  0.745979  0.173934  1
  F  F29  1  0.549549  0.257176  0.335898  1
  F  F30  1  0.965924  0.253695  0.826622  1
  F  F31  1  0.462808  0.746205  0.672121  1
  F  F32  1  0.423084  0.972610  0.237351  1
  F  F33  1  0.923864  0.027197  0.269639  1
  F  F34  1  0.578470  0.030010  0.766538  1
  F  F35  1  0.082346  0.971264  0.728945  1
