# generated using pymatgen
data_Nd8Ho11LuSn16
_symmetry_space_group_name_H-M   'P 1'
_cell_length_a   8.09365400
_cell_length_b   8.25267885
_cell_length_c   15.60405900
_cell_angle_alpha   90.00000000
_cell_angle_beta   90.00000000
_cell_angle_gamma   90.03836530
_symmetry_Int_Tables_number   1
_chemical_formula_structural   Nd8Ho11LuSn16
_chemical_formula_sum   'Nd8 Ho11 Lu1 Sn16'
_cell_volume   1042.26238862
_cell_formula_units_Z   1
loop_
 _symmetry_equiv_pos_site_id
 _symmetry_equiv_pos_as_xyz
  1  'x, y, z'
loop_
 _atom_site_type_symbol
 _atom_site_label
 _atom_site_symmetry_multiplicity
 _atom_site_fract_x
 _atom_site_fract_y
 _atom_site_fract_z
 _atom_site_occupancy
  Nd  Nd0  1  0.515929  0.321422  0.903330  1
  Nd  Nd1  1  0.015836  0.178483  0.596541  1
  Nd  Nd2  1  0.483896  0.678860  0.403016  1
  Nd  Nd3  1  0.984293  0.821891  0.097029  1
  Nd  Nd4  1  0.483896  0.678860  0.096984  1
  Nd  Nd5  1  0.984293  0.821891  0.402971  1
  Nd  Nd6  1  0.515929  0.321422  0.596670  1
  Nd  Nd7  1  0.015836  0.178483  0.903459  1
  Ho  Ho8  1  0.362041  0.836169  0.877409  1
  Ho  Ho9  1  0.861984  0.663783  0.623046  1
  Ho  Ho10  1  0.637673  0.163538  0.376916  1
  Ho  Ho11  1  0.138337  0.336055  0.123295  1
  Ho  Ho12  1  0.637673  0.163538  0.123084  1
  Ho  Ho13  1  0.138337  0.336055  0.376705  1
  Ho  Ho14  1  0.362041  0.836169  0.622591  1
  Ho  Ho15  1  0.861984  0.663783  0.876954  1
  Ho  Ho16  1  0.195148  0.503336  0.750000  1
  Ho  Ho17  1  0.695029  0.996593  0.750000  1
  Ho  Ho18  1  0.805292  0.496859  0.250000  1
  Lu  Lu19  1  0.304805  0.003821  0.250000  1
  Sn  Sn20  1  0.301510  0.039982  0.042843  1
  Sn  Sn21  1  0.801867  0.459925  0.457887  1
  Sn  Sn22  1  0.698445  0.959495  0.541797  1
  Sn  Sn23  1  0.198014  0.539941  0.958217  1
  Sn  Sn24  1  0.698445  0.959495  0.958203  1
  Sn  Sn25  1  0.198014  0.539941  0.541783  1
  Sn  Sn26  1  0.301510  0.039982  0.457157  1
  Sn  Sn27  1  0.801867  0.459925  0.042113  1
  Sn  Sn28  1  0.560642  0.623057  0.750000  1
  Sn  Sn29  1  0.061011  0.877173  0.750000  1
  Sn  Sn30  1  0.439097  0.376625  0.250000  1
  Sn  Sn31  1  0.940273  0.122246  0.250000  1
  Sn  Sn32  1  0.324269  0.143101  0.750000  1
  Sn  Sn33  1  0.824826  0.356431  0.750000  1
  Sn  Sn34  1  0.674741  0.856759  0.250000  1
  Sn  Sn35  1  0.175214  0.644913  0.250000  1
