# generated using pymatgen
data_Hf16Co3NiMo4
_symmetry_space_group_name_H-M   'P 1'
_cell_length_a   8.68054778
_cell_length_b   8.68054785
_cell_length_c   8.68054877
_cell_angle_alpha   59.83877997
_cell_angle_beta   59.83878085
_cell_angle_gamma   59.83878371
_symmetry_Int_Tables_number   1
_chemical_formula_structural   Hf16Co3NiMo4
_chemical_formula_sum   'Hf16 Co3 Ni1 Mo4'
_cell_volume   460.82336361
_cell_formula_units_Z   1
loop_
 _symmetry_equiv_pos_site_id
 _symmetry_equiv_pos_as_xyz
  1  'x, y, z'
loop_
 _atom_site_type_symbol
 _atom_site_label
 _atom_site_symmetry_multiplicity
 _atom_site_fract_x
 _atom_site_fract_y
 _atom_site_fract_z
 _atom_site_occupancy
  Hf  Hf0  1  0.696828  0.102007  0.102007  1
  Hf  Hf1  1  0.102007  0.696828  0.102007  1
  Hf  Hf2  1  0.102007  0.102007  0.696828  1
  Hf  Hf3  1  0.099843  0.099843  0.099843  1
  Hf  Hf4  1  0.314461  0.314461  0.685837  1
  Hf  Hf5  1  0.685829  0.685829  0.315181  1
  Hf  Hf6  1  0.314461  0.685837  0.314461  1
  Hf  Hf7  1  0.685829  0.315181  0.685829  1
  Hf  Hf8  1  0.685837  0.314461  0.314461  1
  Hf  Hf9  1  0.315181  0.685829  0.685829  1
  Hf  Hf10  1  0.951314  0.951314  0.545689  1
  Hf  Hf11  1  0.550725  0.550725  0.949514  1
  Hf  Hf12  1  0.951314  0.545689  0.951314  1
  Hf  Hf13  1  0.550725  0.949514  0.550725  1
  Hf  Hf14  1  0.545689  0.951314  0.951314  1
  Hf  Hf15  1  0.949514  0.550725  0.550725  1
  Co  Co16  1  0.325177  0.891228  0.891228  1
  Co  Co17  1  0.891228  0.325177  0.891228  1
  Co  Co18  1  0.891228  0.891228  0.325177  1
  Ni  Ni19  1  0.891170  0.891170  0.891170  1
  Mo  Mo20  1  0.001157  0.332554  0.332554  1
  Mo  Mo21  1  0.332554  0.001157  0.332554  1
  Mo  Mo22  1  0.332554  0.332554  0.001157  1
  Mo  Mo23  1  0.333367  0.333367  0.333367  1
