# generated using pymatgen
data_Sc2Co11Si7Ni
_symmetry_space_group_name_H-M   'P 1'
_cell_length_a   9.06410072
_cell_length_b   9.04438566
_cell_length_c   3.58067900
_cell_angle_alpha   90.00000000
_cell_angle_beta   90.00000000
_cell_angle_gamma   120.00213030
_symmetry_Int_Tables_number   1
_chemical_formula_structural   Sc2Co11Si7Ni
_chemical_formula_sum   'Sc2 Co11 Si7 Ni1'
_cell_volume   254.20874872
_cell_formula_units_Z   1
loop_
 _symmetry_equiv_pos_site_id
 _symmetry_equiv_pos_as_xyz
  1  'x, y, z'
loop_
 _atom_site_type_symbol
 _atom_site_label
 _atom_site_symmetry_multiplicity
 _atom_site_fract_x
 _atom_site_fract_y
 _atom_site_fract_z
 _atom_site_occupancy
  Sc  Sc0  1  0.666593  0.333825  0.000000  1
  Sc  Sc1  1  0.003602  0.000179  0.500000  1
  Co  Co2  1  0.951776  0.724040  0.000000  1
  Co  Co3  1  0.276094  0.227875  0.000000  1
  Co  Co4  1  0.485525  0.539671  0.000000  1
  Co  Co5  1  0.459334  0.947005  0.000000  1
  Co  Co6  1  0.053574  0.514504  0.000000  1
  Co  Co7  1  0.714572  0.614917  0.500000  1
  Co  Co8  1  0.383730  0.099510  0.500000  1
  Co  Co9  1  0.900242  0.284517  0.500000  1
  Co  Co10  1  0.561124  0.793137  0.500000  1
  Co  Co11  1  0.208808  0.768091  0.500000  1
  Co  Co12  1  0.230015  0.437685  0.500000  1
  Si  Si13  1  0.735018  0.781435  0.000000  1
  Si  Si14  1  0.215750  0.951104  0.000000  1
  Si  Si15  1  0.051264  0.267100  0.000000  1
  Si  Si16  1  0.447408  0.374123  0.500000  1
  Si  Si17  1  0.624028  0.074847  0.500000  1
  Si  Si18  1  0.925935  0.552251  0.500000  1
  Si  Si19  1  0.333030  0.666587  0.000000  1
  Ni  Ni20  1  0.772578  0.047601  0.000000  1
