# generated using pymatgen
data_Ac3(CoGe2)2
_symmetry_space_group_name_H-M   'P 1'
_cell_length_a   6.31029638
_cell_length_b   6.31029693
_cell_length_c   8.53533542
_cell_angle_alpha   73.75687807
_cell_angle_beta   73.75687667
_cell_angle_gamma   40.32658408
_symmetry_Int_Tables_number   1
_chemical_formula_structural   Ac3(CoGe2)2
_chemical_formula_sum   'Ac3 Co2 Ge4'
_cell_volume   209.95690964
_cell_formula_units_Z   1
loop_
 _symmetry_equiv_pos_site_id
 _symmetry_equiv_pos_as_xyz
  1  'x, y, z'
loop_
 _atom_site_type_symbol
 _atom_site_label
 _atom_site_symmetry_multiplicity
 _atom_site_fract_x
 _atom_site_fract_y
 _atom_site_fract_z
 _atom_site_occupancy
  Ac  Ac0  1  0.611376  0.611376  0.313175  1
  Ac  Ac1  1  0.000000  0.000000  0.000000  1
  Ac  Ac2  1  0.388624  0.388624  0.686825  1
  Co  Co3  1  0.298473  0.298473  0.370479  1
  Co  Co4  1  0.701527  0.701527  0.629521  1
  Ge  Ge5  1  0.715658  0.715658  0.915811  1
  Ge  Ge6  1  0.123423  0.123423  0.603230  1
  Ge  Ge7  1  0.284342  0.284342  0.084189  1
  Ge  Ge8  1  0.876577  0.876577  0.396770  1
