# generated using pymatgen
data_Tb12Dy7YCd6CoRu
_symmetry_space_group_name_H-M   'P 1'
_cell_length_a   9.63212401
_cell_length_b   9.62967961
_cell_length_c   9.85616500
_cell_angle_alpha   90.00000167
_cell_angle_beta   89.99761858
_cell_angle_gamma   119.99160698
_symmetry_Int_Tables_number   1
_chemical_formula_structural   Tb12Dy7YCd6CoRu
_chemical_formula_sum   'Tb12 Dy7 Y1 Cd6 Co1 Ru1'
_cell_volume   791.78856176
_cell_formula_units_Z   1
loop_
 _symmetry_equiv_pos_site_id
 _symmetry_equiv_pos_as_xyz
  1  'x, y, z'
loop_
 _atom_site_type_symbol
 _atom_site_label
 _atom_site_symmetry_multiplicity
 _atom_site_fract_x
 _atom_site_fract_y
 _atom_site_fract_z
 _atom_site_occupancy
  Tb  Tb0  1  0.000087  0.000044  0.500119  1
  Tb  Tb1  1  0.999971  0.999986  0.999925  1
  Tb  Tb2  1  0.212350  0.787940  0.435922  1
  Tb  Tb3  1  0.212350  0.424409  0.435922  1
  Tb  Tb4  1  0.575453  0.787727  0.435976  1
  Tb  Tb5  1  0.790402  0.209284  0.560227  1
  Tb  Tb6  1  0.790402  0.581118  0.560227  1
  Tb  Tb7  1  0.541737  0.458243  0.249846  1
  Tb  Tb8  1  0.541737  0.083494  0.249846  1
  Tb  Tb9  1  0.916497  0.458249  0.249758  1
  Tb  Tb10  1  0.458287  0.541558  0.750207  1
  Tb  Tb11  1  0.458287  0.916730  0.750207  1
  Dy  Dy12  1  0.418820  0.209411  0.560241  1
  Dy  Dy13  1  0.790398  0.209403  0.939939  1
  Dy  Dy14  1  0.790398  0.580995  0.939939  1
  Dy  Dy15  1  0.419096  0.209549  0.939779  1
  Dy  Dy16  1  0.212452  0.787740  0.063970  1
  Dy  Dy17  1  0.212452  0.424712  0.063970  1
  Dy  Dy18  1  0.575105  0.787553  0.063891  1
  Y  Y19  1  0.083709  0.541855  0.750165  1
  Cd  Cd20  1  0.885469  0.114668  0.249842  1
  Cd  Cd21  1  0.885469  0.770802  0.249842  1
  Cd  Cd22  1  0.229273  0.114637  0.249902  1
  Cd  Cd23  1  0.114746  0.885405  0.750123  1
  Cd  Cd24  1  0.114746  0.229342  0.750123  1
  Cd  Cd25  1  0.770620  0.885310  0.750156  1
  Co  Co26  1  0.333387  0.666695  0.249712  1
  Ru  Ru27  1  0.666298  0.333148  0.750223  1
