# generated using pymatgen
data_Tb2CeTm13(CdRu)4
_symmetry_space_group_name_H-M   'P 1'
_cell_length_a   9.56648907
_cell_length_b   9.55897097
_cell_length_c   9.55385167
_cell_angle_alpha   59.49016025
_cell_angle_beta   59.42661741
_cell_angle_gamma   59.52251463
_symmetry_Int_Tables_number   1
_chemical_formula_structural   Tb2CeTm13(CdRu)4
_chemical_formula_sum   'Tb2 Ce1 Tm13 Cd4 Ru4'
_cell_volume   610.45958993
_cell_formula_units_Z   1
loop_
 _symmetry_equiv_pos_site_id
 _symmetry_equiv_pos_as_xyz
  1  'x, y, z'
loop_
 _atom_site_type_symbol
 _atom_site_label
 _atom_site_symmetry_multiplicity
 _atom_site_fract_x
 _atom_site_fract_y
 _atom_site_fract_z
 _atom_site_occupancy
  Tb  Tb0  1  0.561788  0.563114  0.937310  1
  Tb  Tb1  1  0.940253  0.560564  0.939166  1
  Ce  Ce2  1  0.342492  0.342682  0.341852  1
  Tm  Tm3  1  0.559850  0.941065  0.939048  1
  Tm  Tm4  1  0.938662  0.939716  0.560161  1
  Tm  Tm5  1  0.562562  0.938710  0.561523  1
  Tm  Tm6  1  0.938563  0.562509  0.560399  1
  Tm  Tm7  1  0.189162  0.187879  0.813150  1
  Tm  Tm8  1  0.811630  0.186776  0.811579  1
  Tm  Tm9  1  0.187282  0.811952  0.811591  1
  Tm  Tm10  1  0.811053  0.811462  0.188169  1
  Tm  Tm11  1  0.187910  0.813586  0.189266  1
  Tm  Tm12  1  0.813587  0.187019  0.189581  1
  Tm  Tm13  1  0.347102  0.346688  0.956709  1
  Tm  Tm14  1  0.347483  0.955253  0.347739  1
  Tm  Tm15  1  0.956246  0.346934  0.347604  1
  Cd  Cd16  1  0.579628  0.581176  0.257684  1
  Cd  Cd17  1  0.580675  0.255901  0.581059  1
  Cd  Cd18  1  0.256934  0.580745  0.579508  1
  Cd  Cd19  1  0.580228  0.580365  0.579124  1
  Ru  Ru20  1  0.145325  0.145737  0.576155  1
  Ru  Ru21  1  0.144264  0.576873  0.145989  1
  Ru  Ru22  1  0.576796  0.144104  0.145419  1
  Ru  Ru23  1  0.140521  0.139192  0.140214  1
