# generated using pymatgen
data_Eu10Rh5Au
_symmetry_space_group_name_H-M   'P 1'
_cell_length_a   9.08873907
_cell_length_b   9.08874031
_cell_length_c   9.08873961
_cell_angle_alpha   129.39345281
_cell_angle_beta   129.39345703
_cell_angle_gamma   74.37830704
_symmetry_Int_Tables_number   1
_chemical_formula_structural   Eu10Rh5Au
_chemical_formula_sum   'Eu10 Rh5 Au1'
_cell_volume   437.04263995
_cell_formula_units_Z   1
loop_
 _symmetry_equiv_pos_site_id
 _symmetry_equiv_pos_as_xyz
  1  'x, y, z'
loop_
 _atom_site_type_symbol
 _atom_site_label
 _atom_site_symmetry_multiplicity
 _atom_site_fract_x
 _atom_site_fract_y
 _atom_site_fract_z
 _atom_site_occupancy
  Eu  Eu0  1  0.521858  0.040917  0.842493  1
  Eu  Eu1  1  0.301578  0.459083  0.480942  1
  Eu  Eu2  1  0.459083  0.978142  0.157507  1
  Eu  Eu3  1  0.040917  0.198422  0.519058  1
  Eu  Eu4  1  0.198422  0.679365  0.157507  1
  Eu  Eu5  1  0.679365  0.521858  0.480942  1
  Eu  Eu6  1  0.507908  0.507908  0.000000  1
  Eu  Eu7  1  0.978142  0.820635  0.519058  1
  Eu  Eu8  1  0.820635  0.301578  0.842493  1
  Eu  Eu9  1  0.992092  0.992092  0.000000  1
  Rh  Rh10  1  0.625262  0.874738  0.500000  1
  Rh  Rh11  1  0.250000  0.250000  0.000000  1
  Rh  Rh12  1  0.374738  0.125262  0.500000  1
  Rh  Rh13  1  0.125262  0.625262  0.750522  1
  Rh  Rh14  1  0.874738  0.374738  0.249478  1
  Au  Au15  1  0.750000  0.750000  0.000000  1
