# generated using pymatgen
data_Er15Th(CdPt)4
_symmetry_space_group_name_H-M   'P 1'
_cell_length_a   9.60108517
_cell_length_b   9.60108508
_cell_length_c   9.60108511
_cell_angle_alpha   60.40291198
_cell_angle_beta   60.40290966
_cell_angle_gamma   60.40291393
_symmetry_Int_Tables_number   1
_chemical_formula_structural   Er15Th(CdPt)4
_chemical_formula_sum   'Er15 Th1 Cd4 Pt4'
_cell_volume   631.51711698
_cell_formula_units_Z   1
loop_
 _symmetry_equiv_pos_site_id
 _symmetry_equiv_pos_as_xyz
  1  'x, y, z'
loop_
 _atom_site_type_symbol
 _atom_site_label
 _atom_site_symmetry_multiplicity
 _atom_site_fract_x
 _atom_site_fract_y
 _atom_site_fract_z
 _atom_site_occupancy
  Er  Er0  1  0.355377  0.355377  0.935234  1
  Er  Er1  1  0.355377  0.935234  0.355377  1
  Er  Er2  1  0.935234  0.355377  0.355377  1
  Er  Er3  1  0.812618  0.188938  0.188938  1
  Er  Er4  1  0.192279  0.810712  0.810712  1
  Er  Er5  1  0.188938  0.812618  0.188938  1
  Er  Er6  1  0.810712  0.192279  0.810712  1
  Er  Er7  1  0.188938  0.188938  0.812618  1
  Er  Er8  1  0.810712  0.810712  0.192279  1
  Er  Er9  1  0.935359  0.568009  0.568009  1
  Er  Er10  1  0.564321  0.937917  0.937917  1
  Er  Er11  1  0.568009  0.935359  0.568009  1
  Er  Er12  1  0.937917  0.564321  0.937917  1
  Er  Er13  1  0.568009  0.568009  0.935359  1
  Er  Er14  1  0.937917  0.937917  0.564321  1
  Th  Th15  1  0.348232  0.348232  0.348232  1
  Cd  Cd16  1  0.582327  0.582327  0.582327  1
  Cd  Cd17  1  0.582162  0.582162  0.251784  1
  Cd  Cd18  1  0.582162  0.251784  0.582162  1
  Cd  Cd19  1  0.251784  0.582162  0.582162  1
  Pt  Pt20  1  0.144677  0.144677  0.144677  1
  Pt  Pt21  1  0.138010  0.138010  0.570923  1
  Pt  Pt22  1  0.138010  0.570923  0.138010  1
  Pt  Pt23  1  0.570923  0.138010  0.138010  1
