# generated using pymatgen
data_Tb8In3Ir
_symmetry_space_group_name_H-M   'P 1'
_cell_length_a   10.47942000
_cell_length_b   10.47932029
_cell_length_c   7.13304401
_cell_angle_alpha   89.99955069
_cell_angle_beta   90.00035573
_cell_angle_gamma   119.99911517
_symmetry_Int_Tables_number   1
_chemical_formula_structural   Tb8In3Ir
_chemical_formula_sum   'Tb16 In6 Ir2'
_cell_volume   678.39051672
_cell_formula_units_Z   2
loop_
 _symmetry_equiv_pos_site_id
 _symmetry_equiv_pos_as_xyz
  1  'x, y, z'
loop_
 _atom_site_type_symbol
 _atom_site_label
 _atom_site_symmetry_multiplicity
 _atom_site_fract_x
 _atom_site_fract_y
 _atom_site_fract_z
 _atom_site_occupancy
  Tb  Tb0  1  0.824053  0.648113  0.494277  1
  Tb  Tb1  1  0.351884  0.175940  0.494269  1
  Tb  Tb2  1  0.824061  0.175943  0.494261  1
  Tb  Tb3  1  0.175940  0.351876  0.994244  1
  Tb  Tb4  1  0.648132  0.824064  0.994243  1
  Tb  Tb5  1  0.175936  0.824061  0.994217  1
  Tb  Tb6  1  0.666661  0.333334  0.169096  1
  Tb  Tb7  1  0.333337  0.666667  0.669058  1
  Tb  Tb8  1  0.534490  0.068962  0.788292  1
  Tb  Tb9  1  0.931039  0.465514  0.788295  1
  Tb  Tb10  1  0.534484  0.465518  0.788298  1
  Tb  Tb11  1  0.465514  0.931037  0.288266  1
  Tb  Tb12  1  0.068965  0.534489  0.288270  1
  Tb  Tb13  1  0.465517  0.534488  0.288275  1
  Tb  Tb14  1  0.999993  0.000009  0.773761  1
  Tb  Tb15  1  0.000009  0.999994  0.273775  1
  In  In16  1  0.836984  0.673970  0.036787  1
  In  In17  1  0.326026  0.163009  0.036771  1
  In  In18  1  0.836983  0.163015  0.036787  1
  In  In19  1  0.163013  0.326024  0.536753  1
  In  In20  1  0.673982  0.836993  0.536752  1
  In  In21  1  0.162996  0.836978  0.536741  1
  Ir  Ir22  1  0.666668  0.333332  0.562320  1
  Ir  Ir23  1  0.333335  0.666670  0.062265  1
