# generated using pymatgen
data_Zr5Tc4Pd
_symmetry_space_group_name_H-M   'P 1'
_cell_length_a   3.28567300
_cell_length_b   3.28567300
_cell_length_c   16.41857600
_cell_angle_alpha   90.00000000
_cell_angle_beta   90.00000000
_cell_angle_gamma   90.00000000
_symmetry_Int_Tables_number   1
_chemical_formula_structural   Zr5Tc4Pd
_chemical_formula_sum   'Zr5 Tc4 Pd1'
_cell_volume   177.24915177
_cell_formula_units_Z   1
loop_
 _symmetry_equiv_pos_site_id
 _symmetry_equiv_pos_as_xyz
  1  'x, y, z'
loop_
 _atom_site_type_symbol
 _atom_site_label
 _atom_site_symmetry_multiplicity
 _atom_site_fract_x
 _atom_site_fract_y
 _atom_site_fract_z
 _atom_site_occupancy
  Zr  Zr0  1  0.500000  0.500000  0.105820  1
  Zr  Zr1  1  0.500000  0.500000  0.301711  1
  Zr  Zr2  1  0.500000  0.500000  0.500000  1
  Zr  Zr3  1  0.500000  0.500000  0.698289  1
  Zr  Zr4  1  0.500000  0.500000  0.894180  1
  Tc  Tc5  1  0.000000  0.000000  0.198113  1
  Tc  Tc6  1  0.000000  0.000000  0.399843  1
  Tc  Tc7  1  0.000000  0.000000  0.600157  1
  Tc  Tc8  1  0.000000  0.000000  0.801887  1
  Pd  Pd9  1  0.000000  0.000000  0.000000  1
