# generated using pymatgen
data_Ac3La(CdIn)4
_symmetry_space_group_name_H-M   'P 1'
_cell_length_a   4.99506300
_cell_length_b   4.99506236
_cell_length_c   16.61218800
_cell_angle_alpha   90.00000000
_cell_angle_beta   90.00000000
_cell_angle_gamma   119.99999762
_symmetry_Int_Tables_number   1
_chemical_formula_structural   Ac3La(CdIn)4
_chemical_formula_sum   'Ac3 La1 Cd4 In4'
_cell_volume   358.95446841
_cell_formula_units_Z   1
loop_
 _symmetry_equiv_pos_site_id
 _symmetry_equiv_pos_as_xyz
  1  'x, y, z'
loop_
 _atom_site_type_symbol
 _atom_site_label
 _atom_site_symmetry_multiplicity
 _atom_site_fract_x
 _atom_site_fract_y
 _atom_site_fract_z
 _atom_site_occupancy
  Ac  Ac0  1  0.000000  0.000000  0.503476  1
  Ac  Ac1  1  0.000000  0.000000  0.996524  1
  Ac  Ac2  1  0.000000  0.000000  0.250000  1
  La  La3  1  0.000000  0.000000  0.750000  1
  Cd  Cd4  1  0.333333  0.666667  0.356122  1
  Cd  Cd5  1  0.666667  0.333333  0.613565  1
  Cd  Cd6  1  0.666667  0.333333  0.886435  1
  Cd  Cd7  1  0.333333  0.666667  0.143878  1
  In  In8  1  0.333333  0.666667  0.851192  1
  In  In9  1  0.666667  0.333333  0.107410  1
  In  In10  1  0.666667  0.333333  0.392590  1
  In  In11  1  0.333333  0.666667  0.648808  1
