# generated using pymatgen
data_Ac5Er3(Si3Pt)4
_symmetry_space_group_name_H-M   'P 1'
_cell_length_a   8.41932600
_cell_length_b   8.41932719
_cell_length_c   8.66753600
_cell_angle_alpha   90.00000000
_cell_angle_beta   90.00000000
_cell_angle_gamma   120.00000317
_symmetry_Int_Tables_number   1
_chemical_formula_structural   Ac5Er3(Si3Pt)4
_chemical_formula_sum   'Ac5 Er3 Si12 Pt4'
_cell_volume   532.08496262
_cell_formula_units_Z   1
loop_
 _symmetry_equiv_pos_site_id
 _symmetry_equiv_pos_as_xyz
  1  'x, y, z'
loop_
 _atom_site_type_symbol
 _atom_site_label
 _atom_site_symmetry_multiplicity
 _atom_site_fract_x
 _atom_site_fract_y
 _atom_site_fract_z
 _atom_site_occupancy
  Ac  Ac0  1  0.000000  0.000000  0.250000  1
  Ac  Ac1  1  0.000000  0.000000  0.750000  1
  Ac  Ac2  1  0.499844  0.500156  0.250000  1
  Ac  Ac3  1  0.499844  0.999688  0.250000  1
  Ac  Ac4  1  0.000312  0.500156  0.250000  1
  Er  Er5  1  0.501568  0.498432  0.750000  1
  Er  Er6  1  0.996865  0.498432  0.750000  1
  Er  Er7  1  0.501568  0.003135  0.750000  1
  Si  Si8  1  0.832555  0.167445  0.510575  1
  Si  Si9  1  0.832555  0.665113  0.510575  1
  Si  Si10  1  0.334887  0.167445  0.510575  1
  Si  Si11  1  0.832555  0.167445  0.989425  1
  Si  Si12  1  0.832555  0.665113  0.989425  1
  Si  Si13  1  0.334887  0.167445  0.989425  1
  Si  Si14  1  0.167628  0.832372  0.988793  1
  Si  Si15  1  0.664746  0.832372  0.988793  1
  Si  Si16  1  0.167628  0.335254  0.988793  1
  Si  Si17  1  0.167628  0.832372  0.511207  1
  Si  Si18  1  0.664746  0.832372  0.511207  1
  Si  Si19  1  0.167628  0.335254  0.511207  1
  Pt  Pt20  1  0.666667  0.333333  0.525891  1
  Pt  Pt21  1  0.666667  0.333333  0.974109  1
  Pt  Pt22  1  0.333333  0.666667  0.970284  1
  Pt  Pt23  1  0.333333  0.666667  0.529716  1
