# generated using pymatgen
data_Dy8Ti2ReSi16W9
_symmetry_space_group_name_H-M   'P 1'
_cell_length_a   6.88899096
_cell_length_b   6.88899005
_cell_length_c   12.79776406
_cell_angle_alpha   90.01774051
_cell_angle_beta   89.98226016
_cell_angle_gamma   89.54720387
_symmetry_Int_Tables_number   1
_chemical_formula_structural   Dy8Ti2ReSi16W9
_chemical_formula_sum   'Dy8 Ti2 Re1 Si16 W9'
_cell_volume   607.33969584
_cell_formula_units_Z   1
loop_
 _symmetry_equiv_pos_site_id
 _symmetry_equiv_pos_as_xyz
  1  'x, y, z'
loop_
 _atom_site_type_symbol
 _atom_site_label
 _atom_site_symmetry_multiplicity
 _atom_site_fract_x
 _atom_site_fract_y
 _atom_site_fract_z
 _atom_site_occupancy
  Dy  Dy0  1  0.000392  0.660407  0.031441  1
  Dy  Dy1  1  0.000028  0.338912  0.531194  1
  Dy  Dy2  1  0.660407  0.000392  0.968559  1
  Dy  Dy3  1  0.164286  0.499914  0.781362  1
  Dy  Dy4  1  0.836247  0.499453  0.281131  1
  Dy  Dy5  1  0.499914  0.164286  0.218638  1
  Dy  Dy6  1  0.499453  0.836247  0.718869  1
  Dy  Dy7  1  0.338912  0.000028  0.468806  1
  Ti  Ti8  1  0.830665  0.169772  0.750991  1
  Ti  Ti9  1  0.169772  0.830665  0.249009  1
  Re  Re10  1  0.333418  0.333418  0.000000  1
  Si  Si11  1  0.037249  0.710221  0.437274  1
  Si  Si12  1  0.966608  0.288171  0.938832  1
  Si  Si13  1  0.710221  0.037249  0.562726  1
  Si  Si14  1  0.210104  0.459545  0.183305  1
  Si  Si15  1  0.791359  0.538743  0.684890  1
  Si  Si16  1  0.459545  0.210104  0.816695  1
  Si  Si17  1  0.538743  0.791359  0.315110  1
  Si  Si18  1  0.288171  0.966608  0.061168  1
  Si  Si19  1  0.796730  0.871799  0.184051  1
  Si  Si20  1  0.300215  0.626350  0.566204  1
  Si  Si21  1  0.695434  0.375472  0.064768  1
  Si  Si22  1  0.626350  0.300215  0.433796  1
  Si  Si23  1  0.375472  0.695434  0.935232  1
  Si  Si24  1  0.127963  0.203465  0.315695  1
  Si  Si25  1  0.203465  0.127963  0.684305  1
  Si  Si26  1  0.871799  0.796730  0.815949  1
  W  W27  1  0.334621  0.502498  0.374470  1
  W  W28  1  0.842280  0.996670  0.373539  1
  W  W29  1  0.000080  0.157023  0.127124  1
  W  W30  1  0.996670  0.842280  0.626461  1
  W  W31  1  0.502498  0.334621  0.625530  1
  W  W32  1  0.157023  0.000080  0.872876  1
  W  W33  1  0.667045  0.667045  0.500000  1
  W  W34  1  0.497410  0.669452  0.126248  1
  W  W35  1  0.669452  0.497410  0.873752  1
