# generated using pymatgen
data_LaCuNi2BIr
_symmetry_space_group_name_H-M   'P 1'
_cell_length_a   5.32596600
_cell_length_b   5.32596625
_cell_length_c   7.10440300
_cell_angle_alpha   90.00000000
_cell_angle_beta   90.00000000
_cell_angle_gamma   122.53259832
_symmetry_Int_Tables_number   1
_chemical_formula_structural   LaCuNi2BIr
_chemical_formula_sum   'La2 Cu2 Ni4 B2 Ir2'
_cell_volume   169.90105184
_cell_formula_units_Z   2
loop_
 _symmetry_equiv_pos_site_id
 _symmetry_equiv_pos_as_xyz
  1  'x, y, z'
loop_
 _atom_site_type_symbol
 _atom_site_label
 _atom_site_symmetry_multiplicity
 _atom_site_fract_x
 _atom_site_fract_y
 _atom_site_fract_z
 _atom_site_occupancy
  La  La0  1  0.000000  0.000000  0.500000  1
  La  La1  1  0.000000  0.000000  0.000000  1
  Cu  Cu2  1  0.321640  0.678360  0.000000  1
  Cu  Cu3  1  0.678360  0.321640  0.000000  1
  Ni  Ni4  1  0.500000  0.000000  0.299683  1
  Ni  Ni5  1  0.000000  0.500000  0.299683  1
  Ni  Ni6  1  0.500000  0.000000  0.700317  1
  Ni  Ni7  1  0.000000  0.500000  0.700317  1
  B  B8  1  0.666314  0.333686  0.500000  1
  B  B9  1  0.333686  0.666314  0.500000  1
  Ir  Ir10  1  0.500000  0.500000  0.285739  1
  Ir  Ir11  1  0.500000  0.500000  0.714261  1
