# generated using pymatgen
data_AgBi2RuO7
_symmetry_space_group_name_H-M   'P 1'
_cell_length_a   6.46463802
_cell_length_b   6.46463765
_cell_length_c   7.44312100
_cell_angle_alpha   90.00000000
_cell_angle_beta   90.00000000
_cell_angle_gamma   104.03656319
_symmetry_Int_Tables_number   1
_chemical_formula_structural   AgBi2RuO7
_chemical_formula_sum   'Ag2 Bi4 Ru2 O14'
_cell_volume   301.77162613
_cell_formula_units_Z   2
loop_
 _symmetry_equiv_pos_site_id
 _symmetry_equiv_pos_as_xyz
  1  'x, y, z'
loop_
 _atom_site_type_symbol
 _atom_site_label
 _atom_site_symmetry_multiplicity
 _atom_site_fract_x
 _atom_site_fract_y
 _atom_site_fract_z
 _atom_site_occupancy
  Ag  Ag0  1  0.000000  0.000000  0.500000  1
  Ag  Ag1  1  0.000000  0.000000  0.000000  1
  Bi  Bi2  1  0.510875  0.958812  0.750000  1
  Bi  Bi3  1  0.489125  0.041188  0.250000  1
  Bi  Bi4  1  0.958812  0.510875  0.750000  1
  Bi  Bi5  1  0.041188  0.489125  0.250000  1
  Ru  Ru6  1  0.500000  0.500000  0.500000  1
  Ru  Ru7  1  0.500000  0.500000  0.000000  1
  O  O8  1  0.580363  0.580363  0.750000  1
  O  O9  1  0.419637  0.419637  0.250000  1
  O  O10  1  0.862101  0.135847  0.750000  1
  O  O11  1  0.137899  0.864153  0.250000  1
  O  O12  1  0.135847  0.862101  0.750000  1
  O  O13  1  0.864153  0.137899  0.250000  1
  O  O14  1  0.465116  0.197488  0.964807  1
  O  O15  1  0.534884  0.802512  0.464807  1
  O  O16  1  0.197488  0.465116  0.964807  1
  O  O17  1  0.802512  0.534884  0.464807  1
  O  O18  1  0.465116  0.197488  0.535193  1
  O  O19  1  0.534884  0.802512  0.035193  1
  O  O20  1  0.802512  0.534884  0.035193  1
  O  O21  1  0.197488  0.465116  0.535193  1
