# generated using pymatgen
data_HfZr3Sc4(NiP)12
_symmetry_space_group_name_H-M   'P 1'
_cell_length_a   3.63593700
_cell_length_b   10.01475316
_cell_length_c   12.31810220
_cell_angle_alpha   90.02044054
_cell_angle_beta   90.00000000
_cell_angle_gamma   90.00000000
_symmetry_Int_Tables_number   1
_chemical_formula_structural   HfZr3Sc4(NiP)12
_chemical_formula_sum   'Hf1 Zr3 Sc4 Ni12 P12'
_cell_volume   448.53916909
_cell_formula_units_Z   1
loop_
 _symmetry_equiv_pos_site_id
 _symmetry_equiv_pos_as_xyz
  1  'x, y, z'
loop_
 _atom_site_type_symbol
 _atom_site_label
 _atom_site_symmetry_multiplicity
 _atom_site_fract_x
 _atom_site_fract_y
 _atom_site_fract_z
 _atom_site_occupancy
  Hf  Hf0  1  0.250000  0.160418  0.497068  1
  Zr  Zr1  1  0.750000  0.839515  0.503245  1
  Zr  Zr2  1  0.750000  0.660096  0.003083  1
  Zr  Zr3  1  0.250000  0.339821  0.996898  1
  Sc  Sc4  1  0.250000  0.073991  0.210719  1
  Sc  Sc5  1  0.750000  0.926596  0.789640  1
  Sc  Sc6  1  0.750000  0.572947  0.290474  1
  Sc  Sc7  1  0.250000  0.426673  0.709554  1
  Ni  Ni8  1  0.250000  0.727079  0.664440  1
  Ni  Ni9  1  0.750000  0.272958  0.336263  1
  Ni  Ni10  1  0.750000  0.226349  0.834879  1
  Ni  Ni11  1  0.250000  0.773804  0.164591  1
  Ni  Ni12  1  0.250000  0.365407  0.220244  1
  Ni  Ni13  1  0.750000  0.634384  0.779704  1
  Ni  Ni14  1  0.750000  0.866455  0.280478  1
  Ni  Ni15  1  0.250000  0.134968  0.718907  1
  Ni  Ni16  1  0.250000  0.595357  0.481088  1
  Ni  Ni17  1  0.750000  0.403742  0.519011  1
  Ni  Ni18  1  0.750000  0.095570  0.018959  1
  Ni  Ni19  1  0.250000  0.904621  0.980883  1
  P  P20  1  0.250000  0.946579  0.627379  1
  P  P21  1  0.750000  0.054673  0.373830  1
  P  P22  1  0.750000  0.445679  0.871456  1
  P  P23  1  0.250000  0.554182  0.128539  1
  P  P24  1  0.250000  0.396114  0.399320  1
  P  P25  1  0.750000  0.602537  0.601126  1
  P  P26  1  0.750000  0.897531  0.101601  1
  P  P27  1  0.250000  0.102873  0.898172  1
  P  P28  1  0.250000  0.764037  0.353511  1
  P  P29  1  0.750000  0.235108  0.644897  1
  P  P30  1  0.750000  0.264039  0.146610  1
  P  P31  1  0.250000  0.735897  0.853431  1
