# generated using pymatgen
data_TbY7(TmGa5)4
_symmetry_space_group_name_H-M   'P 1'
_cell_length_a   6.08708211
_cell_length_b   9.60545204
_cell_length_c   11.55220416
_cell_angle_alpha   90.00037753
_cell_angle_beta   89.98114209
_cell_angle_gamma   89.98932537
_symmetry_Int_Tables_number   1
_chemical_formula_structural   TbY7(TmGa5)4
_chemical_formula_sum   'Tb1 Y7 Tm4 Ga20'
_cell_volume   675.44780126
_cell_formula_units_Z   1
loop_
 _symmetry_equiv_pos_site_id
 _symmetry_equiv_pos_as_xyz
  1  'x, y, z'
loop_
 _atom_site_type_symbol
 _atom_site_label
 _atom_site_symmetry_multiplicity
 _atom_site_fract_x
 _atom_site_fract_y
 _atom_site_fract_z
 _atom_site_occupancy
  Tb  Tb0  1  0.891069  0.508892  0.351047  1
  Y  Y1  1  0.608953  0.990945  0.850913  1
  Y  Y2  1  0.109138  0.008927  0.649114  1
  Y  Y3  1  0.390936  0.491003  0.148934  1
  Y  Y4  1  0.109067  0.491067  0.649223  1
  Y  Y5  1  0.390940  0.008991  0.149048  1
  Y  Y6  1  0.890888  0.991164  0.350969  1
  Y  Y7  1  0.608982  0.508937  0.850901  1
  Tm  Tm8  1  0.848645  0.749972  0.075382  1
  Tm  Tm9  1  0.651228  0.750036  0.575512  1
  Tm  Tm10  1  0.151272  0.250002  0.924481  1
  Tm  Tm11  1  0.348891  0.250101  0.424562  1
  Ga  Ga12  1  0.876043  0.053620  0.089319  1
  Ga  Ga13  1  0.623984  0.446434  0.589186  1
  Ga  Ga14  1  0.123891  0.553619  0.910754  1
  Ga  Ga15  1  0.376025  0.946509  0.410730  1
  Ga  Ga16  1  0.123931  0.946391  0.910760  1
  Ga  Ga17  1  0.376347  0.553597  0.410680  1
  Ga  Ga18  1  0.876047  0.446328  0.089256  1
  Ga  Ga19  1  0.623953  0.053559  0.589284  1
  Ga  Ga20  1  0.170302  0.749977  0.252252  1
  Ga  Ga21  1  0.329454  0.749958  0.752294  1
  Ga  Ga22  1  0.829544  0.249928  0.747805  1
  Ga  Ga23  1  0.670412  0.250025  0.247607  1
  Ga  Ga24  1  0.375271  0.749983  0.003503  1
  Ga  Ga25  1  0.124643  0.749987  0.503321  1
  Ga  Ga26  1  0.624713  0.249971  0.996419  1
  Ga  Ga27  1  0.875349  0.249958  0.496706  1
  Ga  Ga28  1  0.600855  0.750027  0.299383  1
  Ga  Ga29  1  0.899220  0.749981  0.799390  1
  Ga  Ga30  1  0.399290  0.250021  0.700588  1
  Ga  Ga31  1  0.100714  0.250092  0.200677  1
