# generated using pymatgen
data_Y3Nb3(Si2Ru5)2
_symmetry_space_group_name_H-M   'P 1'
_cell_length_a   9.98908149
_cell_length_b   9.98908174
_cell_length_c   3.24672100
_cell_angle_alpha   90.00000000
_cell_angle_beta   90.00000000
_cell_angle_gamma   89.78255332
_symmetry_Int_Tables_number   1
_chemical_formula_structural   Y3Nb3(Si2Ru5)2
_chemical_formula_sum   'Y3 Nb3 Si4 Ru10'
_cell_volume   323.96117493
_cell_formula_units_Z   1
loop_
 _symmetry_equiv_pos_site_id
 _symmetry_equiv_pos_as_xyz
  1  'x, y, z'
loop_
 _atom_site_type_symbol
 _atom_site_label
 _atom_site_symmetry_multiplicity
 _atom_site_fract_x
 _atom_site_fract_y
 _atom_site_fract_z
 _atom_site_occupancy
  Y  Y0  1  0.172394  0.827606  0.000000  1
  Y  Y1  1  0.326772  0.325493  0.000000  1
  Y  Y2  1  0.674507  0.673228  0.000000  1
  Nb  Nb3  1  0.498977  0.998906  0.000000  1
  Nb  Nb4  1  0.001094  0.501023  0.000000  1
  Nb  Nb5  1  0.826046  0.173954  0.000000  1
  Si  Si6  1  0.628941  0.371059  0.000000  1
  Si  Si7  1  0.375599  0.624401  0.000000  1
  Si  Si8  1  0.122245  0.126862  0.000000  1
  Si  Si9  1  0.873138  0.877755  0.000000  1
  Ru  Ru10  1  0.502882  0.497118  0.500000  1
  Ru  Ru11  1  0.989661  0.010339  0.500000  1
  Ru  Ru12  1  0.581010  0.204510  0.500000  1
  Ru  Ru13  1  0.434988  0.791145  0.500000  1
  Ru  Ru14  1  0.056744  0.289083  0.500000  1
  Ru  Ru15  1  0.930789  0.711049  0.500000  1
  Ru  Ru16  1  0.288951  0.069211  0.500000  1
  Ru  Ru17  1  0.710917  0.943256  0.500000  1
  Ru  Ru18  1  0.208855  0.565012  0.500000  1
  Ru  Ru19  1  0.795490  0.418990  0.500000  1
