# generated using pymatgen
data_Y2(CuP)3
_symmetry_space_group_name_H-M   'P 1'
_cell_length_a   3.85604700
_cell_length_b   10.73602900
_cell_length_c   12.97264300
_cell_angle_alpha   90.00000000
_cell_angle_beta   90.00000000
_cell_angle_gamma   90.00000000
_symmetry_Int_Tables_number   1
_chemical_formula_structural   Y2(CuP)3
_chemical_formula_sum   'Y8 Cu12 P12'
_cell_volume   537.04967904
_cell_formula_units_Z   4
loop_
 _symmetry_equiv_pos_site_id
 _symmetry_equiv_pos_as_xyz
  1  'x, y, z'
loop_
 _atom_site_type_symbol
 _atom_site_label
 _atom_site_symmetry_multiplicity
 _atom_site_fract_x
 _atom_site_fract_y
 _atom_site_fract_z
 _atom_site_occupancy
  Y  Y0  1  0.250000  0.929326  0.793456  1
  Y  Y1  1  0.750000  0.429326  0.706544  1
  Y  Y2  1  0.250000  0.570674  0.293456  1
  Y  Y3  1  0.750000  0.070674  0.206544  1
  Y  Y4  1  0.250000  0.841940  0.502961  1
  Y  Y5  1  0.750000  0.341940  0.997039  1
  Y  Y6  1  0.250000  0.658060  0.002961  1
  Y  Y7  1  0.750000  0.158060  0.497039  1
  Cu  Cu8  1  0.250000  0.401662  0.514310  1
  Cu  Cu9  1  0.750000  0.901662  0.985690  1
  Cu  Cu10  1  0.250000  0.098338  0.014310  1
  Cu  Cu11  1  0.750000  0.598338  0.485690  1
  Cu  Cu12  1  0.250000  0.273448  0.332255  1
  Cu  Cu13  1  0.750000  0.773448  0.167745  1
  Cu  Cu14  1  0.250000  0.226552  0.832255  1
  Cu  Cu15  1  0.750000  0.726552  0.667745  1
  Cu  Cu16  1  0.250000  0.861414  0.278849  1
  Cu  Cu17  1  0.750000  0.361414  0.221151  1
  Cu  Cu18  1  0.250000  0.638586  0.778849  1
  Cu  Cu19  1  0.750000  0.138586  0.721151  1
  P  P20  1  0.250000  0.239526  0.643892  1
  P  P21  1  0.750000  0.739526  0.856108  1
  P  P22  1  0.250000  0.260474  0.143892  1
  P  P23  1  0.750000  0.760474  0.356108  1
  P  P24  1  0.250000  0.603898  0.599811  1
  P  P25  1  0.750000  0.103898  0.900189  1
  P  P26  1  0.250000  0.896102  0.099811  1
  P  P27  1  0.750000  0.396102  0.400189  1
  P  P28  1  0.250000  0.057671  0.368073  1
  P  P29  1  0.750000  0.557671  0.131927  1
  P  P30  1  0.250000  0.442329  0.868073  1
  P  P31  1  0.750000  0.942329  0.631927  1
