# generated using pymatgen
data_Tm16In3AgPt4
_symmetry_space_group_name_H-M   'P 1'
_cell_length_a   9.52256903
_cell_length_b   9.52256851
_cell_length_c   9.52256885
_cell_angle_alpha   60.27730730
_cell_angle_beta   60.27731036
_cell_angle_gamma   60.27730504
_symmetry_Int_Tables_number   1
_chemical_formula_structural   Tm16In3AgPt4
_chemical_formula_sum   'Tm16 In3 Ag1 Pt4'
_cell_volume   614.41887305
_cell_formula_units_Z   1
loop_
 _symmetry_equiv_pos_site_id
 _symmetry_equiv_pos_as_xyz
  1  'x, y, z'
loop_
 _atom_site_type_symbol
 _atom_site_label
 _atom_site_symmetry_multiplicity
 _atom_site_fract_x
 _atom_site_fract_y
 _atom_site_fract_z
 _atom_site_occupancy
  Tm  Tm0  1  0.350795  0.350795  0.350795  1
  Tm  Tm1  1  0.354470  0.354470  0.938027  1
  Tm  Tm2  1  0.354470  0.938027  0.354470  1
  Tm  Tm3  1  0.938027  0.354470  0.354470  1
  Tm  Tm4  1  0.810228  0.190662  0.190662  1
  Tm  Tm5  1  0.191113  0.810237  0.810237  1
  Tm  Tm6  1  0.190662  0.810228  0.190662  1
  Tm  Tm7  1  0.810237  0.191113  0.810237  1
  Tm  Tm8  1  0.190662  0.190662  0.810228  1
  Tm  Tm9  1  0.810237  0.810237  0.191113  1
  Tm  Tm10  1  0.931191  0.564174  0.564174  1
  Tm  Tm11  1  0.560674  0.937321  0.937321  1
  Tm  Tm12  1  0.564174  0.931191  0.564174  1
  Tm  Tm13  1  0.937321  0.560674  0.937321  1
  Tm  Tm14  1  0.564174  0.564174  0.931191  1
  Tm  Tm15  1  0.937321  0.937321  0.560674  1
  In  In16  1  0.583565  0.583565  0.252225  1
  In  In17  1  0.583565  0.252225  0.583565  1
  In  In18  1  0.252225  0.583565  0.583565  1
  Ag  Ag19  1  0.585444  0.585444  0.585444  1
  Pt  Pt20  1  0.144301  0.144301  0.144301  1
  Pt  Pt21  1  0.142325  0.142325  0.570496  1
  Pt  Pt22  1  0.142325  0.570496  0.142325  1
  Pt  Pt23  1  0.570496  0.142325  0.142325  1
