# generated using pymatgen
data_Th3Fe(Co4P3)2
_symmetry_space_group_name_H-M   'P 1'
_cell_length_a   3.82026100
_cell_length_b   10.58839100
_cell_length_c   12.41697900
_cell_angle_alpha   90.00000000
_cell_angle_beta   90.00000000
_cell_angle_gamma   90.00000000
_symmetry_Int_Tables_number   1
_chemical_formula_structural   Th3Fe(Co4P3)2
_chemical_formula_sum   'Th6 Fe2 Co16 P12'
_cell_volume   502.27198079
_cell_formula_units_Z   2
loop_
 _symmetry_equiv_pos_site_id
 _symmetry_equiv_pos_as_xyz
  1  'x, y, z'
loop_
 _atom_site_type_symbol
 _atom_site_label
 _atom_site_symmetry_multiplicity
 _atom_site_fract_x
 _atom_site_fract_y
 _atom_site_fract_z
 _atom_site_occupancy
  Th  Th0  1  0.000000  0.500000  0.519799  1
  Th  Th1  1  0.500000  0.000000  0.480201  1
  Th  Th2  1  0.500000  0.815421  0.207285  1
  Th  Th3  1  0.500000  0.184579  0.207285  1
  Th  Th4  1  0.000000  0.684579  0.792715  1
  Th  Th5  1  0.000000  0.315421  0.792715  1
  Fe  Fe6  1  0.500000  0.500000  0.154236  1
  Fe  Fe7  1  0.000000  0.000000  0.845764  1
  Co  Co8  1  0.500000  0.500000  0.703246  1
  Co  Co9  1  0.000000  0.000000  0.296754  1
  Co  Co10  1  0.000000  0.500000  0.984360  1
  Co  Co11  1  0.500000  0.000000  0.015640  1
  Co  Co12  1  0.500000  0.333535  0.995808  1
  Co  Co13  1  0.500000  0.666465  0.995808  1
  Co  Co14  1  0.000000  0.166465  0.004192  1
  Co  Co15  1  0.000000  0.833535  0.004192  1
  Co  Co16  1  0.500000  0.300650  0.428147  1
  Co  Co17  1  0.500000  0.699350  0.428147  1
  Co  Co18  1  0.000000  0.199350  0.571853  1
  Co  Co19  1  0.000000  0.800650  0.571853  1
  Co  Co20  1  0.500000  0.880483  0.713925  1
  Co  Co21  1  0.500000  0.119517  0.713925  1
  Co  Co22  1  0.000000  0.619517  0.286075  1
  Co  Co23  1  0.000000  0.380483  0.286075  1
  P  P24  1  0.500000  0.500000  0.885266  1
  P  P25  1  0.000000  0.000000  0.114734  1
  P  P26  1  0.500000  0.500000  0.336251  1
  P  P27  1  0.000000  0.000000  0.663749  1
  P  P28  1  0.500000  0.305648  0.612068  1
  P  P29  1  0.500000  0.694352  0.612068  1
  P  P30  1  0.000000  0.194352  0.387932  1
  P  P31  1  0.000000  0.805648  0.387932  1
  P  P32  1  0.500000  0.849602  0.897586  1
  P  P33  1  0.500000  0.150398  0.897586  1
  P  P34  1  0.000000  0.650398  0.102414  1
  P  P35  1  0.000000  0.349602  0.102414  1
