# generated using pymatgen
data_Ti4Ge2PdRh9
_symmetry_space_group_name_H-M   'P 1'
_cell_length_a   3.99064600
_cell_length_b   5.44221677
_cell_length_c   10.65837737
_cell_angle_alpha   90.50466030
_cell_angle_beta   90.00000000
_cell_angle_gamma   90.00000000
_symmetry_Int_Tables_number   1
_chemical_formula_structural   Ti4Ge2PdRh9
_chemical_formula_sum   'Ti4 Ge2 Pd1 Rh9'
_cell_volume   231.46924062
_cell_formula_units_Z   1
loop_
 _symmetry_equiv_pos_site_id
 _symmetry_equiv_pos_as_xyz
  1  'x, y, z'
loop_
 _atom_site_type_symbol
 _atom_site_label
 _atom_site_symmetry_multiplicity
 _atom_site_fract_x
 _atom_site_fract_y
 _atom_site_fract_z
 _atom_site_occupancy
  Ti  Ti0  1  0.500000  0.338451  0.139141  1
  Ti  Ti1  1  0.500000  0.678122  0.857519  1
  Ti  Ti2  1  0.500000  0.816004  0.362948  1
  Ti  Ti3  1  0.500000  0.175265  0.642102  1
  Ge  Ge4  1  0.000000  0.000191  0.997257  1
  Ge  Ge5  1  0.000000  0.493991  0.500547  1
  Pd  Pd6  1  0.000000  0.071417  0.243047  1
  Rh  Rh7  1  0.000000  0.994196  0.500048  1
  Rh  Rh8  1  0.000000  0.500729  0.000442  1
  Rh  Rh9  1  0.000000  0.928173  0.756928  1
  Rh  Rh10  1  0.000000  0.572464  0.257505  1
  Rh  Rh11  1  0.000000  0.428111  0.742629  1
  Rh  Rh12  1  0.500000  0.303331  0.390461  1
  Rh  Rh13  1  0.500000  0.692121  0.609413  1
  Rh  Rh14  1  0.500000  0.811209  0.108714  1
  Rh  Rh15  1  0.500000  0.196226  0.891298  1
