# generated using pymatgen
data_LiTb2Ho14In3Rh4
_symmetry_space_group_name_H-M   'P 1'
_cell_length_a   9.62743788
_cell_length_b   9.62743690
_cell_length_c   9.62723207
_cell_angle_alpha   59.86445534
_cell_angle_beta   59.86445903
_cell_angle_gamma   59.86369814
_symmetry_Int_Tables_number   1
_chemical_formula_structural   LiTb2Ho14In3Rh4
_chemical_formula_sum   'Li1 Tb2 Ho14 In3 Rh4'
_cell_volume   629.02444794
_cell_formula_units_Z   1
loop_
 _symmetry_equiv_pos_site_id
 _symmetry_equiv_pos_as_xyz
  1  'x, y, z'
loop_
 _atom_site_type_symbol
 _atom_site_label
 _atom_site_symmetry_multiplicity
 _atom_site_fract_x
 _atom_site_fract_y
 _atom_site_fract_z
 _atom_site_occupancy
  Li  Li0  1  0.822141  0.822141  0.821791  1
  Tb  Tb1  1  0.187801  0.187801  0.812405  1
  Tb  Tb2  1  0.600118  0.600118  0.201391  1
  Ho  Ho3  1  0.441237  0.059164  0.440871  1
  Ho  Ho4  1  0.440923  0.440923  0.059186  1
  Ho  Ho5  1  0.812922  0.186264  0.813157  1
  Ho  Ho6  1  0.187583  0.812243  0.188222  1
  Ho  Ho7  1  0.436331  0.063328  0.063314  1
  Ho  Ho8  1  0.186264  0.812922  0.813157  1
  Ho  Ho9  1  0.063328  0.436331  0.063314  1
  Ho  Ho10  1  0.813447  0.813447  0.186134  1
  Ho  Ho11  1  0.202036  0.599999  0.599656  1
  Ho  Ho12  1  0.059164  0.441237  0.440871  1
  Ho  Ho13  1  0.063040  0.063040  0.436440  1
  Ho  Ho14  1  0.812243  0.187583  0.188222  1
  Ho  Ho15  1  0.599999  0.202036  0.599656  1
  Ho  Ho16  1  0.599952  0.599952  0.599954  1
  In  In17  1  0.833036  0.833036  0.503350  1
  In  In18  1  0.503877  0.832631  0.832697  1
  In  In19  1  0.832631  0.503877  0.832697  1
  Rh  Rh20  1  0.392297  0.823802  0.393415  1
  Rh  Rh21  1  0.392793  0.392793  0.393299  1
  Rh  Rh22  1  0.823802  0.392297  0.393415  1
  Rh  Rh23  1  0.393037  0.393037  0.823388  1
