# generated using pymatgen
data_CaPr(B2Rh3)3
_symmetry_space_group_name_H-M   'P 1'
_cell_length_a   5.67627604
_cell_length_b   5.67504753
_cell_length_c   8.56225600
_cell_angle_alpha   89.99887303
_cell_angle_beta   90.00109851
_cell_angle_gamma   120.02146624
_symmetry_Int_Tables_number   1
_chemical_formula_structural   CaPr(B2Rh3)3
_chemical_formula_sum   'Ca1 Pr1 B6 Rh9'
_cell_volume   238.81294751
_cell_formula_units_Z   1
loop_
 _symmetry_equiv_pos_site_id
 _symmetry_equiv_pos_as_xyz
  1  'x, y, z'
loop_
 _atom_site_type_symbol
 _atom_site_label
 _atom_site_symmetry_multiplicity
 _atom_site_fract_x
 _atom_site_fract_y
 _atom_site_fract_z
 _atom_site_occupancy
  Ca  Ca0  1  0.000048  0.999989  0.282445  1
  Pr  Pr1  1  0.999961  0.000015  0.699745  1
  B  B2  1  0.333330  0.666642  0.003372  1
  B  B3  1  0.666658  0.333341  0.003379  1
  B  B4  1  0.333314  0.666661  0.332196  1
  B  B5  1  0.666652  0.333348  0.332233  1
  B  B6  1  0.666655  0.333351  0.667823  1
  B  B7  1  0.333319  0.666652  0.667850  1
  Rh  Rh8  1  0.499915  0.999771  0.165872  1
  Rh  Rh9  1  0.499907  0.500106  0.165870  1
  Rh  Rh10  1  0.000221  0.500084  0.165875  1
  Rh  Rh11  1  0.499814  0.999824  0.837923  1
  Rh  Rh12  1  0.499982  0.500129  0.837917  1
  Rh  Rh13  1  0.000159  0.500072  0.837922  1
  Rh  Rh14  1  0.499959  0.999901  0.499856  1
  Rh  Rh15  1  0.499920  0.500067  0.499861  1
  Rh  Rh16  1  0.000086  0.500048  0.499862  1
