# generated using pymatgen
data_Dy8Ho8Sc4Si15Ru
_symmetry_space_group_name_H-M   'P 1'
_cell_length_a   7.22318840
_cell_length_b   7.68909677
_cell_length_c   14.34330200
_cell_angle_alpha   90.00000000
_cell_angle_beta   90.00000000
_cell_angle_gamma   90.08222009
_symmetry_Int_Tables_number   1
_chemical_formula_structural   Dy8Ho8Sc4Si15Ru
_chemical_formula_sum   'Dy8 Ho8 Sc4 Si15 Ru1'
_cell_volume   796.62322658
_cell_formula_units_Z   1
loop_
 _symmetry_equiv_pos_site_id
 _symmetry_equiv_pos_as_xyz
  1  'x, y, z'
loop_
 _atom_site_type_symbol
 _atom_site_label
 _atom_site_symmetry_multiplicity
 _atom_site_fract_x
 _atom_site_fract_y
 _atom_site_fract_z
 _atom_site_occupancy
  Dy  Dy0  1  0.018572  0.184338  0.096226  1
  Dy  Dy1  1  0.984400  0.824382  0.904080  1
  Dy  Dy2  1  0.482952  0.682655  0.904316  1
  Dy  Dy3  1  0.984400  0.824382  0.595920  1
  Dy  Dy4  1  0.518427  0.317552  0.096700  1
  Dy  Dy5  1  0.018572  0.184338  0.403774  1
  Dy  Dy6  1  0.518427  0.317552  0.403300  1
  Dy  Dy7  1  0.482952  0.682655  0.595684  1
  Ho  Ho8  1  0.308958  0.172562  0.629017  1
  Ho  Ho9  1  0.678742  0.824297  0.373910  1
  Ho  Ho10  1  0.177862  0.679289  0.373772  1
  Ho  Ho11  1  0.678742  0.824297  0.126090  1
  Ho  Ho12  1  0.830662  0.317429  0.628218  1
  Ho  Ho13  1  0.308958  0.172562  0.870983  1
  Ho  Ho14  1  0.830662  0.317429  0.871782  1
  Ho  Ho15  1  0.177862  0.679289  0.126228  1
  Sc  Sc16  1  0.155358  0.519034  0.750000  1
  Sc  Sc17  1  0.844333  0.483880  0.250000  1
  Sc  Sc18  1  0.343943  0.018197  0.250000  1
  Sc  Sc19  1  0.666840  0.985015  0.750000  1
  Si  Si20  1  0.980868  0.907177  0.250000  1
  Si  Si21  1  0.482598  0.594393  0.250000  1
  Si  Si22  1  0.518003  0.404848  0.750000  1
  Si  Si23  1  0.281113  0.859200  0.750000  1
  Si  Si24  1  0.719780  0.136532  0.250000  1
  Si  Si25  1  0.221352  0.365132  0.250000  1
  Si  Si26  1  0.773425  0.631197  0.750000  1
  Si  Si27  1  0.155850  0.472955  0.539024  1
  Si  Si28  1  0.847367  0.529929  0.460384  1
  Si  Si29  1  0.346576  0.971108  0.459695  1
  Si  Si30  1  0.847367  0.529929  0.039616  1
  Si  Si31  1  0.649738  0.031091  0.539745  1
  Si  Si32  1  0.155850  0.472955  0.960976  1
  Si  Si33  1  0.649738  0.031091  0.960255  1
  Si  Si34  1  0.346576  0.971108  0.040305  1
  Ru  Ru35  1  0.012175  0.080227  0.750000  1
