# generated using pymatgen
data_CrBr37
_symmetry_space_group_name_H-M   'P 1'
_cell_length_a   14.20848141
_cell_length_b   15.29732181
_cell_length_c   14.42416200
_cell_angle_alpha   103.00376457
_cell_angle_beta   48.80056783
_cell_angle_gamma   81.50743146
_symmetry_Int_Tables_number   1
_chemical_formula_structural   CrBr37
_chemical_formula_sum   'Cr1 Br37'
_cell_volume   2102.91272627
_cell_formula_units_Z   1
loop_
 _symmetry_equiv_pos_site_id
 _symmetry_equiv_pos_as_xyz
  1  'x, y, z'
loop_
 _atom_site_type_symbol
 _atom_site_label
 _atom_site_symmetry_multiplicity
 _atom_site_fract_x
 _atom_site_fract_y
 _atom_site_fract_z
 _atom_site_occupancy
  Cr  Cr0  1  0.500000  0.000000  0.000000  1
  Br  Br1  1  0.782929  0.300771  0.137358  1
  Br  Br2  1  0.217071  0.699229  0.862642  1
  Br  Br3  1  0.741769  0.083156  0.363083  1
  Br  Br4  1  0.258231  0.916844  0.636917  1
  Br  Br5  1  0.110756  0.351551  0.167197  1
  Br  Br6  1  0.889244  0.648449  0.832803  1
  Br  Br7  1  0.858192  0.528845  0.247913  1
  Br  Br8  1  0.141808  0.471155  0.752087  1
  Br  Br9  1  0.686863  0.273802  0.521159  1
  Br  Br10  1  0.313137  0.726198  0.478841  1
  Br  Br11  1  0.031999  0.142047  0.505423  1
  Br  Br12  1  0.968001  0.857953  0.494577  1
  Br  Br13  1  0.975041  0.009600  0.287830  1
  Br  Br14  1  0.024959  0.990400  0.712170  1
  Br  Br15  1  0.948037  0.336936  0.610288  1
  Br  Br16  1  0.051963  0.663064  0.389712  1
  Br  Br17  1  0.574780  0.429896  0.235323  1
  Br  Br18  1  0.425220  0.570104  0.764677  1
  Br  Br19  1  0.162926  0.480745  0.281766  1
  Br  Br20  1  0.837074  0.519255  0.718234  1
  Br  Br21  1  0.000000  0.500000  0.000000  1
  Br  Br22  1  0.556070  0.957572  0.122889  1
  Br  Br23  1  0.443930  0.042428  0.877111  1
  Br  Br24  1  0.290231  0.052566  0.321416  1
  Br  Br25  1  0.709769  0.947434  0.678584  1
  Br  Br26  1  0.530194  0.131505  0.412401  1
  Br  Br27  1  0.469806  0.868495  0.587599  1
  Br  Br28  1  0.090036  0.219443  0.062667  1
  Br  Br29  1  0.909964  0.780557  0.937333  1
  Br  Br30  1  0.660658  0.690519  0.402718  1
  Br  Br31  1  0.339342  0.309481  0.597282  1
  Br  Br32  1  0.899751  0.146340  0.920892  1
  Br  Br33  1  0.100249  0.853660  0.079108  1
  Br  Br34  1  0.498450  0.156777  0.063250  1
  Br  Br35  1  0.501550  0.843223  0.936750  1
  Br  Br36  1  0.654904  0.427456  0.648083  1
  Br  Br37  1  0.345096  0.572544  0.351917  1
