# generated using pymatgen
data_K4PaSbTe6
_symmetry_space_group_name_H-M   'P 1'
_cell_length_a   8.10477800
_cell_length_b   8.10477762
_cell_length_c   8.76065200
_cell_angle_alpha   80.89335567
_cell_angle_beta   80.89335609
_cell_angle_gamma   120.15890057
_symmetry_Int_Tables_number   1
_chemical_formula_structural   K4PaSbTe6
_chemical_formula_sum   'K4 Pa1 Sb1 Te6'
_cell_volume   471.85418606
_cell_formula_units_Z   1
loop_
 _symmetry_equiv_pos_site_id
 _symmetry_equiv_pos_as_xyz
  1  'x, y, z'
loop_
 _atom_site_type_symbol
 _atom_site_label
 _atom_site_symmetry_multiplicity
 _atom_site_fract_x
 _atom_site_fract_y
 _atom_site_fract_z
 _atom_site_occupancy
  K  K0  1  0.500149  0.499851  0.000000  1
  K  K1  1  0.655671  0.344329  0.500000  1
  K  K2  1  0.347775  0.652225  0.500000  1
  K  K3  1  0.995820  0.004180  0.500000  1
  Pa  Pa4  1  0.167960  0.832040  0.000000  1
  Sb  Sb5  1  0.830393  0.169607  0.000000  1
  Te  Te6  1  0.806508  0.797884  0.205859  1
  Te  Te7  1  0.202116  0.193492  0.794141  1
  Te  Te8  1  0.421053  0.050741  0.208741  1
  Te  Te9  1  0.563636  0.940338  0.790841  1
  Te  Te10  1  0.949259  0.578947  0.791259  1
  Te  Te11  1  0.059662  0.436364  0.209159  1
