# generated using pymatgen
data_Nd3In3IrAu2
_symmetry_space_group_name_H-M   'P 1'
_cell_length_a   7.82972400
_cell_length_b   7.82972323
_cell_length_c   4.10825900
_cell_angle_alpha   90.00000000
_cell_angle_beta   90.00000000
_cell_angle_gamma   120.00000325
_symmetry_Int_Tables_number   1
_chemical_formula_structural   Nd3In3IrAu2
_chemical_formula_sum   'Nd3 In3 Ir1 Au2'
_cell_volume   218.11287220
_cell_formula_units_Z   1
loop_
 _symmetry_equiv_pos_site_id
 _symmetry_equiv_pos_as_xyz
  1  'x, y, z'
loop_
 _atom_site_type_symbol
 _atom_site_label
 _atom_site_symmetry_multiplicity
 _atom_site_fract_x
 _atom_site_fract_y
 _atom_site_fract_z
 _atom_site_occupancy
  Nd  Nd0  1  0.982007  0.578415  0.500000  1
  Nd  Nd1  1  0.596409  0.017993  0.500000  1
  Nd  Nd2  1  0.421585  0.403591  0.500000  1
  In  In3  1  0.995274  0.254571  0.000000  1
  In  In4  1  0.259297  0.004726  0.000000  1
  In  In5  1  0.745429  0.740703  0.000000  1
  Ir  Ir6  1  0.666667  0.333333  0.000000  1
  Au  Au7  1  0.000000  0.000000  0.500000  1
  Au  Au8  1  0.333333  0.666667  0.000000  1
