# generated using pymatgen
data_Zr3Zn5Fe
_symmetry_space_group_name_H-M   'P 1'
_cell_length_a   7.09147200
_cell_length_b   7.09147122
_cell_length_c   3.51960100
_cell_angle_alpha   90.00000000
_cell_angle_beta   90.00000000
_cell_angle_gamma   120.00000364
_symmetry_Int_Tables_number   1
_chemical_formula_structural   Zr3Zn5Fe
_chemical_formula_sum   'Zr3 Zn5 Fe1'
_cell_volume   153.28398599
_cell_formula_units_Z   1
loop_
 _symmetry_equiv_pos_site_id
 _symmetry_equiv_pos_as_xyz
  1  'x, y, z'
loop_
 _atom_site_type_symbol
 _atom_site_label
 _atom_site_symmetry_multiplicity
 _atom_site_fract_x
 _atom_site_fract_y
 _atom_site_fract_z
 _atom_site_occupancy
  Zr  Zr0  1  0.396183  0.972003  0.500000  1
  Zr  Zr1  1  0.027997  0.424181  0.500000  1
  Zr  Zr2  1  0.575819  0.603817  0.500000  1
  Zn  Zn3  1  0.735982  0.000994  0.000000  1
  Zn  Zn4  1  0.999006  0.734988  0.000000  1
  Zn  Zn5  1  0.265012  0.264018  0.000000  1
  Zn  Zn6  1  0.666667  0.333333  0.000000  1
  Zn  Zn7  1  0.000000  0.000000  0.500000  1
  Fe  Fe8  1  0.333333  0.666667  0.000000  1
