# generated using pymatgen
data_Hf8NbCo2Pt
_symmetry_space_group_name_H-M   'P 1'
_cell_length_a   8.70781353
_cell_length_b   8.70781342
_cell_length_c   8.62045700
_cell_angle_alpha   60.33129956
_cell_angle_beta   60.33129998
_cell_angle_gamma   60.22519355
_symmetry_Int_Tables_number   1
_chemical_formula_structural   Hf8NbCo2Pt
_chemical_formula_sum   'Hf16 Nb2 Co4 Pt2'
_cell_volume   465.29807968
_cell_formula_units_Z   2
loop_
 _symmetry_equiv_pos_site_id
 _symmetry_equiv_pos_as_xyz
  1  'x, y, z'
loop_
 _atom_site_type_symbol
 _atom_site_label
 _atom_site_symmetry_multiplicity
 _atom_site_fract_x
 _atom_site_fract_y
 _atom_site_fract_z
 _atom_site_occupancy
  Hf  Hf0  1  0.049028  0.650041  0.650466  1
  Hf  Hf1  1  0.650041  0.049028  0.650466  1
  Hf  Hf2  1  0.653295  0.653295  0.042907  1
  Hf  Hf3  1  0.653295  0.653295  0.650503  1
  Hf  Hf4  1  0.797216  0.797216  0.202784  1
  Hf  Hf5  1  0.202608  0.202608  0.797392  1
  Hf  Hf6  1  0.805927  0.196466  0.803264  1
  Hf  Hf7  1  0.196466  0.805927  0.194343  1
  Hf  Hf8  1  0.196466  0.805927  0.803264  1
  Hf  Hf9  1  0.805927  0.196466  0.194343  1
  Hf  Hf10  1  0.436967  0.436967  0.063033  1
  Hf  Hf11  1  0.065023  0.065023  0.434977  1
  Hf  Hf12  1  0.434189  0.059657  0.436127  1
  Hf  Hf13  1  0.059657  0.434189  0.070027  1
  Hf  Hf14  1  0.059657  0.434189  0.436127  1
  Hf  Hf15  1  0.434189  0.059657  0.070027  1
  Nb  Nb16  1  0.744547  0.417488  0.418982  1
  Nb  Nb17  1  0.417488  0.744547  0.418982  1
  Co  Co18  1  0.421387  0.863715  0.857450  1
  Co  Co19  1  0.863715  0.421387  0.857450  1
  Co  Co20  1  0.861799  0.861799  0.420823  1
  Co  Co21  1  0.861799  0.861799  0.855580  1
  Pt  Pt22  1  0.414658  0.414658  0.760330  1
  Pt  Pt23  1  0.414658  0.414658  0.410354  1
