# generated using pymatgen
data_Hf3Ga3PdRh2
_symmetry_space_group_name_H-M   'P 1'
_cell_length_a   7.21872800
_cell_length_b   7.21872765
_cell_length_c   6.83196300
_cell_angle_alpha   90.00000000
_cell_angle_beta   90.00000000
_cell_angle_gamma   119.99999246
_symmetry_Int_Tables_number   1
_chemical_formula_structural   Hf3Ga3PdRh2
_chemical_formula_sum   'Hf6 Ga6 Pd2 Rh4'
_cell_volume   308.31702384
_cell_formula_units_Z   2
loop_
 _symmetry_equiv_pos_site_id
 _symmetry_equiv_pos_as_xyz
  1  'x, y, z'
loop_
 _atom_site_type_symbol
 _atom_site_label
 _atom_site_symmetry_multiplicity
 _atom_site_fract_x
 _atom_site_fract_y
 _atom_site_fract_z
 _atom_site_occupancy
  Hf  Hf0  1  0.601702  0.593448  0.250000  1
  Hf  Hf1  1  0.008254  0.406552  0.750000  1
  Hf  Hf2  1  0.406552  0.008254  0.250000  1
  Hf  Hf3  1  0.991746  0.398298  0.250000  1
  Hf  Hf4  1  0.398298  0.991746  0.750000  1
  Hf  Hf5  1  0.593448  0.601702  0.750000  1
  Ga  Ga6  1  0.270282  0.270282  0.500000  1
  Ga  Ga7  1  0.729718  0.000000  0.500000  1
  Ga  Ga8  1  0.000000  0.729718  0.500000  1
  Ga  Ga9  1  0.729718  0.000000  0.000000  1
  Ga  Ga10  1  0.270282  0.270282  0.000000  1
  Ga  Ga11  1  0.000000  0.729718  0.000000  1
  Pd  Pd12  1  0.000000  0.000000  0.750000  1
  Pd  Pd13  1  0.000000  0.000000  0.250000  1
  Rh  Rh14  1  0.333333  0.666667  0.488159  1
  Rh  Rh15  1  0.333333  0.666667  0.011841  1
  Rh  Rh16  1  0.666667  0.333333  0.511841  1
  Rh  Rh17  1  0.666667  0.333333  0.988159  1
