# generated using pymatgen
data_YbY3Ir8
_symmetry_space_group_name_H-M   'P 1'
_cell_length_a   5.36278300
_cell_length_b   5.36278284
_cell_length_c   8.71827800
_cell_angle_alpha   90.00000000
_cell_angle_beta   90.00000000
_cell_angle_gamma   119.99998245
_symmetry_Int_Tables_number   1
_chemical_formula_structural   YbY3Ir8
_chemical_formula_sum   'Yb1 Y3 Ir8'
_cell_volume   217.14101182
_cell_formula_units_Z   1
loop_
 _symmetry_equiv_pos_site_id
 _symmetry_equiv_pos_as_xyz
  1  'x, y, z'
loop_
 _atom_site_type_symbol
 _atom_site_label
 _atom_site_symmetry_multiplicity
 _atom_site_fract_x
 _atom_site_fract_y
 _atom_site_fract_z
 _atom_site_occupancy
  Yb  Yb0  1  0.333333  0.666667  0.436139  1
  Y  Y1  1  0.333333  0.666667  0.075284  1
  Y  Y2  1  0.666667  0.333333  0.561701  1
  Y  Y3  1  0.666667  0.333333  0.930650  1
  Ir  Ir4  1  0.000000  0.000000  0.999255  1
  Ir  Ir5  1  0.000000  0.000000  0.498830  1
  Ir  Ir6  1  0.830337  0.660674  0.249081  1
  Ir  Ir7  1  0.169860  0.830140  0.750300  1
  Ir  Ir8  1  0.660281  0.830140  0.750300  1
  Ir  Ir9  1  0.339326  0.169663  0.249081  1
  Ir  Ir10  1  0.830337  0.169663  0.249081  1
  Ir  Ir11  1  0.169860  0.339719  0.750300  1
