# generated using pymatgen
data_Tm2Lu4Al19Si5Os8
_symmetry_space_group_name_H-M   'P 1'
_cell_length_a   8.66220300
_cell_length_b   8.64768247
_cell_length_c   9.53904700
_cell_angle_alpha   90.00000000
_cell_angle_beta   90.00000000
_cell_angle_gamma   120.05556437
_symmetry_Int_Tables_number   1
_chemical_formula_structural   Tm2Lu4Al19Si5Os8
_chemical_formula_sum   'Tm2 Lu4 Al19 Si5 Os8'
_cell_volume   618.47233328
_cell_formula_units_Z   1
loop_
 _symmetry_equiv_pos_site_id
 _symmetry_equiv_pos_as_xyz
  1  'x, y, z'
loop_
 _atom_site_type_symbol
 _atom_site_label
 _atom_site_symmetry_multiplicity
 _atom_site_fract_x
 _atom_site_fract_y
 _atom_site_fract_z
 _atom_site_occupancy
  Tm  Tm0  1  0.606669  0.805624  0.250000  1
  Tm  Tm1  1  0.198955  0.805624  0.250000  1
  Lu  Lu2  1  0.195903  0.391806  0.250000  1
  Lu  Lu3  1  0.804365  0.608730  0.750000  1
  Lu  Lu4  1  0.392232  0.196692  0.750000  1
  Lu  Lu5  1  0.804460  0.196692  0.750000  1
  Al  Al6  1  0.164526  0.329052  0.579058  1
  Al  Al7  1  0.834781  0.669561  0.421258  1
  Al  Al8  1  0.670135  0.835508  0.577781  1
  Al  Al9  1  0.834781  0.669561  0.078742  1
  Al  Al10  1  0.328838  0.165408  0.421382  1
  Al  Al11  1  0.164526  0.329052  0.920942  1
  Al  Al12  1  0.165373  0.835508  0.577781  1
  Al  Al13  1  0.328838  0.165408  0.078618  1
  Al  Al14  1  0.836570  0.165408  0.421382  1
  Al  Al15  1  0.670135  0.835508  0.922219  1
  Al  Al16  1  0.836570  0.165408  0.078618  1
  Al  Al17  1  0.165373  0.835508  0.922219  1
  Al  Al18  1  0.437639  0.875278  0.750000  1
  Al  Al19  1  0.873636  0.433901  0.250000  1
  Al  Al20  1  0.126906  0.564129  0.750000  1
  Al  Al21  1  0.560267  0.433901  0.250000  1
  Al  Al22  1  0.437223  0.564129  0.750000  1
  Al  Al23  1  0.999956  0.999912  0.250000  1
  Al  Al24  1  0.000355  0.000711  0.750000  1
  Si  Si25  1  0.332403  0.664807  0.039226  1
  Si  Si26  1  0.667212  0.334424  0.959084  1
  Si  Si27  1  0.667212  0.334424  0.540916  1
  Si  Si28  1  0.332403  0.664807  0.460774  1
  Si  Si29  1  0.563615  0.127230  0.250000  1
  Os  Os30  1  0.500771  0.001540  0.006141  1
  Os  Os31  1  0.998870  0.498745  0.000290  1
  Os  Os32  1  0.500771  0.001540  0.493859  1
  Os  Os33  1  0.499875  0.498745  0.000290  1
  Os  Os34  1  0.998870  0.498745  0.499710  1
  Os  Os35  1  0.499875  0.498745  0.499710  1
  Os  Os36  1  0.999557  0.999113  0.999955  1
  Os  Os37  1  0.999557  0.999113  0.500045  1
