# generated using pymatgen
data_PrNdGaSi
_symmetry_space_group_name_H-M   'P 1'
_cell_length_a   6.05826606
_cell_length_b   6.05826554
_cell_length_c   4.07621400
_cell_angle_alpha   90.00000000
_cell_angle_beta   90.00000000
_cell_angle_gamma   136.79801007
_symmetry_Int_Tables_number   1
_chemical_formula_structural   PrNdGaSi
_chemical_formula_sum   'Pr1 Nd1 Ga1 Si1'
_cell_volume   102.41722954
_cell_formula_units_Z   1
loop_
 _symmetry_equiv_pos_site_id
 _symmetry_equiv_pos_as_xyz
  1  'x, y, z'
loop_
 _atom_site_type_symbol
 _atom_site_label
 _atom_site_symmetry_multiplicity
 _atom_site_fract_x
 _atom_site_fract_y
 _atom_site_fract_z
 _atom_site_occupancy
  Pr  Pr0  1  0.642182  0.357818  0.500000  1
  Nd  Nd1  1  0.359358  0.640642  0.000000  1
  Ga  Ga2  1  0.069659  0.930341  0.000000  1
  Si  Si3  1  0.928800  0.071200  0.500000  1
