# generated using pymatgen
data_Zr10TlZn2InPb4
_symmetry_space_group_name_H-M   'P 1'
_cell_length_a   8.80554013
_cell_length_b   8.80844758
_cell_length_c   5.96360500
_cell_angle_alpha   90.00000000
_cell_angle_beta   90.00000000
_cell_angle_gamma   119.96967712
_symmetry_Int_Tables_number   1
_chemical_formula_structural   Zr10TlZn2InPb4
_chemical_formula_sum   'Zr10 Tl1 Zn2 In1 Pb4'
_cell_volume   400.70752270
_cell_formula_units_Z   1
loop_
 _symmetry_equiv_pos_site_id
 _symmetry_equiv_pos_as_xyz
  1  'x, y, z'
loop_
 _atom_site_type_symbol
 _atom_site_label
 _atom_site_symmetry_multiplicity
 _atom_site_fract_x
 _atom_site_fract_y
 _atom_site_fract_z
 _atom_site_occupancy
  Zr  Zr0  1  0.335249  0.668196  0.000666  1
  Zr  Zr1  1  0.666645  0.332465  0.499419  1
  Zr  Zr2  1  0.666645  0.332465  0.000581  1
  Zr  Zr3  1  0.335249  0.668196  0.499334  1
  Zr  Zr4  1  0.264360  0.999999  0.250000  1
  Zr  Zr5  1  0.262556  0.262645  0.750000  1
  Zr  Zr6  1  0.999291  0.737636  0.750000  1
  Zr  Zr7  1  0.997773  0.261696  0.250000  1
  Zr  Zr8  1  0.735295  0.738020  0.250000  1
  Zr  Zr9  1  0.736651  0.998866  0.750000  1
  Tl  Tl10  1  0.615638  0.614897  0.750000  1
  Zn  Zn11  1  0.998761  0.999482  0.001278  1
  Zn  Zn12  1  0.998761  0.999482  0.498722  1
  In  In13  1  0.616507  0.000270  0.250000  1
  Pb  Pb14  1  0.000298  0.384820  0.750000  1
  Pb  Pb15  1  0.999735  0.615993  0.250000  1
  Pb  Pb16  1  0.384670  0.384943  0.250000  1
  Pb  Pb17  1  0.385919  0.999929  0.750000  1
