# generated using pymatgen
data_Ta10ZnSi3Ge2
_symmetry_space_group_name_H-M   'P 1'
_cell_length_a   7.61966246
_cell_length_b   7.61966213
_cell_length_c   7.61899690
_cell_angle_alpha   128.67157073
_cell_angle_beta   128.67157409
_cell_angle_gamma   75.54608597
_symmetry_Int_Tables_number   1
_chemical_formula_structural   Ta10ZnSi3Ge2
_chemical_formula_sum   'Ta10 Zn1 Si3 Ge2'
_cell_volume   262.34252248
_cell_formula_units_Z   1
loop_
 _symmetry_equiv_pos_site_id
 _symmetry_equiv_pos_as_xyz
  1  'x, y, z'
loop_
 _atom_site_type_symbol
 _atom_site_label
 _atom_site_symmetry_multiplicity
 _atom_site_fract_x
 _atom_site_fract_y
 _atom_site_fract_z
 _atom_site_occupancy
  Ta  Ta0  1  0.012650  0.183653  0.496972  1
  Ta  Ta1  1  0.515498  0.015498  0.827601  1
  Ta  Ta2  1  0.187828  0.687828  0.176509  1
  Ta  Ta3  1  0.488683  0.988683  0.176509  1
  Ta  Ta4  1  0.683653  0.512650  0.496972  1
  Ta  Ta5  1  0.984322  0.813319  0.496972  1
  Ta  Ta6  1  0.313319  0.484322  0.496972  1
  Ta  Ta7  1  0.812102  0.312102  0.827601  1
  Ta  Ta8  1  0.502647  0.498460  0.001107  1
  Ta  Ta9  1  0.998460  0.002647  0.001107  1
  Zn  Zn10  1  0.131615  0.631615  0.763232  1
  Si  Si11  1  0.630575  0.867738  0.498313  1
  Si  Si12  1  0.367738  0.130575  0.498313  1
  Si  Si13  1  0.873355  0.373355  0.246710  1
  Ge  Ge14  1  0.748777  0.748777  0.997554  1
  Ge  Ge15  1  0.248777  0.248777  0.997554  1
