# generated using pymatgen
data_Lu5SiSn3
_symmetry_space_group_name_H-M   'P 1'
_cell_length_a   9.03241600
_cell_length_b   9.03241588
_cell_length_c   6.30301200
_cell_angle_alpha   90.00000000
_cell_angle_beta   90.00000000
_cell_angle_gamma   120.00000776
_symmetry_Int_Tables_number   1
_chemical_formula_structural   Lu5SiSn3
_chemical_formula_sum   'Lu10 Si2 Sn6'
_cell_volume   445.33475395
_cell_formula_units_Z   2
loop_
 _symmetry_equiv_pos_site_id
 _symmetry_equiv_pos_as_xyz
  1  'x, y, z'
loop_
 _atom_site_type_symbol
 _atom_site_label
 _atom_site_symmetry_multiplicity
 _atom_site_fract_x
 _atom_site_fract_y
 _atom_site_fract_z
 _atom_site_occupancy
  Lu  Lu0  1  0.666667  0.333333  0.000000  1
  Lu  Lu1  1  0.333333  0.666667  0.000000  1
  Lu  Lu2  1  0.333333  0.666667  0.500000  1
  Lu  Lu3  1  0.666667  0.333333  0.500000  1
  Lu  Lu4  1  0.746262  0.746262  0.750000  1
  Lu  Lu5  1  0.253738  0.000000  0.750000  1
  Lu  Lu6  1  0.000000  0.253738  0.750000  1
  Lu  Lu7  1  0.253738  0.253738  0.250000  1
  Lu  Lu8  1  0.746262  0.000000  0.250000  1
  Lu  Lu9  1  0.000000  0.746262  0.250000  1
  Si  Si10  1  0.000000  0.000000  0.000000  1
  Si  Si11  1  0.000000  0.000000  0.500000  1
  Sn  Sn12  1  0.392310  0.392310  0.750000  1
  Sn  Sn13  1  0.607690  0.000000  0.750000  1
  Sn  Sn14  1  0.000000  0.607690  0.750000  1
  Sn  Sn15  1  0.607690  0.607690  0.250000  1
  Sn  Sn16  1  0.392310  0.000000  0.250000  1
  Sn  Sn17  1  0.000000  0.392310  0.250000  1
