# generated using pymatgen
data_Y15Pa(AlCo)4
_symmetry_space_group_name_H-M   'P 1'
_cell_length_a   9.51824184
_cell_length_b   9.51824197
_cell_length_c   9.51824140
_cell_angle_alpha   59.23517479
_cell_angle_beta   59.23517463
_cell_angle_gamma   59.23517223
_symmetry_Int_Tables_number   1
_chemical_formula_structural   Y15Pa(AlCo)4
_chemical_formula_sum   'Y15 Pa1 Al4 Co4'
_cell_volume   599.13167393
_cell_formula_units_Z   1
loop_
 _symmetry_equiv_pos_site_id
 _symmetry_equiv_pos_as_xyz
  1  'x, y, z'
loop_
 _atom_site_type_symbol
 _atom_site_label
 _atom_site_symmetry_multiplicity
 _atom_site_fract_x
 _atom_site_fract_y
 _atom_site_fract_z
 _atom_site_occupancy
  Y  Y0  1  0.350499  0.350499  0.946252  1
  Y  Y1  1  0.350499  0.946252  0.350499  1
  Y  Y2  1  0.946252  0.350499  0.350499  1
  Y  Y3  1  0.807873  0.194082  0.194082  1
  Y  Y4  1  0.192210  0.810106  0.810106  1
  Y  Y5  1  0.194082  0.807873  0.194082  1
  Y  Y6  1  0.810106  0.192210  0.810106  1
  Y  Y7  1  0.194082  0.194082  0.807873  1
  Y  Y8  1  0.810106  0.810106  0.192210  1
  Y  Y9  1  0.939150  0.560683  0.560683  1
  Y  Y10  1  0.563376  0.935891  0.935891  1
  Y  Y11  1  0.560683  0.939150  0.560683  1
  Y  Y12  1  0.935891  0.563376  0.935891  1
  Y  Y13  1  0.560683  0.560683  0.939150  1
  Y  Y14  1  0.935891  0.935891  0.563376  1
  Pa  Pa15  1  0.332565  0.332565  0.332565  1
  Al  Al16  1  0.578654  0.578654  0.578654  1
  Al  Al17  1  0.575591  0.575591  0.269253  1
  Al  Al18  1  0.575591  0.269253  0.575591  1
  Al  Al19  1  0.269253  0.575591  0.575591  1
  Co  Co20  1  0.141167  0.141167  0.141167  1
  Co  Co21  1  0.155888  0.155888  0.564023  1
  Co  Co22  1  0.155888  0.564023  0.155888  1
  Co  Co23  1  0.564023  0.155888  0.155888  1
