# generated using pymatgen
data_Pr7Sm(ErPb4)2
_symmetry_space_group_name_H-M   'P 1'
_cell_length_a   8.39145300
_cell_length_b   8.52884317
_cell_length_c   16.25135300
_cell_angle_alpha   89.98840493
_cell_angle_beta   90.00000000
_cell_angle_gamma   90.00000000
_symmetry_Int_Tables_number   1
_chemical_formula_structural   Pr7Sm(ErPb4)2
_chemical_formula_sum   'Pr14 Sm2 Er4 Pb16'
_cell_volume   1163.09934253
_cell_formula_units_Z   2
loop_
 _symmetry_equiv_pos_site_id
 _symmetry_equiv_pos_as_xyz
  1  'x, y, z'
loop_
 _atom_site_type_symbol
 _atom_site_label
 _atom_site_symmetry_multiplicity
 _atom_site_fract_x
 _atom_site_fract_y
 _atom_site_fract_z
 _atom_site_occupancy
  Pr  Pr0  1  0.367648  0.843238  0.118732  1
  Pr  Pr1  1  0.867648  0.656762  0.381268  1
  Pr  Pr2  1  0.370870  0.840979  0.379969  1
  Pr  Pr3  1  0.870870  0.659021  0.120031  1
  Pr  Pr4  1  0.628801  0.157345  0.880419  1
  Pr  Pr5  1  0.128801  0.342655  0.619581  1
  Pr  Pr6  1  0.472709  0.678566  0.599161  1
  Pr  Pr7  1  0.972709  0.821434  0.900839  1
  Pr  Pr8  1  0.526456  0.321171  0.098452  1
  Pr  Pr9  1  0.026456  0.178829  0.401548  1
  Pr  Pr10  1  0.524157  0.319348  0.402007  1
  Pr  Pr11  1  0.024157  0.180652  0.097993  1
  Pr  Pr12  1  0.475793  0.677692  0.900396  1
  Pr  Pr13  1  0.975793  0.822308  0.599604  1
  Sm  Sm14  1  0.632510  0.156307  0.622115  1
  Sm  Sm15  1  0.132510  0.343693  0.877885  1
  Er  Er16  1  0.799067  0.496041  0.750235  1
  Er  Er17  1  0.299067  0.003959  0.749765  1
  Er  Er18  1  0.200853  0.503826  0.249342  1
  Er  Er19  1  0.700853  0.996174  0.250658  1
  Pb  Pb20  1  0.712983  0.967712  0.456514  1
  Pb  Pb21  1  0.212983  0.532288  0.043486  1
  Pb  Pb22  1  0.283602  0.036863  0.952982  1
  Pb  Pb23  1  0.783602  0.463137  0.547018  1
  Pb  Pb24  1  0.292207  0.035677  0.546412  1
  Pb  Pb25  1  0.792207  0.464323  0.953588  1
  Pb  Pb26  1  0.712460  0.966528  0.046456  1
  Pb  Pb27  1  0.212460  0.533472  0.453544  1
  Pb  Pb28  1  0.437364  0.375680  0.749394  1
  Pb  Pb29  1  0.937364  0.124320  0.750606  1
  Pb  Pb30  1  0.562829  0.623529  0.249156  1
  Pb  Pb31  1  0.062829  0.876471  0.250844  1
  Pb  Pb32  1  0.664176  0.845301  0.749733  1
  Pb  Pb33  1  0.164176  0.654699  0.750267  1
  Pb  Pb34  1  0.335513  0.155109  0.249661  1
  Pb  Pb35  1  0.835513  0.344891  0.250339  1
