# generated using pymatgen
data_YHo11ZnGaCo4
_symmetry_space_group_name_H-M   'P 1'
_cell_length_a   8.21077819
_cell_length_b   8.20515989
_cell_length_c   8.20516051
_cell_angle_alpha   111.98237625
_cell_angle_beta   109.67086091
_cell_angle_gamma   106.77619252
_symmetry_Int_Tables_number   1
_chemical_formula_structural   YHo11ZnGaCo4
_chemical_formula_sum   'Y1 Ho11 Zn1 Ga1 Co4'
_cell_volume   424.79359082
_cell_formula_units_Z   1
loop_
 _symmetry_equiv_pos_site_id
 _symmetry_equiv_pos_as_xyz
  1  'x, y, z'
loop_
 _atom_site_type_symbol
 _atom_site_label
 _atom_site_symmetry_multiplicity
 _atom_site_fract_x
 _atom_site_fract_y
 _atom_site_fract_z
 _atom_site_occupancy
  Y  Y0  1  0.956553  0.261509  0.695043  1
  Ho  Ho1  1  0.042193  0.737844  0.304349  1
  Ho  Ho2  1  0.673185  0.862306  0.188585  1
  Ho  Ho3  1  0.326643  0.515580  0.189457  1
  Ho  Ho4  1  0.326643  0.137186  0.811065  1
  Ho  Ho5  1  0.673185  0.484599  0.810879  1
  Ho  Ho6  1  0.566248  0.262193  0.304055  1
  Ho  Ho7  1  0.433281  0.737703  0.695578  1
  Ho  Ho8  1  0.180371  0.780739  0.960471  1
  Ho  Ho9  1  0.819886  0.779623  0.600083  1
  Ho  Ho10  1  0.180371  0.219900  0.399631  1
  Ho  Ho11  1  0.819886  0.219804  0.040262  1
  Zn  Zn12  1  0.000054  0.500356  0.499697  1
  Ga  Ga13  1  0.499729  0.999879  0.499850  1
  Co  Co14  1  0.115669  0.115333  0.000336  1
  Co  Co15  1  0.884475  0.884516  0.999959  1
  Co  Co16  1  0.663554  0.499975  0.163578  1
  Co  Co17  1  0.338077  0.500954  0.837122  1
