# generated using pymatgen
data_Tm8MgSi16W11
_symmetry_space_group_name_H-M   'P 1'
_cell_length_a   6.72558590
_cell_length_b   6.90594482
_cell_length_c   12.96861035
_cell_angle_alpha   89.80846166
_cell_angle_beta   89.94421109
_cell_angle_gamma   89.85486802
_symmetry_Int_Tables_number   1
_chemical_formula_structural   Tm8MgSi16W11
_chemical_formula_sum   'Tm8 Mg1 Si16 W11'
_cell_volume   602.34130757
_cell_formula_units_Z   1
loop_
 _symmetry_equiv_pos_site_id
 _symmetry_equiv_pos_as_xyz
  1  'x, y, z'
loop_
 _atom_site_type_symbol
 _atom_site_label
 _atom_site_symmetry_multiplicity
 _atom_site_fract_x
 _atom_site_fract_y
 _atom_site_fract_z
 _atom_site_occupancy
  Tm  Tm0  1  0.999127  0.167718  0.094301  1
  Tm  Tm1  1  0.004507  0.831140  0.906020  1
  Tm  Tm2  1  0.501155  0.668887  0.906586  1
  Tm  Tm3  1  0.003858  0.830829  0.592987  1
  Tm  Tm4  1  0.500987  0.325633  0.095491  1
  Tm  Tm5  1  0.997784  0.170506  0.407916  1
  Tm  Tm6  1  0.497187  0.330180  0.406788  1
  Tm  Tm7  1  0.503071  0.668813  0.593910  1
  Mg  Mg8  1  0.168047  0.665102  0.121499  1
  Si  Si9  1  0.031600  0.125346  0.748958  1
  Si  Si10  1  0.965554  0.876237  0.251611  1
  Si  Si11  1  0.468332  0.626116  0.251655  1
  Si  Si12  1  0.531187  0.371030  0.748870  1
  Si  Si13  1  0.302390  0.864502  0.749350  1
  Si  Si14  1  0.700207  0.136306  0.252190  1
  Si  Si15  1  0.203445  0.365868  0.249977  1
  Si  Si16  1  0.799739  0.635882  0.750516  1
  Si  Si17  1  0.163359  0.458997  0.545044  1
  Si  Si18  1  0.834758  0.543962  0.456802  1
  Si  Si19  1  0.338819  0.956665  0.457027  1
  Si  Si20  1  0.826238  0.541464  0.041487  1
  Si  Si21  1  0.663413  0.042260  0.546554  1
  Si  Si22  1  0.158944  0.455900  0.949102  1
  Si  Si23  1  0.662814  0.041787  0.955063  1
  Si  Si24  1  0.345369  0.961564  0.043307  1
  W  W25  1  0.161915  0.496039  0.748527  1
  W  W26  1  0.837940  0.504591  0.252599  1
  W  W27  1  0.337093  0.994317  0.251937  1
  W  W28  1  0.665388  0.998032  0.750270  1
  W  W29  1  0.328719  0.161388  0.623437  1
  W  W30  1  0.670900  0.839349  0.376628  1
  W  W31  1  0.163625  0.667929  0.376442  1
  W  W32  1  0.676780  0.838365  0.126109  1
  W  W33  1  0.830198  0.338508  0.625116  1
  W  W34  1  0.329841  0.163479  0.872535  1
  W  W35  1  0.825711  0.335311  0.873391  1
