# generated using pymatgen
data_Pr2B10Rh
_symmetry_space_group_name_H-M   'P 1'
_cell_length_a   4.22463600
_cell_length_b   5.76400600
_cell_length_c   11.46803000
_cell_angle_alpha   90.00000000
_cell_angle_beta   90.00000000
_cell_angle_gamma   90.00000000
_symmetry_Int_Tables_number   1
_chemical_formula_structural   Pr2B10Rh
_chemical_formula_sum   'Pr4 B20 Rh2'
_cell_volume   279.25601745
_cell_formula_units_Z   2
loop_
 _symmetry_equiv_pos_site_id
 _symmetry_equiv_pos_as_xyz
  1  'x, y, z'
loop_
 _atom_site_type_symbol
 _atom_site_label
 _atom_site_symmetry_multiplicity
 _atom_site_fract_x
 _atom_site_fract_y
 _atom_site_fract_z
 _atom_site_occupancy
  Pr  Pr0  1  0.500000  0.203972  0.365292  1
  Pr  Pr1  1  0.500000  0.796028  0.634708  1
  Pr  Pr2  1  0.500000  0.296028  0.865292  1
  Pr  Pr3  1  0.500000  0.703972  0.134708  1
  B  B4  1  0.000000  0.381177  0.043175  1
  B  B5  1  0.000000  0.618823  0.956825  1
  B  B6  1  0.000000  0.118823  0.543175  1
  B  B7  1  0.000000  0.881177  0.456825  1
  B  B8  1  0.000000  0.362577  0.197166  1
  B  B9  1  0.000000  0.637423  0.802834  1
  B  B10  1  0.000000  0.137423  0.697166  1
  B  B11  1  0.000000  0.862577  0.302834  1
  B  B12  1  0.000000  0.056936  0.192735  1
  B  B13  1  0.000000  0.943064  0.807265  1
  B  B14  1  0.000000  0.443064  0.692735  1
  B  B15  1  0.000000  0.556936  0.307265  1
  B  B16  1  0.300164  0.218738  0.118598  1
  B  B17  1  0.699836  0.781262  0.881402  1
  B  B18  1  0.300164  0.781262  0.881402  1
  B  B19  1  0.699836  0.281262  0.618598  1
  B  B20  1  0.699836  0.218738  0.118598  1
  B  B21  1  0.300164  0.718738  0.381402  1
  B  B22  1  0.699836  0.718738  0.381402  1
  B  B23  1  0.300164  0.281262  0.618598  1
  Rh  Rh24  1  0.000000  0.000000  0.000000  1
  Rh  Rh25  1  0.000000  0.500000  0.500000  1
