# generated using pymatgen
data_Tm3LuSc4(B6Ir)4
_symmetry_space_group_name_H-M   'P 1'
_cell_length_a   3.52522900
_cell_length_b   8.97412401
_cell_length_c   11.32224001
_cell_angle_alpha   90.00494033
_cell_angle_beta   90.00000000
_cell_angle_gamma   90.00000000
_symmetry_Int_Tables_number   1
_chemical_formula_structural   Tm3LuSc4(B6Ir)4
_chemical_formula_sum   'Tm3 Lu1 Sc4 B24 Ir4'
_cell_volume   358.18859703
_cell_formula_units_Z   1
loop_
 _symmetry_equiv_pos_site_id
 _symmetry_equiv_pos_as_xyz
  1  'x, y, z'
loop_
 _atom_site_type_symbol
 _atom_site_label
 _atom_site_symmetry_multiplicity
 _atom_site_fract_x
 _atom_site_fract_y
 _atom_site_fract_z
 _atom_site_occupancy
  Tm  Tm0  1  0.500000  0.319607  0.413921  1
  Tm  Tm1  1  0.500000  0.680409  0.586054  1
  Tm  Tm2  1  0.500000  0.180431  0.913937  1
  Lu  Lu3  1  0.500000  0.819383  0.086053  1
  Sc  Sc4  1  0.500000  0.445120  0.124160  1
  Sc  Sc5  1  0.500000  0.555048  0.875919  1
  Sc  Sc6  1  0.500000  0.054964  0.624158  1
  Sc  Sc7  1  0.500000  0.944997  0.375801  1
  B  B8  1  0.000000  0.101127  0.472470  1
  B  B9  1  0.000000  0.898847  0.527486  1
  B  B10  1  0.000000  0.398837  0.972498  1
  B  B11  1  0.000000  0.601553  0.027639  1
  B  B12  1  0.000000  0.130262  0.318411  1
  B  B13  1  0.000000  0.869702  0.681569  1
  B  B14  1  0.000000  0.369723  0.818470  1
  B  B15  1  0.000000  0.630580  0.181385  1
  B  B16  1  0.000000  0.054247  0.064907  1
  B  B17  1  0.000000  0.945313  0.935373  1
  B  B18  1  0.000000  0.445502  0.564896  1
  B  B19  1  0.000000  0.554522  0.435051  1
  B  B20  1  0.000000  0.481266  0.285589  1
  B  B21  1  0.000000  0.518814  0.714402  1
  B  B22  1  0.000000  0.018764  0.785633  1
  B  B23  1  0.000000  0.980940  0.214196  1
  B  B24  1  0.000000  0.253476  0.079400  1
  B  B25  1  0.000000  0.746633  0.920970  1
  B  B26  1  0.000000  0.246496  0.579363  1
  B  B27  1  0.000000  0.753505  0.420569  1
  B  B28  1  0.000000  0.295816  0.235830  1
  B  B29  1  0.000000  0.704187  0.764192  1
  B  B30  1  0.000000  0.204145  0.735874  1
  B  B31  1  0.000000  0.795917  0.263836  1
  Ir  Ir32  1  0.500000  0.140778  0.180883  1
  Ir  Ir33  1  0.500000  0.858912  0.819266  1
  Ir  Ir34  1  0.500000  0.358885  0.681009  1
  Ir  Ir35  1  0.500000  0.641288  0.318830  1
