# generated using pymatgen
data_Li2NpN2
_symmetry_space_group_name_H-M   'P 1'
_cell_length_a   6.03377100
_cell_length_b   6.03377214
_cell_length_c   5.48809100
_cell_angle_alpha   90.00000000
_cell_angle_beta   90.00000000
_cell_angle_gamma   119.99999921
_symmetry_Int_Tables_number   1
_chemical_formula_structural   Li2NpN2
_chemical_formula_sum   'Li6 Np3 N6'
_cell_volume   173.03329113
_cell_formula_units_Z   3
loop_
 _symmetry_equiv_pos_site_id
 _symmetry_equiv_pos_as_xyz
  1  'x, y, z'
loop_
 _atom_site_type_symbol
 _atom_site_label
 _atom_site_symmetry_multiplicity
 _atom_site_fract_x
 _atom_site_fract_y
 _atom_site_fract_z
 _atom_site_occupancy
  Li  Li0  1  0.985358  0.658882  0.606297  1
  Li  Li1  1  0.341118  0.326476  0.606297  1
  Li  Li2  1  0.673524  0.014642  0.606297  1
  Li  Li3  1  0.014642  0.341118  0.393703  1
  Li  Li4  1  0.658882  0.673524  0.393703  1
  Li  Li5  1  0.326476  0.985358  0.393703  1
  Np  Np6  1  0.000000  0.000000  0.000000  1
  Np  Np7  1  0.333333  0.666667  0.990876  1
  Np  Np8  1  0.666667  0.333333  0.009124  1
  N  N9  1  0.999810  0.666186  0.223739  1
  N  N10  1  0.333814  0.333624  0.223739  1
  N  N11  1  0.666376  0.000190  0.223739  1
  N  N12  1  0.000190  0.333814  0.776261  1
  N  N13  1  0.666186  0.666376  0.776261  1
  N  N14  1  0.333624  0.999810  0.776261  1
