# generated using pymatgen
data_Tb12Ga2CoSiTc2
_symmetry_space_group_name_H-M   'P 1'
_cell_length_a   8.44269665
_cell_length_b   8.44269707
_cell_length_c   8.44269689
_cell_angle_alpha   112.86695093
_cell_angle_beta   111.75437387
_cell_angle_gamma   103.93253332
_symmetry_Int_Tables_number   1
_chemical_formula_structural   Tb12Ga2CoSiTc2
_chemical_formula_sum   'Tb12 Ga2 Co1 Si1 Tc2'
_cell_volume   460.00399143
_cell_formula_units_Z   1
loop_
 _symmetry_equiv_pos_site_id
 _symmetry_equiv_pos_as_xyz
  1  'x, y, z'
loop_
 _atom_site_type_symbol
 _atom_site_label
 _atom_site_symmetry_multiplicity
 _atom_site_fract_x
 _atom_site_fract_y
 _atom_site_fract_z
 _atom_site_occupancy
  Tb  Tb0  1  0.050731  0.747128  0.303603  1
  Tb  Tb1  1  0.948807  0.258389  0.690418  1
  Tb  Tb2  1  0.567972  0.258389  0.309582  1
  Tb  Tb3  1  0.443524  0.747128  0.696397  1
  Tb  Tb4  1  0.658622  0.845398  0.186776  1
  Tb  Tb5  1  0.328677  0.511067  0.182392  1
  Tb  Tb6  1  0.328677  0.146285  0.817608  1
  Tb  Tb7  1  0.658622  0.471847  0.813224  1
  Tb  Tb8  1  0.183200  0.225862  0.399200  1
  Tb  Tb9  1  0.826662  0.225862  0.042662  1
  Tb  Tb10  1  0.183200  0.784000  0.957338  1
  Tb  Tb11  1  0.826662  0.784000  0.600800  1
  Ga  Ga12  1  0.002494  0.502494  0.500000  1
  Ga  Ga13  1  0.500597  0.000597  0.500000  1
  Co  Co14  1  0.109398  0.109398  0.000000  1
  Si  Si15  1  0.880441  0.880441  0.000000  1
  Tc  Tc16  1  0.680137  0.500857  0.179280  1
  Tc  Tc17  1  0.321577  0.500857  0.820720  1
