# generated using pymatgen
data_Ho2Er6Cd2PdRu
_symmetry_space_group_name_H-M   'P 1'
_cell_length_a   9.58330004
_cell_length_b   9.58340289
_cell_length_c   9.63566604
_cell_angle_alpha   59.82349373
_cell_angle_beta   59.81133148
_cell_angle_gamma   59.60836154
_symmetry_Int_Tables_number   1
_chemical_formula_structural   Ho2Er6Cd2PdRu
_chemical_formula_sum   'Ho4 Er12 Cd4 Pd2 Ru2'
_cell_volume   622.16076766
_cell_formula_units_Z   2
loop_
 _symmetry_equiv_pos_site_id
 _symmetry_equiv_pos_as_xyz
  1  'x, y, z'
loop_
 _atom_site_type_symbol
 _atom_site_label
 _atom_site_symmetry_multiplicity
 _atom_site_fract_x
 _atom_site_fract_y
 _atom_site_fract_z
 _atom_site_occupancy
  Ho  Ho0  1  0.559984  0.936293  0.567464  1
  Ho  Ho1  1  0.936335  0.559928  0.936273  1
  Ho  Ho2  1  0.564872  0.564884  0.935135  1
  Ho  Ho3  1  0.938115  0.938113  0.561886  1
  Er  Er4  1  0.349139  0.349210  0.355100  1
  Er  Er5  1  0.349299  0.349142  0.946466  1
  Er  Er6  1  0.345937  0.952608  0.350728  1
  Er  Er7  1  0.952632  0.345937  0.350818  1
  Er  Er8  1  0.817387  0.187407  0.188648  1
  Er  Er9  1  0.187388  0.817443  0.806511  1
  Er  Er10  1  0.187404  0.817373  0.188732  1
  Er  Er11  1  0.817410  0.187381  0.806491  1
  Er  Er12  1  0.187173  0.187205  0.812791  1
  Er  Er13  1  0.810190  0.810159  0.189835  1
  Er  Er14  1  0.936382  0.559855  0.567325  1
  Er  Er15  1  0.559770  0.936458  0.936474  1
  Cd  Cd16  1  0.580124  0.579999  0.581507  1
  Cd  Cd17  1  0.579953  0.580137  0.258365  1
  Cd  Cd18  1  0.580723  0.255409  0.581970  1
  Cd  Cd19  1  0.255417  0.580736  0.581854  1
  Pd  Pd20  1  0.145161  0.570772  0.142064  1
  Pd  Pd21  1  0.570757  0.145145  0.141988  1
  Ru  Ru22  1  0.144267  0.144170  0.140000  1
  Ru  Ru23  1  0.144181  0.144233  0.571573  1
