# generated using pymatgen
data_Yb8TiSi16W11
_symmetry_space_group_name_H-M   'P 1'
_cell_length_a   6.87245857
_cell_length_b   6.87245794
_cell_length_c   12.81472168
_cell_angle_alpha   90.05478899
_cell_angle_beta   89.94521138
_cell_angle_gamma   90.00956302
_symmetry_Int_Tables_number   1
_chemical_formula_structural   Yb8TiSi16W11
_chemical_formula_sum   'Yb8 Ti1 Si16 W11'
_cell_volume   605.24748905
_cell_formula_units_Z   1
loop_
 _symmetry_equiv_pos_site_id
 _symmetry_equiv_pos_as_xyz
  1  'x, y, z'
loop_
 _atom_site_type_symbol
 _atom_site_label
 _atom_site_symmetry_multiplicity
 _atom_site_fract_x
 _atom_site_fract_y
 _atom_site_fract_z
 _atom_site_occupancy
  Yb  Yb0  1  0.330457  0.007040  0.469955  1
  Yb  Yb1  1  0.493472  0.831618  0.721080  1
  Yb  Yb2  1  0.506414  0.169180  0.219915  1
  Yb  Yb3  1  0.831618  0.493472  0.278920  1
  Yb  Yb4  1  0.169180  0.506414  0.780085  1
  Yb  Yb5  1  0.667551  0.994186  0.970356  1
  Yb  Yb6  1  0.007040  0.330457  0.530045  1
  Yb  Yb7  1  0.994186  0.667551  0.029644  1
  Ti  Ti8  1  0.669025  0.669025  0.500000  1
  Si  Si9  1  0.202275  0.128430  0.685040  1
  Si  Si10  1  0.372458  0.701222  0.934774  1
  Si  Si11  1  0.628371  0.296582  0.435379  1
  Si  Si12  1  0.701222  0.372458  0.065226  1
  Si  Si13  1  0.296582  0.628371  0.564621  1
  Si  Si14  1  0.797288  0.872459  0.184411  1
  Si  Si15  1  0.128430  0.202275  0.314960  1
  Si  Si16  1  0.872459  0.797288  0.815589  1
  Si  Si17  1  0.296438  0.963331  0.064438  1
  Si  Si18  1  0.536532  0.796174  0.313288  1
  Si  Si19  1  0.461419  0.204755  0.815214  1
  Si  Si20  1  0.796174  0.536532  0.686712  1
  Si  Si21  1  0.204755  0.461419  0.184786  1
  Si  Si22  1  0.704799  0.038413  0.565253  1
  Si  Si23  1  0.963331  0.296438  0.935562  1
  Si  Si24  1  0.038413  0.704799  0.434747  1
  W  W25  1  0.330579  0.330579  0.000000  1
  W  W26  1  0.169186  0.833747  0.247776  1
  W  W27  1  0.833747  0.169186  0.752224  1
  W  W28  1  0.157993  0.008458  0.873937  1
  W  W29  1  0.490335  0.659533  0.124130  1
  W  W30  1  0.508539  0.341260  0.624423  1
  W  W31  1  0.659533  0.490335  0.875870  1
  W  W32  1  0.341260  0.508539  0.375577  1
  W  W33  1  0.840101  0.990371  0.373447  1
  W  W34  1  0.008458  0.157993  0.126063  1
  W  W35  1  0.990371  0.840101  0.626553  1
