# generated using pymatgen
data_Ta5CrCo2(BRu2)4
_symmetry_space_group_name_H-M   'P 1'
_cell_length_a   9.18601300
_cell_length_b   9.18601300
_cell_length_c   3.02727300
_cell_angle_alpha   90.00000000
_cell_angle_beta   90.00000000
_cell_angle_gamma   90.00000000
_symmetry_Int_Tables_number   1
_chemical_formula_structural   Ta5CrCo2(BRu2)4
_chemical_formula_sum   'Ta5 Cr1 Co2 B4 Ru8'
_cell_volume   255.44987756
_cell_formula_units_Z   1
loop_
 _symmetry_equiv_pos_site_id
 _symmetry_equiv_pos_as_xyz
  1  'x, y, z'
loop_
 _atom_site_type_symbol
 _atom_site_label
 _atom_site_symmetry_multiplicity
 _atom_site_fract_x
 _atom_site_fract_y
 _atom_site_fract_z
 _atom_site_occupancy
  Ta  Ta0  1  0.821820  0.673056  0.000000  1
  Ta  Ta1  1  0.178180  0.326944  0.000000  1
  Ta  Ta2  1  0.326944  0.821820  0.000000  1
  Ta  Ta3  1  0.673056  0.178180  0.000000  1
  Ta  Ta4  1  0.000000  0.000000  0.000000  1
  Cr  Cr5  1  0.500000  0.500000  0.000000  1
  Co  Co6  1  0.500000  0.000000  0.500000  1
  Co  Co7  1  0.000000  0.500000  0.500000  1
  B  B8  1  0.605940  0.887678  0.000000  1
  B  B9  1  0.394060  0.112322  0.000000  1
  B  B10  1  0.112322  0.605940  0.000000  1
  B  B11  1  0.887678  0.394060  0.000000  1
  Ru  Ru12  1  0.564418  0.720810  0.500000  1
  Ru  Ru13  1  0.435582  0.279190  0.500000  1
  Ru  Ru14  1  0.066550  0.774710  0.500000  1
  Ru  Ru15  1  0.933450  0.225290  0.500000  1
  Ru  Ru16  1  0.279190  0.564418  0.500000  1
  Ru  Ru17  1  0.720810  0.435582  0.500000  1
  Ru  Ru18  1  0.225290  0.066550  0.500000  1
  Ru  Ru19  1  0.774710  0.933450  0.500000  1
