# generated using pymatgen
data_Y3Si6(Pd4Pt)4
_symmetry_space_group_name_H-M   'P 1'
_cell_length_a   8.72950170
_cell_length_b   8.73954530
_cell_length_c   8.73954602
_cell_angle_alpha   59.83021132
_cell_angle_beta   59.81466557
_cell_angle_gamma   59.81467129
_symmetry_Int_Tables_number   1
_chemical_formula_structural   Y3Si6(Pd4Pt)4
_chemical_formula_sum   'Y3 Si6 Pd16 Pt4'
_cell_volume   469.54005330
_cell_formula_units_Z   1
loop_
 _symmetry_equiv_pos_site_id
 _symmetry_equiv_pos_as_xyz
  1  'x, y, z'
loop_
 _atom_site_type_symbol
 _atom_site_label
 _atom_site_symmetry_multiplicity
 _atom_site_fract_x
 _atom_site_fract_y
 _atom_site_fract_z
 _atom_site_occupancy
  Y  Y0  1  0.251358  0.249923  0.249923  1
  Y  Y1  1  0.748400  0.749883  0.749883  1
  Y  Y2  1  0.999966  0.000075  0.000075  1
  Si  Si3  1  0.731062  0.267466  0.267466  1
  Si  Si4  1  0.270048  0.730950  0.730950  1
  Si  Si5  1  0.269113  0.730767  0.268158  1
  Si  Si6  1  0.731023  0.269067  0.732297  1
  Si  Si7  1  0.269113  0.268158  0.730767  1
  Si  Si8  1  0.731023  0.732297  0.269067  1
  Pd  Pd9  1  0.619234  0.616048  0.149226  1
  Pd  Pd10  1  0.619234  0.149226  0.616048  1
  Pd  Pd11  1  0.851102  0.381846  0.381846  1
  Pd  Pd12  1  0.147108  0.617881  0.617881  1
  Pd  Pd13  1  0.344310  0.000652  0.000652  1
  Pd  Pd14  1  0.655066  0.999992  0.999992  1
  Pd  Pd15  1  0.999234  0.345777  0.656039  1
  Pd  Pd16  1  0.999234  0.656039  0.345777  1
  Pd  Pd17  1  0.999639  0.345356  0.000263  1
  Pd  Pd18  1  0.655214  0.999628  0.345978  1
  Pd  Pd19  1  0.999091  0.655773  0.000229  1
  Pd  Pd20  1  0.344680  0.000229  0.655913  1
  Pd  Pd21  1  0.999639  0.000263  0.345356  1
  Pd  Pd22  1  0.999091  0.000229  0.655773  1
  Pd  Pd23  1  0.655214  0.345978  0.999628  1
  Pd  Pd24  1  0.344680  0.655913  0.000229  1
  Pt  Pt25  1  0.384166  0.384421  0.384421  1
  Pt  Pt26  1  0.617893  0.614961  0.614961  1
  Pt  Pt27  1  0.382533  0.383035  0.848166  1
  Pt  Pt28  1  0.382533  0.848166  0.383035  1
