# generated using pymatgen
data_DyScSi(PRu2)6
_symmetry_space_group_name_H-M   'P 1'
_cell_length_a   9.39912400
_cell_length_b   9.39912423
_cell_length_c   3.93730300
_cell_angle_alpha   90.00000000
_cell_angle_beta   90.00000000
_cell_angle_gamma   119.99999215
_symmetry_Int_Tables_number   1
_chemical_formula_structural   DyScSi(PRu2)6
_chemical_formula_sum   'Dy1 Sc1 Si1 P6 Ru12'
_cell_volume   301.23419700
_cell_formula_units_Z   1
loop_
 _symmetry_equiv_pos_site_id
 _symmetry_equiv_pos_as_xyz
  1  'x, y, z'
loop_
 _atom_site_type_symbol
 _atom_site_label
 _atom_site_symmetry_multiplicity
 _atom_site_fract_x
 _atom_site_fract_y
 _atom_site_fract_z
 _atom_site_occupancy
  Dy  Dy0  1  0.333333  0.666667  0.000000  1
  Sc  Sc1  1  0.666667  0.333333  0.500000  1
  Si  Si2  1  0.000000  0.000000  0.000000  1
  P  P3  1  0.602257  0.719888  0.500000  1
  P  P4  1  0.280112  0.882369  0.500000  1
  P  P5  1  0.117631  0.397743  0.500000  1
  P  P6  1  0.884612  0.572623  0.000000  1
  P  P7  1  0.427377  0.311989  0.000000  1
  P  P8  1  0.688011  0.115388  0.000000  1
  Ru  Ru9  1  0.555688  0.953249  0.500000  1
  Ru  Ru10  1  0.397563  0.444312  0.500000  1
  Ru  Ru11  1  0.912296  0.120055  0.500000  1
  Ru  Ru12  1  0.207759  0.087704  0.500000  1
  Ru  Ru13  1  0.879945  0.792241  0.500000  1
  Ru  Ru14  1  0.719782  0.886736  0.000000  1
  Ru  Ru15  1  0.113264  0.833045  0.000000  1
  Ru  Ru16  1  0.166955  0.280218  0.000000  1
  Ru  Ru17  1  0.426485  0.071260  0.000000  1
  Ru  Ru18  1  0.928740  0.355226  0.000000  1
  Ru  Ru19  1  0.644774  0.573515  0.000000  1
  Ru  Ru20  1  0.046751  0.602437  0.500000  1
