# generated using pymatgen
data_Yb3Y(Lu3Pt4)2
_symmetry_space_group_name_H-M   'P 1'
_cell_length_a   7.42449600
_cell_length_b   7.52049115
_cell_length_c   14.45459517
_cell_angle_alpha   90.10539962
_cell_angle_beta   90.00000000
_cell_angle_gamma   90.00000000
_symmetry_Int_Tables_number   1
_chemical_formula_structural   Yb3Y(Lu3Pt4)2
_chemical_formula_sum   'Yb6 Y2 Lu12 Pt16'
_cell_volume   807.08333578
_cell_formula_units_Z   2
loop_
 _symmetry_equiv_pos_site_id
 _symmetry_equiv_pos_as_xyz
  1  'x, y, z'
loop_
 _atom_site_type_symbol
 _atom_site_label
 _atom_site_symmetry_multiplicity
 _atom_site_fract_x
 _atom_site_fract_y
 _atom_site_fract_z
 _atom_site_occupancy
  Yb  Yb0  1  0.999972  0.819985  0.406912  1
  Yb  Yb1  1  0.499972  0.680015  0.093088  1
  Yb  Yb2  1  0.499858  0.320053  0.593305  1
  Yb  Yb3  1  0.999858  0.179947  0.906695  1
  Yb  Yb4  1  0.999283  0.179596  0.593479  1
  Yb  Yb5  1  0.499283  0.320404  0.906521  1
  Y  Y6  1  0.498390  0.680886  0.406887  1
  Y  Y7  1  0.998390  0.819114  0.093113  1
  Lu  Lu8  1  0.681121  0.990601  0.250021  1
  Lu  Lu9  1  0.181121  0.509399  0.249979  1
  Lu  Lu10  1  0.818727  0.489885  0.749696  1
  Lu  Lu11  1  0.318727  0.010115  0.750304  1
  Lu  Lu12  1  0.655663  0.835134  0.623893  1
  Lu  Lu13  1  0.155663  0.664866  0.876107  1
  Lu  Lu14  1  0.844832  0.333550  0.377094  1
  Lu  Lu15  1  0.344832  0.166450  0.122906  1
  Lu  Lu16  1  0.345424  0.166315  0.377303  1
  Lu  Lu17  1  0.845424  0.333685  0.122697  1
  Lu  Lu18  1  0.155298  0.665633  0.622749  1
  Lu  Lu19  1  0.655298  0.834367  0.877251  1
  Pt  Pt20  1  0.815832  0.637737  0.249271  1
  Pt  Pt21  1  0.315832  0.862263  0.250729  1
  Pt  Pt22  1  0.684049  0.135663  0.750260  1
  Pt  Pt23  1  0.184049  0.364337  0.749740  1
  Pt  Pt24  1  0.545790  0.378270  0.251262  1
  Pt  Pt25  1  0.045790  0.121730  0.248738  1
  Pt  Pt26  1  0.956010  0.876984  0.750155  1
  Pt  Pt27  1  0.456010  0.623016  0.749845  1
  Pt  Pt28  1  0.819643  0.538862  0.543329  1
  Pt  Pt29  1  0.319643  0.961138  0.956671  1
  Pt  Pt30  1  0.675594  0.035437  0.454460  1
  Pt  Pt31  1  0.175594  0.464563  0.045540  1
  Pt  Pt32  1  0.180073  0.465409  0.454582  1
  Pt  Pt33  1  0.680073  0.034591  0.045418  1
  Pt  Pt34  1  0.324441  0.959153  0.544437  1
  Pt  Pt35  1  0.824441  0.540847  0.955563  1
