# generated using pymatgen
data_PrCd2Ga2Pd
_symmetry_space_group_name_H-M   'P 1'
_cell_length_a   8.80873220
_cell_length_b   8.80873081
_cell_length_c   6.78569400
_cell_angle_alpha   90.00000000
_cell_angle_beta   90.00000000
_cell_angle_gamma   151.24199863
_symmetry_Int_Tables_number   1
_chemical_formula_structural   PrCd2Ga2Pd
_chemical_formula_sum   'Pr2 Cd4 Ga4 Pd2'
_cell_volume   253.31825242
_cell_formula_units_Z   2
loop_
 _symmetry_equiv_pos_site_id
 _symmetry_equiv_pos_as_xyz
  1  'x, y, z'
loop_
 _atom_site_type_symbol
 _atom_site_label
 _atom_site_symmetry_multiplicity
 _atom_site_fract_x
 _atom_site_fract_y
 _atom_site_fract_z
 _atom_site_occupancy
  Pr  Pr0  1  0.369735  0.630267  0.250000  1
  Pr  Pr1  1  0.630267  0.369735  0.750000  1
  Cd  Cd2  1  0.000000  0.000000  0.000000  1
  Cd  Cd3  1  0.567912  0.432090  0.250000  1
  Cd  Cd4  1  0.000000  0.000000  0.500000  1
  Cd  Cd5  1  0.432090  0.567912  0.750000  1
  Ga  Ga6  1  0.182777  0.817226  0.054526  1
  Ga  Ga7  1  0.182777  0.817226  0.445474  1
  Ga  Ga8  1  0.817226  0.182777  0.554526  1
  Ga  Ga9  1  0.817226  0.182777  0.945474  1
  Pd  Pd10  1  0.727257  0.272746  0.250000  1
  Pd  Pd11  1  0.272746  0.727257  0.750000  1
