# generated using pymatgen
data_HoTmNi17H3
_symmetry_space_group_name_H-M   'P 1'
_cell_length_a   6.25482305
_cell_length_b   6.25482455
_cell_length_c   6.25482454
_cell_angle_alpha   83.42797824
_cell_angle_beta   83.42797465
_cell_angle_gamma   83.42796601
_symmetry_Int_Tables_number   1
_chemical_formula_structural   HoTmNi17H3
_chemical_formula_sum   'Ho1 Tm1 Ni17 H3'
_cell_volume   240.22397899
_cell_formula_units_Z   1
loop_
 _symmetry_equiv_pos_site_id
 _symmetry_equiv_pos_as_xyz
  1  'x, y, z'
loop_
 _atom_site_type_symbol
 _atom_site_label
 _atom_site_symmetry_multiplicity
 _atom_site_fract_x
 _atom_site_fract_y
 _atom_site_fract_z
 _atom_site_occupancy
  Ho  Ho0  1  0.340339  0.340339  0.340339  1
  Tm  Tm1  1  0.659810  0.659810  0.659810  1
  Ni  Ni2  1  0.999887  0.999887  0.500063  1
  Ni  Ni3  1  0.999887  0.500063  0.999887  1
  Ni  Ni4  1  0.500063  0.999887  0.999887  1
  Ni  Ni5  1  0.290750  0.709415  0.999813  1
  Ni  Ni6  1  0.709415  0.999813  0.290750  1
  Ni  Ni7  1  0.999813  0.290750  0.709415  1
  Ni  Ni8  1  0.290750  0.999813  0.709415  1
  Ni  Ni9  1  0.999813  0.709415  0.290750  1
  Ni  Ni10  1  0.709415  0.290750  0.999813  1
  Ni  Ni11  1  0.346947  0.346947  0.848913  1
  Ni  Ni12  1  0.346947  0.848913  0.346947  1
  Ni  Ni13  1  0.848913  0.346947  0.346947  1
  Ni  Ni14  1  0.653271  0.653271  0.150884  1
  Ni  Ni15  1  0.653271  0.150884  0.653271  1
  Ni  Ni16  1  0.150884  0.653271  0.653271  1
  Ni  Ni17  1  0.899870  0.899870  0.899870  1
  Ni  Ni18  1  0.099952  0.099952  0.099952  1
  H  H19  1  0.500069  0.500069  0.999866  1
  H  H20  1  0.500069  0.999866  0.500069  1
  H  H21  1  0.999866  0.500069  0.500069  1
