# generated using pymatgen
data_HoEr15Cd4(PdPt)2
_symmetry_space_group_name_H-M   'P 1'
_cell_length_a   9.61259173
_cell_length_b   9.61259260
_cell_length_c   9.60351300
_cell_angle_alpha   60.03124407
_cell_angle_beta   60.03124107
_cell_angle_gamma   60.03906022
_symmetry_Int_Tables_number   1
_chemical_formula_structural   HoEr15Cd4(PdPt)2
_chemical_formula_sum   'Ho1 Er15 Cd4 Pd2 Pt2'
_cell_volume   627.95605152
_cell_formula_units_Z   1
loop_
 _symmetry_equiv_pos_site_id
 _symmetry_equiv_pos_as_xyz
  1  'x, y, z'
loop_
 _atom_site_type_symbol
 _atom_site_label
 _atom_site_symmetry_multiplicity
 _atom_site_fract_x
 _atom_site_fract_y
 _atom_site_fract_z
 _atom_site_occupancy
  Ho  Ho0  1  0.184753  0.184753  0.815247  1
  Er  Er1  1  0.603516  0.603516  0.599148  1
  Er  Er2  1  0.603516  0.603516  0.193821  1
  Er  Er3  1  0.607497  0.187044  0.602729  1
  Er  Er4  1  0.187044  0.607497  0.602729  1
  Er  Er5  1  0.059481  0.439686  0.439593  1
  Er  Er6  1  0.439686  0.059481  0.061240  1
  Er  Er7  1  0.439686  0.059481  0.439593  1
  Er  Er8  1  0.059481  0.439686  0.061240  1
  Er  Er9  1  0.440492  0.440492  0.059508  1
  Er  Er10  1  0.060958  0.060958  0.439042  1
  Er  Er11  1  0.184679  0.815794  0.815070  1
  Er  Er12  1  0.815794  0.184679  0.184456  1
  Er  Er13  1  0.815794  0.184679  0.815070  1
  Er  Er14  1  0.184679  0.815794  0.184456  1
  Er  Er15  1  0.816172  0.816172  0.183828  1
  Cd  Cd16  1  0.831738  0.831738  0.833144  1
  Cd  Cd17  1  0.831738  0.831738  0.503382  1
  Cd  Cd18  1  0.831043  0.503658  0.832649  1
  Cd  Cd19  1  0.503658  0.831043  0.832649  1
  Pd  Pd20  1  0.393544  0.393544  0.396096  1
  Pd  Pd21  1  0.393544  0.393544  0.816813  1
  Pt  Pt22  1  0.391594  0.819911  0.394247  1
  Pt  Pt23  1  0.819911  0.391594  0.394247  1
