# generated using pymatgen
data_LiLa4(HgAu5)2
_symmetry_space_group_name_H-M   'P 1'
_cell_length_a   8.81036400
_cell_length_b   8.81036440
_cell_length_c   10.52946500
_cell_angle_alpha   90.00000000
_cell_angle_beta   90.00000000
_cell_angle_gamma   108.08741461
_symmetry_Int_Tables_number   1
_chemical_formula_structural   LiLa4(HgAu5)2
_chemical_formula_sum   'Li2 La8 Hg4 Au20'
_cell_volume   776.93467735
_cell_formula_units_Z   2
loop_
 _symmetry_equiv_pos_site_id
 _symmetry_equiv_pos_as_xyz
  1  'x, y, z'
loop_
 _atom_site_type_symbol
 _atom_site_label
 _atom_site_symmetry_multiplicity
 _atom_site_fract_x
 _atom_site_fract_y
 _atom_site_fract_z
 _atom_site_occupancy
  Li  Li0  1  0.000000  0.000000  0.000000  1
  Li  Li1  1  0.500000  0.500000  0.500000  1
  La  La2  1  0.702866  0.297134  0.000000  1
  La  La3  1  0.297134  0.702866  0.000000  1
  La  La4  1  0.797134  0.202866  0.500000  1
  La  La5  1  0.202866  0.797134  0.500000  1
  La  La6  1  0.298686  0.298686  0.205003  1
  La  La7  1  0.701314  0.701314  0.794997  1
  La  La8  1  0.201314  0.201314  0.705003  1
  La  La9  1  0.798686  0.798686  0.294997  1
  Hg  Hg10  1  0.019090  0.519090  0.250000  1
  Hg  Hg11  1  0.980910  0.480910  0.750000  1
  Hg  Hg12  1  0.480910  0.980910  0.750000  1
  Hg  Hg13  1  0.519090  0.019090  0.250000  1
  Au  Au14  1  0.094382  0.094382  0.405667  1
  Au  Au15  1  0.905618  0.905618  0.594333  1
  Au  Au16  1  0.405618  0.405618  0.905667  1
  Au  Au17  1  0.594382  0.594382  0.094333  1
  Au  Au18  1  0.895193  0.160274  0.202314  1
  Au  Au19  1  0.104807  0.839726  0.797686  1
  Au  Au20  1  0.604807  0.339726  0.702314  1
  Au  Au21  1  0.660274  0.395193  0.297686  1
  Au  Au22  1  0.395193  0.660274  0.297686  1
  Au  Au23  1  0.339726  0.604807  0.702314  1
  Au  Au24  1  0.839726  0.104807  0.797686  1
  Au  Au25  1  0.160274  0.895193  0.202314  1
  Au  Au26  1  0.929905  0.668447  0.020882  1
  Au  Au27  1  0.070095  0.331553  0.979118  1
  Au  Au28  1  0.570095  0.831553  0.520882  1
  Au  Au29  1  0.168447  0.429905  0.479118  1
  Au  Au30  1  0.429905  0.168447  0.479118  1
  Au  Au31  1  0.831553  0.570095  0.520882  1
  Au  Au32  1  0.331553  0.070095  0.979118  1
  Au  Au33  1  0.668447  0.929905  0.020882  1
