# generated using pymatgen
data_Cs8Sm2O7
_symmetry_space_group_name_H-M   'P 1'
_cell_length_a   19.99863700
_cell_length_b   7.48876602
_cell_length_c   7.70043150
_cell_angle_alpha   61.16560111
_cell_angle_beta   90.00000000
_cell_angle_gamma   90.00000000
_symmetry_Int_Tables_number   1
_chemical_formula_structural   Cs8Sm2O7
_chemical_formula_sum   'Cs16 Sm4 O14'
_cell_volume   1010.27219111
_cell_formula_units_Z   2
loop_
 _symmetry_equiv_pos_site_id
 _symmetry_equiv_pos_as_xyz
  1  'x, y, z'
loop_
 _atom_site_type_symbol
 _atom_site_label
 _atom_site_symmetry_multiplicity
 _atom_site_fract_x
 _atom_site_fract_y
 _atom_site_fract_z
 _atom_site_occupancy
  Cs  Cs0  1  0.504119  0.019693  0.242727  1
  Cs  Cs1  1  0.004119  0.480307  0.757273  1
  Cs  Cs2  1  0.495881  0.980307  0.757273  1
  Cs  Cs3  1  0.995881  0.519693  0.242727  1
  Cs  Cs4  1  0.703638  0.039656  0.230259  1
  Cs  Cs5  1  0.203638  0.460344  0.769741  1
  Cs  Cs6  1  0.296362  0.960344  0.769741  1
  Cs  Cs7  1  0.796362  0.539656  0.230259  1
  Cs  Cs8  1  0.090033  0.996285  0.355823  1
  Cs  Cs9  1  0.590033  0.503715  0.644177  1
  Cs  Cs10  1  0.909967  0.003715  0.644177  1
  Cs  Cs11  1  0.409967  0.496285  0.355823  1
  Cs  Cs12  1  0.807384  0.454727  0.778902  1
  Cs  Cs13  1  0.307384  0.045273  0.221098  1
  Cs  Cs14  1  0.192616  0.545273  0.221098  1
  Cs  Cs15  1  0.692616  0.954727  0.778902  1
  Sm  Sm16  1  0.597473  0.500018  0.150195  1
  Sm  Sm17  1  0.097473  0.999982  0.849805  1
  Sm  Sm18  1  0.402527  0.499982  0.849805  1
  Sm  Sm19  1  0.902527  0.000018  0.150195  1
  O  O20  1  0.500000  0.500000  0.000000  1
  O  O21  1  0.000000  0.000000  0.000000  1
  O  O22  1  0.178605  0.013356  0.040789  1
  O  O23  1  0.678605  0.486644  0.959211  1
  O  O24  1  0.821395  0.986644  0.959211  1
  O  O25  1  0.321395  0.513356  0.040789  1
  O  O26  1  0.891161  0.284993  0.168639  1
  O  O27  1  0.391161  0.215007  0.831361  1
  O  O28  1  0.108839  0.715007  0.831361  1
  O  O29  1  0.608839  0.784993  0.168639  1
  O  O30  1  0.599917  0.227726  0.446325  1
  O  O31  1  0.099917  0.272274  0.553675  1
  O  O32  1  0.400083  0.772274  0.553675  1
  O  O33  1  0.900083  0.727726  0.446325  1
