# generated using pymatgen
data_EuCd(CuPt)2
_symmetry_space_group_name_H-M   'P 1'
_cell_length_a   5.14223514
_cell_length_b   5.26724369
_cell_length_c   5.26724429
_cell_angle_alpha   63.36944439
_cell_angle_beta   60.78202694
_cell_angle_gamma   60.78203051
_symmetry_Int_Tables_number   1
_chemical_formula_structural   EuCd(CuPt)2
_chemical_formula_sum   'Eu1 Cd1 Cu2 Pt2'
_cell_volume   104.46211509
_cell_formula_units_Z   1
loop_
 _symmetry_equiv_pos_site_id
 _symmetry_equiv_pos_as_xyz
  1  'x, y, z'
loop_
 _atom_site_type_symbol
 _atom_site_label
 _atom_site_symmetry_multiplicity
 _atom_site_fract_x
 _atom_site_fract_y
 _atom_site_fract_z
 _atom_site_occupancy
  Eu  Eu0  1  0.748118  0.751882  0.751882  1
  Cd  Cd1  1  0.993247  0.006753  0.006753  1
  Cu  Cu2  1  0.379568  0.371391  0.371391  1
  Cu  Cu3  1  0.877648  0.371391  0.371391  1
  Pt  Pt4  1  0.375708  0.373039  0.875543  1
  Pt  Pt5  1  0.375708  0.875543  0.373039  1
