# generated using pymatgen
data_Er5Co2
_symmetry_space_group_name_H-M   'P 1'
_cell_length_a   6.20955079
_cell_length_b   6.85628375
_cell_length_c   8.42186854
_cell_angle_alpha   96.29398807
_cell_angle_beta   111.63276119
_cell_angle_gamma   89.99999982
_symmetry_Int_Tables_number   1
_chemical_formula_structural   Er5Co2
_chemical_formula_sum   'Er10 Co4'
_cell_volume   330.97566244
_cell_formula_units_Z   2
loop_
 _symmetry_equiv_pos_site_id
 _symmetry_equiv_pos_as_xyz
  1  'x, y, z'
loop_
 _atom_site_type_symbol
 _atom_site_label
 _atom_site_symmetry_multiplicity
 _atom_site_fract_x
 _atom_site_fract_y
 _atom_site_fract_z
 _atom_site_occupancy
  Er  Er0  1  0.569646  0.250000  0.000000  1
  Er  Er1  1  0.430355  0.749999  0.000000  1
  Er  Er2  1  0.203355  0.414197  0.189363  1
  Er  Er3  1  0.986008  0.914197  0.189363  1
  Er  Er4  1  0.784242  0.315081  0.432326  1
  Er  Er5  1  0.648082  0.815080  0.432326  1
  Er  Er6  1  0.351916  0.184919  0.567673  1
  Er  Er7  1  0.215758  0.684920  0.567674  1
  Er  Er8  1  0.013990  0.085803  0.810636  1
  Er  Er9  1  0.796646  0.585804  0.810636  1
  Co  Co10  1  0.398296  0.072439  0.222725  1
  Co  Co11  1  0.824430  0.572440  0.222726  1
  Co  Co12  1  0.175570  0.427562  0.777274  1
  Co  Co13  1  0.601703  0.927560  0.777274  1
