# generated using pymatgen
data_Sr6PaRuO12
_symmetry_space_group_name_H-M   'P 1'
_cell_length_a   6.24337791
_cell_length_b   5.97676476
_cell_length_c   10.53475400
_cell_angle_alpha   55.33558873
_cell_angle_beta   90.61350657
_cell_angle_gamma   90.04689549
_symmetry_Int_Tables_number   1
_chemical_formula_structural   Sr6PaRuO12
_chemical_formula_sum   'Sr6 Pa1 Ru1 O12'
_cell_volume   323.30390098
_cell_formula_units_Z   1
loop_
 _symmetry_equiv_pos_site_id
 _symmetry_equiv_pos_as_xyz
  1  'x, y, z'
loop_
 _atom_site_type_symbol
 _atom_site_label
 _atom_site_symmetry_multiplicity
 _atom_site_fract_x
 _atom_site_fract_y
 _atom_site_fract_z
 _atom_site_occupancy
  Sr  Sr0  1  0.500000  0.500000  0.500000  1
  Sr  Sr1  1  0.950289  0.738646  0.237319  1
  Sr  Sr2  1  0.444916  0.295425  0.233476  1
  Sr  Sr3  1  0.000000  0.500000  0.000000  1
  Sr  Sr4  1  0.555084  0.704575  0.766524  1
  Sr  Sr5  1  0.049711  0.261354  0.762681  1
  Pa  Pa6  1  0.000000  0.000000  0.500000  1
  Ru  Ru7  1  0.500000  0.000000  0.000000  1
  O  O8  1  0.462025  0.112484  0.793105  1
  O  O9  1  0.243247  0.770822  0.055494  1
  O  O10  1  0.195939  0.350950  0.423775  1
  O  O11  1  0.677624  0.696449  0.042609  1
  O  O12  1  0.727227  0.285091  0.402866  1
  O  O13  1  0.935189  0.904246  0.732714  1
  O  O14  1  0.064811  0.095754  0.267286  1
  O  O15  1  0.272773  0.714909  0.597134  1
  O  O16  1  0.322376  0.303551  0.957391  1
  O  O17  1  0.804061  0.649050  0.576225  1
  O  O18  1  0.756753  0.229178  0.944506  1
  O  O19  1  0.537975  0.887516  0.206895  1
