# generated using pymatgen
data_RbNa3MoO5
_symmetry_space_group_name_H-M   'P 1'
_cell_length_a   5.99350358
_cell_length_b   5.99350344
_cell_length_c   9.21285502
_cell_angle_alpha   79.22408176
_cell_angle_beta   79.22408080
_cell_angle_gamma   80.12187029
_symmetry_Int_Tables_number   1
_chemical_formula_structural   RbNa3MoO5
_chemical_formula_sum   'Rb2 Na6 Mo2 O10'
_cell_volume   316.16056411
_cell_formula_units_Z   2
loop_
 _symmetry_equiv_pos_site_id
 _symmetry_equiv_pos_as_xyz
  1  'x, y, z'
loop_
 _atom_site_type_symbol
 _atom_site_label
 _atom_site_symmetry_multiplicity
 _atom_site_fract_x
 _atom_site_fract_y
 _atom_site_fract_z
 _atom_site_occupancy
  Rb  Rb0  1  0.251145  0.748855  0.500000  1
  Rb  Rb1  1  0.748855  0.251145  0.500000  1
  Na  Na2  1  0.352292  0.842161  0.112167  1
  Na  Na3  1  0.157839  0.647708  0.887833  1
  Na  Na4  1  0.647708  0.157839  0.887833  1
  Na  Na5  1  0.811713  0.811713  0.271413  1
  Na  Na6  1  0.842161  0.352292  0.112167  1
  Na  Na7  1  0.188287  0.188287  0.728587  1
  Mo  Mo8  1  0.309594  0.309594  0.254458  1
  Mo  Mo9  1  0.690406  0.690406  0.745542  1
  O  O10  1  0.743833  0.743833  0.539624  1
  O  O11  1  0.256167  0.256167  0.460376  1
  O  O12  1  0.553556  0.116527  0.157472  1
  O  O13  1  0.898007  0.898007  0.758628  1
  O  O14  1  0.521668  0.521668  0.248943  1
  O  O15  1  0.116527  0.553556  0.157472  1
  O  O16  1  0.883473  0.446444  0.842528  1
  O  O17  1  0.478332  0.478332  0.751057  1
  O  O18  1  0.101993  0.101993  0.241372  1
  O  O19  1  0.446444  0.883473  0.842528  1
