# generated using pymatgen
data_Yb10Pr9SmSn16
_symmetry_space_group_name_H-M   'P 1'
_cell_length_a   8.01787119
_cell_length_b   8.51828509
_cell_length_c   16.08212923
_cell_angle_alpha   90.01407600
_cell_angle_beta   90.06048497
_cell_angle_gamma   90.08271599
_symmetry_Int_Tables_number   1
_chemical_formula_structural   Yb10Pr9SmSn16
_chemical_formula_sum   'Yb10 Pr9 Sm1 Sn16'
_cell_volume   1098.38371544
_cell_formula_units_Z   1
loop_
 _symmetry_equiv_pos_site_id
 _symmetry_equiv_pos_as_xyz
  1  'x, y, z'
loop_
 _atom_site_type_symbol
 _atom_site_label
 _atom_site_symmetry_multiplicity
 _atom_site_fract_x
 _atom_site_fract_y
 _atom_site_fract_z
 _atom_site_occupancy
  Yb  Yb0  1  0.828467  0.670448  0.622283  1
  Yb  Yb1  1  0.671468  0.171696  0.376426  1
  Yb  Yb2  1  0.172699  0.328138  0.124843  1
  Yb  Yb3  1  0.670931  0.172548  0.124765  1
  Yb  Yb4  1  0.171146  0.328562  0.376495  1
  Yb  Yb5  1  0.328144  0.828948  0.622259  1
  Yb  Yb6  1  0.156761  0.500234  0.748000  1
  Yb  Yb7  1  0.656749  0.998273  0.747384  1
  Yb  Yb8  1  0.843859  0.496084  0.250547  1
  Yb  Yb9  1  0.342761  0.004825  0.250768  1
  Pr  Pr10  1  0.829937  0.673867  0.876105  1
  Pr  Pr11  1  0.489830  0.314688  0.905019  1
  Pr  Pr12  1  0.989227  0.185511  0.594715  1
  Pr  Pr13  1  0.509744  0.686233  0.403611  1
  Pr  Pr14  1  0.011139  0.815011  0.098402  1
  Pr  Pr15  1  0.510670  0.684470  0.097926  1
  Pr  Pr16  1  0.009468  0.814379  0.403233  1
  Pr  Pr17  1  0.489302  0.314889  0.593680  1
  Pr  Pr18  1  0.989426  0.184118  0.904343  1
  Sm  Sm19  1  0.328843  0.826239  0.876390  1
  Sn  Sn20  1  0.329609  0.036244  0.039425  1
  Sn  Sn21  1  0.832124  0.464503  0.459951  1
  Sn  Sn22  1  0.667866  0.964443  0.539278  1
  Sn  Sn23  1  0.170937  0.533933  0.961027  1
  Sn  Sn24  1  0.667544  0.965343  0.961364  1
  Sn  Sn25  1  0.167018  0.534911  0.539595  1
  Sn  Sn26  1  0.331766  0.035934  0.460280  1
  Sn  Sn27  1  0.831811  0.462917  0.040540  1
  Sn  Sn28  1  0.526855  0.605637  0.749597  1
  Sn  Sn29  1  0.030762  0.896719  0.749837  1
  Sn  Sn30  1  0.471682  0.396101  0.250989  1
  Sn  Sn31  1  0.970613  0.104785  0.250321  1
  Sn  Sn32  1  0.284974  0.140375  0.750765  1
  Sn  Sn33  1  0.781972  0.358090  0.750483  1
  Sn  Sn34  1  0.716567  0.859746  0.249447  1
  Sn  Sn35  1  0.217330  0.641156  0.249904  1
