# generated using pymatgen
data_La7Eu3(Sn3O)2
_symmetry_space_group_name_H-M   'P 1'
_cell_length_a   9.52676734
_cell_length_b   9.52676673
_cell_length_c   9.52243300
_cell_angle_alpha   126.34476916
_cell_angle_beta   126.34475897
_cell_angle_gamma   79.24581626
_symmetry_Int_Tables_number   1
_chemical_formula_structural   La7Eu3(Sn3O)2
_chemical_formula_sum   'La7 Eu3 Sn6 O2'
_cell_volume   542.35046665
_cell_formula_units_Z   1
loop_
 _symmetry_equiv_pos_site_id
 _symmetry_equiv_pos_as_xyz
  1  'x, y, z'
loop_
 _atom_site_type_symbol
 _atom_site_label
 _atom_site_symmetry_multiplicity
 _atom_site_fract_x
 _atom_site_fract_y
 _atom_site_fract_z
 _atom_site_occupancy
  La  La0  1  0.496825  0.308232  0.497145  1
  La  La1  1  0.808232  0.996825  0.497145  1
  La  La2  1  0.997678  0.497678  0.187373  1
  La  La3  1  0.310193  0.810193  0.813281  1
  La  La4  1  0.507073  0.692566  0.500251  1
  La  La5  1  0.192566  0.007073  0.500251  1
  La  La6  1  0.004926  0.504926  0.812743  1
  Eu  Eu7  1  0.696665  0.196665  0.191600  1
  Eu  Eu8  1  0.501729  0.497870  0.999857  1
  Eu  Eu9  1  0.997870  0.001729  0.999857  1
  Sn  Sn10  1  0.137054  0.370037  0.502084  1
  Sn  Sn11  1  0.870037  0.637054  0.502084  1
  Sn  Sn12  1  0.631789  0.131789  0.762926  1
  Sn  Sn13  1  0.367586  0.867586  0.231953  1
  Sn  Sn14  1  0.749384  0.747885  0.996734  1
  Sn  Sn15  1  0.247885  0.249384  0.996734  1
  O  O16  1  0.752562  0.252562  0.505685  1
  O  O17  1  0.252789  0.752789  0.502295  1
