# generated using pymatgen
data_Dy12Y8Si15Au
_symmetry_space_group_name_H-M   'P 1'
_cell_length_a   7.45952154
_cell_length_b   7.69602034
_cell_length_c   14.66505706
_cell_angle_alpha   90.14766806
_cell_angle_beta   90.50041977
_cell_angle_gamma   90.16198750
_symmetry_Int_Tables_number   1
_chemical_formula_structural   Dy12Y8Si15Au
_chemical_formula_sum   'Dy12 Y8 Si15 Au1'
_cell_volume   841.86250201
_cell_formula_units_Z   1
loop_
 _symmetry_equiv_pos_site_id
 _symmetry_equiv_pos_as_xyz
  1  'x, y, z'
loop_
 _atom_site_type_symbol
 _atom_site_label
 _atom_site_symmetry_multiplicity
 _atom_site_fract_x
 _atom_site_fract_y
 _atom_site_fract_z
 _atom_site_occupancy
  Dy  Dy0  1  0.680152  0.174158  0.623223  1
  Dy  Dy1  1  0.182704  0.321683  0.877340  1
  Dy  Dy2  1  0.318339  0.819445  0.121440  1
  Dy  Dy3  1  0.823602  0.677715  0.377493  1
  Dy  Dy4  1  0.318935  0.824784  0.377728  1
  Dy  Dy5  1  0.817454  0.678746  0.121844  1
  Dy  Dy6  1  0.680953  0.179606  0.877571  1
  Dy  Dy7  1  0.178481  0.321312  0.623425  1
  Dy  Dy8  1  0.526253  0.679223  0.601008  1
  Dy  Dy9  1  0.028852  0.816495  0.901166  1
  Dy  Dy10  1  0.469956  0.317803  0.098663  1
  Dy  Dy11  1  0.976333  0.181964  0.399792  1
  Y  Y12  1  0.470832  0.321893  0.400085  1
  Y  Y13  1  0.970114  0.183355  0.098292  1
  Y  Y14  1  0.530497  0.682679  0.900227  1
  Y  Y15  1  0.025157  0.817915  0.600756  1
  Y  Y16  1  0.851341  0.508509  0.750005  1
  Y  Y17  1  0.349514  0.988960  0.748781  1
  Y  Y18  1  0.149967  0.488633  0.250002  1
  Y  Y19  1  0.651522  0.011138  0.250778  1
  Si  Si20  1  0.145168  0.528110  0.040157  1
  Si  Si21  1  0.353878  0.029397  0.959992  1
  Si  Si22  1  0.850948  0.471683  0.541806  1
  Si  Si23  1  0.342283  0.027929  0.542847  1
  Si  Si24  1  0.855134  0.471236  0.959250  1
  Si  Si25  1  0.644380  0.970947  0.039407  1
  Si  Si26  1  0.148358  0.530551  0.461083  1
  Si  Si27  1  0.478166  0.395284  0.750275  1
  Si  Si28  1  0.976457  0.104335  0.752091  1
  Si  Si29  1  0.523002  0.607199  0.248635  1
  Si  Si30  1  0.024961  0.894822  0.247256  1
  Si  Si31  1  0.734057  0.871307  0.752293  1
  Si  Si32  1  0.233771  0.626778  0.751216  1
  Si  Si33  1  0.268029  0.126234  0.246971  1
  Si  Si34  1  0.765600  0.375209  0.248715  1
  Au  Au35  1  0.654852  0.972963  0.458385  1
