# generated using pymatgen
data_Ce3Y7(Zn2Ru3)2
_symmetry_space_group_name_H-M   'P 1'
_cell_length_a   8.42699675
_cell_length_b   8.42699583
_cell_length_c   8.42699800
_cell_angle_alpha   110.22540565
_cell_angle_beta   110.22541784
_cell_angle_gamma   110.22541506
_symmetry_Int_Tables_number   1
_chemical_formula_structural   Ce3Y7(Zn2Ru3)2
_chemical_formula_sum   'Ce3 Y7 Zn4 Ru6'
_cell_volume   447.35167329
_cell_formula_units_Z   1
loop_
 _symmetry_equiv_pos_site_id
 _symmetry_equiv_pos_as_xyz
  1  'x, y, z'
loop_
 _atom_site_type_symbol
 _atom_site_label
 _atom_site_symmetry_multiplicity
 _atom_site_fract_x
 _atom_site_fract_y
 _atom_site_fract_z
 _atom_site_occupancy
  Ce  Ce0  1  0.251842  0.199618  0.943050  1
  Ce  Ce1  1  0.943050  0.251842  0.199618  1
  Ce  Ce2  1  0.199618  0.943050  0.251842  1
  Y  Y3  1  0.774934  0.774934  0.774934  1
  Y  Y4  1  0.315567  0.568093  0.753459  1
  Y  Y5  1  0.753459  0.315567  0.568093  1
  Y  Y6  1  0.568093  0.753459  0.315567  1
  Y  Y7  1  0.727175  0.506053  0.994556  1
  Y  Y8  1  0.994556  0.727175  0.506053  1
  Y  Y9  1  0.506053  0.994556  0.727175  1
  Zn  Zn10  1  0.419451  0.419451  0.419451  1
  Zn  Zn11  1  0.090043  0.498076  0.004515  1
  Zn  Zn12  1  0.004515  0.090043  0.498076  1
  Zn  Zn13  1  0.498076  0.004515  0.090043  1
  Ru  Ru14  1  0.899508  0.114692  0.754204  1
  Ru  Ru15  1  0.754204  0.899508  0.114692  1
  Ru  Ru16  1  0.114692  0.754204  0.899508  1
  Ru  Ru17  1  0.219297  0.593357  0.372508  1
  Ru  Ru18  1  0.372508  0.219297  0.593357  1
  Ru  Ru19  1  0.593357  0.372508  0.219297  1
