# generated using pymatgen
data_La12FeSi8Ni3
_symmetry_space_group_name_H-M   'P 1'
_cell_length_a   4.34142900
_cell_length_b   11.99597550
_cell_length_c   12.01123000
_cell_angle_alpha   90.01654493
_cell_angle_beta   90.00000000
_cell_angle_gamma   90.00000000
_symmetry_Int_Tables_number   1
_chemical_formula_structural   La12FeSi8Ni3
_chemical_formula_sum   'La12 Fe1 Si8 Ni3'
_cell_volume   625.54093972
_cell_formula_units_Z   1
loop_
 _symmetry_equiv_pos_site_id
 _symmetry_equiv_pos_as_xyz
  1  'x, y, z'
loop_
 _atom_site_type_symbol
 _atom_site_label
 _atom_site_symmetry_multiplicity
 _atom_site_fract_x
 _atom_site_fract_y
 _atom_site_fract_z
 _atom_site_occupancy
  La  La0  1  0.250000  0.056365  0.887172  1
  La  La1  1  0.250000  0.443363  0.383746  1
  La  La2  1  0.750000  0.943841  0.114723  1
  La  La3  1  0.750000  0.558454  0.614441  1
  La  La4  1  0.250000  0.125637  0.561992  1
  La  La5  1  0.250000  0.373727  0.059380  1
  La  La6  1  0.750000  0.877502  0.440123  1
  La  La7  1  0.750000  0.624662  0.938509  1
  La  La8  1  0.250000  0.808061  0.711925  1
  La  La9  1  0.250000  0.695331  0.212733  1
  La  La10  1  0.750000  0.192528  0.290297  1
  La  La11  1  0.750000  0.300468  0.786153  1
  Fe  Fe12  1  0.250000  0.363417  0.625202  1
  Si  Si13  1  0.250000  0.812520  0.967166  1
  Si  Si14  1  0.250000  0.687545  0.466891  1
  Si  Si15  1  0.750000  0.185880  0.035297  1
  Si  Si16  1  0.750000  0.317211  0.533076  1
  Si  Si17  1  0.250000  0.486259  0.795538  1
  Si  Si18  1  0.250000  0.008258  0.297513  1
  Si  Si19  1  0.750000  0.511706  0.199757  1
  Si  Si20  1  0.750000  0.991938  0.703778  1
  Ni  Ni21  1  0.250000  0.134559  0.129854  1
  Ni  Ni22  1  0.750000  0.635249  0.371854  1
  Ni  Ni23  1  0.750000  0.865519  0.872877  1
