# generated using pymatgen
data_Dy12Co4HgOs
_symmetry_space_group_name_H-M   'P 1'
_cell_length_a   8.25846747
_cell_length_b   8.25747622
_cell_length_c   8.25846598
_cell_angle_alpha   106.78188904
_cell_angle_beta   110.33211338
_cell_angle_gamma   111.33915601
_symmetry_Int_Tables_number   1
_chemical_formula_structural   Dy12Co4HgOs
_chemical_formula_sum   'Dy12 Co4 Hg1 Os1'
_cell_volume   432.76154026
_cell_formula_units_Z   1
loop_
 _symmetry_equiv_pos_site_id
 _symmetry_equiv_pos_as_xyz
  1  'x, y, z'
loop_
 _atom_site_type_symbol
 _atom_site_label
 _atom_site_symmetry_multiplicity
 _atom_site_fract_x
 _atom_site_fract_y
 _atom_site_fract_z
 _atom_site_occupancy
  Dy  Dy0  1  0.307565  0.275501  0.583106  1
  Dy  Dy1  1  0.692435  0.724499  0.416894  1
  Dy  Dy2  1  0.307606  0.724499  0.032063  1
  Dy  Dy3  1  0.692394  0.275501  0.967937  1
  Dy  Dy4  1  0.191896  0.511009  0.319112  1
  Dy  Dy5  1  0.191880  0.872719  0.680839  1
  Dy  Dy6  1  0.808104  0.488991  0.680888  1
  Dy  Dy7  1  0.808120  0.127281  0.319161  1
  Dy  Dy8  1  0.401390  0.222530  0.178798  1
  Dy  Dy9  1  0.043731  0.222530  0.821140  1
  Dy  Dy10  1  0.956269  0.777470  0.178860  1
  Dy  Dy11  1  0.598610  0.777470  0.821202  1
  Co  Co12  1  0.137114  0.500000  0.637114  1
  Co  Co13  1  0.862886  0.500000  0.362886  1
  Co  Co14  1  0.999972  0.112493  0.112521  1
  Co  Co15  1  0.000028  0.887507  0.887479  1
  Hg  Hg16  1  0.500000  0.000000  0.500000  1
  Os  Os17  1  0.500000  0.500000  0.000000  1
