# generated using pymatgen
data_Dy6HoEr13Pb16
_symmetry_space_group_name_H-M   'P 1'
_cell_length_a   8.17074590
_cell_length_b   8.24453238
_cell_length_c   15.56532201
_cell_angle_alpha   90.01447034
_cell_angle_beta   90.02549625
_cell_angle_gamma   89.98707835
_symmetry_Int_Tables_number   1
_chemical_formula_structural   Dy6HoEr13Pb16
_chemical_formula_sum   'Dy6 Ho1 Er13 Pb16'
_cell_volume   1048.54186290
_cell_formula_units_Z   1
loop_
 _symmetry_equiv_pos_site_id
 _symmetry_equiv_pos_as_xyz
  1  'x, y, z'
loop_
 _atom_site_type_symbol
 _atom_site_label
 _atom_site_symmetry_multiplicity
 _atom_site_fract_x
 _atom_site_fract_y
 _atom_site_fract_z
 _atom_site_occupancy
  Dy  Dy0  1  0.463548  0.676776  0.399958  1
  Dy  Dy1  1  0.963485  0.823276  0.100052  1
  Dy  Dy2  1  0.463509  0.676755  0.100016  1
  Dy  Dy3  1  0.963542  0.823208  0.399964  1
  Dy  Dy4  1  0.536458  0.323239  0.599996  1
  Dy  Dy5  1  0.036502  0.176809  0.899962  1
  Ho  Ho6  1  0.036469  0.176811  0.600089  1
  Er  Er7  1  0.376486  0.841315  0.879059  1
  Er  Er8  1  0.876450  0.658708  0.620948  1
  Er  Er9  1  0.623547  0.158760  0.379111  1
  Er  Er10  1  0.123476  0.341177  0.120891  1
  Er  Er11  1  0.623475  0.158838  0.120789  1
  Er  Er12  1  0.123532  0.341210  0.379120  1
  Er  Er13  1  0.376464  0.841299  0.620959  1
  Er  Er14  1  0.876420  0.658657  0.879059  1
  Er  Er15  1  0.536716  0.323456  0.899886  1
  Er  Er16  1  0.208339  0.504399  0.750061  1
  Er  Er17  1  0.708184  0.995545  0.750040  1
  Er  Er18  1  0.791736  0.495470  0.250001  1
  Er  Er19  1  0.291745  0.004516  0.249979  1
  Pb  Pb20  1  0.281494  0.033204  0.042869  1
  Pb  Pb21  1  0.781583  0.466752  0.457155  1
  Pb  Pb22  1  0.718474  0.966792  0.542860  1
  Pb  Pb23  1  0.218966  0.532829  0.957075  1
  Pb  Pb24  1  0.718164  0.967047  0.957112  1
  Pb  Pb25  1  0.218379  0.533240  0.542840  1
  Pb  Pb26  1  0.281550  0.033297  0.457197  1
  Pb  Pb27  1  0.781251  0.466437  0.042581  1
  Pb  Pb28  1  0.571110  0.626929  0.750006  1
  Pb  Pb29  1  0.071151  0.872921  0.750009  1
  Pb  Pb30  1  0.428856  0.372905  0.249981  1
  Pb  Pb31  1  0.928845  0.127140  0.250032  1
  Pb  Pb32  1  0.347671  0.153792  0.750291  1
  Pb  Pb33  1  0.847304  0.346522  0.750050  1
  Pb  Pb34  1  0.652561  0.846571  0.249990  1
  Pb  Pb35  1  0.152558  0.653397  0.250012  1
