# generated using pymatgen
data_Y3Ho7AlSb5
_symmetry_space_group_name_H-M   'P 1'
_cell_length_a   8.90998000
_cell_length_b   8.90538574
_cell_length_c   6.36917200
_cell_angle_alpha   90.00000000
_cell_angle_beta   90.00000000
_cell_angle_gamma   120.01707462
_symmetry_Int_Tables_number   1
_chemical_formula_structural   Y3Ho7AlSb5
_chemical_formula_sum   'Y3 Ho7 Al1 Sb5'
_cell_volume   437.59094398
_cell_formula_units_Z   1
loop_
 _symmetry_equiv_pos_site_id
 _symmetry_equiv_pos_as_xyz
  1  'x, y, z'
loop_
 _atom_site_type_symbol
 _atom_site_label
 _atom_site_symmetry_multiplicity
 _atom_site_fract_x
 _atom_site_fract_y
 _atom_site_fract_z
 _atom_site_occupancy
  Y  Y0  1  0.752724  0.000000  0.750000  1
  Y  Y1  1  0.754946  0.755594  0.250000  1
  Y  Y2  1  0.999352  0.244406  0.250000  1
  Ho  Ho3  1  0.334687  0.673502  0.998900  1
  Ho  Ho4  1  0.661186  0.326498  0.501100  1
  Ho  Ho5  1  0.661186  0.326498  0.998900  1
  Ho  Ho6  1  0.334687  0.673502  0.501100  1
  Ho  Ho7  1  0.009743  0.763677  0.750000  1
  Ho  Ho8  1  0.246066  0.236323  0.750000  1
  Ho  Ho9  1  0.242087  0.000000  0.250000  1
  Al  Al10  1  0.396455  0.000000  0.750000  1
  Sb  Sb11  1  0.389402  0.392101  0.250000  1
  Sb  Sb12  1  0.997301  0.607899  0.250000  1
  Sb  Sb13  1  0.002216  0.390928  0.750000  1
  Sb  Sb14  1  0.611288  0.609072  0.750000  1
  Sb  Sb15  1  0.606672  0.000000  0.250000  1
