# generated using pymatgen
data_Tb20Ir7Pt2Au3
_symmetry_space_group_name_H-M   'P 1'
_cell_length_a   11.16866432
_cell_length_b   11.16866349
_cell_length_c   6.35463101
_cell_angle_alpha   89.93827390
_cell_angle_beta   89.93827083
_cell_angle_gamma   90.63974803
_symmetry_Int_Tables_number   1
_chemical_formula_structural   Tb20Ir7Pt2Au3
_chemical_formula_sum   'Tb20 Ir7 Pt2 Au3'
_cell_volume   792.62031473
_cell_formula_units_Z   1
loop_
 _symmetry_equiv_pos_site_id
 _symmetry_equiv_pos_as_xyz
  1  'x, y, z'
loop_
 _atom_site_type_symbol
 _atom_site_label
 _atom_site_symmetry_multiplicity
 _atom_site_fract_x
 _atom_site_fract_y
 _atom_site_fract_z
 _atom_site_occupancy
  Tb  Tb0  1  0.296898  0.081048  0.359704  1
  Tb  Tb1  1  0.295427  0.904015  0.874900  1
  Tb  Tb2  1  0.700129  0.091807  0.866037  1
  Tb  Tb3  1  0.696342  0.910446  0.364639  1
  Tb  Tb4  1  0.577527  0.790802  0.873292  1
  Tb  Tb5  1  0.583755  0.210385  0.378935  1
  Tb  Tb6  1  0.405924  0.790824  0.378656  1
  Tb  Tb7  1  0.418975  0.208064  0.871516  1
  Tb  Tb8  1  0.209198  0.422473  0.626708  1
  Tb  Tb9  1  0.209176  0.594076  0.121344  1
  Tb  Tb10  1  0.789615  0.416245  0.121065  1
  Tb  Tb11  1  0.791936  0.581025  0.628484  1
  Tb  Tb12  1  0.918952  0.703102  0.140296  1
  Tb  Tb13  1  0.908193  0.299871  0.633963  1
  Tb  Tb14  1  0.095985  0.704573  0.625100  1
  Tb  Tb15  1  0.089554  0.303658  0.135361  1
  Tb  Tb16  1  0.004073  0.993669  0.499046  1
  Tb  Tb17  1  0.006331  0.995927  0.000954  1
  Tb  Tb18  1  0.498826  0.498782  0.000020  1
  Tb  Tb19  1  0.501218  0.501174  0.499980  1
  Ir  Ir20  1  0.152022  0.847978  0.250000  1
  Ir  Ir21  1  0.652367  0.347633  0.750000  1
  Ir  Ir22  1  0.348382  0.651618  0.750000  1
  Ir  Ir23  1  0.500267  0.999745  0.115296  1
  Ir  Ir24  1  0.499318  0.999853  0.617181  1
  Ir  Ir25  1  0.000147  0.500682  0.882819  1
  Ir  Ir26  1  0.000255  0.499733  0.384704  1
  Pt  Pt27  1  0.656736  0.654312  0.247995  1
  Pt  Pt28  1  0.345688  0.343264  0.252005  1
  Au  Au29  1  0.846586  0.153414  0.250000  1
  Au  Au30  1  0.842240  0.842038  0.751188  1
  Au  Au31  1  0.157962  0.157760  0.748812  1
