# generated using pymatgen
data_Sc7TaAl14GeRh7
_symmetry_space_group_name_H-M   'P 1'
_cell_length_a   8.86768923
_cell_length_b   8.88009154
_cell_length_c   8.86769043
_cell_angle_alpha   120.04382386
_cell_angle_beta   119.91002245
_cell_angle_gamma   89.99990563
_symmetry_Int_Tables_number   1
_chemical_formula_structural   Sc7TaAl14GeRh7
_chemical_formula_sum   'Sc7 Ta1 Al14 Ge1 Rh7'
_cell_volume   494.11255090
_cell_formula_units_Z   1
loop_
 _symmetry_equiv_pos_site_id
 _symmetry_equiv_pos_as_xyz
  1  'x, y, z'
loop_
 _atom_site_type_symbol
 _atom_site_label
 _atom_site_symmetry_multiplicity
 _atom_site_fract_x
 _atom_site_fract_y
 _atom_site_fract_z
 _atom_site_occupancy
  Sc  Sc0  1  0.797526  0.290849  0.077211  1
  Sc  Sc1  1  0.213638  0.290849  0.493323  1
  Sc  Sc2  1  0.205450  0.703998  0.498547  1
  Sc  Sc3  1  0.213526  0.720537  0.924916  1
  Sc  Sc4  1  0.795622  0.720537  0.507012  1
  Sc  Sc5  1  0.780985  0.281202  0.500217  1
  Sc  Sc6  1  0.380607  0.121311  0.740704  1
  Ta  Ta7  1  0.379126  0.633771  0.254644  1
  Al  Al8  1  0.163550  0.332570  0.169021  1
  Al  Al9  1  0.162533  0.991153  0.828618  1
  Al  Al10  1  0.155925  0.337835  0.817219  1
  Al  Al11  1  0.520614  0.337835  0.181908  1
  Al  Al12  1  0.834970  0.662260  0.827291  1
  Al  Al13  1  0.835835  0.009048  0.173213  1
  Al  Al14  1  0.833253  0.664335  0.168445  1
  Al  Al15  1  0.495889  0.664335  0.831082  1
  Al  Al16  1  0.380479  0.121724  0.259560  1
  Al  Al17  1  0.862165  0.121724  0.741246  1
  Al  Al18  1  0.620494  0.876558  0.256063  1
  Al  Al19  1  0.621353  0.365685  0.744333  1
  Al  Al20  1  0.620805  0.878296  0.742586  1
  Al  Al21  1  0.135709  0.878296  0.257488  1
  Ge  Ge22  1  0.992337  0.492078  0.499741  1
  Rh  Rh23  1  0.994982  0.999946  0.500087  1
  Rh  Rh24  1  0.499859  0.999946  0.004964  1
  Rh  Rh25  1  0.498361  0.503497  0.005136  1
  Rh  Rh26  1  0.498185  0.501788  0.497878  1
  Rh  Rh27  1  0.003910  0.501788  0.003603  1
  Rh  Rh28  1  0.000675  0.000988  0.000313  1
  Rh  Rh29  1  0.501632  0.995260  0.493629  1
