# generated using pymatgen
data_Li3Eu4GdSb4
_symmetry_space_group_name_H-M   'P 1'
_cell_length_a   4.77773900
_cell_length_b   7.82551837
_cell_length_c   8.92525431
_cell_angle_alpha   87.55761660
_cell_angle_beta   90.00000000
_cell_angle_gamma   90.00000000
_symmetry_Int_Tables_number   1
_chemical_formula_structural   Li3Eu4GdSb4
_chemical_formula_sum   'Li3 Eu4 Gd1 Sb4'
_cell_volume   333.39680592
_cell_formula_units_Z   1
loop_
 _symmetry_equiv_pos_site_id
 _symmetry_equiv_pos_as_xyz
  1  'x, y, z'
loop_
 _atom_site_type_symbol
 _atom_site_label
 _atom_site_symmetry_multiplicity
 _atom_site_fract_x
 _atom_site_fract_y
 _atom_site_fract_z
 _atom_site_occupancy
  Li  Li0  1  0.250000  0.651739  0.563897  1
  Li  Li1  1  0.750000  0.851483  0.069939  1
  Li  Li2  1  0.750000  0.349707  0.433141  1
  Eu  Eu3  1  0.250000  0.006106  0.315147  1
  Eu  Eu4  1  0.250000  0.509825  0.212626  1
  Eu  Eu5  1  0.750000  0.976579  0.679691  1
  Eu  Eu6  1  0.750000  0.492107  0.789577  1
  Gd  Gd7  1  0.250000  0.161974  0.922002  1
  Sb  Sb8  1  0.250000  0.277482  0.586428  1
  Sb  Sb9  1  0.250000  0.767042  0.900478  1
  Sb  Sb10  1  0.750000  0.722442  0.400375  1
  Sb  Sb11  1  0.750000  0.233515  0.126699  1
