# generated using pymatgen
data_Lu12ZnNi4Bi
_symmetry_space_group_name_H-M   'P 1'
_cell_length_a   8.19496290
_cell_length_b   8.19496425
_cell_length_c   8.19496434
_cell_angle_alpha   112.08938101
_cell_angle_beta   110.04217638
_cell_angle_gamma   106.33396663
_symmetry_Int_Tables_number   1
_chemical_formula_structural   Lu12ZnNi4Bi
_chemical_formula_sum   'Lu12 Zn1 Ni4 Bi1'
_cell_volume   422.57258717
_cell_formula_units_Z   1
loop_
 _symmetry_equiv_pos_site_id
 _symmetry_equiv_pos_as_xyz
  1  'x, y, z'
loop_
 _atom_site_type_symbol
 _atom_site_label
 _atom_site_symmetry_multiplicity
 _atom_site_fract_x
 _atom_site_fract_y
 _atom_site_fract_z
 _atom_site_occupancy
  Lu  Lu0  1  0.676734  0.868161  0.191426  1
  Lu  Lu1  1  0.323266  0.514692  0.191426  1
  Lu  Lu2  1  0.821585  0.786706  0.608292  1
  Lu  Lu3  1  0.178415  0.786706  0.965121  1
  Lu  Lu4  1  0.821585  0.213294  0.034879  1
  Lu  Lu5  1  0.178415  0.213294  0.391708  1
  Lu  Lu6  1  0.676734  0.485308  0.808574  1
  Lu  Lu7  1  0.323266  0.131839  0.808574  1
  Lu  Lu8  1  0.571505  0.274423  0.297082  1
  Lu  Lu9  1  0.428495  0.725577  0.702918  1
  Lu  Lu10  1  0.022660  0.725577  0.297082  1
  Lu  Lu11  1  0.977340  0.274423  0.702918  1
  Zn  Zn12  1  0.000000  0.500000  0.500000  1
  Ni  Ni13  1  0.352566  0.500000  0.852566  1
  Ni  Ni14  1  0.647434  0.500000  0.147434  1
  Ni  Ni15  1  0.875670  0.875670  0.000000  1
  Ni  Ni16  1  0.124330  0.124330  0.000000  1
  Bi  Bi17  1  0.500000  0.000000  0.500000  1
