# generated using pymatgen
data_Tm8Ga3Ni
_symmetry_space_group_name_H-M   'P 1'
_cell_length_a   9.95555400
_cell_length_b   9.95555478
_cell_length_c   6.77602200
_cell_angle_alpha   90.00000000
_cell_angle_beta   90.00000000
_cell_angle_gamma   120.00000404
_symmetry_Int_Tables_number   1
_chemical_formula_structural   Tm8Ga3Ni
_chemical_formula_sum   'Tm16 Ga6 Ni2'
_cell_volume   581.61596653
_cell_formula_units_Z   2
loop_
 _symmetry_equiv_pos_site_id
 _symmetry_equiv_pos_as_xyz
  1  'x, y, z'
loop_
 _atom_site_type_symbol
 _atom_site_label
 _atom_site_symmetry_multiplicity
 _atom_site_fract_x
 _atom_site_fract_y
 _atom_site_fract_z
 _atom_site_occupancy
  Tm  Tm0  1  0.172498  0.827502  0.990255  1
  Tm  Tm1  1  0.344995  0.172498  0.490255  1
  Tm  Tm2  1  0.827502  0.655005  0.490255  1
  Tm  Tm3  1  0.172498  0.344995  0.990255  1
  Tm  Tm4  1  0.655005  0.827502  0.990255  1
  Tm  Tm5  1  0.827502  0.172498  0.490255  1
  Tm  Tm6  1  0.333333  0.666667  0.669498  1
  Tm  Tm7  1  0.666667  0.333333  0.169498  1
  Tm  Tm8  1  0.465781  0.534219  0.294645  1
  Tm  Tm9  1  0.931561  0.465781  0.794645  1
  Tm  Tm10  1  0.534219  0.068439  0.794645  1
  Tm  Tm11  1  0.465781  0.931561  0.294645  1
  Tm  Tm12  1  0.068439  0.534219  0.294645  1
  Tm  Tm13  1  0.534219  0.465781  0.794645  1
  Tm  Tm14  1  0.000000  0.000000  0.266743  1
  Tm  Tm15  1  0.000000  0.000000  0.766743  1
  Ga  Ga16  1  0.163313  0.836687  0.538206  1
  Ga  Ga17  1  0.326626  0.163313  0.038206  1
  Ga  Ga18  1  0.836687  0.673374  0.038206  1
  Ga  Ga19  1  0.163313  0.326626  0.538206  1
  Ga  Ga20  1  0.673374  0.836687  0.538206  1
  Ga  Ga21  1  0.836687  0.163313  0.038206  1
  Ni  Ni22  1  0.333333  0.666667  0.056446  1
  Ni  Ni23  1  0.666667  0.333333  0.556446  1
