# generated using pymatgen
data_Cd2AgIr4PbO14
_symmetry_space_group_name_H-M   'P 1'
_cell_length_a   7.29395505
_cell_length_b   7.26426231
_cell_length_c   7.29395538
_cell_angle_alpha   59.84145446
_cell_angle_beta   59.80264735
_cell_angle_gamma   59.84145398
_symmetry_Int_Tables_number   1
_chemical_formula_structural   Cd2AgIr4PbO14
_chemical_formula_sum   'Cd2 Ag1 Ir4 Pb1 O14'
_cell_volume   272.21306318
_cell_formula_units_Z   1
loop_
 _symmetry_equiv_pos_site_id
 _symmetry_equiv_pos_as_xyz
  1  'x, y, z'
loop_
 _atom_site_type_symbol
 _atom_site_label
 _atom_site_symmetry_multiplicity
 _atom_site_fract_x
 _atom_site_fract_y
 _atom_site_fract_z
 _atom_site_occupancy
  Cd  Cd0  1  0.625000  0.125000  0.125000  1
  Cd  Cd1  1  0.125000  0.125000  0.625000  1
  Ag  Ag2  1  0.125000  0.625000  0.125000  1
  Ir  Ir3  1  0.125000  0.625000  0.625000  1
  Ir  Ir4  1  0.625000  0.125000  0.625000  1
  Ir  Ir5  1  0.625000  0.625000  0.125000  1
  Ir  Ir6  1  0.625000  0.625000  0.625000  1
  Pb  Pb7  1  0.125000  0.125000  0.125000  1
  O  O8  1  0.694998  0.695556  0.303162  1
  O  O9  1  0.297648  0.297106  0.709752  1
  O  O10  1  0.699266  0.299167  0.699266  1
  O  O11  1  0.300375  0.708101  0.300375  1
  O  O12  1  0.303162  0.695556  0.694998  1
  O  O13  1  0.709752  0.297106  0.297648  1
  O  O14  1  0.555002  0.554444  0.946838  1
  O  O15  1  0.952352  0.952894  0.540248  1
  O  O16  1  0.550734  0.950833  0.550734  1
  O  O17  1  0.949625  0.541899  0.949625  1
  O  O18  1  0.946838  0.554444  0.555002  1
  O  O19  1  0.540248  0.952894  0.952352  1
  O  O20  1  0.250743  0.263843  0.250743  1
  O  O21  1  0.999257  0.986157  0.999257  1
