# generated using pymatgen
data_PuVN2
_symmetry_space_group_name_H-M   'P 1'
_cell_length_a   3.21812800
_cell_length_b   5.47065800
_cell_length_c   10.52106000
_cell_angle_alpha   90.00000000
_cell_angle_beta   90.00000000
_cell_angle_gamma   90.00000000
_symmetry_Int_Tables_number   1
_chemical_formula_structural   PuVN2
_chemical_formula_sum   'Pu4 V4 N8'
_cell_volume   185.22618287
_cell_formula_units_Z   4
loop_
 _symmetry_equiv_pos_site_id
 _symmetry_equiv_pos_as_xyz
  1  'x, y, z'
loop_
 _atom_site_type_symbol
 _atom_site_label
 _atom_site_symmetry_multiplicity
 _atom_site_fract_x
 _atom_site_fract_y
 _atom_site_fract_z
 _atom_site_occupancy
  Pu  Pu0  1  0.750000  0.079822  0.857344  1
  Pu  Pu1  1  0.750000  0.579822  0.642656  1
  Pu  Pu2  1  0.250000  0.920178  0.142656  1
  Pu  Pu3  1  0.250000  0.420178  0.357344  1
  V  V4  1  0.250000  0.078448  0.598863  1
  V  V5  1  0.750000  0.421552  0.098863  1
  V  V6  1  0.250000  0.578448  0.901137  1
  V  V7  1  0.750000  0.921552  0.401137  1
  N  N8  1  0.250000  0.336942  0.746201  1
  N  N9  1  0.750000  0.163058  0.246201  1
  N  N10  1  0.250000  0.268701  0.011032  1
  N  N11  1  0.750000  0.663058  0.253799  1
  N  N12  1  0.250000  0.836942  0.753799  1
  N  N13  1  0.750000  0.731299  0.988968  1
  N  N14  1  0.750000  0.231299  0.511032  1
  N  N15  1  0.250000  0.768701  0.488968  1
