# generated using pymatgen
data_TbYSb5
_symmetry_space_group_name_H-M   'P 1'
_cell_length_a   13.24554207
_cell_length_b   4.20644300
_cell_length_c   14.75196204
_cell_angle_alpha   90.00000000
_cell_angle_beta   101.87268630
_cell_angle_gamma   90.00000000
_symmetry_Int_Tables_number   1
_chemical_formula_structural   TbYSb5
_chemical_formula_sum   'Tb4 Y4 Sb20'
_cell_volume   804.34603619
_cell_formula_units_Z   4
loop_
 _symmetry_equiv_pos_site_id
 _symmetry_equiv_pos_as_xyz
  1  'x, y, z'
loop_
 _atom_site_type_symbol
 _atom_site_label
 _atom_site_symmetry_multiplicity
 _atom_site_fract_x
 _atom_site_fract_y
 _atom_site_fract_z
 _atom_site_occupancy
  Tb  Tb0  1  0.331053  0.250000  0.576375  1
  Tb  Tb1  1  0.953016  0.749999  0.640022  1
  Tb  Tb2  1  0.606581  0.250000  0.770742  1
  Tb  Tb3  1  0.337500  0.250000  0.855871  1
  Y  Y4  1  0.662327  0.749999  0.144485  1
  Y  Y5  1  0.393695  0.749999  0.229266  1
  Y  Y6  1  0.046932  0.250000  0.360432  1
  Y  Y7  1  0.668989  0.749999  0.423136  1
  Sb  Sb8  1  0.420024  0.749999  0.024746  1
  Sb  Sb9  1  0.279329  0.250000  0.061930  1
  Sb  Sb10  1  0.028956  0.250000  0.093202  1
  Sb  Sb11  1  0.848545  0.250000  0.172728  1
  Sb  Sb12  1  0.142658  0.749999  0.220598  1
  Sb  Sb13  1  0.575468  0.250000  0.265578  1
  Sb  Sb14  1  0.860897  0.749999  0.322405  1
  Sb  Sb15  1  0.284994  0.250000  0.348027  1
  Sb  Sb16  1  0.426374  0.749999  0.447265  1
  Sb  Sb17  1  0.856624  0.250000  0.481770  1
  Sb  Sb18  1  0.143269  0.749999  0.518221  1
  Sb  Sb19  1  0.573643  0.250000  0.552516  1
  Sb  Sb20  1  0.714884  0.749999  0.651841  1
  Sb  Sb21  1  0.139183  0.250000  0.677669  1
  Sb  Sb22  1  0.424448  0.749999  0.734382  1
  Sb  Sb23  1  0.857464  0.250000  0.779324  1
  Sb  Sb24  1  0.151364  0.749999  0.827165  1
  Sb  Sb25  1  0.971164  0.749999  0.906606  1
  Sb  Sb26  1  0.720638  0.749999  0.938203  1
  Sb  Sb27  1  0.579980  0.250000  0.975494  1
