# generated using pymatgen
data_Ca2Ta(AgO2)3
_symmetry_space_group_name_H-M   'P 1'
_cell_length_a   5.90932400
_cell_length_b   5.90932512
_cell_length_c   18.93459200
_cell_angle_alpha   90.00000000
_cell_angle_beta   90.00000000
_cell_angle_gamma   119.99999371
_symmetry_Int_Tables_number   1
_chemical_formula_structural   Ca2Ta(AgO2)3
_chemical_formula_sum   'Ca6 Ta3 Ag9 O18'
_cell_volume   572.61444297
_cell_formula_units_Z   3
loop_
 _symmetry_equiv_pos_site_id
 _symmetry_equiv_pos_as_xyz
  1  'x, y, z'
loop_
 _atom_site_type_symbol
 _atom_site_label
 _atom_site_symmetry_multiplicity
 _atom_site_fract_x
 _atom_site_fract_y
 _atom_site_fract_z
 _atom_site_occupancy
  Ca  Ca0  1  0.107587  0.892413  0.333333  1
  Ca  Ca1  1  0.107587  0.215174  0.666667  1
  Ca  Ca2  1  0.784826  0.892413  0.000000  1
  Ca  Ca3  1  0.774327  0.225673  0.333333  1
  Ca  Ca4  1  0.774327  0.548655  0.666667  1
  Ca  Ca5  1  0.451345  0.225673  0.000000  1
  Ta  Ta6  1  0.441402  0.558598  0.333333  1
  Ta  Ta7  1  0.441402  0.882804  0.666667  1
  Ta  Ta8  1  0.117196  0.558598  0.000000  1
  Ag  Ag9  1  0.441875  0.220937  0.500000  1
  Ag  Ag10  1  0.779063  0.220937  0.833333  1
  Ag  Ag11  1  0.779063  0.558125  0.166667  1
  Ag  Ag12  1  0.139314  0.569657  0.500000  1
  Ag  Ag13  1  0.430343  0.569657  0.833333  1
  Ag  Ag14  1  0.430343  0.860686  0.166667  1
  Ag  Ag15  1  0.741884  0.870941  0.500000  1
  Ag  Ag16  1  0.129059  0.870941  0.833333  1
  Ag  Ag17  1  0.129059  0.258116  0.166667  1
  O  O18  1  0.729397  0.558601  0.276347  1
  O  O19  1  0.441399  0.170795  0.609680  1
  O  O20  1  0.829205  0.270603  0.943014  1
  O  O21  1  0.729397  0.170795  0.723653  1
  O  O22  1  0.441399  0.270603  0.390320  1
  O  O23  1  0.829205  0.558601  0.056986  1
  O  O24  1  0.441301  0.849442  0.277140  1
  O  O25  1  0.150558  0.591860  0.610473  1
  O  O26  1  0.408140  0.558699  0.943807  1
  O  O27  1  0.441301  0.591860  0.722860  1
  O  O28  1  0.150558  0.558699  0.389527  1
  O  O29  1  0.408140  0.849442  0.056193  1
  O  O30  1  0.151120  0.268552  0.277091  1
  O  O31  1  0.731448  0.882568  0.610424  1
  O  O32  1  0.117432  0.848880  0.943757  1
  O  O33  1  0.151120  0.882568  0.722909  1
  O  O34  1  0.731448  0.848880  0.389576  1
  O  O35  1  0.117432  0.268552  0.056243  1
