# generated using pymatgen
data_Lu8CdIn(PbAu4)2
_symmetry_space_group_name_H-M   'P 1'
_cell_length_a   7.99079800
_cell_length_b   7.99079800
_cell_length_c   7.18600000
_cell_angle_alpha   90.00000000
_cell_angle_beta   90.00000000
_cell_angle_gamma   90.00000000
_symmetry_Int_Tables_number   1
_chemical_formula_structural   Lu8CdIn(PbAu4)2
_chemical_formula_sum   'Lu8 Cd1 In1 Pb2 Au8'
_cell_volume   458.84659934
_cell_formula_units_Z   1
loop_
 _symmetry_equiv_pos_site_id
 _symmetry_equiv_pos_as_xyz
  1  'x, y, z'
loop_
 _atom_site_type_symbol
 _atom_site_label
 _atom_site_symmetry_multiplicity
 _atom_site_fract_x
 _atom_site_fract_y
 _atom_site_fract_z
 _atom_site_occupancy
  Lu  Lu0  1  0.843424  0.155599  0.500338  1
  Lu  Lu1  1  0.156576  0.844401  0.500338  1
  Lu  Lu2  1  0.344401  0.343424  0.999662  1
  Lu  Lu3  1  0.655599  0.656576  0.999662  1
  Lu  Lu4  1  0.680944  0.682225  0.500357  1
  Lu  Lu5  1  0.319056  0.317775  0.500357  1
  Lu  Lu6  1  0.182226  0.819056  0.999643  1
  Lu  Lu7  1  0.817775  0.180945  0.999643  1
  Cd  Cd8  1  0.500000  0.000000  0.750000  1
  In  In9  1  0.000000  0.500000  0.250000  1
  Pb  Pb10  1  0.500000  0.000000  0.250000  1
  Pb  Pb11  1  0.000000  0.500000  0.750000  1
  Au  Au12  1  0.631398  0.375018  0.275111  1
  Au  Au13  1  0.368602  0.624982  0.275111  1
  Au  Au14  1  0.132611  0.124326  0.774860  1
  Au  Au15  1  0.867389  0.875674  0.774860  1
  Au  Au16  1  0.375674  0.632611  0.725140  1
  Au  Au17  1  0.624326  0.367389  0.725140  1
  Au  Au18  1  0.875018  0.868602  0.224889  1
  Au  Au19  1  0.124982  0.131398  0.224889  1
