# generated using pymatgen
data_Zn49Ni29
_symmetry_space_group_name_H-M   'P 1'
_cell_length_a   2.66566900
_cell_length_b   6.70051127
_cell_length_c   57.12026800
_cell_angle_alpha   93.36248129
_cell_angle_beta   90.00000000
_cell_angle_gamma   90.00000000
_symmetry_Int_Tables_number   1
_chemical_formula_structural   Zn49Ni29
_chemical_formula_sum   'Zn49 Ni29'
_cell_volume   1018.48842012
_cell_formula_units_Z   1
loop_
 _symmetry_equiv_pos_site_id
 _symmetry_equiv_pos_as_xyz
  1  'x, y, z'
loop_
 _atom_site_type_symbol
 _atom_site_label
 _atom_site_symmetry_multiplicity
 _atom_site_fract_x
 _atom_site_fract_y
 _atom_site_fract_z
 _atom_site_occupancy
  Zn  Zn0  1  0.000000  0.702763  0.137217  1
  Zn  Zn1  1  0.000000  0.454661  0.326045  1
  Zn  Zn2  1  0.000000  0.565546  0.862783  1
  Zn  Zn3  1  0.000000  0.265370  0.240777  1
  Zn  Zn4  1  0.000000  0.481371  0.280598  1
  Zn  Zn5  1  0.000000  0.256203  0.169357  1
  Zn  Zn6  1  0.000000  0.678338  0.067535  1
  Zn  Zn7  1  0.000000  0.706845  0.821068  1
  Zn  Zn8  1  0.000000  0.933798  0.551476  1
  Zn  Zn9  1  0.000000  0.485377  0.654995  1
  Zn  Zn10  1  0.000000  0.610803  0.932465  1
  Zn  Zn11  1  0.000000  0.194768  0.875027  1
  Zn  Zn12  1  0.000000  0.884138  0.225707  1
  Zn  Zn13  1  0.000000  0.086846  0.830643  1
  Zn  Zn14  1  0.000000  0.944542  0.102930  1
  Zn  Zn15  1  0.000000  0.581451  0.574344  1
  Zn  Zn16  1  0.000000  0.624827  0.414211  1
  Zn  Zn17  1  0.000000  0.319741  0.124973  1
  Zn  Zn18  1  0.000000  0.390033  0.000000  1
  Zn  Zn19  1  0.000000  0.382322  0.448524  1
  Zn  Zn20  1  0.000000  0.073133  0.310386  1
  Zn  Zn21  1  0.000000  0.024594  0.759223  1
  Zn  Zn22  1  0.000000  0.079720  0.381675  1
  Zn  Zn23  1  0.000000  0.200774  0.719402  1
  Zn  Zn24  1  0.000000  0.128617  0.673955  1
  Zn  Zn25  1  0.000000  0.841612  0.897070  1
  Zn  Zn26  1  0.000000  0.830381  0.345005  1
  Zn  Zn27  1  0.000000  0.210615  0.585789  1
  Zn  Zn28  1  0.000000  0.551134  0.526475  1
  Zn  Zn29  1  0.000000  0.698045  0.618325  1
  Zn  Zn30  1  0.000000  0.306124  0.077245  1
  Zn  Zn31  1  0.000000  0.007108  0.425656  1
  Zn  Zn32  1  0.000000  0.850201  0.271112  1
  Zn  Zn33  1  0.000000  0.449983  0.372517  1
  Zn  Zn34  1  0.000000  0.579089  0.728888  1
  Zn  Zn35  1  0.000000  0.024659  0.473525  1
  Zn  Zn36  1  0.000000  0.116054  0.965491  1
  Zn  Zn37  1  0.000000  0.658432  0.774293  1
  Zn  Zn38  1  0.000000  0.762746  0.689614  1
  Zn  Zn39  1  0.000000  0.300568  0.793601  1
  Zn  Zn40  1  0.000000  0.885776  0.178932  1
  Zn  Zn41  1  0.000000  0.652279  0.483413  1
  Zn  Zn42  1  0.000000  0.743454  0.975939  1
  Zn  Zn43  1  0.000000  0.077466  0.627483  1
  Zn  Zn44  1  0.000000  0.150563  0.034509  1
  Zn  Zn45  1  0.000000  0.506968  0.206399  1
  Zn  Zn46  1  0.000000  0.767516  0.024061  1
  Zn  Zn47  1  0.000000  0.228879  0.922755  1
  Zn  Zn48  1  0.000000  0.168866  0.516587  1
  Ni  Ni49  1  0.500000  0.890376  0.724589  1
  Ni  Ni50  1  0.500000  0.890639  0.589501  1
  Ni  Ni51  1  0.500000  0.943011  0.795324  1
  Ni  Ni52  1  0.500000  0.337798  0.486233  1
  Ni  Ni53  1  0.500000  0.431616  0.962094  1
  Ni  Ni54  1  0.500000  0.926644  0.934461  1
  Ni  Ni55  1  0.500000  0.165788  0.275411  1
  Ni  Ni56  1  0.500000  0.188881  0.346526  1
  Ni  Ni57  1  0.500000  0.359623  0.756030  1
  Ni  Ni58  1  0.500000  0.425167  0.692470  1
  Ni  Ni59  1  0.500000  0.147687  0.204676  1
  Ni  Ni60  1  0.500000  0.469520  0.037906  1
  Ni  Ni61  1  0.500000  0.011703  0.000000  1
  Ni  Ni62  1  0.500000  0.603593  0.243970  1
  Ni  Ni63  1  0.500000  0.732697  0.307530  1
  Ni  Ni64  1  0.500000  0.309495  0.551051  1
  Ni  Ni65  1  0.500000  0.758444  0.448949  1
  Ni  Ni66  1  0.500000  0.851564  0.513767  1
  Ni  Ni67  1  0.500000  0.400704  0.830101  1
  Ni  Ni68  1  0.500000  0.570603  0.169899  1
  Ni  Ni69  1  0.500000  0.887736  0.859060  1
  Ni  Ni70  1  0.500000  0.469428  0.897839  1
  Ni  Ni71  1  0.500000  0.992184  0.065539  1
  Ni  Ni72  1  0.500000  0.765539  0.381847  1
  Ni  Ni73  1  0.500000  0.383693  0.618153  1
  Ni  Ni74  1  0.500000  0.301139  0.410499  1
  Ni  Ni75  1  0.500000  0.571589  0.102161  1
  Ni  Ni76  1  0.500000  0.028676  0.140940  1
  Ni  Ni77  1  0.500000  0.842355  0.653474  1
