# generated using pymatgen
data_Tm8Zr11Si16Ag
_symmetry_space_group_name_H-M   'P 1'
_cell_length_a   7.05008538
_cell_length_b   7.26252313
_cell_length_c   13.89417800
_cell_angle_alpha   90.00000000
_cell_angle_beta   90.00000000
_cell_angle_gamma   89.72425956
_symmetry_Int_Tables_number   1
_chemical_formula_structural   Tm8Zr11Si16Ag
_chemical_formula_sum   'Tm8 Zr11 Si16 Ag1'
_cell_volume   711.39324036
_cell_formula_units_Z   1
loop_
 _symmetry_equiv_pos_site_id
 _symmetry_equiv_pos_as_xyz
  1  'x, y, z'
loop_
 _atom_site_type_symbol
 _atom_site_label
 _atom_site_symmetry_multiplicity
 _atom_site_fract_x
 _atom_site_fract_y
 _atom_site_fract_z
 _atom_site_occupancy
  Tm  Tm0  1  0.011921  0.176299  0.098646  1
  Tm  Tm1  1  0.986862  0.818820  0.902524  1
  Tm  Tm2  1  0.483983  0.674489  0.902447  1
  Tm  Tm3  1  0.986862  0.818820  0.597476  1
  Tm  Tm4  1  0.512570  0.323536  0.096224  1
  Tm  Tm5  1  0.011921  0.176299  0.401354  1
  Tm  Tm6  1  0.512570  0.323536  0.403776  1
  Tm  Tm7  1  0.483983  0.674489  0.597553  1
  Zr  Zr8  1  0.842432  0.503504  0.250000  1
  Zr  Zr9  1  0.341494  0.999818  0.250000  1
  Zr  Zr10  1  0.656223  0.999074  0.750000  1
  Zr  Zr11  1  0.322807  0.181741  0.626563  1
  Zr  Zr12  1  0.670008  0.822205  0.376175  1
  Zr  Zr13  1  0.170988  0.681491  0.375489  1
  Zr  Zr14  1  0.670008  0.822205  0.123825  1
  Zr  Zr15  1  0.840999  0.322061  0.626353  1
  Zr  Zr16  1  0.322807  0.181741  0.873437  1
  Zr  Zr17  1  0.840999  0.322061  0.873647  1
  Zr  Zr18  1  0.170988  0.681491  0.124511  1
  Si  Si19  1  0.028978  0.093362  0.750000  1
  Si  Si20  1  0.964944  0.886438  0.250000  1
  Si  Si21  1  0.466798  0.614983  0.250000  1
  Si  Si22  1  0.538100  0.382132  0.750000  1
  Si  Si23  1  0.286461  0.874972  0.750000  1
  Si  Si24  1  0.715669  0.129857  0.250000  1
  Si  Si25  1  0.217383  0.371638  0.250000  1
  Si  Si26  1  0.775019  0.627371  0.750000  1
  Si  Si27  1  0.162678  0.462533  0.530960  1
  Si  Si28  1  0.841364  0.531726  0.461356  1
  Si  Si29  1  0.342580  0.970694  0.461151  1
  Si  Si30  1  0.841364  0.531726  0.038644  1
  Si  Si31  1  0.655827  0.032850  0.542262  1
  Si  Si32  1  0.162678  0.462533  0.969040  1
  Si  Si33  1  0.655827  0.032850  0.957738  1
  Si  Si34  1  0.342580  0.970694  0.038849  1
  Ag  Ag35  1  0.161323  0.519959  0.750000  1
