# generated using pymatgen
data_ErTmPa2(ZnRh)4
_symmetry_space_group_name_H-M   'P 1'
_cell_length_a   3.80734900
_cell_length_b   7.12376108
_cell_length_c   8.38902748
_cell_angle_alpha   91.46574736
_cell_angle_beta   90.00000000
_cell_angle_gamma   90.00000000
_symmetry_Int_Tables_number   1
_chemical_formula_structural   ErTmPa2(ZnRh)4
_chemical_formula_sum   'Er1 Tm1 Pa2 Zn4 Rh4'
_cell_volume   227.45816162
_cell_formula_units_Z   1
loop_
 _symmetry_equiv_pos_site_id
 _symmetry_equiv_pos_as_xyz
  1  'x, y, z'
loop_
 _atom_site_type_symbol
 _atom_site_label
 _atom_site_symmetry_multiplicity
 _atom_site_fract_x
 _atom_site_fract_y
 _atom_site_fract_z
 _atom_site_occupancy
  Er  Er0  1  0.750000  0.942528  0.684300  1
  Tm  Tm1  1  0.250000  0.057572  0.315377  1
  Pa  Pa2  1  0.250000  0.553407  0.189734  1
  Pa  Pa3  1  0.750000  0.446617  0.810314  1
  Zn  Zn4  1  0.250000  0.631642  0.558638  1
  Zn  Zn5  1  0.750000  0.368002  0.441099  1
  Zn  Zn6  1  0.750000  0.885385  0.061805  1
  Zn  Zn7  1  0.250000  0.114833  0.938641  1
  Rh  Rh8  1  0.250000  0.716627  0.878397  1
  Rh  Rh9  1  0.750000  0.282777  0.122005  1
  Rh  Rh10  1  0.750000  0.749840  0.357786  1
  Rh  Rh11  1  0.250000  0.250772  0.641905  1
