# generated using pymatgen
data_LaY(BIr)8
_symmetry_space_group_name_H-M   'P 1'
_cell_length_a   7.68791400
_cell_length_b   7.68791400
_cell_length_c   3.98752100
_cell_angle_alpha   90.00000000
_cell_angle_beta   90.00000000
_cell_angle_gamma   90.00000000
_symmetry_Int_Tables_number   1
_chemical_formula_structural   LaY(BIr)8
_chemical_formula_sum   'La1 Y1 B8 Ir8'
_cell_volume   235.67852760
_cell_formula_units_Z   1
loop_
 _symmetry_equiv_pos_site_id
 _symmetry_equiv_pos_as_xyz
  1  'x, y, z'
loop_
 _atom_site_type_symbol
 _atom_site_label
 _atom_site_symmetry_multiplicity
 _atom_site_fract_x
 _atom_site_fract_y
 _atom_site_fract_z
 _atom_site_occupancy
  La  La0  1  0.000000  0.000000  0.000000  1
  Y  Y1  1  0.500000  0.500000  0.500000  1
  B  B2  1  0.342293  0.777056  0.888411  1
  B  B3  1  0.657707  0.222944  0.888411  1
  B  B4  1  0.777056  0.657707  0.111589  1
  B  B5  1  0.222944  0.342293  0.111589  1
  B  B6  1  0.280913  0.158586  0.392457  1
  B  B7  1  0.719087  0.841414  0.392457  1
  B  B8  1  0.841414  0.280913  0.607543  1
  B  B9  1  0.158586  0.719087  0.607543  1
  Ir  Ir10  1  0.391428  0.162311  0.889491  1
  Ir  Ir11  1  0.608572  0.837689  0.889491  1
  Ir  Ir12  1  0.837689  0.391428  0.110509  1
  Ir  Ir13  1  0.162311  0.608572  0.110509  1
  Ir  Ir14  1  0.343278  0.889650  0.389609  1
  Ir  Ir15  1  0.656722  0.110350  0.389609  1
  Ir  Ir16  1  0.889650  0.656722  0.610391  1
  Ir  Ir17  1  0.110350  0.343278  0.610391  1
