# generated using pymatgen
data_LaYCdIn2Hg
_symmetry_space_group_name_H-M   'P 1'
_cell_length_a   4.92436500
_cell_length_b   4.92436509
_cell_length_c   7.70481000
_cell_angle_alpha   90.00000000
_cell_angle_beta   90.00000000
_cell_angle_gamma   120.00000613
_symmetry_Int_Tables_number   1
_chemical_formula_structural   LaYCdIn2Hg
_chemical_formula_sum   'La1 Y1 Cd1 In2 Hg1'
_cell_volume   161.80540242
_cell_formula_units_Z   1
loop_
 _symmetry_equiv_pos_site_id
 _symmetry_equiv_pos_as_xyz
  1  'x, y, z'
loop_
 _atom_site_type_symbol
 _atom_site_label
 _atom_site_symmetry_multiplicity
 _atom_site_fract_x
 _atom_site_fract_y
 _atom_site_fract_z
 _atom_site_occupancy
  La  La0  1  0.000000  0.000000  0.003848  1
  Y  Y1  1  0.000000  0.000000  0.508604  1
  Cd  Cd2  1  0.666667  0.333333  0.222515  1
  In  In3  1  0.333333  0.666667  0.290695  1
  In  In4  1  0.666667  0.333333  0.783590  1
  Hg  Hg5  1  0.333333  0.666667  0.690749  1
