# generated using pymatgen
data_Ba4Sr8Si15As
_symmetry_space_group_name_H-M   'P 1'
_cell_length_a   8.41750703
_cell_length_b   8.41750694
_cell_length_c   11.13659463
_cell_angle_alpha   90.08532658
_cell_angle_beta   90.08533027
_cell_angle_gamma   90.37767395
_symmetry_Int_Tables_number   1
_chemical_formula_structural   Ba4Sr8Si15As
_chemical_formula_sum   'Ba4 Sr8 Si15 As1'
_cell_volume   789.05809225
_cell_formula_units_Z   1
loop_
 _symmetry_equiv_pos_site_id
 _symmetry_equiv_pos_as_xyz
  1  'x, y, z'
loop_
 _atom_site_type_symbol
 _atom_site_label
 _atom_site_symmetry_multiplicity
 _atom_site_fract_x
 _atom_site_fract_y
 _atom_site_fract_z
 _atom_site_occupancy
  Ba  Ba0  1  0.667112  0.667112  0.002040  1
  Ba  Ba1  1  0.831721  0.169579  0.499881  1
  Ba  Ba2  1  0.169579  0.831721  0.499881  1
  Ba  Ba3  1  0.334430  0.334430  0.999607  1
  Sr  Sr4  1  0.497800  0.001898  0.747046  1
  Sr  Sr5  1  0.499566  0.003047  0.252323  1
  Sr  Sr6  1  0.001898  0.497800  0.747046  1
  Sr  Sr7  1  0.003047  0.499566  0.252323  1
  Sr  Sr8  1  0.002147  0.002147  0.833033  1
  Sr  Sr9  1  0.497120  0.497120  0.332444  1
  Sr  Sr10  1  0.499571  0.499571  0.666365  1
  Sr  Sr11  1  0.001171  0.001171  0.168997  1
  Si  Si12  1  0.205711  0.205711  0.658273  1
  Si  Si13  1  0.789712  0.789712  0.338113  1
  Si  Si14  1  0.296448  0.704842  0.157891  1
  Si  Si15  1  0.704842  0.296448  0.157891  1
  Si  Si16  1  0.705581  0.295731  0.841564  1
  Si  Si17  1  0.295731  0.705581  0.841564  1
  Si  Si18  1  0.206151  0.206151  0.343712  1
  Si  Si19  1  0.703391  0.096343  0.999472  1
  Si  Si20  1  0.298890  0.905553  0.000231  1
  Si  Si21  1  0.096343  0.703391  0.999472  1
  Si  Si22  1  0.591927  0.798470  0.495076  1
  Si  Si23  1  0.905553  0.298890  0.000231  1
  Si  Si24  1  0.199319  0.406973  0.501295  1
  Si  Si25  1  0.798470  0.591927  0.495076  1
  Si  Si26  1  0.406973  0.199319  0.501295  1
  As  As27  1  0.789794  0.789794  0.667861  1
