# generated using pymatgen
data_TbBi3RuRh3O14
_symmetry_space_group_name_H-M   'P 1'
_cell_length_a   7.29431039
_cell_length_b   7.29431100
_cell_length_c   7.29431173
_cell_angle_alpha   60.38104449
_cell_angle_beta   60.38104612
_cell_angle_gamma   60.38104670
_symmetry_Int_Tables_number   1
_chemical_formula_structural   TbBi3RuRh3O14
_chemical_formula_sum   'Tb1 Bi3 Ru1 Rh3 O14'
_cell_volume   276.79909280
_cell_formula_units_Z   1
loop_
 _symmetry_equiv_pos_site_id
 _symmetry_equiv_pos_as_xyz
  1  'x, y, z'
loop_
 _atom_site_type_symbol
 _atom_site_label
 _atom_site_symmetry_multiplicity
 _atom_site_fract_x
 _atom_site_fract_y
 _atom_site_fract_z
 _atom_site_occupancy
  Tb  Tb0  1  0.125000  0.125000  0.125000  1
  Bi  Bi1  1  0.125000  0.625000  0.125000  1
  Bi  Bi2  1  0.625000  0.125000  0.125000  1
  Bi  Bi3  1  0.125000  0.125000  0.625000  1
  Ru  Ru4  1  0.625000  0.625000  0.625000  1
  Rh  Rh5  1  0.625000  0.625000  0.125000  1
  Rh  Rh6  1  0.125000  0.625000  0.625000  1
  Rh  Rh7  1  0.625000  0.125000  0.625000  1
  O  O8  1  0.249177  0.249177  0.249177  1
  O  O9  1  0.288159  0.714795  0.288159  1
  O  O10  1  0.961841  0.961841  0.535205  1
  O  O11  1  0.545487  0.951651  0.545487  1
  O  O12  1  0.704513  0.704513  0.298349  1
  O  O13  1  0.951651  0.545487  0.545487  1
  O  O14  1  0.704513  0.298349  0.704513  1
  O  O15  1  0.288159  0.288159  0.714795  1
  O  O16  1  0.714795  0.288159  0.288159  1
  O  O17  1  0.298349  0.704513  0.704513  1
  O  O18  1  0.961841  0.535205  0.961841  1
  O  O19  1  0.545487  0.545487  0.951651  1
  O  O20  1  0.000823  0.000823  0.000823  1
  O  O21  1  0.535205  0.961841  0.961841  1
