# generated using pymatgen
data_Nd8Be3Si12Pd
_symmetry_space_group_name_H-M   'P 1'
_cell_length_a   8.03991200
_cell_length_b   8.03991233
_cell_length_c   8.56189600
_cell_angle_alpha   90.00000000
_cell_angle_beta   90.00000000
_cell_angle_gamma   119.99999039
_symmetry_Int_Tables_number   1
_chemical_formula_structural   Nd8Be3Si12Pd
_chemical_formula_sum   'Nd8 Be3 Si12 Pd1'
_cell_volume   479.29536649
_cell_formula_units_Z   1
loop_
 _symmetry_equiv_pos_site_id
 _symmetry_equiv_pos_as_xyz
  1  'x, y, z'
loop_
 _atom_site_type_symbol
 _atom_site_label
 _atom_site_symmetry_multiplicity
 _atom_site_fract_x
 _atom_site_fract_y
 _atom_site_fract_z
 _atom_site_occupancy
  Nd  Nd0  1  0.498583  0.501417  0.752096  1
  Nd  Nd1  1  0.498522  0.501478  0.247961  1
  Nd  Nd2  1  0.002834  0.501417  0.752096  1
  Nd  Nd3  1  0.002956  0.501478  0.247961  1
  Nd  Nd4  1  0.498583  0.997166  0.752096  1
  Nd  Nd5  1  0.498522  0.997044  0.247961  1
  Nd  Nd6  1  0.000000  0.000000  0.750100  1
  Nd  Nd7  1  0.000000  0.000000  0.250033  1
  Be  Be8  1  0.666667  0.333333  0.998487  1
  Be  Be9  1  0.333333  0.666667  0.001425  1
  Be  Be10  1  0.333333  0.666667  0.499011  1
  Si  Si11  1  0.827803  0.172197  0.999940  1
  Si  Si12  1  0.172009  0.827991  0.000224  1
  Si  Si13  1  0.344395  0.172197  0.999940  1
  Si  Si14  1  0.170311  0.829689  0.499613  1
  Si  Si15  1  0.655982  0.827991  0.000224  1
  Si  Si16  1  0.833444  0.166556  0.500277  1
  Si  Si17  1  0.827803  0.655605  0.999940  1
  Si  Si18  1  0.659379  0.829689  0.499613  1
  Si  Si19  1  0.172009  0.344018  0.000224  1
  Si  Si20  1  0.333111  0.166556  0.500277  1
  Si  Si21  1  0.170311  0.340621  0.499613  1
  Si  Si22  1  0.833444  0.666889  0.500277  1
  Pd  Pd23  1  0.666667  0.333333  0.500612  1
