# generated using pymatgen
data_ErZr2ReF15
_symmetry_space_group_name_H-M   'P 1'
_cell_length_a   8.13913251
_cell_length_b   8.13913195
_cell_length_c   8.13283534
_cell_angle_alpha   79.85386064
_cell_angle_beta   79.85385758
_cell_angle_gamma   100.12864144
_symmetry_Int_Tables_number   1
_chemical_formula_structural   ErZr2ReF15
_chemical_formula_sum   'Er2 Zr4 Re2 F30'
_cell_volume   510.00585070
_cell_formula_units_Z   2
loop_
 _symmetry_equiv_pos_site_id
 _symmetry_equiv_pos_as_xyz
  1  'x, y, z'
loop_
 _atom_site_type_symbol
 _atom_site_label
 _atom_site_symmetry_multiplicity
 _atom_site_fract_x
 _atom_site_fract_y
 _atom_site_fract_z
 _atom_site_occupancy
  Er  Er0  1  0.677579  0.322421  0.750000  1
  Er  Er1  1  0.322421  0.677579  0.250000  1
  Zr  Zr2  1  0.822618  0.750885  0.326117  1
  Zr  Zr3  1  0.249115  0.177382  0.173883  1
  Zr  Zr4  1  0.177382  0.249115  0.673883  1
  Zr  Zr5  1  0.750885  0.822618  0.826117  1
  Re  Re6  1  0.250347  0.749653  0.750000  1
  Re  Re7  1  0.749653  0.250347  0.250000  1
  F  F8  1  0.149424  0.183655  0.946465  1
  F  F9  1  0.687111  0.562944  0.848318  1
  F  F10  1  0.041213  0.654625  0.316219  1
  F  F11  1  0.654625  0.041213  0.816219  1
  F  F12  1  0.562944  0.687111  0.348318  1
  F  F13  1  0.183655  0.149424  0.446465  1
  F  F14  1  0.850576  0.816345  0.053535  1
  F  F15  1  0.312889  0.437056  0.151682  1
  F  F16  1  0.958787  0.345375  0.683781  1
  F  F17  1  0.345375  0.958787  0.183781  1
  F  F18  1  0.437056  0.312889  0.651682  1
  F  F19  1  0.816345  0.850576  0.553535  1
  F  F20  1  0.967237  0.032763  0.750000  1
  F  F21  1  0.543772  0.752315  0.029739  1
  F  F22  1  0.247685  0.456228  0.470261  1
  F  F23  1  0.456228  0.247685  0.970261  1
  F  F24  1  0.752315  0.543772  0.529739  1
  F  F25  1  0.032763  0.967237  0.250000  1
  F  F26  1  0.218842  0.725323  0.000002  1
  F  F27  1  0.225257  0.497831  0.783062  1
  F  F28  1  0.997849  0.720389  0.776067  1
  F  F29  1  0.720389  0.997849  0.276067  1
  F  F30  1  0.497831  0.225257  0.283062  1
  F  F31  1  0.725323  0.218842  0.500002  1
  F  F32  1  0.781158  0.274677  0.999998  1
  F  F33  1  0.774743  0.502169  0.216938  1
  F  F34  1  0.002151  0.279611  0.223933  1
  F  F35  1  0.279611  0.002151  0.723933  1
  F  F36  1  0.502169  0.774743  0.716938  1
  F  F37  1  0.274677  0.781158  0.499998  1
