# generated using pymatgen
data_Ba10VTcN10
_symmetry_space_group_name_H-M   'P 1'
_cell_length_a   8.09870232
_cell_length_b   8.09870204
_cell_length_c   9.54129840
_cell_angle_alpha   76.14722826
_cell_angle_beta   76.14722994
_cell_angle_gamma   96.66637412
_symmetry_Int_Tables_number   1
_chemical_formula_structural   Ba10VTcN10
_chemical_formula_sum   'Ba10 V1 Tc1 N10'
_cell_volume   579.86157434
_cell_formula_units_Z   1
loop_
 _symmetry_equiv_pos_site_id
 _symmetry_equiv_pos_as_xyz
  1  'x, y, z'
loop_
 _atom_site_type_symbol
 _atom_site_label
 _atom_site_symmetry_multiplicity
 _atom_site_fract_x
 _atom_site_fract_y
 _atom_site_fract_z
 _atom_site_occupancy
  Ba  Ba0  1  0.386888  0.391553  0.384097  1
  Ba  Ba1  1  0.608447  0.613112  0.615903  1
  Ba  Ba2  1  0.663698  0.667056  0.008754  1
  Ba  Ba3  1  0.332944  0.336302  0.991246  1
  Ba  Ba4  1  0.929293  0.916046  0.202114  1
  Ba  Ba5  1  0.083954  0.070707  0.797886  1
  Ba  Ba6  1  0.555128  0.087898  0.755568  1
  Ba  Ba7  1  0.912102  0.444872  0.244432  1
  Ba  Ba8  1  0.427261  0.897242  0.245124  1
  Ba  Ba9  1  0.102758  0.572739  0.754876  1
  V  V10  1  0.242952  0.757048  0.000000  1
  Tc  Tc11  1  0.757176  0.242824  0.000000  1
  N  N12  1  0.652883  0.652235  0.310429  1
  N  N13  1  0.347765  0.347117  0.689571  1
  N  N14  1  0.714863  0.018733  0.990070  1
  N  N15  1  0.981267  0.285137  0.009930  1
  N  N16  1  0.284747  0.982480  0.007484  1
  N  N17  1  0.017520  0.715253  0.992516  1
  N  N18  1  0.390910  0.731346  0.831072  1
  N  N19  1  0.268654  0.609090  0.168927  1
  N  N20  1  0.607588  0.268800  0.167282  1
  N  N21  1  0.731200  0.392412  0.832717  1
