# generated using pymatgen
data_Be4NbZnRu4
_symmetry_space_group_name_H-M   'P 1'
_cell_length_a   6.25653700
_cell_length_b   6.25653700
_cell_length_c   3.02236600
_cell_angle_alpha   90.00000000
_cell_angle_beta   90.00000000
_cell_angle_gamma   90.00000000
_symmetry_Int_Tables_number   1
_chemical_formula_structural   Be4NbZnRu4
_chemical_formula_sum   'Be4 Nb1 Zn1 Ru4'
_cell_volume   118.30826611
_cell_formula_units_Z   1
loop_
 _symmetry_equiv_pos_site_id
 _symmetry_equiv_pos_as_xyz
  1  'x, y, z'
loop_
 _atom_site_type_symbol
 _atom_site_label
 _atom_site_symmetry_multiplicity
 _atom_site_fract_x
 _atom_site_fract_y
 _atom_site_fract_z
 _atom_site_occupancy
  Be  Be0  1  0.132836  0.609753  0.000000  1
  Be  Be1  1  0.867164  0.390247  0.000000  1
  Be  Be2  1  0.609753  0.867164  0.000000  1
  Be  Be3  1  0.390247  0.132836  0.000000  1
  Nb  Nb4  1  0.000000  0.000000  0.000000  1
  Zn  Zn5  1  0.500000  0.500000  0.000000  1
  Ru  Ru6  1  0.678441  0.158731  0.500000  1
  Ru  Ru7  1  0.321559  0.841269  0.500000  1
  Ru  Ru8  1  0.158731  0.321559  0.500000  1
  Ru  Ru9  1  0.841269  0.678441  0.500000  1
