# generated using pymatgen
data_Tb7Dy2ThRu4
_symmetry_space_group_name_H-M   'P 1'
_cell_length_a   8.64158648
_cell_length_b   8.59955870
_cell_length_c   7.26979512
_cell_angle_alpha   83.19304717
_cell_angle_beta   83.74283851
_cell_angle_gamma   43.51138514
_symmetry_Int_Tables_number   1
_chemical_formula_structural   Tb7Dy2ThRu4
_chemical_formula_sum   'Tb7 Dy2 Th1 Ru4'
_cell_volume   369.12732586
_cell_formula_units_Z   1
loop_
 _symmetry_equiv_pos_site_id
 _symmetry_equiv_pos_as_xyz
  1  'x, y, z'
loop_
 _atom_site_type_symbol
 _atom_site_label
 _atom_site_symmetry_multiplicity
 _atom_site_fract_x
 _atom_site_fract_y
 _atom_site_fract_z
 _atom_site_occupancy
  Tb  Tb0  1  0.208306  0.978487  0.585126  1
  Tb  Tb1  1  0.023263  0.792772  0.915392  1
  Tb  Tb2  1  0.204354  0.359450  0.315250  1
  Tb  Tb3  1  0.641292  0.790341  0.185594  1
  Tb  Tb4  1  0.789638  0.642430  0.687035  1
  Tb  Tb5  1  0.357345  0.207860  0.813243  1
  Tb  Tb6  1  0.980047  0.208512  0.083328  1
  Dy  Dy7  1  0.577272  0.422421  0.749883  1
  Dy  Dy8  1  0.423724  0.578401  0.247779  1
  Th  Th9  1  0.800029  0.012548  0.407940  1
  Ru  Ru10  1  0.161602  0.618586  0.570742  1
  Ru  Ru11  1  0.399530  0.823293  0.924546  1
  Ru  Ru12  1  0.823793  0.394040  0.426011  1
  Ru  Ru13  1  0.609806  0.170856  0.088132  1
