# generated using pymatgen
data_Pr10CuSiBi6
_symmetry_space_group_name_H-M   'P 1'
_cell_length_a   9.75341100
_cell_length_b   9.75332679
_cell_length_c   6.68085300
_cell_angle_alpha   89.99969726
_cell_angle_beta   90.00015355
_cell_angle_gamma   119.99971535
_symmetry_Int_Tables_number   1
_chemical_formula_structural   Pr10CuSiBi6
_chemical_formula_sum   'Pr10 Cu1 Si1 Bi6'
_cell_volume   550.39324419
_cell_formula_units_Z   1
loop_
 _symmetry_equiv_pos_site_id
 _symmetry_equiv_pos_as_xyz
  1  'x, y, z'
loop_
 _atom_site_type_symbol
 _atom_site_label
 _atom_site_symmetry_multiplicity
 _atom_site_fract_x
 _atom_site_fract_y
 _atom_site_fract_z
 _atom_site_occupancy
  Pr  Pr0  1  0.666653  0.333326  0.000000  1
  Pr  Pr1  1  0.333347  0.666674  0.000000  1
  Pr  Pr2  1  0.333337  0.666669  0.500000  1
  Pr  Pr3  1  0.666663  0.333331  0.500000  1
  Pr  Pr4  1  0.747695  0.747698  0.753590  1
  Pr  Pr5  1  0.252305  0.000003  0.753590  1
  Pr  Pr6  1  0.000000  0.252292  0.753590  1
  Pr  Pr7  1  0.252305  0.252302  0.246410  1
  Pr  Pr8  1  0.747695  0.999997  0.246410  1
  Pr  Pr9  1  0.000000  0.747708  0.246410  1
  Cu  Cu10  1  0.000000  0.000000  0.500000  1
  Si  Si11  1  0.000000  0.000000  0.000000  1
  Bi  Bi12  1  0.386347  0.386349  0.749019  1
  Bi  Bi13  1  0.613653  0.000002  0.749019  1
  Bi  Bi14  1  0.000000  0.613649  0.749024  1
  Bi  Bi15  1  0.613653  0.613651  0.250981  1
  Bi  Bi16  1  0.386347  0.999998  0.250981  1
  Bi  Bi17  1  0.000000  0.386351  0.250976  1
