# generated using pymatgen
data_Y7FeO12
_symmetry_space_group_name_H-M   'P 1'
_cell_length_a   6.65431462
_cell_length_b   6.65431631
_cell_length_c   6.65431580
_cell_angle_alpha   93.23750765
_cell_angle_beta   93.23751444
_cell_angle_gamma   93.23751227
_symmetry_Int_Tables_number   1
_chemical_formula_structural   Y7FeO12
_chemical_formula_sum   'Y7 Fe1 O12'
_cell_volume   293.18614353
_cell_formula_units_Z   1
loop_
 _symmetry_equiv_pos_site_id
 _symmetry_equiv_pos_as_xyz
  1  'x, y, z'
loop_
 _atom_site_type_symbol
 _atom_site_label
 _atom_site_symmetry_multiplicity
 _atom_site_fract_x
 _atom_site_fract_y
 _atom_site_fract_z
 _atom_site_occupancy
  Y  Y0  1  0.739408  0.924916  0.436803  1
  Y  Y1  1  0.436803  0.739408  0.924916  1
  Y  Y2  1  0.075084  0.563197  0.260592  1
  Y  Y3  1  0.924916  0.436803  0.739408  1
  Y  Y4  1  0.563197  0.260592  0.075084  1
  Y  Y5  1  0.260592  0.075084  0.563197  1
  Y  Y6  1  0.000000  0.000000  0.000000  1
  Fe  Fe7  1  0.500000  0.500000  0.500000  1
  O  O8  1  0.067950  0.906029  0.318708  1
  O  O9  1  0.681292  0.932050  0.093971  1
  O  O10  1  0.462758  0.799511  0.588736  1
  O  O11  1  0.093971  0.681292  0.932050  1
  O  O12  1  0.799511  0.588736  0.462758  1
  O  O13  1  0.411264  0.537242  0.200489  1
  O  O14  1  0.588736  0.462758  0.799511  1
  O  O15  1  0.200489  0.411264  0.537242  1
  O  O16  1  0.906029  0.318708  0.067950  1
  O  O17  1  0.537242  0.200489  0.411264  1
  O  O18  1  0.318708  0.067950  0.906029  1
  O  O19  1  0.932050  0.093971  0.681292  1
