# generated using pymatgen
data_Mg3Zn19(SnRu3)2
_symmetry_space_group_name_H-M   'P 1'
_cell_length_a   5.30394335
_cell_length_b   5.31508017
_cell_length_c   17.13094297
_cell_angle_alpha   89.80272654
_cell_angle_beta   89.73051300
_cell_angle_gamma   97.23465879
_symmetry_Int_Tables_number   1
_chemical_formula_structural   Mg3Zn19(SnRu3)2
_chemical_formula_sum   'Mg3 Zn19 Sn2 Ru6'
_cell_volume   479.08236588
_cell_formula_units_Z   1
loop_
 _symmetry_equiv_pos_site_id
 _symmetry_equiv_pos_as_xyz
  1  'x, y, z'
loop_
 _atom_site_type_symbol
 _atom_site_label
 _atom_site_symmetry_multiplicity
 _atom_site_fract_x
 _atom_site_fract_y
 _atom_site_fract_z
 _atom_site_occupancy
  Mg  Mg0  1  0.875184  0.890334  0.838565  1
  Mg  Mg1  1  0.559382  0.942799  0.250068  1
  Mg  Mg2  1  0.055019  0.436891  0.748838  1
  Zn  Zn3  1  0.110514  0.115710  0.166810  1
  Zn  Zn4  1  0.881189  0.885353  0.665350  1
  Zn  Zn5  1  0.109158  0.114395  0.333478  1
  Zn  Zn6  1  0.504702  0.499523  0.001796  1
  Zn  Zn7  1  0.502472  0.496449  0.499714  1
  Zn  Zn8  1  0.336199  0.730548  0.875226  1
  Zn  Zn9  1  0.269002  0.673580  0.124783  1
  Zn  Zn10  1  0.325633  0.728801  0.623770  1
  Zn  Zn11  1  0.268795  0.671515  0.374976  1
  Zn  Zn12  1  0.653829  0.253119  0.126663  1
  Zn  Zn13  1  0.746341  0.359088  0.873360  1
  Zn  Zn14  1  0.651498  0.252383  0.372964  1
  Zn  Zn15  1  0.746073  0.344182  0.625978  1
  Zn  Zn16  1  0.019418  0.995418  0.002524  1
  Zn  Zn17  1  0.010470  0.987261  0.499329  1
  Zn  Zn18  1  0.521756  0.003601  0.995908  1
  Zn  Zn19  1  0.001734  0.489355  0.003106  1
  Zn  Zn20  1  0.515311  0.000368  0.503163  1
  Zn  Zn21  1  0.998971  0.483532  0.496148  1
  Sn  Sn22  1  0.415728  0.068357  0.749136  1
  Sn  Sn23  1  0.926665  0.578220  0.250083  1
  Ru  Ru24  1  0.246562  0.241150  0.894325  1
  Ru  Ru25  1  0.765947  0.761498  0.107539  1
  Ru  Ru26  1  0.237854  0.232341  0.605772  1
  Ru  Ru27  1  0.764243  0.759142  0.392885  1
  Ru  Ru28  1  0.566851  0.578709  0.748046  1
  Ru  Ru29  1  0.413499  0.426376  0.249699  1
