# generated using pymatgen
data_Tm8Cd2NiRu
_symmetry_space_group_name_H-M   'P 1'
_cell_length_a   9.45709817
_cell_length_b   9.45709900
_cell_length_c   9.53241900
_cell_angle_alpha   59.73619212
_cell_angle_beta   59.73618916
_cell_angle_gamma   59.40927438
_symmetry_Int_Tables_number   1
_chemical_formula_structural   Tm8Cd2NiRu
_chemical_formula_sum   'Tm16 Cd4 Ni2 Ru2'
_cell_volume   597.72257372
_cell_formula_units_Z   2
loop_
 _symmetry_equiv_pos_site_id
 _symmetry_equiv_pos_as_xyz
  1  'x, y, z'
loop_
 _atom_site_type_symbol
 _atom_site_label
 _atom_site_symmetry_multiplicity
 _atom_site_fract_x
 _atom_site_fract_y
 _atom_site_fract_z
 _atom_site_occupancy
  Tm  Tm0  1  0.349024  0.349024  0.342940  1
  Tm  Tm1  1  0.349024  0.349024  0.959013  1
  Tm  Tm2  1  0.352677  0.955726  0.345799  1
  Tm  Tm3  1  0.955726  0.352677  0.345799  1
  Tm  Tm4  1  0.811184  0.186631  0.188845  1
  Tm  Tm5  1  0.186631  0.811184  0.813341  1
  Tm  Tm6  1  0.186631  0.811184  0.188845  1
  Tm  Tm7  1  0.811184  0.186631  0.813341  1
  Tm  Tm8  1  0.187604  0.187604  0.812396  1
  Tm  Tm9  1  0.811499  0.811499  0.188501  1
  Tm  Tm10  1  0.937576  0.559992  0.566201  1
  Tm  Tm11  1  0.559992  0.937576  0.936231  1
  Tm  Tm12  1  0.559992  0.937576  0.566201  1
  Tm  Tm13  1  0.937576  0.559992  0.936231  1
  Tm  Tm14  1  0.564974  0.564974  0.935026  1
  Tm  Tm15  1  0.940620  0.940620  0.559380  1
  Cd  Cd16  1  0.579465  0.579465  0.582445  1
  Cd  Cd17  1  0.579465  0.579465  0.258626  1
  Cd  Cd18  1  0.579581  0.255988  0.582216  1
  Cd  Cd19  1  0.255988  0.579581  0.582216  1
  Ni  Ni20  1  0.142107  0.576118  0.140888  1
  Ni  Ni21  1  0.576118  0.142107  0.140888  1
  Ru  Ru22  1  0.142683  0.142683  0.141106  1
  Ru  Ru23  1  0.142683  0.142683  0.573528  1
