# generated using pymatgen
data_Nd5HoZn4Pt13
_symmetry_space_group_name_H-M   'P 1'
_cell_length_a   8.37080153
_cell_length_b   8.37080203
_cell_length_c   8.37080200
_cell_angle_alpha   109.51037561
_cell_angle_beta   109.51036957
_cell_angle_gamma   109.39294233
_symmetry_Int_Tables_number   1
_chemical_formula_structural   Nd5HoZn4Pt13
_chemical_formula_sum   'Nd5 Ho1 Zn4 Pt13'
_cell_volume   451.52177754
_cell_formula_units_Z   1
loop_
 _symmetry_equiv_pos_site_id
 _symmetry_equiv_pos_as_xyz
  1  'x, y, z'
loop_
 _atom_site_type_symbol
 _atom_site_label
 _atom_site_symmetry_multiplicity
 _atom_site_fract_x
 _atom_site_fract_y
 _atom_site_fract_z
 _atom_site_occupancy
  Nd  Nd0  1  0.301324  0.000345  0.300978  1
  Nd  Nd1  1  0.000345  0.301324  0.300978  1
  Nd  Nd2  1  0.297789  0.297789  0.000000  1
  Nd  Nd3  1  0.699367  0.000345  0.699022  1
  Nd  Nd4  1  0.000345  0.699367  0.699022  1
  Ho  Ho5  1  0.693850  0.693850  0.000000  1
  Zn  Zn6  1  0.001002  0.001002  0.498849  1
  Zn  Zn7  1  0.001002  0.502152  0.000000  1
  Zn  Zn8  1  0.502152  0.001002  0.000000  1
  Zn  Zn9  1  0.502152  0.502152  0.501151  1
  Pt  Pt10  1  0.334462  0.334462  0.666840  1
  Pt  Pt11  1  0.672468  0.998215  0.325748  1
  Pt  Pt12  1  0.998215  0.672468  0.325748  1
  Pt  Pt13  1  0.667620  0.334462  0.000000  1
  Pt  Pt14  1  0.329239  0.659416  0.330178  1
  Pt  Pt15  1  0.999060  0.329239  0.669822  1
  Pt  Pt16  1  0.334462  0.667620  0.000000  1
  Pt  Pt17  1  0.329239  0.999060  0.669822  1
  Pt  Pt18  1  0.659416  0.329239  0.330178  1
  Pt  Pt19  1  0.667620  0.667620  0.333160  1
  Pt  Pt20  1  0.672468  0.346721  0.674252  1
  Pt  Pt21  1  0.346721  0.672468  0.674252  1
  Pt  Pt22  1  0.989680  0.989680  0.000000  1
