# generated using pymatgen
data_Ca10ReSiN10
_symmetry_space_group_name_H-M   'P 1'
_cell_length_a   6.83805718
_cell_length_b   6.83805619
_cell_length_c   8.85375985
_cell_angle_alpha   80.57261884
_cell_angle_beta   80.57262078
_cell_angle_gamma   59.82275080
_symmetry_Int_Tables_number   1
_chemical_formula_structural   Ca10ReSiN10
_chemical_formula_sum   'Ca10 Re1 Si1 N10'
_cell_volume   351.43850803
_cell_formula_units_Z   1
loop_
 _symmetry_equiv_pos_site_id
 _symmetry_equiv_pos_as_xyz
  1  'x, y, z'
loop_
 _atom_site_type_symbol
 _atom_site_label
 _atom_site_symmetry_multiplicity
 _atom_site_fract_x
 _atom_site_fract_y
 _atom_site_fract_z
 _atom_site_occupancy
  Ca  Ca0  1  0.879737  0.350404  0.832166  1
  Ca  Ca1  1  0.874245  0.874245  0.823711  1
  Ca  Ca2  1  0.738633  0.738633  0.541352  1
  Ca  Ca3  1  0.743875  0.248265  0.517562  1
  Ca  Ca4  1  0.628883  0.141165  0.140593  1
  Ca  Ca5  1  0.350404  0.879737  0.832166  1
  Ca  Ca6  1  0.248265  0.743875  0.517562  1
  Ca  Ca7  1  0.243527  0.243527  0.505638  1
  Ca  Ca8  1  0.145593  0.145593  0.151604  1
  Ca  Ca9  1  0.141165  0.628883  0.140593  1
  Re  Re10  1  0.632629  0.632629  0.228240  1
  Si  Si11  1  0.368846  0.368846  0.768352  1
  N  N12  1  0.909181  0.473142  0.316211  1
  N  N13  1  0.996915  0.996915  0.018892  1
  N  N14  1  0.677321  0.677321  0.020576  1
  N  N15  1  0.526428  0.526428  0.698485  1
  N  N16  1  0.473142  0.909181  0.316211  1
  N  N17  1  0.531128  0.094091  0.680941  1
  N  N18  1  0.473643  0.473643  0.293999  1
  N  N19  1  0.323879  0.323879  0.971146  1
  N  N20  1  0.060756  0.060756  0.648865  1
  N  N21  1  0.094091  0.531128  0.680941  1
