# generated using pymatgen
data_Y2Lu10Os3Rh
_symmetry_space_group_name_H-M   'P 1'
_cell_length_a   7.30105255
_cell_length_b   8.87248300
_cell_length_c   6.22166702
_cell_angle_alpha   90.00000000
_cell_angle_beta   90.11378653
_cell_angle_gamma   90.00000000
_symmetry_Int_Tables_number   1
_chemical_formula_structural   Y2Lu10Os3Rh
_chemical_formula_sum   'Y2 Lu10 Os3 Rh1'
_cell_volume   403.02924245
_cell_formula_units_Z   1
loop_
 _symmetry_equiv_pos_site_id
 _symmetry_equiv_pos_as_xyz
  1  'x, y, z'
loop_
 _atom_site_type_symbol
 _atom_site_label
 _atom_site_symmetry_multiplicity
 _atom_site_fract_x
 _atom_site_fract_y
 _atom_site_fract_z
 _atom_site_occupancy
  Y  Y0  1  0.538658  0.250000  0.875671  1
  Y  Y1  1  0.036584  0.250000  0.626603  1
  Lu  Lu2  1  0.671270  0.058450  0.335959  1
  Lu  Lu3  1  0.178554  0.440616  0.166481  1
  Lu  Lu4  1  0.324585  0.563795  0.667052  1
  Lu  Lu5  1  0.822822  0.932128  0.829176  1
  Lu  Lu6  1  0.324585  0.936205  0.667052  1
  Lu  Lu7  1  0.822822  0.567872  0.829176  1
  Lu  Lu8  1  0.671270  0.441550  0.335959  1
  Lu  Lu9  1  0.178554  0.059384  0.166481  1
  Lu  Lu10  1  0.462458  0.750000  0.123276  1
  Lu  Lu11  1  0.963207  0.750000  0.371829  1
  Os  Os12  1  0.383719  0.250000  0.455224  1
  Os  Os13  1  0.117109  0.750000  0.962122  1
  Os  Os14  1  0.617707  0.750000  0.533674  1
  Rh  Rh15  1  0.886097  0.250000  0.054263  1
