# generated using pymatgen
data_Tm20Ir8OsRh3
_symmetry_space_group_name_H-M   'P 1'
_cell_length_a   10.71037300
_cell_length_b   10.71037300
_cell_length_c   6.33969400
_cell_angle_alpha   90.00000000
_cell_angle_beta   90.00000000
_cell_angle_gamma   90.00000000
_symmetry_Int_Tables_number   1
_chemical_formula_structural   Tm20Ir8OsRh3
_chemical_formula_sum   'Tm20 Ir8 Os1 Rh3'
_cell_volume   727.23954743
_cell_formula_units_Z   1
loop_
 _symmetry_equiv_pos_site_id
 _symmetry_equiv_pos_as_xyz
  1  'x, y, z'
loop_
 _atom_site_type_symbol
 _atom_site_label
 _atom_site_symmetry_multiplicity
 _atom_site_fract_x
 _atom_site_fract_y
 _atom_site_fract_z
 _atom_site_occupancy
  Tm  Tm0  1  0.290355  0.087829  0.377940  1
  Tm  Tm1  1  0.290211  0.911878  0.877543  1
  Tm  Tm2  1  0.709789  0.088122  0.877543  1
  Tm  Tm3  1  0.709645  0.912171  0.377940  1
  Tm  Tm4  1  0.588122  0.790211  0.877543  1
  Tm  Tm5  1  0.587829  0.209645  0.377940  1
  Tm  Tm6  1  0.412171  0.790355  0.377940  1
  Tm  Tm7  1  0.411878  0.209789  0.877543  1
  Tm  Tm8  1  0.207173  0.413002  0.619959  1
  Tm  Tm9  1  0.207844  0.587140  0.125353  1
  Tm  Tm10  1  0.792156  0.412860  0.125353  1
  Tm  Tm11  1  0.792827  0.586998  0.619959  1
  Tm  Tm12  1  0.912860  0.707844  0.125353  1
  Tm  Tm13  1  0.913002  0.292827  0.619959  1
  Tm  Tm14  1  0.086998  0.707173  0.619959  1
  Tm  Tm15  1  0.087140  0.292156  0.125353  1
  Tm  Tm16  1  0.000000  0.000000  0.500545  1
  Tm  Tm17  1  0.000000  0.000000  0.000428  1
  Tm  Tm18  1  0.500000  0.500000  0.000428  1
  Tm  Tm19  1  0.500000  0.500000  0.500545  1
  Ir  Ir20  1  0.845600  0.152456  0.249499  1
  Ir  Ir21  1  0.845890  0.847378  0.750057  1
  Ir  Ir22  1  0.154110  0.152622  0.750057  1
  Ir  Ir23  1  0.154400  0.847544  0.249499  1
  Ir  Ir24  1  0.652622  0.345890  0.750057  1
  Ir  Ir25  1  0.652456  0.654400  0.249499  1
  Ir  Ir26  1  0.347544  0.345600  0.249499  1
  Ir  Ir27  1  0.347378  0.654110  0.750057  1
  Os  Os28  1  0.000000  0.500000  0.374673  1
  Rh  Rh29  1  0.500000  0.000000  0.122401  1
  Rh  Rh30  1  0.500000  0.000000  0.622592  1
  Rh  Rh31  1  0.000000  0.500000  0.876985  1
