# generated using pymatgen
data_Y4OsCl4
_symmetry_space_group_name_H-M   'P 1'
_cell_length_a   8.59395173
_cell_length_b   8.59395283
_cell_length_c   6.54119098
_cell_angle_alpha   89.79147012
_cell_angle_beta   89.79147225
_cell_angle_gamma   89.44660894
_symmetry_Int_Tables_number   1
_chemical_formula_structural   Y4OsCl4
_chemical_formula_sum   'Y8 Os2 Cl8'
_cell_volume   483.07743322
_cell_formula_units_Z   2
loop_
 _symmetry_equiv_pos_site_id
 _symmetry_equiv_pos_as_xyz
  1  'x, y, z'
loop_
 _atom_site_type_symbol
 _atom_site_label
 _atom_site_symmetry_multiplicity
 _atom_site_fract_x
 _atom_site_fract_y
 _atom_site_fract_z
 _atom_site_occupancy
  Y  Y0  1  0.105572  0.740778  0.987432  1
  Y  Y1  1  0.259222  0.894428  0.512568  1
  Y  Y2  1  0.894428  0.259222  0.012568  1
  Y  Y3  1  0.740778  0.105572  0.487432  1
  Y  Y4  1  0.741771  0.895243  0.007846  1
  Y  Y5  1  0.104757  0.258229  0.492154  1
  Y  Y6  1  0.258229  0.104757  0.992154  1
  Y  Y7  1  0.895243  0.741771  0.507846  1
  Os  Os8  1  0.006529  0.993471  0.250000  1
  Os  Os9  1  0.993471  0.006529  0.750000  1
  Cl  Cl10  1  0.421158  0.820281  0.899764  1
  Cl  Cl11  1  0.179719  0.578842  0.600236  1
  Cl  Cl12  1  0.578842  0.179719  0.100236  1
  Cl  Cl13  1  0.820281  0.421158  0.399764  1
  Cl  Cl14  1  0.812179  0.581467  0.900361  1
  Cl  Cl15  1  0.418533  0.187821  0.599639  1
  Cl  Cl16  1  0.187821  0.418533  0.099639  1
  Cl  Cl17  1  0.581467  0.812179  0.400361  1
