# generated using pymatgen
data_Ti3CrTc2As2P
_symmetry_space_group_name_H-M   'P 1'
_cell_length_a   6.72924513
_cell_length_b   6.70093261
_cell_length_c   3.29809600
_cell_angle_alpha   90.00000000
_cell_angle_beta   90.00000000
_cell_angle_gamma   119.86090912
_symmetry_Int_Tables_number   1
_chemical_formula_structural   Ti3CrTc2As2P
_chemical_formula_sum   'Ti3 Cr1 Tc2 As2 P1'
_cell_volume   128.97410244
_cell_formula_units_Z   1
loop_
 _symmetry_equiv_pos_site_id
 _symmetry_equiv_pos_as_xyz
  1  'x, y, z'
loop_
 _atom_site_type_symbol
 _atom_site_label
 _atom_site_symmetry_multiplicity
 _atom_site_fract_x
 _atom_site_fract_y
 _atom_site_fract_z
 _atom_site_occupancy
  Ti  Ti0  1  0.392992  0.396180  0.500000  1
  Ti  Ti1  1  0.607008  0.003188  0.500000  1
  Ti  Ti2  1  0.000000  0.597618  0.500000  1
  Cr  Cr3  1  0.000000  0.249814  0.000000  1
  Tc  Tc4  1  0.751761  0.750535  0.000000  1
  Tc  Tc5  1  0.248239  0.998774  0.000000  1
  As  As6  1  0.670730  0.330418  0.000000  1
  As  As7  1  0.329270  0.659690  0.000000  1
  P  P8  1  0.000000  0.013781  0.500000  1
