# generated using pymatgen
data_Mg3Ti(AlPd5)2
_symmetry_space_group_name_H-M   'P 1'
_cell_length_a   4.11083000
_cell_length_b   5.51957917
_cell_length_c   10.79051436
_cell_angle_alpha   90.22927696
_cell_angle_beta   90.00000000
_cell_angle_gamma   90.00000000
_symmetry_Int_Tables_number   1
_chemical_formula_structural   Mg3Ti(AlPd5)2
_chemical_formula_sum   'Mg3 Ti1 Al2 Pd10'
_cell_volume   244.83536779
_cell_formula_units_Z   1
loop_
 _symmetry_equiv_pos_site_id
 _symmetry_equiv_pos_as_xyz
  1  'x, y, z'
loop_
 _atom_site_type_symbol
 _atom_site_label
 _atom_site_symmetry_multiplicity
 _atom_site_fract_x
 _atom_site_fract_y
 _atom_site_fract_z
 _atom_site_occupancy
  Mg  Mg0  1  0.500000  0.826832  0.642729  1
  Mg  Mg1  1  0.500000  0.669223  0.137753  1
  Mg  Mg2  1  0.500000  0.329541  0.858616  1
  Ti  Ti3  1  0.500000  0.172145  0.358511  1
  Al  Al4  1  0.000000  0.999287  0.999282  1
  Al  Al5  1  0.000000  0.503260  0.500760  1
  Pd  Pd6  1  0.500000  0.178186  0.111147  1
  Pd  Pd7  1  0.500000  0.817758  0.894745  1
  Pd  Pd8  1  0.500000  0.687576  0.393495  1
  Pd  Pd9  1  0.500000  0.313159  0.601055  1
  Pd  Pd10  1  0.000000  0.006023  0.497756  1
  Pd  Pd11  1  0.000000  0.495730  0.999434  1
  Pd  Pd12  1  0.000000  0.924931  0.243579  1
  Pd  Pd13  1  0.000000  0.080101  0.760480  1
  Pd  Pd14  1  0.000000  0.417834  0.262861  1
  Pd  Pd15  1  0.000000  0.578414  0.737797  1
