# generated using pymatgen
data_DySi4(RuRh)3
_symmetry_space_group_name_H-M   'P 1'
_cell_length_a   7.00790000
_cell_length_b   7.00789963
_cell_length_c   3.80440000
_cell_angle_alpha   90.00000000
_cell_angle_beta   90.00000000
_cell_angle_gamma   120.00000175
_symmetry_Int_Tables_number   1
_chemical_formula_structural   DySi4(RuRh)3
_chemical_formula_sum   'Dy1 Si4 Ru3 Rh3'
_cell_volume   161.80523409
_cell_formula_units_Z   1
loop_
 _symmetry_equiv_pos_site_id
 _symmetry_equiv_pos_as_xyz
  1  'x, y, z'
loop_
 _atom_site_type_symbol
 _atom_site_label
 _atom_site_symmetry_multiplicity
 _atom_site_fract_x
 _atom_site_fract_y
 _atom_site_fract_z
 _atom_site_occupancy
  Dy  Dy0  1  0.000000  0.000000  0.000000  1
  Si  Si1  1  0.333334  0.666667  0.000000  1
  Si  Si2  1  0.400493  0.200246  0.500000  1
  Si  Si3  1  0.799754  0.200246  0.500000  1
  Si  Si4  1  0.799755  0.599508  0.500000  1
  Ru  Ru5  1  0.534725  0.069449  0.000000  1
  Ru  Ru6  1  0.534725  0.465276  0.000000  1
  Ru  Ru7  1  0.930551  0.465276  0.000000  1
  Rh  Rh8  1  0.198642  0.397285  0.500000  1
  Rh  Rh9  1  0.198643  0.801359  0.500000  1
  Rh  Rh10  1  0.602715  0.801359  0.500000  1
