# generated using pymatgen
data_Er20Sn3Pb13
_symmetry_space_group_name_H-M   'P 1'
_cell_length_a   8.13991520
_cell_length_b   8.18462729
_cell_length_c   15.49281200
_cell_angle_alpha   90.00000000
_cell_angle_beta   90.00000000
_cell_angle_gamma   89.80979743
_symmetry_Int_Tables_number   1
_chemical_formula_structural   Er20Sn3Pb13
_chemical_formula_sum   'Er20 Sn3 Pb13'
_cell_volume   1032.15909951
_cell_formula_units_Z   1
loop_
 _symmetry_equiv_pos_site_id
 _symmetry_equiv_pos_as_xyz
  1  'x, y, z'
loop_
 _atom_site_type_symbol
 _atom_site_label
 _atom_site_symmetry_multiplicity
 _atom_site_fract_x
 _atom_site_fract_y
 _atom_site_fract_z
 _atom_site_occupancy
  Er  Er0  1  0.379507  0.838936  0.876549  1
  Er  Er1  1  0.878836  0.661678  0.623381  1
  Er  Er2  1  0.618623  0.161769  0.377709  1
  Er  Er3  1  0.123410  0.340776  0.121211  1
  Er  Er4  1  0.618623  0.161769  0.122291  1
  Er  Er5  1  0.123410  0.340776  0.378789  1
  Er  Er6  1  0.379507  0.838936  0.623451  1
  Er  Er7  1  0.878836  0.661678  0.876619  1
  Er  Er8  1  0.538156  0.327331  0.898283  1
  Er  Er9  1  0.037680  0.172251  0.601732  1
  Er  Er10  1  0.462386  0.672210  0.399574  1
  Er  Er11  1  0.962214  0.824164  0.099890  1
  Er  Er12  1  0.462386  0.672210  0.100426  1
  Er  Er13  1  0.962214  0.824164  0.400110  1
  Er  Er14  1  0.538156  0.327331  0.601717  1
  Er  Er15  1  0.037680  0.172251  0.898268  1
  Er  Er16  1  0.211194  0.507609  0.750000  1
  Er  Er17  1  0.711383  0.992652  0.750000  1
  Er  Er18  1  0.787632  0.494429  0.250000  1
  Er  Er19  1  0.290788  0.006608  0.250000  1
  Sn  Sn20  1  0.574697  0.624110  0.750000  1
  Sn  Sn21  1  0.074364  0.875876  0.750000  1
  Sn  Sn22  1  0.425119  0.375855  0.250000  1
  Pb  Pb23  1  0.281435  0.031871  0.041614  1
  Pb  Pb24  1  0.781874  0.467172  0.458553  1
  Pb  Pb25  1  0.717800  0.967940  0.541873  1
  Pb  Pb26  1  0.217988  0.532921  0.957361  1
  Pb  Pb27  1  0.717800  0.967940  0.958127  1
  Pb  Pb28  1  0.217988  0.532921  0.542639  1
  Pb  Pb29  1  0.281435  0.031871  0.458386  1
  Pb  Pb30  1  0.781874  0.467172  0.041447  1
  Pb  Pb31  1  0.926849  0.125317  0.250000  1
  Pb  Pb32  1  0.349189  0.153553  0.750000  1
  Pb  Pb33  1  0.848264  0.346922  0.750000  1
  Pb  Pb34  1  0.650111  0.845483  0.250000  1
  Pb  Pb35  1  0.150590  0.653550  0.250000  1
