# generated using pymatgen
data_Ti2Nb(FeB)3
_symmetry_space_group_name_H-M   'P 1'
_cell_length_a   5.98408485
_cell_length_b   6.02676250
_cell_length_c   3.05472300
_cell_angle_alpha   90.00000000
_cell_angle_beta   90.00000000
_cell_angle_gamma   120.23621657
_symmetry_Int_Tables_number   1
_chemical_formula_structural   Ti2Nb(FeB)3
_chemical_formula_sum   'Ti2 Nb1 Fe3 B3'
_cell_volume   95.17998194
_cell_formula_units_Z   1
loop_
 _symmetry_equiv_pos_site_id
 _symmetry_equiv_pos_as_xyz
  1  'x, y, z'
loop_
 _atom_site_type_symbol
 _atom_site_label
 _atom_site_symmetry_multiplicity
 _atom_site_fract_x
 _atom_site_fract_y
 _atom_site_fract_z
 _atom_site_occupancy
  Ti  Ti0  1  0.410558  0.411790  0.500000  1
  Ti  Ti1  1  0.589442  0.001232  0.500000  1
  Nb  Nb2  1  0.000000  0.587887  0.500000  1
  Fe  Fe3  1  0.753831  0.757365  0.000000  1
  Fe  Fe4  1  0.246169  0.003534  0.000000  1
  Fe  Fe5  1  0.000000  0.240791  0.000000  1
  B  B6  1  0.659912  0.328115  0.000000  1
  B  B7  1  0.340088  0.668204  0.000000  1
  B  B8  1  0.000000  0.001080  0.500000  1
