# generated using pymatgen
data_SmTeIO3
_symmetry_space_group_name_H-M   'P 1'
_cell_length_a   6.86381500
_cell_length_b   8.27050280
_cell_length_c   9.43263526
_cell_angle_alpha   73.10890474
_cell_angle_beta   90.00000000
_cell_angle_gamma   90.00000000
_symmetry_Int_Tables_number   1
_chemical_formula_structural   SmTeIO3
_chemical_formula_sum   'Sm4 Te4 I4 O12'
_cell_volume   512.36370525
_cell_formula_units_Z   4
loop_
 _symmetry_equiv_pos_site_id
 _symmetry_equiv_pos_as_xyz
  1  'x, y, z'
loop_
 _atom_site_type_symbol
 _atom_site_label
 _atom_site_symmetry_multiplicity
 _atom_site_fract_x
 _atom_site_fract_y
 _atom_site_fract_z
 _atom_site_occupancy
  Sm  Sm0  1  0.844818  0.321837  0.425036  1
  Sm  Sm1  1  0.155182  0.678163  0.574964  1
  Sm  Sm2  1  0.344818  0.178163  0.574964  1
  Sm  Sm3  1  0.655182  0.821837  0.425036  1
  Te  Te4  1  0.183482  0.023230  0.268234  1
  Te  Te5  1  0.816518  0.976770  0.731766  1
  Te  Te6  1  0.316518  0.523230  0.268234  1
  Te  Te7  1  0.683482  0.476770  0.731766  1
  I  I8  1  0.649827  0.151982  0.139838  1
  I  I9  1  0.850173  0.651982  0.139838  1
  I  I10  1  0.350173  0.848018  0.860162  1
  I  I11  1  0.149827  0.348018  0.860162  1
  O  O12  1  0.485848  0.623782  0.620025  1
  O  O13  1  0.335046  0.955728  0.450715  1
  O  O14  1  0.835046  0.544272  0.549285  1
  O  O15  1  0.881804  0.771962  0.689020  1
  O  O16  1  0.985848  0.876218  0.379975  1
  O  O17  1  0.664954  0.044272  0.549285  1
  O  O18  1  0.014152  0.123782  0.620025  1
  O  O19  1  0.381804  0.728038  0.310980  1
  O  O20  1  0.164954  0.455728  0.450715  1
  O  O21  1  0.514152  0.376218  0.379975  1
  O  O22  1  0.118196  0.228038  0.310980  1
  O  O23  1  0.618196  0.271962  0.689020  1
