# generated using pymatgen
data_Tb2PaGa6Co7Cu2
_symmetry_space_group_name_H-M   'P 1'
_cell_length_a   4.18914700
_cell_length_b   8.62231650
_cell_length_c   8.68532413
_cell_angle_alpha   59.73580315
_cell_angle_beta   90.00000000
_cell_angle_gamma   90.00000000
_symmetry_Int_Tables_number   1
_chemical_formula_structural   Tb2PaGa6Co7Cu2
_chemical_formula_sum   'Tb2 Pa1 Ga6 Co7 Cu2'
_cell_volume   270.95917890
_cell_formula_units_Z   1
loop_
 _symmetry_equiv_pos_site_id
 _symmetry_equiv_pos_as_xyz
  1  'x, y, z'
loop_
 _atom_site_type_symbol
 _atom_site_label
 _atom_site_symmetry_multiplicity
 _atom_site_fract_x
 _atom_site_fract_y
 _atom_site_fract_z
 _atom_site_occupancy
  Tb  Tb0  1  0.500000  0.327779  0.334211  1
  Tb  Tb1  1  0.500000  0.672119  0.662051  1
  Pa  Pa2  1  0.000000  0.000172  0.000110  1
  Ga  Ga3  1  0.000000  0.494968  0.505967  1
  Ga  Ga4  1  0.000000  0.504888  0.000822  1
  Ga  Ga5  1  0.000000  0.999939  0.492751  1
  Ga  Ga6  1  0.500000  0.721973  0.282017  1
  Ga  Ga7  1  0.500000  0.278101  0.003908  1
  Ga  Ga8  1  0.500000  0.999948  0.719396  1
  Co  Co9  1  0.000000  0.174061  0.173615  1
  Co  Co10  1  0.000000  0.172649  0.649327  1
  Co  Co11  1  0.000000  0.652850  0.176317  1
  Co  Co12  1  0.000000  0.827332  0.821937  1
  Co  Co13  1  0.000000  0.347275  0.829126  1
  Co  Co14  1  0.000000  0.825905  0.347770  1
  Co  Co15  1  0.500000  0.000013  0.299411  1
  Cu  Cu16  1  0.500000  0.300662  0.700367  1
  Cu  Cu17  1  0.500000  0.699268  0.000994  1
