# generated using pymatgen
data_YbIr2PbO7
_symmetry_space_group_name_H-M   'P 1'
_cell_length_a   7.31472503
_cell_length_b   7.26657237
_cell_length_c   7.26657342
_cell_angle_alpha   59.64828393
_cell_angle_beta   59.78055777
_cell_angle_gamma   59.78055689
_symmetry_Int_Tables_number   1
_chemical_formula_structural   YbIr2PbO7
_chemical_formula_sum   'Yb2 Ir4 Pb2 O14'
_cell_volume   271.47744270
_cell_formula_units_Z   2
loop_
 _symmetry_equiv_pos_site_id
 _symmetry_equiv_pos_as_xyz
  1  'x, y, z'
loop_
 _atom_site_type_symbol
 _atom_site_label
 _atom_site_symmetry_multiplicity
 _atom_site_fract_x
 _atom_site_fract_y
 _atom_site_fract_z
 _atom_site_occupancy
  Yb  Yb0  1  0.625000  0.125000  0.125000  1
  Yb  Yb1  1  0.125000  0.125000  0.125000  1
  Ir  Ir2  1  0.125000  0.625000  0.625000  1
  Ir  Ir3  1  0.625000  0.125000  0.625000  1
  Ir  Ir4  1  0.625000  0.625000  0.125000  1
  Ir  Ir5  1  0.625000  0.625000  0.625000  1
  Pb  Pb6  1  0.125000  0.625000  0.125000  1
  Pb  Pb7  1  0.125000  0.125000  0.625000  1
  O  O8  1  0.710975  0.695230  0.297621  1
  O  O9  1  0.296174  0.297621  0.695230  1
  O  O10  1  0.710975  0.297621  0.695230  1
  O  O11  1  0.296174  0.695230  0.297621  1
  O  O12  1  0.294773  0.705227  0.705227  1
  O  O13  1  0.705912  0.294088  0.294088  1
  O  O14  1  0.539025  0.554770  0.952379  1
  O  O15  1  0.953826  0.952379  0.554770  1
  O  O16  1  0.539025  0.952379  0.554770  1
  O  O17  1  0.953826  0.554770  0.952379  1
  O  O18  1  0.955227  0.544773  0.544773  1
  O  O19  1  0.544088  0.955912  0.955912  1
  O  O20  1  0.250837  0.249163  0.249163  1
  O  O21  1  0.999163  0.000837  0.000837  1
