# generated using pymatgen
data_Nd4HoIr3
_symmetry_space_group_name_H-M   'P 1'
_cell_length_a   11.20264200
_cell_length_b   11.20264200
_cell_length_c   6.52403100
_cell_angle_alpha   90.00000000
_cell_angle_beta   90.00000000
_cell_angle_gamma   90.00000000
_symmetry_Int_Tables_number   1
_chemical_formula_structural   Nd4HoIr3
_chemical_formula_sum   'Nd16 Ho4 Ir12'
_cell_volume   818.76059155
_cell_formula_units_Z   4
loop_
 _symmetry_equiv_pos_site_id
 _symmetry_equiv_pos_as_xyz
  1  'x, y, z'
loop_
 _atom_site_type_symbol
 _atom_site_label
 _atom_site_symmetry_multiplicity
 _atom_site_fract_x
 _atom_site_fract_y
 _atom_site_fract_z
 _atom_site_occupancy
  Nd  Nd0  1  0.289163  0.087750  0.380030  1
  Nd  Nd1  1  0.289163  0.912250  0.880030  1
  Nd  Nd2  1  0.710837  0.087750  0.880030  1
  Nd  Nd3  1  0.710837  0.912250  0.380030  1
  Nd  Nd4  1  0.587750  0.789163  0.880030  1
  Nd  Nd5  1  0.587750  0.210837  0.380030  1
  Nd  Nd6  1  0.412250  0.789163  0.380030  1
  Nd  Nd7  1  0.412250  0.210837  0.880030  1
  Nd  Nd8  1  0.210837  0.412250  0.619970  1
  Nd  Nd9  1  0.210837  0.587750  0.119970  1
  Nd  Nd10  1  0.789163  0.412250  0.119970  1
  Nd  Nd11  1  0.789163  0.587750  0.619970  1
  Nd  Nd12  1  0.912250  0.710837  0.119970  1
  Nd  Nd13  1  0.912250  0.289163  0.619970  1
  Nd  Nd14  1  0.087750  0.710837  0.619970  1
  Nd  Nd15  1  0.087750  0.289163  0.119970  1
  Ho  Ho16  1  0.000000  0.000000  0.500000  1
  Ho  Ho17  1  0.000000  0.000000  0.000000  1
  Ho  Ho18  1  0.500000  0.500000  0.000000  1
  Ho  Ho19  1  0.500000  0.500000  0.500000  1
  Ir  Ir20  1  0.851212  0.148788  0.250000  1
  Ir  Ir21  1  0.851212  0.851212  0.750000  1
  Ir  Ir22  1  0.148788  0.148788  0.750000  1
  Ir  Ir23  1  0.148788  0.851212  0.250000  1
  Ir  Ir24  1  0.648788  0.351212  0.750000  1
  Ir  Ir25  1  0.648788  0.648788  0.250000  1
  Ir  Ir26  1  0.351212  0.351212  0.250000  1
  Ir  Ir27  1  0.351212  0.648788  0.750000  1
  Ir  Ir28  1  0.500000  0.000000  0.119115  1
  Ir  Ir29  1  0.500000  0.000000  0.619115  1
  Ir  Ir30  1  0.000000  0.500000  0.880885  1
  Ir  Ir31  1  0.000000  0.500000  0.380885  1
