# generated using pymatgen
data_NdTm2Ni2Rh7
_symmetry_space_group_name_H-M   'P 1'
_cell_length_a   5.29231043
_cell_length_b   5.29231036
_cell_length_c   8.94305662
_cell_angle_alpha   72.78912468
_cell_angle_beta   72.78912387
_cell_angle_gamma   60.00000137
_symmetry_Int_Tables_number   1
_chemical_formula_structural   NdTm2Ni2Rh7
_chemical_formula_sum   'Nd1 Tm2 Ni2 Rh7'
_cell_volume   203.86984060
_cell_formula_units_Z   1
loop_
 _symmetry_equiv_pos_site_id
 _symmetry_equiv_pos_as_xyz
  1  'x, y, z'
loop_
 _atom_site_type_symbol
 _atom_site_label
 _atom_site_symmetry_multiplicity
 _atom_site_fract_x
 _atom_site_fract_y
 _atom_site_fract_z
 _atom_site_occupancy
  Nd  Nd0  1  0.000000  0.000000  0.000000  1
  Tm  Tm1  1  0.139932  0.139932  0.580206  1
  Tm  Tm2  1  0.860068  0.860068  0.419794  1
  Ni  Ni3  1  0.333565  0.333565  0.999306  1
  Ni  Ni4  1  0.666435  0.666435  0.000694  1
  Rh  Rh5  1  0.078262  0.582323  0.757093  1
  Rh  Rh6  1  0.582323  0.582323  0.757093  1
  Rh  Rh7  1  0.582323  0.078262  0.757093  1
  Rh  Rh8  1  0.921738  0.417677  0.242907  1
  Rh  Rh9  1  0.417677  0.417677  0.242907  1
  Rh  Rh10  1  0.417677  0.921738  0.242907  1
  Rh  Rh11  1  0.500000  0.500000  0.500000  1
