# generated using pymatgen
data_Nb3Co6Si2Ru
_symmetry_space_group_name_H-M   'P 1'
_cell_length_a   4.81472900
_cell_length_b   4.81472994
_cell_length_c   7.49413800
_cell_angle_alpha   90.00000000
_cell_angle_beta   90.00000000
_cell_angle_gamma   119.99998667
_symmetry_Int_Tables_number   1
_chemical_formula_structural   Nb3Co6Si2Ru
_chemical_formula_sum   'Nb3 Co6 Si2 Ru1'
_cell_volume   150.45137324
_cell_formula_units_Z   1
loop_
 _symmetry_equiv_pos_site_id
 _symmetry_equiv_pos_as_xyz
  1  'x, y, z'
loop_
 _atom_site_type_symbol
 _atom_site_label
 _atom_site_symmetry_multiplicity
 _atom_site_fract_x
 _atom_site_fract_y
 _atom_site_fract_z
 _atom_site_occupancy
  Nb  Nb0  1  0.333333  0.666667  0.430056  1
  Nb  Nb1  1  0.666667  0.333333  0.584705  1
  Nb  Nb2  1  0.333333  0.666667  0.047553  1
  Co  Co3  1  0.168437  0.831563  0.747764  1
  Co  Co4  1  0.663126  0.831563  0.747764  1
  Co  Co5  1  0.828102  0.171898  0.250796  1
  Co  Co6  1  0.168437  0.336874  0.747764  1
  Co  Co7  1  0.828102  0.656203  0.250796  1
  Co  Co8  1  0.343797  0.171898  0.250796  1
  Si  Si9  1  0.000000  0.000000  0.494857  1
  Si  Si10  1  0.000000  0.000000  0.001615  1
  Ru  Ru11  1  0.666667  0.333333  0.945537  1
