# generated using pymatgen
data_Sc24FeTc7
_symmetry_space_group_name_H-M   'P 1'
_cell_length_a   5.77122037
_cell_length_b   8.55425900
_cell_length_c   13.86237836
_cell_angle_alpha   90.00000000
_cell_angle_beta   90.13998658
_cell_angle_gamma   90.00000000
_symmetry_Int_Tables_number   1
_chemical_formula_structural   Sc24FeTc7
_chemical_formula_sum   'Sc24 Fe1 Tc7'
_cell_volume   684.36297403
_cell_formula_units_Z   1
loop_
 _symmetry_equiv_pos_site_id
 _symmetry_equiv_pos_as_xyz
  1  'x, y, z'
loop_
 _atom_site_type_symbol
 _atom_site_label
 _atom_site_symmetry_multiplicity
 _atom_site_fract_x
 _atom_site_fract_y
 _atom_site_fract_z
 _atom_site_occupancy
  Sc  Sc0  1  0.522696  0.750000  0.354525  1
  Sc  Sc1  1  0.024706  0.250000  0.145157  1
  Sc  Sc2  1  0.475266  0.250000  0.646388  1
  Sc  Sc3  1  0.978632  0.750000  0.848550  1
  Sc  Sc4  1  0.786224  0.750000  0.110966  1
  Sc  Sc5  1  0.286904  0.250000  0.389976  1
  Sc  Sc6  1  0.212660  0.250000  0.887442  1
  Sc  Sc7  1  0.723028  0.750000  0.613379  1
  Sc  Sc8  1  0.438332  0.934433  0.787157  1
  Sc  Sc9  1  0.942039  0.062319  0.710797  1
  Sc  Sc10  1  0.555180  0.436442  0.209359  1
  Sc  Sc11  1  0.054938  0.563196  0.290494  1
  Sc  Sc12  1  0.555180  0.063558  0.209359  1
  Sc  Sc13  1  0.054938  0.936804  0.290494  1
  Sc  Sc14  1  0.438332  0.565567  0.787157  1
  Sc  Sc15  1  0.942039  0.437681  0.710797  1
  Sc  Sc16  1  0.248281  0.936873  0.539474  1
  Sc  Sc17  1  0.747363  0.059131  0.963683  1
  Sc  Sc18  1  0.754319  0.441268  0.466961  1
  Sc  Sc19  1  0.253672  0.560822  0.032614  1
  Sc  Sc20  1  0.754319  0.058732  0.466961  1
  Sc  Sc21  1  0.253672  0.939178  0.032614  1
  Sc  Sc22  1  0.248281  0.563127  0.539474  1
  Sc  Sc23  1  0.747363  0.440869  0.963683  1
  Fe  Fe24  1  0.154248  0.750000  0.682433  1
  Tc  Tc25  1  0.928529  0.750000  0.445191  1
  Tc  Tc26  1  0.428333  0.250000  0.056161  1
  Tc  Tc27  1  0.073025  0.250000  0.559230  1
  Tc  Tc28  1  0.576543  0.750000  0.940342  1
  Tc  Tc29  1  0.341607  0.750000  0.181460  1
  Tc  Tc30  1  0.843867  0.250000  0.319861  1
  Tc  Tc31  1  0.655482  0.250000  0.817863  1
