# generated using pymatgen
data_Sc20Si4BiSb7
_symmetry_space_group_name_H-M   'P 1'
_cell_length_a   11.11282242
_cell_length_b   8.60117925
_cell_length_c   7.48191747
_cell_angle_alpha   89.97445085
_cell_angle_beta   90.08945194
_cell_angle_gamma   90.00997104
_symmetry_Int_Tables_number   1
_chemical_formula_structural   Sc20Si4BiSb7
_chemical_formula_sum   'Sc20 Si4 Bi1 Sb7'
_cell_volume   715.14598911
_cell_formula_units_Z   1
loop_
 _symmetry_equiv_pos_site_id
 _symmetry_equiv_pos_as_xyz
  1  'x, y, z'
loop_
 _atom_site_type_symbol
 _atom_site_label
 _atom_site_symmetry_multiplicity
 _atom_site_fract_x
 _atom_site_fract_y
 _atom_site_fract_z
 _atom_site_occupancy
  Sc  Sc0  1  0.063442  0.554806  0.818094  1
  Sc  Sc1  1  0.560966  0.945971  0.683047  1
  Sc  Sc2  1  0.938625  0.054143  0.182725  1
  Sc  Sc3  1  0.438590  0.445748  0.316656  1
  Sc  Sc4  1  0.939521  0.444689  0.180802  1
  Sc  Sc5  1  0.438842  0.054175  0.316638  1
  Sc  Sc6  1  0.061613  0.945752  0.817051  1
  Sc  Sc7  1  0.558065  0.554877  0.684839  1
  Sc  Sc8  1  0.004193  0.752428  0.461443  1
  Sc  Sc9  1  0.502090  0.749730  0.037475  1
  Sc  Sc10  1  0.999260  0.247596  0.537314  1
  Sc  Sc11  1  0.497353  0.250105  0.962326  1
  Sc  Sc12  1  0.215387  0.749803  0.168924  1
  Sc  Sc13  1  0.713528  0.753684  0.328956  1
  Sc  Sc14  1  0.785064  0.246575  0.833971  1
  Sc  Sc15  1  0.285340  0.250247  0.669002  1
  Sc  Sc16  1  0.290985  0.750086  0.644799  1
  Sc  Sc17  1  0.790249  0.752892  0.858668  1
  Sc  Sc18  1  0.707685  0.246760  0.352727  1
  Sc  Sc19  1  0.209330  0.250173  0.144734  1
  Si  Si20  1  0.475089  0.750053  0.411145  1
  Si  Si21  1  0.975901  0.750010  0.088714  1
  Si  Si22  1  0.524611  0.250204  0.588529  1
  Si  Si23  1  0.025026  0.249856  0.910685  1
  Bi  Bi24  1  0.824364  0.510425  0.566636  1
  Sb  Sb25  1  0.325763  0.510419  0.934417  1
  Sb  Sb26  1  0.825724  0.989244  0.566242  1
  Sb  Sb27  1  0.673312  0.010381  0.065753  1
  Sb  Sb28  1  0.174234  0.489413  0.434048  1
  Sb  Sb29  1  0.674581  0.489505  0.065780  1
  Sb  Sb30  1  0.175493  0.010661  0.433667  1
  Sb  Sb31  1  0.325773  0.989589  0.934194  1
