# generated using pymatgen
data_LaMgSiIr2
_symmetry_space_group_name_H-M   'P 1'
_cell_length_a   4.15120100
_cell_length_b   4.15120100
_cell_length_c   11.14376100
_cell_angle_alpha   90.00000000
_cell_angle_beta   90.00000000
_cell_angle_gamma   90.00000000
_symmetry_Int_Tables_number   1
_chemical_formula_structural   LaMgSiIr2
_chemical_formula_sum   'La2 Mg2 Si2 Ir4'
_cell_volume   192.03452425
_cell_formula_units_Z   2
loop_
 _symmetry_equiv_pos_site_id
 _symmetry_equiv_pos_as_xyz
  1  'x, y, z'
loop_
 _atom_site_type_symbol
 _atom_site_label
 _atom_site_symmetry_multiplicity
 _atom_site_fract_x
 _atom_site_fract_y
 _atom_site_fract_z
 _atom_site_occupancy
  La  La0  1  0.500000  0.000000  0.239411  1
  La  La1  1  0.000000  0.500000  0.760589  1
  Mg  Mg2  1  0.000000  0.000000  0.500000  1
  Mg  Mg3  1  0.500000  0.500000  0.500000  1
  Si  Si4  1  0.000000  0.500000  0.113820  1
  Si  Si5  1  0.500000  0.000000  0.886180  1
  Ir  Ir6  1  0.000000  0.500000  0.331913  1
  Ir  Ir7  1  0.500000  0.000000  0.668087  1
  Ir  Ir8  1  0.000000  0.000000  0.000000  1
  Ir  Ir9  1  0.500000  0.500000  0.000000  1
