# generated using pymatgen
data_K2CaB18
_symmetry_space_group_name_H-M   'P 1'
_cell_length_a   4.20649400
_cell_length_b   4.20649400
_cell_length_c   12.55126500
_cell_angle_alpha   90.00000000
_cell_angle_beta   90.00000000
_cell_angle_gamma   90.00000000
_symmetry_Int_Tables_number   1
_chemical_formula_structural   K2CaB18
_chemical_formula_sum   'K2 Ca1 B18'
_cell_volume   222.08951040
_cell_formula_units_Z   1
loop_
 _symmetry_equiv_pos_site_id
 _symmetry_equiv_pos_as_xyz
  1  'x, y, z'
loop_
 _atom_site_type_symbol
 _atom_site_label
 _atom_site_symmetry_multiplicity
 _atom_site_fract_x
 _atom_site_fract_y
 _atom_site_fract_z
 _atom_site_occupancy
  K  K0  1  0.000000  0.000000  0.333296  1
  K  K1  1  0.000000  0.000000  0.666704  1
  Ca  Ca2  1  0.000000  0.000000  0.000000  1
  B  B3  1  0.200558  0.500000  0.163860  1
  B  B4  1  0.199026  0.500000  0.500000  1
  B  B5  1  0.200558  0.500000  0.836140  1
  B  B6  1  0.500000  0.500000  0.265157  1
  B  B7  1  0.500000  0.500000  0.600718  1
  B  B8  1  0.500000  0.500000  0.934511  1
  B  B9  1  0.500000  0.200558  0.163860  1
  B  B10  1  0.500000  0.199026  0.500000  1
  B  B11  1  0.500000  0.200558  0.836140  1
  B  B12  1  0.500000  0.500000  0.065489  1
  B  B13  1  0.500000  0.500000  0.399282  1
  B  B14  1  0.500000  0.500000  0.734843  1
  B  B15  1  0.500000  0.799442  0.163860  1
  B  B16  1  0.500000  0.800974  0.500000  1
  B  B17  1  0.500000  0.799442  0.836140  1
  B  B18  1  0.799442  0.500000  0.163860  1
  B  B19  1  0.800974  0.500000  0.500000  1
  B  B20  1  0.799442  0.500000  0.836140  1
