# generated using pymatgen
data_Er8In2PdRu
_symmetry_space_group_name_H-M   'P 1'
_cell_length_a   9.62831027
_cell_length_b   9.60835622
_cell_length_c   9.60835555
_cell_angle_alpha   59.84394829
_cell_angle_beta   59.93127914
_cell_angle_gamma   59.93127692
_symmetry_Int_Tables_number   1
_chemical_formula_structural   Er8In2PdRu
_chemical_formula_sum   'Er16 In4 Pd2 Ru2'
_cell_volume   627.14447111
_cell_formula_units_Z   2
loop_
 _symmetry_equiv_pos_site_id
 _symmetry_equiv_pos_as_xyz
  1  'x, y, z'
loop_
 _atom_site_type_symbol
 _atom_site_label
 _atom_site_symmetry_multiplicity
 _atom_site_fract_x
 _atom_site_fract_y
 _atom_site_fract_z
 _atom_site_occupancy
  Er  Er0  1  0.194386  0.183215  0.811305  1
  Er  Er1  1  0.439421  0.060579  0.060579  1
  Er  Er2  1  0.435541  0.062726  0.440078  1
  Er  Er3  1  0.061655  0.440078  0.062726  1
  Er  Er4  1  0.647760  0.051025  0.653456  1
  Er  Er5  1  0.188522  0.811478  0.811478  1
  Er  Er6  1  0.061655  0.062726  0.440078  1
  Er  Er7  1  0.810213  0.189787  0.189787  1
  Er  Er8  1  0.811094  0.811305  0.183215  1
  Er  Er9  1  0.647760  0.653456  0.051025  1
  Er  Er10  1  0.643999  0.650940  0.650940  1
  Er  Er11  1  0.063145  0.436855  0.436855  1
  Er  Er12  1  0.054122  0.650940  0.650940  1
  Er  Er13  1  0.811094  0.183215  0.811305  1
  Er  Er14  1  0.435541  0.440078  0.062726  1
  Er  Er15  1  0.194386  0.811305  0.183215  1
  In  In16  1  0.416380  0.749997  0.417243  1
  In  In17  1  0.416380  0.417243  0.749997  1
  In  In18  1  0.750559  0.416617  0.416617  1
  In  In19  1  0.416209  0.416617  0.416617  1
  Pd  Pd20  1  0.857070  0.429568  0.856292  1
  Pd  Pd21  1  0.857070  0.856292  0.429568  1
  Ru  Ru22  1  0.428749  0.856980  0.856980  1
  Ru  Ru23  1  0.857290  0.856980  0.856980  1
