# generated using pymatgen
data_NdTh(AlPd2)2
_symmetry_space_group_name_H-M   'P 1'
_cell_length_a   5.97271200
_cell_length_b   7.04005200
_cell_length_c   7.53680100
_cell_angle_alpha   90.00000000
_cell_angle_beta   90.00000000
_cell_angle_gamma   90.00000000
_symmetry_Int_Tables_number   1
_chemical_formula_structural   NdTh(AlPd2)2
_chemical_formula_sum   'Nd2 Th2 Al4 Pd8'
_cell_volume   316.90893888
_cell_formula_units_Z   2
loop_
 _symmetry_equiv_pos_site_id
 _symmetry_equiv_pos_as_xyz
  1  'x, y, z'
loop_
 _atom_site_type_symbol
 _atom_site_label
 _atom_site_symmetry_multiplicity
 _atom_site_fract_x
 _atom_site_fract_y
 _atom_site_fract_z
 _atom_site_occupancy
  Nd  Nd0  1  0.657332  0.250000  0.967471  1
  Nd  Nd1  1  0.842668  0.250000  0.467471  1
  Th  Th2  1  0.339803  0.750000  0.033529  1
  Th  Th3  1  0.160197  0.750000  0.533529  1
  Al  Al4  1  0.660259  0.750000  0.382199  1
  Al  Al5  1  0.839741  0.750000  0.882199  1
  Al  Al6  1  0.345303  0.250000  0.617359  1
  Al  Al7  1  0.154697  0.250000  0.117359  1
  Pd  Pd8  1  0.919949  0.553629  0.179896  1
  Pd  Pd9  1  0.580051  0.946371  0.679896  1
  Pd  Pd10  1  0.093272  0.048084  0.819825  1
  Pd  Pd11  1  0.406728  0.451916  0.319825  1
  Pd  Pd12  1  0.093272  0.451916  0.819825  1
  Pd  Pd13  1  0.406728  0.048084  0.319825  1
  Pd  Pd14  1  0.919949  0.946371  0.179896  1
  Pd  Pd15  1  0.580051  0.553629  0.679896  1
