# generated using pymatgen
data_Sm8Ni8SnHg3
_symmetry_space_group_name_H-M   'P 1'
_cell_length_a   7.52420000
_cell_length_b   7.52420000
_cell_length_c   7.44119900
_cell_angle_alpha   90.00000000
_cell_angle_beta   90.00000000
_cell_angle_gamma   90.00000000
_symmetry_Int_Tables_number   1
_chemical_formula_structural   Sm8Ni8SnHg3
_chemical_formula_sum   'Sm8 Ni8 Sn1 Hg3'
_cell_volume   421.27295685
_cell_formula_units_Z   1
loop_
 _symmetry_equiv_pos_site_id
 _symmetry_equiv_pos_as_xyz
  1  'x, y, z'
loop_
 _atom_site_type_symbol
 _atom_site_label
 _atom_site_symmetry_multiplicity
 _atom_site_fract_x
 _atom_site_fract_y
 _atom_site_fract_z
 _atom_site_occupancy
  Sm  Sm0  1  0.179596  0.177249  0.999055  1
  Sm  Sm1  1  0.677249  0.320404  0.500945  1
  Sm  Sm2  1  0.322751  0.679596  0.500945  1
  Sm  Sm3  1  0.820404  0.822751  0.999055  1
  Sm  Sm4  1  0.675256  0.322643  0.998924  1
  Sm  Sm5  1  0.822643  0.824744  0.501076  1
  Sm  Sm6  1  0.177357  0.175256  0.501076  1
  Sm  Sm7  1  0.324744  0.677357  0.998924  1
  Ni  Ni8  1  0.385396  0.384368  0.253245  1
  Ni  Ni9  1  0.889131  0.121818  0.753412  1
  Ni  Ni10  1  0.110869  0.878182  0.753412  1
  Ni  Ni11  1  0.614604  0.615632  0.253245  1
  Ni  Ni12  1  0.115632  0.885396  0.246755  1
  Ni  Ni13  1  0.884368  0.114604  0.246755  1
  Ni  Ni14  1  0.378182  0.389131  0.746588  1
  Ni  Ni15  1  0.621818  0.610869  0.746588  1
  Sn  Sn16  1  0.000000  0.500000  0.750000  1
  Hg  Hg17  1  0.500000  0.000000  0.250000  1
  Hg  Hg18  1  0.500000  0.000000  0.750000  1
  Hg  Hg19  1  0.000000  0.500000  0.250000  1
