# generated using pymatgen
data_Yb2DyY(Al8Pt3)3
_symmetry_space_group_name_H-M   'P 1'
_cell_length_a   7.53206327
_cell_length_b   7.55195575
_cell_length_c   13.25448056
_cell_angle_alpha   84.63721434
_cell_angle_beta   79.11639126
_cell_angle_gamma   59.82065044
_symmetry_Int_Tables_number   1
_chemical_formula_structural   Yb2DyY(Al8Pt3)3
_chemical_formula_sum   'Yb2 Dy1 Y1 Al24 Pt9'
_cell_volume   640.02290772
_cell_formula_units_Z   1
loop_
 _symmetry_equiv_pos_site_id
 _symmetry_equiv_pos_as_xyz
  1  'x, y, z'
loop_
 _atom_site_type_symbol
 _atom_site_label
 _atom_site_symmetry_multiplicity
 _atom_site_fract_x
 _atom_site_fract_y
 _atom_site_fract_z
 _atom_site_occupancy
  Yb  Yb0  1  0.605952  0.831279  0.192629  1
  Yb  Yb1  1  0.733891  0.499468  0.807395  1
  Dy  Dy2  1  0.266794  0.500834  0.192278  1
  Y  Y3  1  0.394491  0.167886  0.807958  1
  Al  Al4  1  0.684553  0.833422  0.945809  1
  Al  Al5  1  0.315756  0.166005  0.055425  1
  Al  Al6  1  0.147437  0.831643  0.560839  1
  Al  Al7  1  0.852493  0.168611  0.439133  1
  Al  Al8  1  0.480317  0.166030  0.558533  1
  Al  Al9  1  0.519972  0.833885  0.441215  1
  Al  Al10  1  0.217445  0.164557  0.329655  1
  Al  Al11  1  0.782724  0.834407  0.670374  1
  Al  Al12  1  0.437278  0.507192  0.670021  1
  Al  Al13  1  0.563152  0.493447  0.329695  1
  Al  Al14  1  0.109206  0.160493  0.668610  1
  Al  Al15  1  0.889753  0.839877  0.331290  1
  Al  Al16  1  0.352578  0.499839  0.945006  1
  Al  Al17  1  0.648115  0.500216  0.054224  1
  Al  Al18  1  0.014958  0.167791  0.954570  1
  Al  Al19  1  0.984672  0.832321  0.045652  1
  Al  Al20  1  0.186107  0.499831  0.441281  1
  Al  Al21  1  0.814021  0.500401  0.558658  1
  Al  Al22  1  0.732770  0.166758  0.183275  1
  Al  Al23  1  0.264787  0.837446  0.816839  1
  Al  Al24  1  0.063345  0.630263  0.815641  1
  Al  Al25  1  0.940110  0.368087  0.184302  1
  Al  Al26  1  0.853936  0.040400  0.816168  1
  Al  Al27  1  0.143602  0.957747  0.183719  1
  Pt  Pt28  1  0.120414  0.492135  0.637947  1
  Pt  Pt29  1  0.879619  0.507791  0.361955  1
  Pt  Pt30  1  0.657591  0.171116  0.999776  1
  Pt  Pt31  1  0.342435  0.828866  0.000217  1
  Pt  Pt32  1  0.537868  0.166897  0.361904  1
  Pt  Pt33  1  0.461799  0.833088  0.637923  1
  Pt  Pt34  1  0.780012  0.174334  0.636608  1
  Pt  Pt35  1  0.219776  0.825767  0.363402  1
  Pt  Pt36  1  0.000275  0.499869  0.000075  1
