# generated using pymatgen
data_Ho3Mg2AlSi2Rh
_symmetry_space_group_name_H-M   'P 1'
_cell_length_a   7.12673727
_cell_length_b   7.05986127
_cell_length_c   4.21501600
_cell_angle_alpha   90.00000000
_cell_angle_beta   90.00000000
_cell_angle_gamma   119.69006910
_symmetry_Int_Tables_number   1
_chemical_formula_structural   Ho3Mg2AlSi2Rh
_chemical_formula_sum   'Ho3 Mg2 Al1 Si2 Rh1'
_cell_volume   184.23182425
_cell_formula_units_Z   1
loop_
 _symmetry_equiv_pos_site_id
 _symmetry_equiv_pos_as_xyz
  1  'x, y, z'
loop_
 _atom_site_type_symbol
 _atom_site_label
 _atom_site_symmetry_multiplicity
 _atom_site_fract_x
 _atom_site_fract_y
 _atom_site_fract_z
 _atom_site_occupancy
  Ho  Ho0  1  0.413270  0.000498  0.000000  1
  Ho  Ho1  1  0.000000  0.421462  0.000000  1
  Ho  Ho2  1  0.586730  0.587228  0.000000  1
  Mg  Mg3  1  0.760563  0.000693  0.500000  1
  Mg  Mg4  1  0.239438  0.240130  0.500000  1
  Al  Al5  1  0.000000  0.760272  0.500000  1
  Si  Si6  1  0.674156  0.345192  0.500000  1
  Si  Si7  1  0.325845  0.671036  0.500000  1
  Rh  Rh8  1  0.000000  0.973489  0.000000  1
