# generated using pymatgen
data_Yb6AlGe3Pt4
_symmetry_space_group_name_H-M   'P 1'
_cell_length_a   5.58066300
_cell_length_b   8.12963300
_cell_length_c   13.34781500
_cell_angle_alpha   90.00000000
_cell_angle_beta   90.00000000
_cell_angle_gamma   90.00000000
_symmetry_Int_Tables_number   1
_chemical_formula_structural   Yb6AlGe3Pt4
_chemical_formula_sum   'Yb12 Al2 Ge6 Pt8'
_cell_volume   605.57357616
_cell_formula_units_Z   2
loop_
 _symmetry_equiv_pos_site_id
 _symmetry_equiv_pos_as_xyz
  1  'x, y, z'
loop_
 _atom_site_type_symbol
 _atom_site_label
 _atom_site_symmetry_multiplicity
 _atom_site_fract_x
 _atom_site_fract_y
 _atom_site_fract_z
 _atom_site_occupancy
  Yb  Yb0  1  0.145270  0.604919  0.102198  1
  Yb  Yb1  1  0.145270  0.895081  0.897802  1
  Yb  Yb2  1  0.854730  0.104919  0.397802  1
  Yb  Yb3  1  0.854730  0.395081  0.602198  1
  Yb  Yb4  1  0.858376  0.387787  0.899566  1
  Yb  Yb5  1  0.858376  0.112213  0.100434  1
  Yb  Yb6  1  0.141624  0.887787  0.600434  1
  Yb  Yb7  1  0.141624  0.612213  0.399566  1
  Yb  Yb8  1  0.363003  0.248965  0.248967  1
  Yb  Yb9  1  0.363003  0.251035  0.751033  1
  Yb  Yb10  1  0.636997  0.748965  0.251033  1
  Yb  Yb11  1  0.636997  0.751035  0.748967  1
  Al  Al12  1  0.622714  0.750000  0.000000  1
  Al  Al13  1  0.377286  0.250000  0.500000  1
  Ge  Ge14  1  0.358254  0.250000  0.000000  1
  Ge  Ge15  1  0.641746  0.750000  0.500000  1
  Ge  Ge16  1  0.865659  0.399745  0.250628  1
  Ge  Ge17  1  0.865659  0.100255  0.749372  1
  Ge  Ge18  1  0.134341  0.899745  0.249372  1
  Ge  Ge19  1  0.134341  0.600255  0.750628  1
  Pt  Pt20  1  0.632891  0.469682  0.090453  1
  Pt  Pt21  1  0.632891  0.030318  0.909547  1
  Pt  Pt22  1  0.367109  0.969682  0.409547  1
  Pt  Pt23  1  0.367109  0.530318  0.590453  1
  Pt  Pt24  1  0.372885  0.536992  0.906772  1
  Pt  Pt25  1  0.372885  0.963008  0.093228  1
  Pt  Pt26  1  0.627115  0.036992  0.593228  1
  Pt  Pt27  1  0.627115  0.463008  0.406772  1
