# generated using pymatgen
data_YbCe2GdH11
_symmetry_space_group_name_H-M   'P 1'
_cell_length_a   6.61978129
_cell_length_b   6.61977965
_cell_length_c   6.61977959
_cell_angle_alpha   133.06144879
_cell_angle_beta   132.72958525
_cell_angle_gamma   68.81862704
_symmetry_Int_Tables_number   1
_chemical_formula_structural   YbCe2GdH11
_chemical_formula_sum   'Yb1 Ce2 Gd1 H11'
_cell_volume   152.85119362
_cell_formula_units_Z   1
loop_
 _symmetry_equiv_pos_site_id
 _symmetry_equiv_pos_as_xyz
  1  'x, y, z'
loop_
 _atom_site_type_symbol
 _atom_site_label
 _atom_site_symmetry_multiplicity
 _atom_site_fract_x
 _atom_site_fract_y
 _atom_site_fract_z
 _atom_site_occupancy
  Yb  Yb0  1  0.000000  0.500000  0.500000  1
  Ce  Ce1  1  0.259760  0.259760  0.000000  1
  Ce  Ce2  1  0.740240  0.740240  0.000000  1
  Gd  Gd3  1  0.500000  0.000000  0.500000  1
  H  H4  1  0.645327  0.111300  0.994560  1
  H  H5  1  0.354673  0.349233  0.465972  1
  H  H6  1  0.116740  0.650767  0.005440  1
  H  H7  1  0.883260  0.888700  0.534028  1
  H  H8  1  0.883260  0.349233  0.994560  1
  H  H9  1  0.645327  0.650767  0.534028  1
  H  H10  1  0.354673  0.888700  0.005440  1
  H  H11  1  0.116740  0.111300  0.465972  1
  H  H12  1  0.748002  0.248002  0.500000  1
  H  H13  1  0.500000  0.500000  0.000000  1
  H  H14  1  0.251998  0.751998  0.500000  1
