# generated using pymatgen
data_Cs12Mn3VS16
_symmetry_space_group_name_H-M   'P 1'
_cell_length_a   9.85281580
_cell_length_b   9.86645980
_cell_length_c   11.71672900
_cell_angle_alpha   90.00000000
_cell_angle_beta   90.00000000
_cell_angle_gamma   90.04610560
_symmetry_Int_Tables_number   1
_chemical_formula_structural   Cs12Mn3VS16
_chemical_formula_sum   'Cs12 Mn3 V1 S16'
_cell_volume   1139.01110599
_cell_formula_units_Z   1
loop_
 _symmetry_equiv_pos_site_id
 _symmetry_equiv_pos_as_xyz
  1  'x, y, z'
loop_
 _atom_site_type_symbol
 _atom_site_label
 _atom_site_symmetry_multiplicity
 _atom_site_fract_x
 _atom_site_fract_y
 _atom_site_fract_z
 _atom_site_occupancy
  Cs  Cs0  1  0.543454  0.207921  0.041719  1
  Cs  Cs1  1  0.044340  0.291236  0.458427  1
  Cs  Cs2  1  0.456199  0.791946  0.542363  1
  Cs  Cs3  1  0.956550  0.708312  0.957852  1
  Cs  Cs4  1  0.456199  0.791946  0.957637  1
  Cs  Cs5  1  0.956550  0.708312  0.542148  1
  Cs  Cs6  1  0.543454  0.207921  0.458281  1
  Cs  Cs7  1  0.044340  0.291236  0.041573  1
  Cs  Cs8  1  0.650054  0.412377  0.750000  1
  Cs  Cs9  1  0.150338  0.087889  0.750000  1
  Cs  Cs10  1  0.349658  0.588530  0.250000  1
  Cs  Cs11  1  0.850045  0.912037  0.250000  1
  Mn  Mn12  1  0.723114  0.982464  0.750000  1
  Mn  Mn13  1  0.223020  0.517549  0.750000  1
  Mn  Mn14  1  0.276815  0.017548  0.250000  1
  V  V15  1  0.777004  0.482487  0.250000  1
  S  S16  1  0.825760  0.044862  0.600124  1
  S  S17  1  0.325406  0.454989  0.899768  1
  S  S18  1  0.174296  0.955380  0.100092  1
  S  S19  1  0.671811  0.546182  0.403018  1
  S  S20  1  0.174296  0.955380  0.399908  1
  S  S21  1  0.671811  0.546182  0.096982  1
  S  S22  1  0.825760  0.044862  0.899876  1
  S  S23  1  0.325406  0.454989  0.600232  1
  S  S24  1  0.523579  0.063853  0.750000  1
  S  S25  1  0.023372  0.436094  0.750000  1
  S  S26  1  0.476327  0.936341  0.250000  1
  S  S27  1  0.981149  0.565494  0.250000  1
  S  S28  1  0.710798  0.768131  0.750000  1
  S  S29  1  0.210519  0.731999  0.750000  1
  S  S30  1  0.289398  0.232075  0.250000  1
  S  S31  1  0.789177  0.263472  0.250000  1
