# generated using pymatgen
data_Tb5Tm(LuIn4)2
_symmetry_space_group_name_H-M   'P 1'
_cell_length_a   6.53096222
_cell_length_b   6.53096258
_cell_length_c   9.99149800
_cell_angle_alpha   90.00000000
_cell_angle_beta   90.00000000
_cell_angle_gamma   98.48105158
_symmetry_Int_Tables_number   1
_chemical_formula_structural   Tb5Tm(LuIn4)2
_chemical_formula_sum   'Tb5 Tm1 Lu2 In8'
_cell_volume   421.51173620
_cell_formula_units_Z   1
loop_
 _symmetry_equiv_pos_site_id
 _symmetry_equiv_pos_as_xyz
  1  'x, y, z'
loop_
 _atom_site_type_symbol
 _atom_site_label
 _atom_site_symmetry_multiplicity
 _atom_site_fract_x
 _atom_site_fract_y
 _atom_site_fract_z
 _atom_site_occupancy
  Tb  Tb0  1  0.466486  0.466486  0.750000  1
  Tb  Tb1  1  0.246394  0.754276  0.499399  1
  Tb  Tb2  1  0.246394  0.754276  0.000601  1
  Tb  Tb3  1  0.754276  0.246394  0.499399  1
  Tb  Tb4  1  0.754276  0.246394  0.000601  1
  Tm  Tm5  1  0.533008  0.533008  0.250000  1
  Lu  Lu6  1  0.977017  0.977017  0.250000  1
  Lu  Lu7  1  0.021360  0.021360  0.750000  1
  In  In8  1  0.252132  0.252132  0.022058  1
  In  In9  1  0.748145  0.748145  0.979269  1
  In  In10  1  0.252132  0.252132  0.477942  1
  In  In11  1  0.748145  0.748145  0.520731  1
  In  In12  1  0.483497  0.023359  0.250000  1
  In  In13  1  0.976725  0.516652  0.750000  1
  In  In14  1  0.516652  0.976725  0.750000  1
  In  In15  1  0.023359  0.483497  0.250000  1
