# generated using pymatgen
data_Ho4Er(GeB4)2
_symmetry_space_group_name_H-M   'P 1'
_cell_length_a   7.22549200
_cell_length_b   7.22549200
_cell_length_c   8.07987000
_cell_angle_alpha   90.00000000
_cell_angle_beta   90.00000000
_cell_angle_gamma   90.00000000
_symmetry_Int_Tables_number   1
_chemical_formula_structural   Ho4Er(GeB4)2
_chemical_formula_sum   'Ho8 Er2 Ge4 B16'
_cell_volume   421.83170890
_cell_formula_units_Z   2
loop_
 _symmetry_equiv_pos_site_id
 _symmetry_equiv_pos_as_xyz
  1  'x, y, z'
loop_
 _atom_site_type_symbol
 _atom_site_label
 _atom_site_symmetry_multiplicity
 _atom_site_fract_x
 _atom_site_fract_y
 _atom_site_fract_z
 _atom_site_occupancy
  Ho  Ho0  1  0.680273  0.180273  0.221492  1
  Ho  Ho1  1  0.319727  0.819727  0.778508  1
  Ho  Ho2  1  0.319727  0.819727  0.221492  1
  Ho  Ho3  1  0.819727  0.680273  0.221492  1
  Ho  Ho4  1  0.819727  0.680273  0.778508  1
  Ho  Ho5  1  0.680273  0.180273  0.778508  1
  Ho  Ho6  1  0.180273  0.319727  0.778508  1
  Ho  Ho7  1  0.180273  0.319727  0.221492  1
  Er  Er8  1  0.000000  0.000000  0.500000  1
  Er  Er9  1  0.500000  0.500000  0.500000  1
  Ge  Ge10  1  0.120625  0.620625  0.500000  1
  Ge  Ge11  1  0.879375  0.379375  0.500000  1
  Ge  Ge12  1  0.379375  0.120625  0.500000  1
  Ge  Ge13  1  0.620625  0.879375  0.500000  1
  B  B14  1  0.172454  0.039302  0.000000  1
  B  B15  1  0.827546  0.960698  0.000000  1
  B  B16  1  0.960698  0.172454  0.000000  1
  B  B17  1  0.327546  0.539302  0.000000  1
  B  B18  1  0.039302  0.827546  0.000000  1
  B  B19  1  0.672454  0.460698  0.000000  1
  B  B20  1  0.539302  0.672454  0.000000  1
  B  B21  1  0.460698  0.327546  0.000000  1
  B  B22  1  0.089979  0.589979  0.000000  1
  B  B23  1  0.910021  0.410021  0.000000  1
  B  B24  1  0.410021  0.089979  0.000000  1
  B  B25  1  0.589979  0.910021  0.000000  1
  B  B26  1  0.000000  0.000000  0.163756  1
  B  B27  1  0.000000  0.000000  0.836244  1
  B  B28  1  0.500000  0.500000  0.836244  1
  B  B29  1  0.500000  0.500000  0.163756  1
