# generated using pymatgen
data_ErCdRh2O7
_symmetry_space_group_name_H-M   'P 1'
_cell_length_a   7.20551232
_cell_length_b   7.20551218
_cell_length_c   7.14612600
_cell_angle_alpha   60.27226315
_cell_angle_beta   60.27226378
_cell_angle_gamma   60.88866010
_symmetry_Int_Tables_number   1
_chemical_formula_structural   ErCdRh2O7
_chemical_formula_sum   'Er2 Cd2 Rh4 O14'
_cell_volume   265.16529432
_cell_formula_units_Z   2
loop_
 _symmetry_equiv_pos_site_id
 _symmetry_equiv_pos_as_xyz
  1  'x, y, z'
loop_
 _atom_site_type_symbol
 _atom_site_label
 _atom_site_symmetry_multiplicity
 _atom_site_fract_x
 _atom_site_fract_y
 _atom_site_fract_z
 _atom_site_occupancy
  Er  Er0  1  0.125000  0.625000  0.125000  1
  Er  Er1  1  0.625000  0.125000  0.125000  1
  Cd  Cd2  1  0.125000  0.125000  0.125000  1
  Cd  Cd3  1  0.125000  0.125000  0.625000  1
  Rh  Rh4  1  0.625000  0.625000  0.625000  1
  Rh  Rh5  1  0.625000  0.625000  0.125000  1
  Rh  Rh6  1  0.125000  0.625000  0.625000  1
  Rh  Rh7  1  0.625000  0.125000  0.625000  1
  O  O8  1  0.249905  0.249905  0.250095  1
  O  O9  1  0.296860  0.695259  0.292952  1
  O  O10  1  0.950460  0.950460  0.549540  1
  O  O11  1  0.554741  0.953140  0.535071  1
  O  O12  1  0.713702  0.713702  0.286298  1
  O  O13  1  0.953140  0.554741  0.535071  1
  O  O14  1  0.695259  0.296860  0.714929  1
  O  O15  1  0.299540  0.299540  0.700460  1
  O  O16  1  0.695259  0.296860  0.292952  1
  O  O17  1  0.296860  0.695259  0.714929  1
  O  O18  1  0.953140  0.554741  0.957048  1
  O  O19  1  0.536298  0.536298  0.963702  1
  O  O20  1  0.000095  0.000095  0.999905  1
  O  O21  1  0.554741  0.953140  0.957048  1
