# generated using pymatgen
data_Tm12InFe2TcNi
_symmetry_space_group_name_H-M   'P 1'
_cell_length_a   8.13500227
_cell_length_b   8.13521887
_cell_length_c   8.13500371
_cell_angle_alpha   106.43796601
_cell_angle_beta   111.66790357
_cell_angle_gamma   110.35159330
_symmetry_Int_Tables_number   1
_chemical_formula_structural   Tm12InFe2TcNi
_chemical_formula_sum   'Tm12 In1 Fe2 Tc1 Ni1'
_cell_volume   413.52336585
_cell_formula_units_Z   1
loop_
 _symmetry_equiv_pos_site_id
 _symmetry_equiv_pos_as_xyz
  1  'x, y, z'
loop_
 _atom_site_type_symbol
 _atom_site_label
 _atom_site_symmetry_multiplicity
 _atom_site_fract_x
 _atom_site_fract_y
 _atom_site_fract_z
 _atom_site_occupancy
  Tm  Tm0  1  0.191503  0.415435  0.223931  1
  Tm  Tm1  1  0.808497  0.584565  0.776069  1
  Tm  Tm2  1  0.191511  0.967559  0.776047  1
  Tm  Tm3  1  0.917524  0.188648  0.728872  1
  Tm  Tm4  1  0.808489  0.032441  0.223953  1
  Tm  Tm5  1  0.082476  0.811352  0.271128  1
  Tm  Tm6  1  0.459775  0.188648  0.271125  1
  Tm  Tm7  1  0.540225  0.811352  0.728875  1
  Tm  Tm8  1  0.307834  0.309216  0.617066  1
  Tm  Tm9  1  0.692166  0.690784  0.382934  1
  Tm  Tm10  1  0.692150  0.309216  0.001382  1
  Tm  Tm11  1  0.307850  0.690784  0.998618  1
  In  In12  1  0.000000  0.500000  0.500000  1
  Fe  Fe13  1  0.382443  0.382415  0.999971  1
  Fe  Fe14  1  0.617557  0.617585  0.000029  1
  Tc  Tc15  1  0.000000  0.000000  0.000000  1
  Ni  Ni16  1  0.500000  0.000000  0.500000  1
