# generated using pymatgen
data_Pr2Nd(AlNi)3
_symmetry_space_group_name_H-M   'P 1'
_cell_length_a   7.09307414
_cell_length_b   7.08151758
_cell_length_c   4.09655100
_cell_angle_alpha   90.00000000
_cell_angle_beta   90.00000000
_cell_angle_gamma   119.94612365
_symmetry_Int_Tables_number   1
_chemical_formula_structural   Pr2Nd(AlNi)3
_chemical_formula_sum   'Pr2 Nd1 Al3 Ni3'
_cell_volume   178.29754126
_cell_formula_units_Z   1
loop_
 _symmetry_equiv_pos_site_id
 _symmetry_equiv_pos_as_xyz
  1  'x, y, z'
loop_
 _atom_site_type_symbol
 _atom_site_label
 _atom_site_symmetry_multiplicity
 _atom_site_fract_x
 _atom_site_fract_y
 _atom_site_fract_z
 _atom_site_occupancy
  Pr  Pr0  1  0.579890  0.580124  0.500000  1
  Pr  Pr1  1  0.420110  0.000234  0.500000  1
  Nd  Nd2  1  0.000000  0.419309  0.500000  1
  Al  Al3  1  0.000000  0.772029  0.000000  1
  Al  Al4  1  0.226892  0.227681  0.000000  1
  Al  Al5  1  0.773108  0.000790  0.000000  1
  Ni  Ni6  1  0.332810  0.666298  0.000000  1
  Ni  Ni7  1  0.667190  0.333487  0.000000  1
  Ni  Ni8  1  0.000000  0.000047  0.500000  1
