# generated using pymatgen
data_Ce5Dy3Tm2(SiB4)4
_symmetry_space_group_name_H-M   'P 1'
_cell_length_a   7.27220748
_cell_length_b   7.27383138
_cell_length_c   8.17787917
_cell_angle_alpha   89.98975215
_cell_angle_beta   89.97868351
_cell_angle_gamma   90.03582752
_symmetry_Int_Tables_number   1
_chemical_formula_structural   Ce5Dy3Tm2(SiB4)4
_chemical_formula_sum   'Ce5 Dy3 Tm2 Si4 B16'
_cell_volume   432.58360772
_cell_formula_units_Z   1
loop_
 _symmetry_equiv_pos_site_id
 _symmetry_equiv_pos_as_xyz
  1  'x, y, z'
loop_
 _atom_site_type_symbol
 _atom_site_label
 _atom_site_symmetry_multiplicity
 _atom_site_fract_x
 _atom_site_fract_y
 _atom_site_fract_z
 _atom_site_occupancy
  Ce  Ce0  1  0.681682  0.182151  0.227855  1
  Ce  Ce1  1  0.317430  0.817579  0.771532  1
  Ce  Ce2  1  0.318395  0.818592  0.229034  1
  Ce  Ce3  1  0.818436  0.681644  0.228569  1
  Ce  Ce4  1  0.818322  0.681790  0.771259  1
  Dy  Dy5  1  0.681669  0.181969  0.778353  1
  Dy  Dy6  1  0.181416  0.318621  0.779261  1
  Dy  Dy7  1  0.181047  0.318783  0.220684  1
  Tm  Tm8  1  0.001214  0.001515  0.500863  1
  Tm  Tm9  1  0.499760  0.498033  0.500584  1
  Si  Si10  1  0.116569  0.612581  0.500507  1
  Si  Si11  1  0.884408  0.382026  0.500506  1
  Si  Si12  1  0.381939  0.118160  0.500751  1
  Si  Si13  1  0.614884  0.887045  0.500797  1
  B  B14  1  0.173148  0.039745  0.998969  1
  B  B15  1  0.827872  0.962108  0.999519  1
  B  B16  1  0.960637  0.173414  0.999399  1
  B  B17  1  0.327424  0.538564  0.998888  1
  B  B18  1  0.039293  0.828346  0.999072  1
  B  B19  1  0.672450  0.459985  0.999261  1
  B  B20  1  0.538385  0.671665  0.999073  1
  B  B21  1  0.460596  0.326377  0.999647  1
  B  B22  1  0.091374  0.590820  0.999468  1
  B  B23  1  0.909476  0.408784  0.000444  1
  B  B24  1  0.409669  0.090714  0.999509  1
  B  B25  1  0.591040  0.909261  0.999199  1
  B  B26  1  0.000303  0.000266  0.160140  1
  B  B27  1  0.000995  0.000814  0.838505  1
  B  B28  1  0.500619  0.499744  0.838327  1
  B  B29  1  0.499549  0.498905  0.160023  1
