# generated using pymatgen
data_Tb15Lu(ZnCo)4
_symmetry_space_group_name_H-M   'P 1'
_cell_length_a   9.38370983
_cell_length_b   9.38370932
_cell_length_c   9.39643100
_cell_angle_alpha   59.95514653
_cell_angle_beta   59.95514835
_cell_angle_gamma   59.99447447
_symmetry_Int_Tables_number   1
_chemical_formula_structural   Tb15Lu(ZnCo)4
_chemical_formula_sum   'Tb15 Lu1 Zn4 Co4'
_cell_volume   584.63413833
_cell_formula_units_Z   1
loop_
 _symmetry_equiv_pos_site_id
 _symmetry_equiv_pos_as_xyz
  1  'x, y, z'
loop_
 _atom_site_type_symbol
 _atom_site_label
 _atom_site_symmetry_multiplicity
 _atom_site_fract_x
 _atom_site_fract_y
 _atom_site_fract_z
 _atom_site_occupancy
  Tb  Tb0  1  0.599073  0.599073  0.603081  1
  Tb  Tb1  1  0.188566  0.811444  0.812880  1
  Tb  Tb2  1  0.059040  0.059040  0.440960  1
  Tb  Tb3  1  0.441165  0.061232  0.058990  1
  Tb  Tb4  1  0.811444  0.188566  0.812880  1
  Tb  Tb5  1  0.441165  0.061232  0.438613  1
  Tb  Tb6  1  0.599636  0.200282  0.600041  1
  Tb  Tb7  1  0.811095  0.811095  0.188905  1
  Tb  Tb8  1  0.200282  0.599636  0.600041  1
  Tb  Tb9  1  0.811444  0.188566  0.187110  1
  Tb  Tb10  1  0.061232  0.441165  0.438613  1
  Tb  Tb11  1  0.188566  0.811444  0.187110  1
  Tb  Tb12  1  0.599073  0.599073  0.198772  1
  Tb  Tb13  1  0.187711  0.187711  0.812289  1
  Tb  Tb14  1  0.061232  0.441165  0.058990  1
  Lu  Lu15  1  0.440805  0.440805  0.059195  1
  Zn  Zn16  1  0.827723  0.827723  0.516759  1
  Zn  Zn17  1  0.827723  0.827723  0.827793  1
  Zn  Zn18  1  0.516740  0.826592  0.828333  1
  Zn  Zn19  1  0.826592  0.516740  0.828333  1
  Co  Co20  1  0.391473  0.391473  0.390569  1
  Co  Co21  1  0.824908  0.391835  0.391629  1
  Co  Co22  1  0.391835  0.824908  0.391629  1
  Co  Co23  1  0.391473  0.391473  0.826485  1
