# generated using pymatgen
data_Dy4TcB12Os
_symmetry_space_group_name_H-M   'P 1'
_cell_length_a   3.67370900
_cell_length_b   9.16673178
_cell_length_c   11.55080123
_cell_angle_alpha   89.92870514
_cell_angle_beta   90.00000000
_cell_angle_gamma   90.00000000
_symmetry_Int_Tables_number   1
_chemical_formula_structural   Dy4TcB12Os
_chemical_formula_sum   'Dy8 Tc2 B24 Os2'
_cell_volume   388.98338416
_cell_formula_units_Z   2
loop_
 _symmetry_equiv_pos_site_id
 _symmetry_equiv_pos_as_xyz
  1  'x, y, z'
loop_
 _atom_site_type_symbol
 _atom_site_label
 _atom_site_symmetry_multiplicity
 _atom_site_fract_x
 _atom_site_fract_y
 _atom_site_fract_z
 _atom_site_occupancy
  Dy  Dy0  1  0.000000  0.324955  0.415081  1
  Dy  Dy1  1  0.000000  0.675045  0.584919  1
  Dy  Dy2  1  0.000000  0.821559  0.087388  1
  Dy  Dy3  1  0.000000  0.178441  0.912612  1
  Dy  Dy4  1  0.000000  0.941845  0.370986  1
  Dy  Dy5  1  0.000000  0.058155  0.629014  1
  Dy  Dy6  1  0.000000  0.443699  0.129843  1
  Dy  Dy7  1  0.000000  0.556301  0.870157  1
  Tc  Tc8  1  0.000000  0.638423  0.320433  1
  Tc  Tc9  1  0.000000  0.361577  0.679567  1
  B  B10  1  0.500000  0.553243  0.432902  1
  B  B11  1  0.500000  0.446757  0.567098  1
  B  B12  1  0.500000  0.053693  0.067143  1
  B  B13  1  0.500000  0.946307  0.932857  1
  B  B14  1  0.500000  0.748114  0.419138  1
  B  B15  1  0.500000  0.251886  0.580862  1
  B  B16  1  0.500000  0.248217  0.081143  1
  B  B17  1  0.500000  0.751783  0.918857  1
  B  B18  1  0.500000  0.791308  0.265780  1
  B  B19  1  0.500000  0.208692  0.734220  1
  B  B20  1  0.500000  0.290586  0.233918  1
  B  B21  1  0.500000  0.709414  0.766082  1
  B  B22  1  0.500000  0.631744  0.185520  1
  B  B23  1  0.500000  0.368256  0.814480  1
  B  B24  1  0.500000  0.131167  0.313724  1
  B  B25  1  0.500000  0.868833  0.686276  1
  B  B26  1  0.500000  0.983207  0.212024  1
  B  B27  1  0.500000  0.016793  0.787976  1
  B  B28  1  0.500000  0.483125  0.287589  1
  B  B29  1  0.500000  0.516875  0.712411  1
  B  B30  1  0.500000  0.604783  0.028919  1
  B  B31  1  0.500000  0.395217  0.971081  1
  B  B32  1  0.500000  0.104382  0.470698  1
  B  B33  1  0.500000  0.895617  0.529302  1
  Os  Os34  1  0.000000  0.137388  0.178122  1
  Os  Os35  1  0.000000  0.862612  0.821878  1
