# generated using pymatgen
data_Lu2Ga9NiRh2
_symmetry_space_group_name_H-M   'P 1'
_cell_length_a   7.51148000
_cell_length_b   7.51148073
_cell_length_c   9.40072100
_cell_angle_alpha   90.00000000
_cell_angle_beta   90.00000000
_cell_angle_gamma   120.18288109
_symmetry_Int_Tables_number   1
_chemical_formula_structural   Lu2Ga9NiRh2
_chemical_formula_sum   'Lu4 Ga18 Ni2 Rh4'
_cell_volume   458.50025662
_cell_formula_units_Z   2
loop_
 _symmetry_equiv_pos_site_id
 _symmetry_equiv_pos_as_xyz
  1  'x, y, z'
loop_
 _atom_site_type_symbol
 _atom_site_label
 _atom_site_symmetry_multiplicity
 _atom_site_fract_x
 _atom_site_fract_y
 _atom_site_fract_z
 _atom_site_occupancy
  Lu  Lu0  1  0.996102  0.662299  0.250000  1
  Lu  Lu1  1  0.003898  0.337701  0.750000  1
  Lu  Lu2  1  0.662299  0.996102  0.250000  1
  Lu  Lu3  1  0.337701  0.003898  0.750000  1
  Ga  Ga4  1  0.111924  0.111924  0.250000  1
  Ga  Ga5  1  0.888076  0.888076  0.750000  1
  Ga  Ga6  1  0.998372  0.327912  0.078444  1
  Ga  Ga7  1  0.001628  0.672088  0.921556  1
  Ga  Ga8  1  0.001628  0.672088  0.578444  1
  Ga  Ga9  1  0.327912  0.998372  0.421556  1
  Ga  Ga10  1  0.998372  0.327912  0.421556  1
  Ga  Ga11  1  0.672088  0.001628  0.578444  1
  Ga  Ga12  1  0.672088  0.001628  0.921556  1
  Ga  Ga13  1  0.327912  0.998372  0.078444  1
  Ga  Ga14  1  0.326858  0.326858  0.566100  1
  Ga  Ga15  1  0.673142  0.673142  0.433900  1
  Ga  Ga16  1  0.673142  0.673142  0.066100  1
  Ga  Ga17  1  0.326858  0.326858  0.933900  1
  Ga  Ga18  1  0.336395  0.542489  0.250000  1
  Ga  Ga19  1  0.663605  0.457511  0.750000  1
  Ga  Ga20  1  0.542489  0.336395  0.250000  1
  Ga  Ga21  1  0.457511  0.663605  0.750000  1
  Ni  Ni22  1  0.000000  0.000000  0.000000  1
  Ni  Ni23  1  0.000000  0.000000  0.500000  1
  Rh  Rh24  1  0.671612  0.328388  0.000000  1
  Rh  Rh25  1  0.328388  0.671612  0.000000  1
  Rh  Rh26  1  0.328388  0.671612  0.500000  1
  Rh  Rh27  1  0.671612  0.328388  0.500000  1
