# generated using pymatgen
data_Ta2Ti11MoP8
_symmetry_space_group_name_H-M   'P 1'
_cell_length_a   7.53473077
_cell_length_b   7.53473108
_cell_length_c   13.59103296
_cell_angle_alpha   75.78359616
_cell_angle_beta   75.78359586
_cell_angle_gamma   26.07545559
_symmetry_Int_Tables_number   1
_chemical_formula_structural   Ta2Ti11MoP8
_chemical_formula_sum   'Ta2 Ti11 Mo1 P8'
_cell_volume   328.20399462
_cell_formula_units_Z   1
loop_
 _symmetry_equiv_pos_site_id
 _symmetry_equiv_pos_as_xyz
  1  'x, y, z'
loop_
 _atom_site_type_symbol
 _atom_site_label
 _atom_site_symmetry_multiplicity
 _atom_site_fract_x
 _atom_site_fract_y
 _atom_site_fract_z
 _atom_site_occupancy
  Ta  Ta0  1  0.000300  0.000300  0.999927  1
  Ta  Ta1  1  0.428434  0.428434  0.172802  1
  Ti  Ti2  1  0.571195  0.571195  0.826809  1
  Ti  Ti3  1  0.197276  0.197276  0.689478  1
  Ti  Ti4  1  0.802148  0.802148  0.311341  1
  Ti  Ti5  1  0.207486  0.207486  0.207500  1
  Ti  Ti6  1  0.793370  0.793370  0.793305  1
  Ti  Ti7  1  0.340168  0.340168  0.968529  1
  Ti  Ti8  1  0.661247  0.661247  0.031164  1
  Ti  Ti9  1  0.003510  0.003510  0.340297  1
  Ti  Ti10  1  0.995895  0.995895  0.658642  1
  Ti  Ti11  1  0.176072  0.176072  0.459564  1
  Ti  Ti12  1  0.823576  0.823576  0.540633  1
  Mo  Mo13  1  0.499998  0.499998  0.499870  1
  P  P14  1  0.178215  0.178215  0.888821  1
  P  P15  1  0.819248  0.819248  0.110179  1
  P  P16  1  0.372860  0.372860  0.395493  1
  P  P17  1  0.627158  0.627158  0.604948  1
  P  P18  1  0.368837  0.368837  0.659021  1
  P  P19  1  0.630721  0.630721  0.340921  1
  P  P20  1  0.064395  0.064395  0.154582  1
  P  P21  1  0.937890  0.937890  0.846175  1
