# generated using pymatgen
data_Tm4InAgPd4
_symmetry_space_group_name_H-M   'P 1'
_cell_length_a   7.62704500
_cell_length_b   7.62704500
_cell_length_c   3.67891100
_cell_angle_alpha   90.00000000
_cell_angle_beta   90.00000000
_cell_angle_gamma   90.00000000
_symmetry_Int_Tables_number   1
_chemical_formula_structural   Tm4InAgPd4
_chemical_formula_sum   'Tm4 In1 Ag1 Pd4'
_cell_volume   214.00893168
_cell_formula_units_Z   1
loop_
 _symmetry_equiv_pos_site_id
 _symmetry_equiv_pos_as_xyz
  1  'x, y, z'
loop_
 _atom_site_type_symbol
 _atom_site_label
 _atom_site_symmetry_multiplicity
 _atom_site_fract_x
 _atom_site_fract_y
 _atom_site_fract_z
 _atom_site_occupancy
  Tm  Tm0  1  0.329251  0.828843  0.500000  1
  Tm  Tm1  1  0.828843  0.670749  0.500000  1
  Tm  Tm2  1  0.171157  0.329251  0.500000  1
  Tm  Tm3  1  0.670749  0.171157  0.500000  1
  In  In4  1  0.500000  0.500000  0.000000  1
  Ag  Ag5  1  0.000000  0.000000  0.000000  1
  Pd  Pd6  1  0.366991  0.127348  0.000000  1
  Pd  Pd7  1  0.872652  0.366991  0.000000  1
  Pd  Pd8  1  0.127348  0.633009  0.000000  1
  Pd  Pd9  1  0.633009  0.872652  0.000000  1
