# generated using pymatgen
data_YTm5FeSb2
_symmetry_space_group_name_H-M   'P 1'
_cell_length_a   8.10444090
_cell_length_b   8.14057943
_cell_length_c   4.12925000
_cell_angle_alpha   90.00000000
_cell_angle_beta   90.00000000
_cell_angle_gamma   120.14760921
_symmetry_Int_Tables_number   1
_chemical_formula_structural   YTm5FeSb2
_chemical_formula_sum   'Y1 Tm5 Fe1 Sb2'
_cell_volume   235.57667623
_cell_formula_units_Z   1
loop_
 _symmetry_equiv_pos_site_id
 _symmetry_equiv_pos_as_xyz
  1  'x, y, z'
loop_
 _atom_site_type_symbol
 _atom_site_label
 _atom_site_symmetry_multiplicity
 _atom_site_fract_x
 _atom_site_fract_y
 _atom_site_fract_z
 _atom_site_occupancy
  Y  Y0  1  0.000000  0.603977  0.500000  1
  Tm  Tm1  1  0.234819  0.001719  0.000000  1
  Tm  Tm2  1  0.765181  0.766900  0.000000  1
  Tm  Tm3  1  0.000000  0.233154  0.000000  1
  Tm  Tm4  1  0.393877  0.393791  0.500000  1
  Tm  Tm5  1  0.606123  0.999913  0.500000  1
  Fe  Fe6  1  0.000000  0.002405  0.500000  1
  Sb  Sb7  1  0.334943  0.666542  0.000000  1
  Sb  Sb8  1  0.665057  0.331599  0.000000  1
