# generated using pymatgen
data_Sr7YbTa4O18
_symmetry_space_group_name_H-M   'P 1'
_cell_length_a   5.92246352
_cell_length_b   5.92253091
_cell_length_c   15.36510002
_cell_angle_alpha   89.97256375
_cell_angle_beta   89.97739767
_cell_angle_gamma   59.99885132
_symmetry_Int_Tables_number   1
_chemical_formula_structural   Sr7YbTa4O18
_chemical_formula_sum   'Sr7 Yb1 Ta4 O18'
_cell_volume   466.73532319
_cell_formula_units_Z   1
loop_
 _symmetry_equiv_pos_site_id
 _symmetry_equiv_pos_as_xyz
  1  'x, y, z'
loop_
 _atom_site_type_symbol
 _atom_site_label
 _atom_site_symmetry_multiplicity
 _atom_site_fract_x
 _atom_site_fract_y
 _atom_site_fract_z
 _atom_site_occupancy
  Sr  Sr0  1  0.000017  0.999884  0.241587  1
  Sr  Sr1  1  0.000000  0.000000  0.500000  1
  Sr  Sr2  1  0.666561  0.667319  0.353950  1
  Sr  Sr3  1  0.667104  0.665202  0.115523  1
  Sr  Sr4  1  0.332896  0.334798  0.884477  1
  Sr  Sr5  1  0.333439  0.332681  0.646050  1
  Sr  Sr6  1  0.999983  0.000116  0.758413  1
  Yb  Yb7  1  0.000000  0.000000  0.000000  1
  Ta  Ta8  1  0.665983  0.667910  0.855403  1
  Ta  Ta9  1  0.666963  0.666195  0.660246  1
  Ta  Ta10  1  0.333037  0.333805  0.339754  1
  Ta  Ta11  1  0.334017  0.332090  0.144597  1
  O  O12  1  0.589780  0.961577  0.758864  1
  O  O13  1  0.919610  0.728511  0.606286  1
  O  O14  1  0.910060  0.743794  0.910345  1
  O  O15  1  0.350778  0.918557  0.606711  1
  O  O16  1  0.347013  0.912538  0.910725  1
  O  O17  1  0.961175  0.448888  0.759368  1
  O  O18  1  0.448659  0.589821  0.759589  1
  O  O19  1  0.259217  0.649676  0.088138  1
  O  O20  1  0.269795  0.650508  0.392816  1
  O  O21  1  0.730205  0.349492  0.607184  1
  O  O22  1  0.740783  0.350324  0.911862  1
  O  O23  1  0.551341  0.410179  0.240411  1
  O  O24  1  0.038825  0.551112  0.240632  1
  O  O25  1  0.652987  0.087462  0.089275  1
  O  O26  1  0.649222  0.081443  0.393289  1
  O  O27  1  0.089940  0.256206  0.089655  1
  O  O28  1  0.080390  0.271489  0.393714  1
  O  O29  1  0.410220  0.038423  0.241136  1
