# generated using pymatgen
data_Er5Ru2C7
_symmetry_space_group_name_H-M   'P 1'
_cell_length_a   8.11319168
_cell_length_b   8.11319237
_cell_length_c   3.48325300
_cell_angle_alpha   90.00000000
_cell_angle_beta   90.00000000
_cell_angle_gamma   121.69180662
_symmetry_Int_Tables_number   1
_chemical_formula_structural   Er5Ru2C7
_chemical_formula_sum   'Er5 Ru2 C7'
_cell_volume   195.09225693
_cell_formula_units_Z   1
loop_
 _symmetry_equiv_pos_site_id
 _symmetry_equiv_pos_as_xyz
  1  'x, y, z'
loop_
 _atom_site_type_symbol
 _atom_site_label
 _atom_site_symmetry_multiplicity
 _atom_site_fract_x
 _atom_site_fract_y
 _atom_site_fract_z
 _atom_site_occupancy
  Er  Er0  1  0.500000  0.500000  0.000000  1
  Er  Er1  1  0.077874  0.339080  0.500000  1
  Er  Er2  1  0.922126  0.660920  0.500000  1
  Er  Er3  1  0.660920  0.922126  0.500000  1
  Er  Er4  1  0.339080  0.077874  0.500000  1
  Ru  Ru5  1  0.713019  0.286981  0.000000  1
  Ru  Ru6  1  0.286981  0.713019  0.000000  1
  C  C7  1  0.628059  0.371941  0.500000  1
  C  C8  1  0.371941  0.628059  0.500000  1
  C  C9  1  0.000000  0.000000  0.000000  1
  C  C10  1  0.172068  0.172068  0.000000  1
  C  C11  1  0.827932  0.827932  0.000000  1
  C  C12  1  0.000000  0.500000  0.000000  1
  C  C13  1  0.500000  0.000000  0.000000  1
