# generated using pymatgen
data_Sr2Ga3GePt2
_symmetry_space_group_name_H-M   'P 1'
_cell_length_a   9.29512782
_cell_length_b   9.29512751
_cell_length_c   4.34044300
_cell_angle_alpha   90.00000000
_cell_angle_beta   90.00000000
_cell_angle_gamma   151.43839010
_symmetry_Int_Tables_number   1
_chemical_formula_structural   Sr2Ga3GePt2
_chemical_formula_sum   'Sr2 Ga3 Ge1 Pt2'
_cell_volume   179.29437857
_cell_formula_units_Z   1
loop_
 _symmetry_equiv_pos_site_id
 _symmetry_equiv_pos_as_xyz
  1  'x, y, z'
loop_
 _atom_site_type_symbol
 _atom_site_label
 _atom_site_symmetry_multiplicity
 _atom_site_fract_x
 _atom_site_fract_y
 _atom_site_fract_z
 _atom_site_occupancy
  Sr  Sr0  1  0.895033  0.104966  0.249999  1
  Sr  Sr1  1  0.106073  0.893926  0.750000  1
  Ga  Ga2  1  0.538460  0.461539  0.249999  1
  Ga  Ga3  1  0.244959  0.755040  0.249999  1
  Ga  Ga4  1  0.755333  0.244666  0.750000  1
  Ge  Ge5  1  0.460554  0.539445  0.750000  1
  Pt  Pt6  1  0.677889  0.322110  0.249999  1
  Pt  Pt7  1  0.321696  0.678303  0.750000  1
