# generated using pymatgen
data_Ho7TmTa10Ti2Si15Ge
_symmetry_space_group_name_H-M   'P 1'
_cell_length_a   7.04829768
_cell_length_b   7.03382734
_cell_length_c   12.95424109
_cell_angle_alpha   90.00280506
_cell_angle_beta   89.98135955
_cell_angle_gamma   89.95539222
_symmetry_Int_Tables_number   1
_chemical_formula_structural   Ho7TmTa10Ti2Si15Ge
_chemical_formula_sum   'Ho7 Tm1 Ta10 Ti2 Si15 Ge1'
_cell_volume   642.22581949
_cell_formula_units_Z   1
loop_
 _symmetry_equiv_pos_site_id
 _symmetry_equiv_pos_as_xyz
  1  'x, y, z'
loop_
 _atom_site_type_symbol
 _atom_site_label
 _atom_site_symmetry_multiplicity
 _atom_site_fract_x
 _atom_site_fract_y
 _atom_site_fract_z
 _atom_site_occupancy
  Ho  Ho0  1  0.499453  0.841251  0.718296  1
  Ho  Ho1  1  0.501360  0.158239  0.217876  1
  Ho  Ho2  1  0.841879  0.498477  0.282396  1
  Ho  Ho3  1  0.158470  0.502017  0.782778  1
  Ho  Ho4  1  0.658546  0.997668  0.968326  1
  Ho  Ho5  1  0.000053  0.342408  0.530448  1
  Ho  Ho6  1  0.998099  0.659399  0.031984  1
  Tm  Tm7  1  0.342977  0.000781  0.466723  1
  Ta  Ta8  1  0.329051  0.329456  0.999863  1
  Ta  Ta9  1  0.172923  0.826881  0.250244  1
  Ta  Ta10  1  0.824336  0.173745  0.750480  1
  Ta  Ta11  1  0.670900  0.670606  0.499690  1
  Ta  Ta12  1  0.153250  0.007565  0.875412  1
  Ta  Ta13  1  0.492986  0.652426  0.124319  1
  Ta  Ta14  1  0.509243  0.349098  0.623703  1
  Ta  Ta15  1  0.652438  0.492498  0.876610  1
  Ta  Ta16  1  0.347641  0.508034  0.376104  1
  Ta  Ta17  1  0.847154  0.992585  0.373817  1
  Ti  Ti18  1  0.008420  0.153467  0.126577  1
  Ti  Ti19  1  0.989032  0.843616  0.625342  1
  Si  Si20  1  0.366129  0.705546  0.931849  1
  Si  Si21  1  0.633273  0.294573  0.431331  1
  Si  Si22  1  0.705206  0.364770  0.069036  1
  Si  Si23  1  0.294693  0.635957  0.568677  1
  Si  Si24  1  0.797792  0.868101  0.181592  1
  Si  Si25  1  0.134659  0.202674  0.318365  1
  Si  Si26  1  0.866530  0.797465  0.818158  1
  Si  Si27  1  0.292392  0.955050  0.064683  1
  Si  Si28  1  0.546344  0.794319  0.313659  1
  Si  Si29  1  0.455786  0.205748  0.814846  1
  Si  Si30  1  0.796597  0.546520  0.685874  1
  Si  Si31  1  0.204241  0.452762  0.185459  1
  Si  Si32  1  0.706632  0.045086  0.564099  1
  Si  Si33  1  0.954471  0.294118  0.937081  1
  Si  Si34  1  0.046213  0.706754  0.436748  1
  Ge  Ge35  1  0.200824  0.130341  0.677559  1
