# generated using pymatgen
data_Ta9NbSiB4As
_symmetry_space_group_name_H-M   'P 1'
_cell_length_a   7.30848818
_cell_length_b   7.30605654
_cell_length_c   7.30619286
_cell_angle_alpha   129.23333327
_cell_angle_beta   129.24561406
_cell_angle_gamma   74.64129690
_symmetry_Int_Tables_number   1
_chemical_formula_structural   Ta9NbSiB4As
_chemical_formula_sum   'Ta9 Nb1 Si1 B4 As1'
_cell_volume   227.99268636
_cell_formula_units_Z   1
loop_
 _symmetry_equiv_pos_site_id
 _symmetry_equiv_pos_as_xyz
  1  'x, y, z'
loop_
 _atom_site_type_symbol
 _atom_site_label
 _atom_site_symmetry_multiplicity
 _atom_site_fract_x
 _atom_site_fract_y
 _atom_site_fract_z
 _atom_site_occupancy
  Ta  Ta0  1  0.999784  0.999651  0.999434  1
  Ta  Ta1  1  0.501014  0.500681  0.000835  1
  Ta  Ta2  1  0.801353  0.306295  0.830610  1
  Ta  Ta3  1  0.193714  0.698371  0.168237  1
  Ta  Ta4  1  0.474999  0.970535  0.168708  1
  Ta  Ta5  1  0.306206  0.475115  0.504773  1
  Ta  Ta6  1  0.024755  0.193327  0.495189  1
  Ta  Ta7  1  0.529975  0.025084  0.831436  1
  Ta  Ta8  1  0.698685  0.528951  0.504770  1
  Nb  Nb9  1  0.970749  0.802433  0.495831  1
  Si  Si10  1  0.750011  0.750065  0.999731  1
  B  B11  1  0.119496  0.618159  0.738706  1
  B  B12  1  0.880849  0.379666  0.261329  1
  B  B13  1  0.617241  0.881855  0.499967  1
  B  B14  1  0.380803  0.119307  0.500025  1
  As  As15  1  0.250367  0.250505  0.000420  1
