# generated using pymatgen
data_Li8Hf3TcBr24
_symmetry_space_group_name_H-M   'P 1'
_cell_length_a   6.74219400
_cell_length_b   6.74219376
_cell_length_c   26.71522600
_cell_angle_alpha   90.00000000
_cell_angle_beta   90.00000000
_cell_angle_gamma   120.00000120
_symmetry_Int_Tables_number   1
_chemical_formula_structural   Li8Hf3TcBr24
_chemical_formula_sum   'Li8 Hf3 Tc1 Br24'
_cell_volume   1051.70019100
_cell_formula_units_Z   1
loop_
 _symmetry_equiv_pos_site_id
 _symmetry_equiv_pos_as_xyz
  1  'x, y, z'
loop_
 _atom_site_type_symbol
 _atom_site_label
 _atom_site_symmetry_multiplicity
 _atom_site_fract_x
 _atom_site_fract_y
 _atom_site_fract_z
 _atom_site_occupancy
  Li  Li0  1  0.000000  0.000000  0.250098  1
  Li  Li1  1  0.000000  0.000000  0.749902  1
  Li  Li2  1  0.333333  0.666667  0.000648  1
  Li  Li3  1  0.333333  0.666667  0.499315  1
  Li  Li4  1  0.333333  0.666667  0.250098  1
  Li  Li5  1  0.666667  0.333333  0.749902  1
  Li  Li6  1  0.666667  0.333333  0.999352  1
  Li  Li7  1  0.666667  0.333333  0.500685  1
  Hf  Hf8  1  0.000000  0.000000  0.500000  1
  Hf  Hf9  1  0.333333  0.666667  0.749854  1
  Hf  Hf10  1  0.666667  0.333333  0.250146  1
  Tc  Tc11  1  0.000000  0.000000  0.000000  1
  Br  Br12  1  0.348674  0.014973  0.306942  1
  Br  Br13  1  0.333607  0.984890  0.806739  1
  Br  Br14  1  0.999624  0.307916  0.054795  1
  Br  Br15  1  0.000381  0.318469  0.556795  1
  Br  Br16  1  0.985027  0.333702  0.306942  1
  Br  Br17  1  0.015110  0.348716  0.806739  1
  Br  Br18  1  0.348716  0.333607  0.193261  1
  Br  Br19  1  0.333702  0.348674  0.693058  1
  Br  Br20  1  0.318469  0.318089  0.443205  1
  Br  Br21  1  0.307916  0.308292  0.945205  1
  Br  Br22  1  0.681911  0.000381  0.443205  1
  Br  Br23  1  0.308292  0.000376  0.054795  1
  Br  Br24  1  0.318089  0.999619  0.556795  1
  Br  Br25  1  0.692084  0.691708  0.054795  1
  Br  Br26  1  0.681531  0.681911  0.556795  1
  Br  Br27  1  0.666298  0.651326  0.306942  1
  Br  Br28  1  0.651284  0.666393  0.806739  1
  Br  Br29  1  0.984890  0.651284  0.193261  1
  Br  Br30  1  0.014973  0.666298  0.693058  1
  Br  Br31  1  0.999619  0.681531  0.443205  1
  Br  Br32  1  0.000376  0.692084  0.945205  1
  Br  Br33  1  0.691708  0.999624  0.945205  1
  Br  Br34  1  0.666393  0.015110  0.193261  1
  Br  Br35  1  0.651326  0.985027  0.693058  1
