# generated using pymatgen
data_Er16Sc4Ir5Rh7
_symmetry_space_group_name_H-M   'P 1'
_cell_length_a   10.69460408
_cell_length_b   10.69460408
_cell_length_c   6.24999803
_cell_angle_alpha   90.00774164
_cell_angle_beta   90.00774164
_cell_angle_gamma   90.01205399
_symmetry_Int_Tables_number   1
_chemical_formula_structural   Er16Sc4Ir5Rh7
_chemical_formula_sum   'Er16 Sc4 Ir5 Rh7'
_cell_volume   714.84072379
_cell_formula_units_Z   1
loop_
 _symmetry_equiv_pos_site_id
 _symmetry_equiv_pos_as_xyz
  1  'x, y, z'
loop_
 _atom_site_type_symbol
 _atom_site_label
 _atom_site_symmetry_multiplicity
 _atom_site_fract_x
 _atom_site_fract_y
 _atom_site_fract_z
 _atom_site_occupancy
  Er  Er0  1  0.287939  0.086304  0.376766  1
  Er  Er1  1  0.287925  0.912508  0.877451  1
  Er  Er2  1  0.711614  0.087392  0.877328  1
  Er  Er3  1  0.711525  0.912576  0.376853  1
  Er  Er4  1  0.585534  0.787280  0.877723  1
  Er  Er5  1  0.585405  0.212788  0.377598  1
  Er  Er6  1  0.413451  0.787551  0.377508  1
  Er  Er7  1  0.414470  0.212734  0.877710  1
  Er  Er8  1  0.212720  0.414466  0.622277  1
  Er  Er9  1  0.212449  0.586549  0.122492  1
  Er  Er10  1  0.787212  0.414595  0.122402  1
  Er  Er11  1  0.787266  0.585530  0.622290  1
  Er  Er12  1  0.913696  0.712061  0.123234  1
  Er  Er13  1  0.912608  0.288386  0.622672  1
  Er  Er14  1  0.087492  0.712075  0.622549  1
  Er  Er15  1  0.087424  0.288475  0.123147  1
  Sc  Sc16  1  0.000465  0.999572  0.499352  1
  Sc  Sc17  1  0.000428  0.999535  0.000648  1
  Sc  Sc18  1  0.499985  0.499938  0.000057  1
  Sc  Sc19  1  0.500062  0.500015  0.499943  1
  Ir  Ir20  1  0.148171  0.851829  0.250000  1
  Ir  Ir21  1  0.649559  0.350441  0.750000  1
  Ir  Ir22  1  0.649550  0.649504  0.250032  1
  Ir  Ir23  1  0.350496  0.350450  0.249968  1
  Ir  Ir24  1  0.350931  0.649069  0.750000  1
  Rh  Rh25  1  0.851591  0.148409  0.250000  1
  Rh  Rh26  1  0.851085  0.851813  0.749831  1
  Rh  Rh27  1  0.148187  0.148915  0.750169  1
  Rh  Rh28  1  0.500510  0.000146  0.122541  1
  Rh  Rh29  1  0.500508  0.000112  0.622917  1
  Rh  Rh30  1  0.999888  0.499492  0.877083  1
  Rh  Rh31  1  0.999854  0.499490  0.377459  1
