# generated using pymatgen
data_Lu16Cd4Co3Ru
_symmetry_space_group_name_H-M   'P 1'
_cell_length_a   9.36663704
_cell_length_b   9.36663771
_cell_length_c   9.36663627
_cell_angle_alpha   59.60933949
_cell_angle_beta   59.60933995
_cell_angle_gamma   59.60934095
_symmetry_Int_Tables_number   1
_chemical_formula_structural   Lu16Cd4Co3Ru
_chemical_formula_sum   'Lu16 Cd4 Co3 Ru1'
_cell_volume   575.92093384
_cell_formula_units_Z   1
loop_
 _symmetry_equiv_pos_site_id
 _symmetry_equiv_pos_as_xyz
  1  'x, y, z'
loop_
 _atom_site_type_symbol
 _atom_site_label
 _atom_site_symmetry_multiplicity
 _atom_site_fract_x
 _atom_site_fract_y
 _atom_site_fract_z
 _atom_site_occupancy
  Lu  Lu0  1  0.438088  0.438088  0.057566  1
  Lu  Lu1  1  0.595636  0.595636  0.595636  1
  Lu  Lu2  1  0.187880  0.812568  0.812568  1
  Lu  Lu3  1  0.061372  0.061372  0.436847  1
  Lu  Lu4  1  0.436847  0.061372  0.061372  1
  Lu  Lu5  1  0.812568  0.187880  0.812568  1
  Lu  Lu6  1  0.438088  0.057566  0.438088  1
  Lu  Lu7  1  0.599493  0.210836  0.599493  1
  Lu  Lu8  1  0.812568  0.812568  0.187880  1
  Lu  Lu9  1  0.210836  0.599493  0.599493  1
  Lu  Lu10  1  0.808119  0.189489  0.189489  1
  Lu  Lu11  1  0.057566  0.438088  0.438088  1
  Lu  Lu12  1  0.189489  0.808119  0.189489  1
  Lu  Lu13  1  0.599493  0.599493  0.210836  1
  Lu  Lu14  1  0.189489  0.189489  0.808119  1
  Lu  Lu15  1  0.061372  0.436847  0.061372  1
  Cd  Cd16  1  0.830234  0.830234  0.507226  1
  Cd  Cd17  1  0.830126  0.830126  0.830126  1
  Cd  Cd18  1  0.507226  0.830234  0.830234  1
  Cd  Cd19  1  0.830234  0.507226  0.830234  1
  Co  Co20  1  0.828624  0.392017  0.392017  1
  Co  Co21  1  0.392017  0.828624  0.392017  1
  Co  Co22  1  0.392017  0.392017  0.828624  1
  Ru  Ru23  1  0.390619  0.390619  0.390619  1
