# generated using pymatgen
data_Hf6ZnSn5(IrRh2)2
_symmetry_space_group_name_H-M   'P 1'
_cell_length_a   7.48765955
_cell_length_b   7.48765995
_cell_length_c   6.97878113
_cell_angle_alpha   90.07962268
_cell_angle_beta   89.92037850
_cell_angle_gamma   120.57687853
_symmetry_Int_Tables_number   1
_chemical_formula_structural   Hf6ZnSn5(IrRh2)2
_chemical_formula_sum   'Hf6 Zn1 Sn5 Ir2 Rh4'
_cell_volume   336.85874952
_cell_formula_units_Z   1
loop_
 _symmetry_equiv_pos_site_id
 _symmetry_equiv_pos_as_xyz
  1  'x, y, z'
loop_
 _atom_site_type_symbol
 _atom_site_label
 _atom_site_symmetry_multiplicity
 _atom_site_fract_x
 _atom_site_fract_y
 _atom_site_fract_z
 _atom_site_occupancy
  Hf  Hf0  1  0.023462  0.401931  0.743089  1
  Hf  Hf1  1  0.590458  0.599809  0.741717  1
  Hf  Hf2  1  0.391848  0.006511  0.743798  1
  Hf  Hf3  1  0.006511  0.391848  0.256202  1
  Hf  Hf4  1  0.599809  0.590458  0.258283  1
  Hf  Hf5  1  0.401931  0.023462  0.256911  1
  Zn  Zn6  1  0.276658  0.276658  0.500000  1
  Sn  Sn7  1  0.001494  0.728321  0.499695  1
  Sn  Sn8  1  0.997790  0.727998  0.999739  1
  Sn  Sn9  1  0.728321  0.001494  0.500305  1
  Sn  Sn10  1  0.727998  0.997790  0.000261  1
  Sn  Sn11  1  0.268151  0.268151  0.000000  1
  Ir  Ir12  1  0.331184  0.660722  0.486027  1
  Ir  Ir13  1  0.660722  0.331184  0.513973  1
  Rh  Rh14  1  0.328543  0.661227  0.018421  1
  Rh  Rh15  1  0.001739  0.002155  0.740744  1
  Rh  Rh16  1  0.002155  0.001739  0.259256  1
  Rh  Rh17  1  0.661227  0.328543  0.981579  1
