# generated using pymatgen
data_Sc11Ir2RuRh
_symmetry_space_group_name_H-M   'P 1'
_cell_length_a   9.47184523
_cell_length_b   9.47184388
_cell_length_c   9.48899600
_cell_angle_alpha   59.94007937
_cell_angle_beta   59.94008407
_cell_angle_gamma   60.11982966
_symmetry_Int_Tables_number   1
_chemical_formula_structural   Sc11Ir2RuRh
_chemical_formula_sum   'Sc22 Ir4 Ru2 Rh2'
_cell_volume   601.96537912
_cell_formula_units_Z   2
loop_
 _symmetry_equiv_pos_site_id
 _symmetry_equiv_pos_as_xyz
  1  'x, y, z'
loop_
 _atom_site_type_symbol
 _atom_site_label
 _atom_site_symmetry_multiplicity
 _atom_site_fract_x
 _atom_site_fract_y
 _atom_site_fract_z
 _atom_site_occupancy
  Sc  Sc0  1  0.803256  0.803256  0.196744  1
  Sc  Sc1  1  0.195947  0.804053  0.195947  1
  Sc  Sc2  1  0.804053  0.195947  0.195947  1
  Sc  Sc3  1  0.196744  0.196744  0.803256  1
  Sc  Sc4  1  0.804053  0.195947  0.804053  1
  Sc  Sc5  1  0.195947  0.804053  0.804053  1
  Sc  Sc6  1  0.617466  0.617466  0.150435  1
  Sc  Sc7  1  0.614634  0.150435  0.617466  1
  Sc  Sc8  1  0.150435  0.614634  0.617466  1
  Sc  Sc9  1  0.617466  0.617466  0.614634  1
  Sc  Sc10  1  0.382534  0.382534  0.849565  1
  Sc  Sc11  1  0.385366  0.849565  0.382534  1
  Sc  Sc12  1  0.849565  0.385366  0.382534  1
  Sc  Sc13  1  0.382534  0.382534  0.385366  1
  Sc  Sc14  1  0.842478  0.842478  0.471511  1
  Sc  Sc15  1  0.843532  0.471511  0.842478  1
  Sc  Sc16  1  0.471511  0.843532  0.842478  1
  Sc  Sc17  1  0.842478  0.842478  0.843532  1
  Sc  Sc18  1  0.157522  0.157522  0.528489  1
  Sc  Sc19  1  0.156468  0.528489  0.157522  1
  Sc  Sc20  1  0.528489  0.156468  0.157522  1
  Sc  Sc21  1  0.157522  0.157522  0.156468  1
  Ir  Ir22  1  0.500000  0.000000  0.500000  1
  Ir  Ir23  1  0.000000  0.500000  0.500000  1
  Ir  Ir24  1  0.000000  0.500000  0.000000  1
  Ir  Ir25  1  0.500000  0.000000  0.000000  1
  Ru  Ru26  1  0.000000  0.000000  0.000000  1
  Ru  Ru27  1  0.500000  0.500000  0.500000  1
  Rh  Rh28  1  0.000000  0.000000  0.500000  1
  Rh  Rh29  1  0.500000  0.500000  0.000000  1
