# generated using pymatgen
data_Ho7Er3Tl4(InPd)4
_symmetry_space_group_name_H-M   'P 1'
_cell_length_a   3.61510700
_cell_length_b   8.16290250
_cell_length_c   18.25191584
_cell_angle_alpha   89.98812165
_cell_angle_beta   90.00000000
_cell_angle_gamma   90.00000000
_symmetry_Int_Tables_number   1
_chemical_formula_structural   Ho7Er3Tl4(InPd)4
_chemical_formula_sum   'Ho7 Er3 Tl4 In4 Pd4'
_cell_volume   538.60975341
_cell_formula_units_Z   1
loop_
 _symmetry_equiv_pos_site_id
 _symmetry_equiv_pos_as_xyz
  1  'x, y, z'
loop_
 _atom_site_type_symbol
 _atom_site_label
 _atom_site_symmetry_multiplicity
 _atom_site_fract_x
 _atom_site_fract_y
 _atom_site_fract_z
 _atom_site_occupancy
  Ho  Ho0  1  0.000000  0.500007  0.500110  1
  Ho  Ho1  1  0.000000  0.999778  0.999838  1
  Ho  Ho2  1  0.000000  0.739124  0.281015  1
  Ho  Ho3  1  0.000000  0.260985  0.718935  1
  Ho  Ho4  1  0.000000  0.760994  0.780889  1
  Ho  Ho5  1  0.000000  0.239337  0.219290  1
  Ho  Ho6  1  0.000000  0.617449  0.084121  1
  Er  Er7  1  0.000000  0.382415  0.915555  1
  Er  Er8  1  0.000000  0.882634  0.584394  1
  Er  Er9  1  0.000000  0.117231  0.415670  1
  Tl  Tl10  1  0.500000  0.708389  0.933122  1
  Tl  Tl11  1  0.500000  0.290796  0.066643  1
  Tl  Tl12  1  0.500000  0.791633  0.433516  1
  Tl  Tl13  1  0.500000  0.208269  0.566410  1
  In  In14  1  0.500000  0.583128  0.650324  1
  In  In15  1  0.500000  0.416988  0.349961  1
  In  In16  1  0.500000  0.918016  0.150362  1
  In  In17  1  0.500000  0.083101  0.849558  1
  Pd  Pd18  1  0.500000  0.524982  0.196615  1
  Pd  Pd19  1  0.500000  0.474549  0.803690  1
  Pd  Pd20  1  0.500000  0.974705  0.696088  1
  Pd  Pd21  1  0.500000  0.025492  0.303894  1
