# generated using pymatgen
data_Mg2MnBiRh4
_symmetry_space_group_name_H-M   'P 1'
_cell_length_a   6.33166700
_cell_length_b   6.33016400
_cell_length_c   6.31652100
_cell_angle_alpha   90.00000000
_cell_angle_beta   90.00000000
_cell_angle_gamma   90.00000000
_symmetry_Int_Tables_number   1
_chemical_formula_structural   Mg2MnBiRh4
_chemical_formula_sum   'Mg4 Mn2 Bi2 Rh8'
_cell_volume   253.16925995
_cell_formula_units_Z   2
loop_
 _symmetry_equiv_pos_site_id
 _symmetry_equiv_pos_as_xyz
  1  'x, y, z'
loop_
 _atom_site_type_symbol
 _atom_site_label
 _atom_site_symmetry_multiplicity
 _atom_site_fract_x
 _atom_site_fract_y
 _atom_site_fract_z
 _atom_site_occupancy
  Mg  Mg0  1  0.750038  0.250000  0.000000  1
  Mg  Mg1  1  0.249962  0.750000  0.000000  1
  Mg  Mg2  1  0.750062  0.250000  0.499999  1
  Mg  Mg3  1  0.249938  0.750000  0.500001  1
  Mn  Mn4  1  0.749969  0.750000  0.499999  1
  Mn  Mn5  1  0.250031  0.250000  0.500001  1
  Bi  Bi6  1  0.250001  0.250000  0.000000  1
  Bi  Bi7  1  0.749999  0.750000  0.000000  1
  Rh  Rh8  1  0.000000  0.000000  0.259999  1
  Rh  Rh9  1  0.000000  0.500000  0.259999  1
  Rh  Rh10  1  0.500001  0.000000  0.260102  1
  Rh  Rh11  1  0.500001  0.500000  0.260102  1
  Rh  Rh12  1  0.499999  0.000000  0.739899  1
  Rh  Rh13  1  0.499999  0.500000  0.739899  1
  Rh  Rh14  1  0.000000  0.000000  0.740001  1
  Rh  Rh15  1  0.000000  0.500000  0.740001  1
