# generated using pymatgen
data_Tb3Sc2Sn2Bi
_symmetry_space_group_name_H-M   'P 1'
_cell_length_a   8.87803524
_cell_length_b   8.87445211
_cell_length_c   6.28055800
_cell_angle_alpha   90.00000000
_cell_angle_beta   90.00000000
_cell_angle_gamma   119.98664699
_symmetry_Int_Tables_number   1
_chemical_formula_structural   Tb3Sc2Sn2Bi
_chemical_formula_sum   'Tb6 Sc4 Sn4 Bi2'
_cell_volume   428.59361531
_cell_formula_units_Z   2
loop_
 _symmetry_equiv_pos_site_id
 _symmetry_equiv_pos_as_xyz
  1  'x, y, z'
loop_
 _atom_site_type_symbol
 _atom_site_label
 _atom_site_symmetry_multiplicity
 _atom_site_fract_x
 _atom_site_fract_y
 _atom_site_fract_z
 _atom_site_occupancy
  Tb  Tb0  1  0.763082  0.000609  0.750000  1
  Tb  Tb1  1  0.763082  0.762473  0.250000  1
  Tb  Tb2  1  0.238540  0.995146  0.250000  1
  Tb  Tb3  1  0.238540  0.243395  0.750000  1
  Tb  Tb4  1  0.995705  0.756027  0.750000  1
  Tb  Tb5  1  0.995705  0.239678  0.250000  1
  Sc  Sc6  1  0.331246  0.665624  0.500000  1
  Sc  Sc7  1  0.671715  0.335857  0.000000  1
  Sc  Sc8  1  0.671715  0.335857  0.500000  1
  Sc  Sc9  1  0.331246  0.665624  0.000000  1
  Sn  Sn10  1  0.000504  0.598949  0.250000  1
  Sn  Sn11  1  0.000504  0.401555  0.750000  1
  Sn  Sn12  1  0.599595  0.600616  0.750000  1
  Sn  Sn13  1  0.599595  0.998979  0.250000  1
  Bi  Bi14  1  0.399612  0.000739  0.750000  1
  Bi  Bi15  1  0.399612  0.398874  0.250000  1
