# generated using pymatgen
data_Tb3YZn4IrPt3
_symmetry_space_group_name_H-M   'P 1'
_cell_length_a   4.21790800
_cell_length_b   6.94222805
_cell_length_c   8.09255919
_cell_angle_alpha   89.83932945
_cell_angle_beta   90.00000000
_cell_angle_gamma   90.00000000
_symmetry_Int_Tables_number   1
_chemical_formula_structural   Tb3YZn4IrPt3
_chemical_formula_sum   'Tb3 Y1 Zn4 Ir1 Pt3'
_cell_volume   236.96279047
_cell_formula_units_Z   1
loop_
 _symmetry_equiv_pos_site_id
 _symmetry_equiv_pos_as_xyz
  1  'x, y, z'
loop_
 _atom_site_type_symbol
 _atom_site_label
 _atom_site_symmetry_multiplicity
 _atom_site_fract_x
 _atom_site_fract_y
 _atom_site_fract_z
 _atom_site_occupancy
  Tb  Tb0  1  0.250000  0.538560  0.182372  1
  Tb  Tb1  1  0.750000  0.469257  0.814650  1
  Tb  Tb2  1  0.750000  0.959868  0.691529  1
  Y  Y3  1  0.250000  0.036205  0.311274  1
  Zn  Zn4  1  0.250000  0.644419  0.567100  1
  Zn  Zn5  1  0.750000  0.356898  0.434743  1
  Zn  Zn6  1  0.750000  0.854728  0.063371  1
  Zn  Zn7  1  0.250000  0.141045  0.934827  1
  Ir  Ir8  1  0.250000  0.755924  0.881829  1
  Pt  Pt9  1  0.750000  0.242632  0.118582  1
  Pt  Pt10  1  0.750000  0.742979  0.382755  1
  Pt  Pt11  1  0.250000  0.257487  0.616969  1
