# generated using pymatgen
data_Ho3Al12IrOs3
_symmetry_space_group_name_H-M   'P 1'
_cell_length_a   8.83530294
_cell_length_b   8.81184913
_cell_length_c   9.54415882
_cell_angle_alpha   90.00000147
_cell_angle_beta   90.19902345
_cell_angle_gamma   119.91222051
_symmetry_Int_Tables_number   1
_chemical_formula_structural   Ho3Al12IrOs3
_chemical_formula_sum   'Ho6 Al24 Ir2 Os6'
_cell_volume   644.07547836
_cell_formula_units_Z   2
loop_
 _symmetry_equiv_pos_site_id
 _symmetry_equiv_pos_as_xyz
  1  'x, y, z'
loop_
 _atom_site_type_symbol
 _atom_site_label
 _atom_site_symmetry_multiplicity
 _atom_site_fract_x
 _atom_site_fract_y
 _atom_site_fract_z
 _atom_site_occupancy
  Ho  Ho0  1  0.192722  0.389218  0.251331  1
  Ho  Ho1  1  0.807278  0.610782  0.748669  1
  Ho  Ho2  1  0.612621  0.806311  0.251205  1
  Ho  Ho3  1  0.387379  0.193689  0.748795  1
  Ho  Ho4  1  0.192722  0.803506  0.251331  1
  Ho  Ho5  1  0.807278  0.196494  0.748669  1
  Al  Al6  1  0.332429  0.666215  0.022958  1
  Al  Al7  1  0.667571  0.333785  0.977042  1
  Al  Al8  1  0.666553  0.333276  0.520614  1
  Al  Al9  1  0.333447  0.666724  0.479386  1
  Al  Al10  1  0.164337  0.326815  0.576057  1
  Al  Al11  1  0.835663  0.673185  0.423943  1
  Al  Al12  1  0.674369  0.837184  0.576411  1
  Al  Al13  1  0.837766  0.673557  0.075267  1
  Al  Al14  1  0.325631  0.162816  0.423589  1
  Al  Al15  1  0.162234  0.326443  0.924733  1
  Al  Al16  1  0.164337  0.837520  0.576057  1
  Al  Al17  1  0.325411  0.162705  0.076108  1
  Al  Al18  1  0.835663  0.162480  0.423943  1
  Al  Al19  1  0.674589  0.837295  0.923892  1
  Al  Al20  1  0.837766  0.164209  0.075267  1
  Al  Al21  1  0.162234  0.835791  0.924733  1
  Al  Al22  1  0.560547  0.122320  0.249841  1
  Al  Al23  1  0.439453  0.877680  0.750159  1
  Al  Al24  1  0.876296  0.438149  0.249044  1
  Al  Al25  1  0.123704  0.561851  0.750956  1
  Al  Al26  1  0.560547  0.438228  0.249841  1
  Al  Al27  1  0.439453  0.561772  0.750159  1
  Al  Al28  1  0.999809  0.999904  0.250048  1
  Al  Al29  1  0.000191  0.000096  0.749952  1
  Ir  Ir30  1  0.500000  0.000000  0.000000  1
  Ir  Ir31  1  0.500000  0.500000  0.000000  1
  Os  Os32  1  0.000000  0.500000  0.000000  1
  Os  Os33  1  0.500000  0.000000  0.500000  1
  Os  Os34  1  0.000000  0.500000  0.500000  1
  Os  Os35  1  0.500000  0.500000  0.500000  1
  Os  Os36  1  0.000000  0.000000  0.000000  1
  Os  Os37  1  0.000000  0.000000  0.500000  1
