# generated using pymatgen
data_LaPa(ZnRh)2
_symmetry_space_group_name_H-M   'P 1'
_cell_length_a   3.93630000
_cell_length_b   7.30886623
_cell_length_c   8.42969771
_cell_angle_alpha   91.36538811
_cell_angle_beta   90.00000000
_cell_angle_gamma   90.00000000
_symmetry_Int_Tables_number   1
_chemical_formula_structural   LaPa(ZnRh)2
_chemical_formula_sum   'La2 Pa2 Zn4 Rh4'
_cell_volume   242.45261715
_cell_formula_units_Z   2
loop_
 _symmetry_equiv_pos_site_id
 _symmetry_equiv_pos_as_xyz
  1  'x, y, z'
loop_
 _atom_site_type_symbol
 _atom_site_label
 _atom_site_symmetry_multiplicity
 _atom_site_fract_x
 _atom_site_fract_y
 _atom_site_fract_z
 _atom_site_occupancy
  La  La0  1  0.250000  0.056009  0.309716  1
  La  La1  1  0.750000  0.943991  0.690284  1
  Pa  Pa2  1  0.250000  0.553845  0.186918  1
  Pa  Pa3  1  0.750000  0.446155  0.813082  1
  Zn  Zn4  1  0.250000  0.123925  0.941168  1
  Zn  Zn5  1  0.750000  0.876075  0.058832  1
  Zn  Zn6  1  0.250000  0.621312  0.556645  1
  Zn  Zn7  1  0.750000  0.378688  0.443355  1
  Rh  Rh8  1  0.750000  0.737057  0.351367  1
  Rh  Rh9  1  0.250000  0.262943  0.648633  1
  Rh  Rh10  1  0.750000  0.290122  0.116526  1
  Rh  Rh11  1  0.250000  0.709878  0.883474  1
