# generated using pymatgen
data_TbDy2In3Pt2Au
_symmetry_space_group_name_H-M   'P 1'
_cell_length_a   7.78883678
_cell_length_b   7.78795520
_cell_length_c   3.84893800
_cell_angle_alpha   90.00000000
_cell_angle_beta   90.00000000
_cell_angle_gamma   120.05505902
_symmetry_Int_Tables_number   1
_chemical_formula_structural   TbDy2In3Pt2Au
_chemical_formula_sum   'Tb1 Dy2 In3 Pt2 Au1'
_cell_volume   202.08141575
_cell_formula_units_Z   1
loop_
 _symmetry_equiv_pos_site_id
 _symmetry_equiv_pos_as_xyz
  1  'x, y, z'
loop_
 _atom_site_type_symbol
 _atom_site_label
 _atom_site_symmetry_multiplicity
 _atom_site_fract_x
 _atom_site_fract_y
 _atom_site_fract_z
 _atom_site_occupancy
  Tb  Tb0  1  0.589605  0.603135  0.000000  1
  Dy  Dy1  1  0.396603  0.986267  0.000000  1
  Dy  Dy2  1  0.013767  0.410429  0.000000  1
  In  In3  1  0.261454  0.260118  0.500000  1
  In  In4  1  0.998964  0.738433  0.500000  1
  In  In5  1  0.739833  0.001708  0.500000  1
  Pt  Pt6  1  0.000288  0.000269  0.000000  1
  Pt  Pt7  1  0.332729  0.666791  0.500000  1
  Au  Au8  1  0.666757  0.332851  0.500000  1
