# generated using pymatgen
data_Tm10AlSi3Bi4
_symmetry_space_group_name_H-M   'P 1'
_cell_length_a   8.58525975
_cell_length_b   8.58526016
_cell_length_c   7.88166400
_cell_angle_alpha   89.81462109
_cell_angle_beta   89.81461167
_cell_angle_gamma   125.43983525
_symmetry_Int_Tables_number   1
_chemical_formula_structural   Tm10AlSi3Bi4
_chemical_formula_sum   'Tm10 Al1 Si3 Bi4'
_cell_volume   473.28741697
_cell_formula_units_Z   1
loop_
 _symmetry_equiv_pos_site_id
 _symmetry_equiv_pos_as_xyz
  1  'x, y, z'
loop_
 _atom_site_type_symbol
 _atom_site_label
 _atom_site_symmetry_multiplicity
 _atom_site_fract_x
 _atom_site_fract_y
 _atom_site_fract_z
 _atom_site_occupancy
  Tm  Tm0  1  0.544212  0.790802  0.169210  1
  Tm  Tm1  1  0.283534  0.044691  0.334968  1
  Tm  Tm2  1  0.208418  0.454010  0.834026  1
  Tm  Tm3  1  0.959056  0.716050  0.662951  1
  Tm  Tm4  1  0.716050  0.959056  0.662951  1
  Tm  Tm5  1  0.454010  0.208418  0.834026  1
  Tm  Tm6  1  0.790802  0.544212  0.169210  1
  Tm  Tm7  1  0.044691  0.283534  0.334968  1
  Tm  Tm8  1  0.498774  0.498774  0.498206  1
  Tm  Tm9  1  0.000850  0.000850  0.000755  1
  Al  Al10  1  0.628902  0.628902  0.871855  1
  Si  Si11  1  0.134539  0.134539  0.634021  1
  Si  Si12  1  0.865171  0.865171  0.366095  1
  Si  Si13  1  0.371704  0.371704  0.127688  1
  Bi  Bi14  1  0.290850  0.706457  0.499260  1
  Bi  Bi15  1  0.208723  0.793258  0.000275  1
  Bi  Bi16  1  0.706457  0.290850  0.499260  1
  Bi  Bi17  1  0.793258  0.208723  0.000275  1
