# generated using pymatgen
data_K8Li4Dy3HoSb8
_symmetry_space_group_name_H-M   'P 1'
_cell_length_a   10.79051202
_cell_length_b   10.79051285
_cell_length_c   7.16673700
_cell_angle_alpha   90.00352573
_cell_angle_beta   89.99647427
_cell_angle_gamma   97.81295075
_symmetry_Int_Tables_number   1
_chemical_formula_structural   K8Li4Dy3HoSb8
_chemical_formula_sum   'K8 Li4 Dy3 Ho1 Sb8'
_cell_volume   826.71397863
_cell_formula_units_Z   1
loop_
 _symmetry_equiv_pos_site_id
 _symmetry_equiv_pos_as_xyz
  1  'x, y, z'
loop_
 _atom_site_type_symbol
 _atom_site_label
 _atom_site_symmetry_multiplicity
 _atom_site_fract_x
 _atom_site_fract_y
 _atom_site_fract_z
 _atom_site_occupancy
  K  K0  1  0.070466  0.429428  0.249981  1
  K  K1  1  0.429428  0.070466  0.750019  1
  K  K2  1  0.929661  0.570388  0.750080  1
  K  K3  1  0.570388  0.929661  0.249920  1
  K  K4  1  0.675878  0.324011  0.214534  1
  K  K5  1  0.824221  0.175807  0.714360  1
  K  K6  1  0.324011  0.675878  0.785466  1
  K  K7  1  0.175807  0.824221  0.285640  1
  Li  Li8  1  0.380719  0.380719  0.000000  1
  Li  Li9  1  0.118984  0.118984  0.500000  1
  Li  Li10  1  0.619052  0.619052  0.000000  1
  Li  Li11  1  0.881037  0.881037  0.500000  1
  Dy  Dy12  1  0.369398  0.369398  0.500000  1
  Dy  Dy13  1  0.869861  0.869861  0.000000  1
  Dy  Dy14  1  0.630488  0.630488  0.500000  1
  Ho  Ho15  1  0.130301  0.130301  0.000000  1
  Sb  Sb16  1  0.852308  0.647723  0.250105  1
  Sb  Sb17  1  0.647723  0.852308  0.749895  1
  Sb  Sb18  1  0.147810  0.351867  0.750430  1
  Sb  Sb19  1  0.351867  0.147810  0.249570  1
  Sb  Sb20  1  0.900109  0.100700  0.241944  1
  Sb  Sb21  1  0.600373  0.399409  0.742389  1
  Sb  Sb22  1  0.100700  0.900109  0.758056  1
  Sb  Sb23  1  0.399409  0.600373  0.257611  1
