# generated using pymatgen
data_Al8IrOs4Pt3
_symmetry_space_group_name_H-M   'P 1'
_cell_length_a   6.04092700
_cell_length_b   4.28951700
_cell_length_c   8.58012100
_cell_angle_alpha   90.00000000
_cell_angle_beta   89.99982783
_cell_angle_gamma   90.00000000
_symmetry_Int_Tables_number   1
_chemical_formula_structural   Al8IrOs4Pt3
_chemical_formula_sum   'Al8 Ir1 Os4 Pt3'
_cell_volume   222.33375019
_cell_formula_units_Z   1
loop_
 _symmetry_equiv_pos_site_id
 _symmetry_equiv_pos_as_xyz
  1  'x, y, z'
loop_
 _atom_site_type_symbol
 _atom_site_label
 _atom_site_symmetry_multiplicity
 _atom_site_fract_x
 _atom_site_fract_y
 _atom_site_fract_z
 _atom_site_occupancy
  Al  Al0  1  0.002483  0.750001  0.121254  1
  Al  Al1  1  0.497513  0.750001  0.121257  1
  Al  Al2  1  0.999540  0.250000  0.374989  1
  Al  Al3  1  0.500452  0.250000  0.374992  1
  Al  Al4  1  0.497520  0.750001  0.628761  1
  Al  Al5  1  0.002488  0.750001  0.628766  1
  Al  Al6  1  0.494991  0.250000  0.874991  1
  Al  Al7  1  0.005014  0.250000  0.874993  1
  Ir  Ir8  1  0.250005  0.750001  0.875005  1
  Os  Os9  1  0.249998  0.250000  0.127443  1
  Os  Os10  1  0.749996  0.750001  0.375005  1
  Os  Os11  1  0.250002  0.250000  0.622546  1
  Os  Os12  1  0.750003  0.750001  0.875006  1
  Pt  Pt13  1  0.749996  0.250000  0.125596  1
  Pt  Pt14  1  0.249993  0.750001  0.375006  1
  Pt  Pt15  1  0.750006  0.250000  0.624390  1
