# generated using pymatgen
data_Tb3EuHo4(B6Os)4
_symmetry_space_group_name_H-M   'P 1'
_cell_length_a   3.67512900
_cell_length_b   9.18814928
_cell_length_c   11.59338371
_cell_angle_alpha   89.83710150
_cell_angle_beta   90.00000000
_cell_angle_gamma   90.00000000
_symmetry_Int_Tables_number   1
_chemical_formula_structural   Tb3EuHo4(B6Os)4
_chemical_formula_sum   'Tb3 Eu1 Ho4 B24 Os4'
_cell_volume   391.47955457
_cell_formula_units_Z   1
loop_
 _symmetry_equiv_pos_site_id
 _symmetry_equiv_pos_as_xyz
  1  'x, y, z'
loop_
 _atom_site_type_symbol
 _atom_site_label
 _atom_site_symmetry_multiplicity
 _atom_site_fract_x
 _atom_site_fract_y
 _atom_site_fract_z
 _atom_site_occupancy
  Tb  Tb0  1  0.000000  0.677098  0.585660  1
  Tb  Tb1  1  0.000000  0.822104  0.086073  1
  Tb  Tb2  1  0.000000  0.178221  0.914280  1
  Eu  Eu3  1  0.000000  0.322798  0.413555  1
  Ho  Ho4  1  0.000000  0.944012  0.372001  1
  Ho  Ho5  1  0.000000  0.056726  0.627772  1
  Ho  Ho6  1  0.000000  0.443540  0.127941  1
  Ho  Ho7  1  0.000000  0.556237  0.873234  1
  B  B8  1  0.500000  0.555257  0.432109  1
  B  B9  1  0.500000  0.446196  0.568741  1
  B  B10  1  0.500000  0.053445  0.066795  1
  B  B11  1  0.500000  0.945550  0.932175  1
  B  B12  1  0.500000  0.748834  0.418859  1
  B  B13  1  0.500000  0.251890  0.582316  1
  B  B14  1  0.500000  0.247789  0.080406  1
  B  B15  1  0.500000  0.751712  0.919209  1
  B  B16  1  0.500000  0.791265  0.266179  1
  B  B17  1  0.500000  0.209531  0.734341  1
  B  B18  1  0.500000  0.289459  0.232221  1
  B  B19  1  0.500000  0.709414  0.766924  1
  B  B20  1  0.500000  0.632047  0.185373  1
  B  B21  1  0.500000  0.368640  0.815322  1
  B  B22  1  0.500000  0.130402  0.313285  1
  B  B23  1  0.500000  0.868435  0.685514  1
  B  B24  1  0.500000  0.983145  0.212129  1
  B  B25  1  0.500000  0.016109  0.786970  1
  B  B26  1  0.500000  0.485045  0.286459  1
  B  B27  1  0.500000  0.516284  0.713764  1
  B  B28  1  0.500000  0.607752  0.029888  1
  B  B29  1  0.500000  0.392503  0.970561  1
  B  B30  1  0.500000  0.103580  0.471295  1
  B  B31  1  0.500000  0.894293  0.529256  1
  Os  Os32  1  0.000000  0.640130  0.320076  1
  Os  Os33  1  0.000000  0.362111  0.680951  1
  Os  Os34  1  0.000000  0.136266  0.177274  1
  Os  Os35  1  0.000000  0.862177  0.821090  1
