# generated using pymatgen
data_Ce3ZrBi3Sb2
_symmetry_space_group_name_H-M   'P 1'
_cell_length_a   9.66577500
_cell_length_b   9.57965005
_cell_length_c   6.42930400
_cell_angle_alpha   90.00000000
_cell_angle_beta   90.00000000
_cell_angle_gamma   120.29784511
_symmetry_Int_Tables_number   1
_chemical_formula_structural   Ce3ZrBi3Sb2
_chemical_formula_sum   'Ce6 Zr2 Bi6 Sb4'
_cell_volume   514.00771489
_cell_formula_units_Z   2
loop_
 _symmetry_equiv_pos_site_id
 _symmetry_equiv_pos_as_xyz
  1  'x, y, z'
loop_
 _atom_site_type_symbol
 _atom_site_label
 _atom_site_symmetry_multiplicity
 _atom_site_fract_x
 _atom_site_fract_y
 _atom_site_fract_z
 _atom_site_occupancy
  Ce  Ce0  1  0.626391  0.000000  0.250000  1
  Ce  Ce1  1  0.373609  0.000000  0.750000  1
  Ce  Ce2  1  0.993313  0.614210  0.250000  1
  Ce  Ce3  1  0.006687  0.385790  0.750000  1
  Ce  Ce4  1  0.379104  0.385790  0.250000  1
  Ce  Ce5  1  0.620896  0.614210  0.750000  1
  Zr  Zr6  1  0.000000  0.000000  0.000000  1
  Zr  Zr7  1  0.000000  0.000000  0.500000  1
  Bi  Bi8  1  0.269875  0.000000  0.250000  1
  Bi  Bi9  1  0.730125  0.000000  0.750000  1
  Bi  Bi10  1  0.335571  0.671144  0.000000  1
  Bi  Bi11  1  0.664429  0.328856  0.000000  1
  Bi  Bi12  1  0.664429  0.328856  0.500000  1
  Bi  Bi13  1  0.335571  0.671144  0.500000  1
  Sb  Sb14  1  0.001856  0.265134  0.250000  1
  Sb  Sb15  1  0.998144  0.734866  0.750000  1
  Sb  Sb16  1  0.736722  0.734866  0.250000  1
  Sb  Sb17  1  0.263278  0.265134  0.750000  1
