# generated using pymatgen
data_Sm2Er5Tm(WO6)4
_symmetry_space_group_name_H-M   'P 1'
_cell_length_a   5.40126824
_cell_length_b   7.71547966
_cell_length_c   11.46486342
_cell_angle_alpha   75.38846263
_cell_angle_beta   89.98940582
_cell_angle_gamma   89.96607497
_symmetry_Int_Tables_number   1
_chemical_formula_structural   Sm2Er5Tm(WO6)4
_chemical_formula_sum   'Sm2 Er5 Tm1 W4 O24'
_cell_volume   462.32731558
_cell_formula_units_Z   1
loop_
 _symmetry_equiv_pos_site_id
 _symmetry_equiv_pos_as_xyz
  1  'x, y, z'
loop_
 _atom_site_type_symbol
 _atom_site_label
 _atom_site_symmetry_multiplicity
 _atom_site_fract_x
 _atom_site_fract_y
 _atom_site_fract_z
 _atom_site_occupancy
  Sm  Sm0  1  0.684256  0.500159  0.749637  1
  Sm  Sm1  1  0.315464  0.500192  0.250173  1
  Er  Er2  1  0.742271  0.999758  0.749511  1
  Er  Er3  1  0.257638  0.999925  0.250413  1
  Er  Er4  1  0.815804  0.795597  0.077473  1
  Er  Er5  1  0.183776  0.204374  0.922514  1
  Er  Er6  1  0.816562  0.204445  0.422582  1
  Tm  Tm7  1  0.183457  0.795114  0.577734  1
  W  W8  1  0.254891  0.727167  0.883900  1
  W  W9  1  0.744676  0.727175  0.384761  1
  W  W10  1  0.255292  0.272985  0.615734  1
  W  W11  1  0.744856  0.272957  0.115746  1
  O  O12  1  0.043204  0.941724  0.895729  1
  O  O13  1  0.538006  0.845001  0.929675  1
  O  O14  1  0.956819  0.941437  0.396504  1
  O  O15  1  0.455300  0.795482  0.724959  1
  O  O16  1  0.461283  0.844703  0.431230  1
  O  O17  1  0.982453  0.717965  0.768860  1
  O  O18  1  0.543689  0.795642  0.226279  1
  O  O19  1  0.852637  0.639239  0.547466  1
  O  O20  1  0.350874  0.491566  0.885789  1
  O  O21  1  0.017336  0.717902  0.269757  1
  O  O22  1  0.349847  0.508962  0.614003  1
  O  O23  1  0.851294  0.361252  0.952801  1
  O  O24  1  0.148543  0.639140  0.046839  1
  O  O25  1  0.648872  0.491783  0.386445  1
  O  O26  1  0.981873  0.281812  0.730106  1
  O  O27  1  0.648669  0.508491  0.114139  1
  O  O28  1  0.148839  0.361046  0.452861  1
  O  O29  1  0.456263  0.204825  0.774104  1
  O  O30  1  0.017815  0.282162  0.230422  1
  O  O31  1  0.538883  0.155445  0.569727  1
  O  O32  1  0.544009  0.204570  0.274214  1
  O  O33  1  0.045318  0.057284  0.603930  1
  O  O34  1  0.462439  0.154434  0.069838  1
  O  O35  1  0.956794  0.058283  0.104146  1
