# generated using pymatgen
data_Yb2Ni3B8Os5
_symmetry_space_group_name_H-M   'P 1'
_cell_length_a   4.01097355
_cell_length_b   7.30726643
_cell_length_c   7.24473905
_cell_angle_alpha   89.03524260
_cell_angle_beta   90.12688940
_cell_angle_gamma   89.81891551
_symmetry_Int_Tables_number   1
_chemical_formula_structural   Yb2Ni3B8Os5
_chemical_formula_sum   'Yb2 Ni3 B8 Os5'
_cell_volume   212.30617771
_cell_formula_units_Z   1
loop_
 _symmetry_equiv_pos_site_id
 _symmetry_equiv_pos_as_xyz
  1  'x, y, z'
loop_
 _atom_site_type_symbol
 _atom_site_label
 _atom_site_symmetry_multiplicity
 _atom_site_fract_x
 _atom_site_fract_y
 _atom_site_fract_z
 _atom_site_occupancy
  Yb  Yb0  1  0.313249  0.249085  0.251968  1
  Yb  Yb1  1  0.846952  0.756065  0.749363  1
  Ni  Ni2  1  0.127863  0.365489  0.620450  1
  Ni  Ni3  1  0.123385  0.116021  0.864808  1
  Ni  Ni4  1  0.626447  0.123736  0.616506  1
  B  B5  1  0.353067  0.920732  0.027848  1
  B  B6  1  0.351258  0.575341  0.466530  1
  B  B7  1  0.851522  0.533228  0.081361  1
  B  B8  1  0.851730  0.969273  0.419367  1
  B  B9  1  0.629714  0.094743  0.946003  1
  B  B10  1  0.632087  0.414545  0.570608  1
  B  B11  1  0.125006  0.446193  0.916946  1
  B  B12  1  0.133923  0.057938  0.586206  1
  Os  Os13  1  0.620314  0.370998  0.870038  1
  Os  Os14  1  0.853040  0.596819  0.369088  1
  Os  Os15  1  0.854270  0.905507  0.136018  1
  Os  Os16  1  0.353578  0.864761  0.405477  1
  Os  Os17  1  0.352594  0.639525  0.101415  1
