# generated using pymatgen
data_Ho2NpFe2Si7
_symmetry_space_group_name_H-M   'P 1'
_cell_length_a   12.35874113
_cell_length_b   12.35874143
_cell_length_c   4.01305500
_cell_angle_alpha   90.00000000
_cell_angle_beta   90.00000000
_cell_angle_gamma   161.25083368
_symmetry_Int_Tables_number   1
_chemical_formula_structural   Ho2NpFe2Si7
_chemical_formula_sum   'Ho2 Np1 Fe2 Si7'
_cell_volume   197.01721441
_cell_formula_units_Z   1
loop_
 _symmetry_equiv_pos_site_id
 _symmetry_equiv_pos_as_xyz
  1  'x, y, z'
loop_
 _atom_site_type_symbol
 _atom_site_label
 _atom_site_symmetry_multiplicity
 _atom_site_fract_x
 _atom_site_fract_y
 _atom_site_fract_z
 _atom_site_occupancy
  Ho  Ho0  1  0.098604  0.901396  0.500000  1
  Ho  Ho1  1  0.467544  0.532456  0.500000  1
  Np  Np2  1  0.783044  0.216956  0.000000  1
  Fe  Fe3  1  0.655993  0.344007  0.000000  1
  Fe  Fe4  1  0.910146  0.089854  0.000000  1
  Si  Si5  1  0.368899  0.631101  0.000000  1
  Si  Si6  1  0.561384  0.438616  0.000000  1
  Si  Si7  1  0.868393  0.131607  0.500000  1
  Si  Si8  1  0.004814  0.995186  0.000000  1
  Si  Si9  1  0.197190  0.802810  0.000000  1
  Si  Si10  1  0.283018  0.716982  0.500000  1
  Si  Si11  1  0.697672  0.302328  0.500000  1
