# generated using pymatgen
data_Th3AlZn2IrPt2
_symmetry_space_group_name_H-M   'P 1'
_cell_length_a   7.44251563
_cell_length_b   7.43181840
_cell_length_c   4.02026900
_cell_angle_alpha   90.00000000
_cell_angle_beta   90.00000000
_cell_angle_gamma   120.73143886
_symmetry_Int_Tables_number   1
_chemical_formula_structural   Th3AlZn2IrPt2
_chemical_formula_sum   'Th3 Al1 Zn2 Ir1 Pt2'
_cell_volume   191.14028026
_cell_formula_units_Z   1
loop_
 _symmetry_equiv_pos_site_id
 _symmetry_equiv_pos_as_xyz
  1  'x, y, z'
loop_
 _atom_site_type_symbol
 _atom_site_label
 _atom_site_symmetry_multiplicity
 _atom_site_fract_x
 _atom_site_fract_y
 _atom_site_fract_z
 _atom_site_occupancy
  Th  Th0  1  0.415077  0.000650  0.500000  1
  Th  Th1  1  0.989516  0.409371  0.500000  1
  Th  Th2  1  0.595397  0.589535  0.500000  1
  Al  Al3  1  0.238496  0.236016  0.000000  1
  Zn  Zn4  1  0.760477  0.001557  0.000000  1
  Zn  Zn5  1  0.999815  0.759732  0.000000  1
  Ir  Ir6  1  0.652345  0.329849  0.000000  1
  Pt  Pt7  1  0.330207  0.654243  0.000000  1
  Pt  Pt8  1  0.018671  0.019049  0.500000  1
