# generated using pymatgen
data_Tb5Ho7TcRu3
_symmetry_space_group_name_H-M   'P 1'
_cell_length_a   6.29439696
_cell_length_b   7.34352933
_cell_length_c   9.17517093
_cell_angle_alpha   89.99024688
_cell_angle_beta   90.07408078
_cell_angle_gamma   90.05778413
_symmetry_Int_Tables_number   1
_chemical_formula_structural   Tb5Ho7TcRu3
_chemical_formula_sum   'Tb5 Ho7 Tc1 Ru3'
_cell_volume   424.10416382
_cell_formula_units_Z   1
loop_
 _symmetry_equiv_pos_site_id
 _symmetry_equiv_pos_as_xyz
  1  'x, y, z'
loop_
 _atom_site_type_symbol
 _atom_site_label
 _atom_site_symmetry_multiplicity
 _atom_site_fract_x
 _atom_site_fract_y
 _atom_site_fract_z
 _atom_site_occupancy
  Tb  Tb0  1  0.333278  0.676378  0.064665  1
  Tb  Tb1  1  0.868375  0.539462  0.250392  1
  Tb  Tb2  1  0.627724  0.041760  0.250303  1
  Tb  Tb3  1  0.133573  0.457554  0.749651  1
  Tb  Tb4  1  0.366847  0.958404  0.749683  1
  Ho  Ho5  1  0.166947  0.176007  0.435318  1
  Ho  Ho6  1  0.667641  0.323991  0.564836  1
  Ho  Ho7  1  0.834818  0.825108  0.936243  1
  Ho  Ho8  1  0.668134  0.323452  0.934823  1
  Ho  Ho9  1  0.834913  0.825028  0.563506  1
  Ho  Ho10  1  0.333438  0.675784  0.435625  1
  Ho  Ho11  1  0.166658  0.175966  0.064790  1
  Tc  Tc12  1  0.037711  0.886076  0.250390  1
  Ru  Ru13  1  0.460558  0.384342  0.250387  1
  Ru  Ru14  1  0.958901  0.116234  0.750122  1
  Ru  Ru15  1  0.540484  0.614454  0.749264  1
