# generated using pymatgen
data_Zr(TlTe)4
_symmetry_space_group_name_H-M   'P 1'
_cell_length_a   9.87451991
_cell_length_b   9.87452014
_cell_length_c   9.87452000
_cell_angle_alpha   98.36522727
_cell_angle_beta   98.36522747
_cell_angle_gamma   98.36522215
_symmetry_Int_Tables_number   1
_chemical_formula_structural   Zr(TlTe)4
_chemical_formula_sum   'Zr3 Tl12 Te12'
_cell_volume   928.68891030
_cell_formula_units_Z   3
loop_
 _symmetry_equiv_pos_site_id
 _symmetry_equiv_pos_as_xyz
  1  'x, y, z'
loop_
 _atom_site_type_symbol
 _atom_site_label
 _atom_site_symmetry_multiplicity
 _atom_site_fract_x
 _atom_site_fract_y
 _atom_site_fract_z
 _atom_site_occupancy
  Zr  Zr0  1  0.756193  0.756193  0.756193  1
  Zr  Zr1  1  0.243807  0.243807  0.243807  1
  Zr  Zr2  1  0.500000  0.500000  0.500000  1
  Tl  Tl3  1  0.667412  0.117606  0.988861  1
  Tl  Tl4  1  0.988861  0.667412  0.117606  1
  Tl  Tl5  1  0.117606  0.988861  0.667412  1
  Tl  Tl6  1  0.332588  0.882394  0.011139  1
  Tl  Tl7  1  0.011139  0.332588  0.882394  1
  Tl  Tl8  1  0.882394  0.011139  0.332588  1
  Tl  Tl9  1  0.634720  0.467057  0.131336  1
  Tl  Tl10  1  0.131336  0.634720  0.467057  1
  Tl  Tl11  1  0.467057  0.131336  0.634720  1
  Tl  Tl12  1  0.365280  0.532943  0.868664  1
  Tl  Tl13  1  0.868664  0.365280  0.532943  1
  Tl  Tl14  1  0.532943  0.868664  0.365280  1
  Te  Te15  1  0.704370  0.804053  0.036975  1
  Te  Te16  1  0.036975  0.704370  0.804053  1
  Te  Te17  1  0.804053  0.036975  0.704370  1
  Te  Te18  1  0.295630  0.195948  0.963025  1
  Te  Te19  1  0.963025  0.295630  0.195947  1
  Te  Te20  1  0.195947  0.963025  0.295630  1
  Te  Te21  1  0.450640  0.761192  0.657823  1
  Te  Te22  1  0.657823  0.450640  0.761192  1
  Te  Te23  1  0.761192  0.657823  0.450640  1
  Te  Te24  1  0.549360  0.238808  0.342177  1
  Te  Te25  1  0.342177  0.549360  0.238808  1
  Te  Te26  1  0.238808  0.342177  0.549360  1
