# generated using pymatgen
data_HoEr3Lu16(CoSb2)4
_symmetry_space_group_name_H-M   'P 1'
_cell_length_a   7.70683617
_cell_length_b   8.70926400
_cell_length_c   11.99211726
_cell_angle_alpha   90.00000000
_cell_angle_beta   90.02405244
_cell_angle_gamma   90.00000000
_symmetry_Int_Tables_number   1
_chemical_formula_structural   HoEr3Lu16(CoSb2)4
_chemical_formula_sum   'Ho1 Er3 Lu16 Co4 Sb8'
_cell_volume   804.92128267
_cell_formula_units_Z   1
loop_
 _symmetry_equiv_pos_site_id
 _symmetry_equiv_pos_as_xyz
  1  'x, y, z'
loop_
 _atom_site_type_symbol
 _atom_site_label
 _atom_site_symmetry_multiplicity
 _atom_site_fract_x
 _atom_site_fract_y
 _atom_site_fract_z
 _atom_site_occupancy
  Ho  Ho0  1  0.877148  0.750000  0.808320  1
  Er  Er1  1  0.622522  0.750000  0.308856  1
  Er  Er2  1  0.122530  0.250000  0.191300  1
  Er  Er3  1  0.377522  0.250000  0.691099  1
  Lu  Lu4  1  0.156608  0.750000  0.204033  1
  Lu  Lu5  1  0.656653  0.250000  0.296014  1
  Lu  Lu6  1  0.843338  0.250000  0.795965  1
  Lu  Lu7  1  0.343583  0.750000  0.703916  1
  Lu  Lu8  1  0.446023  0.750000  0.997582  1
  Lu  Lu9  1  0.946092  0.250000  0.502282  1
  Lu  Lu10  1  0.553587  0.250000  0.002376  1
  Lu  Lu11  1  0.053910  0.750000  0.497653  1
  Lu  Lu12  1  0.824586  0.962909  0.065636  1
  Lu  Lu13  1  0.324523  0.037480  0.434623  1
  Lu  Lu14  1  0.175731  0.461832  0.934710  1
  Lu  Lu15  1  0.675352  0.537485  0.565371  1
  Lu  Lu16  1  0.175731  0.038168  0.934710  1
  Lu  Lu17  1  0.675352  0.962515  0.565371  1
  Lu  Lu18  1  0.824586  0.537091  0.065636  1
  Lu  Lu19  1  0.324523  0.462520  0.434623  1
  Co  Co20  1  0.431463  0.750000  0.491444  1
  Co  Co21  1  0.931341  0.250000  0.008624  1
  Co  Co22  1  0.568578  0.250000  0.508508  1
  Co  Co23  1  0.068732  0.750000  0.991657  1
  Sb  Sb24  1  0.932107  0.991721  0.328570  1
  Sb  Sb25  1  0.432125  0.008221  0.171409  1
  Sb  Sb26  1  0.068270  0.491456  0.671270  1
  Sb  Sb27  1  0.567491  0.508033  0.828596  1
  Sb  Sb28  1  0.068270  0.008544  0.671270  1
  Sb  Sb29  1  0.567491  0.991967  0.828596  1
  Sb  Sb30  1  0.932107  0.508279  0.328570  1
  Sb  Sb31  1  0.432125  0.491779  0.171409  1
