# generated using pymatgen
data_S7N2
_symmetry_space_group_name_H-M   'P 1'
_cell_length_a   4.43187655
_cell_length_b   5.85039350
_cell_length_c   12.36006980
_cell_angle_alpha   91.86682777
_cell_angle_beta   95.57945499
_cell_angle_gamma   83.49603449
_symmetry_Int_Tables_number   1
_chemical_formula_structural   S7N2
_chemical_formula_sum   'S7 N2'
_cell_volume   316.82817291
_cell_formula_units_Z   1
loop_
 _symmetry_equiv_pos_site_id
 _symmetry_equiv_pos_as_xyz
  1  'x, y, z'
loop_
 _atom_site_type_symbol
 _atom_site_label
 _atom_site_symmetry_multiplicity
 _atom_site_fract_x
 _atom_site_fract_y
 _atom_site_fract_z
 _atom_site_occupancy
  S  S0  1  0.039020  0.037779  0.180998  1
  S  S1  1  0.393518  0.101965  0.295952  1
  S  S2  1  0.855017  0.807059  0.702361  1
  S  S3  1  0.801763  0.301385  0.580113  1
  S  S4  1  0.028644  0.992726  0.571649  1
  S  S5  1  0.677944  0.277674  0.213765  1
  S  S6  1  0.077468  0.496120  0.702419  1
  N  N7  1  0.693869  0.568530  0.968454  1
  N  N8  1  0.620146  0.749247  0.993576  1
