# generated using pymatgen
data_Tb12Tc3Se
_symmetry_space_group_name_H-M   'P 1'
_cell_length_a   6.36988156
_cell_length_b   7.48597113
_cell_length_c   9.25272900
_cell_angle_alpha   90.00000000
_cell_angle_beta   90.00000000
_cell_angle_gamma   90.39875182
_symmetry_Int_Tables_number   1
_chemical_formula_structural   Tb12Tc3Se
_chemical_formula_sum   'Tb12 Tc3 Se1'
_cell_volume   441.20337923
_cell_formula_units_Z   1
loop_
 _symmetry_equiv_pos_site_id
 _symmetry_equiv_pos_as_xyz
  1  'x, y, z'
loop_
 _atom_site_type_symbol
 _atom_site_label
 _atom_site_symmetry_multiplicity
 _atom_site_fract_x
 _atom_site_fract_y
 _atom_site_fract_z
 _atom_site_occupancy
  Tb  Tb0  1  0.629283  0.052326  0.250000  1
  Tb  Tb1  1  0.364728  0.959894  0.750000  1
  Tb  Tb2  1  0.121516  0.465006  0.750000  1
  Tb  Tb3  1  0.862809  0.521622  0.250000  1
  Tb  Tb4  1  0.160908  0.191470  0.058633  1
  Tb  Tb5  1  0.828705  0.822304  0.931272  1
  Tb  Tb6  1  0.667658  0.320529  0.934806  1
  Tb  Tb7  1  0.828705  0.822304  0.568728  1
  Tb  Tb8  1  0.350175  0.666867  0.057459  1
  Tb  Tb9  1  0.160908  0.191470  0.441367  1
  Tb  Tb10  1  0.350175  0.666867  0.442541  1
  Tb  Tb11  1  0.667658  0.320529  0.565194  1
  Tc  Tc12  1  0.444970  0.384032  0.250000  1
  Tc  Tc13  1  0.535536  0.618172  0.750000  1
  Tc  Tc14  1  0.964902  0.115135  0.750000  1
  Se  Se15  1  0.061366  0.881472  0.250000  1
