# generated using pymatgen
data_Yb10CdNi4Bi
_symmetry_space_group_name_H-M   'P 1'
_cell_length_a   8.94834009
_cell_length_b   8.94833946
_cell_length_c   8.94834137
_cell_angle_alpha   129.57540692
_cell_angle_beta   129.57540455
_cell_angle_gamma   74.08647030
_symmetry_Int_Tables_number   1
_chemical_formula_structural   Yb10CdNi4Bi
_chemical_formula_sum   'Yb10 Cd1 Ni4 Bi1'
_cell_volume   415.10127077
_cell_formula_units_Z   1
loop_
 _symmetry_equiv_pos_site_id
 _symmetry_equiv_pos_as_xyz
  1  'x, y, z'
loop_
 _atom_site_type_symbol
 _atom_site_label
 _atom_site_symmetry_multiplicity
 _atom_site_fract_x
 _atom_site_fract_y
 _atom_site_fract_z
 _atom_site_occupancy
  Yb  Yb0  1  0.997251  0.997251  0.000000  1
  Yb  Yb1  1  0.502749  0.502749  0.000000  1
  Yb  Yb2  1  0.799812  0.295761  0.835916  1
  Yb  Yb3  1  0.204239  0.700188  0.164084  1
  Yb  Yb4  1  0.459846  0.963896  0.164084  1
  Yb  Yb5  1  0.295761  0.459846  0.495950  1
  Yb  Yb6  1  0.040154  0.204239  0.504050  1
  Yb  Yb7  1  0.536104  0.040154  0.835916  1
  Yb  Yb8  1  0.700188  0.536104  0.495950  1
  Yb  Yb9  1  0.963896  0.799812  0.504050  1
  Cd  Cd10  1  0.250000  0.250000  0.000000  1
  Ni  Ni11  1  0.114071  0.614071  0.728144  1
  Ni  Ni12  1  0.885929  0.385929  0.271856  1
  Ni  Ni13  1  0.614071  0.885929  0.500000  1
  Ni  Ni14  1  0.385929  0.114071  0.500000  1
  Bi  Bi15  1  0.750000  0.750000  0.000000  1
