# generated using pymatgen
data_Pr3Nd5(CdCo)2
_symmetry_space_group_name_H-M   'P 1'
_cell_length_a   9.85237335
_cell_length_b   9.85237254
_cell_length_c   9.85237300
_cell_angle_alpha   60.00000181
_cell_angle_beta   60.00000454
_cell_angle_gamma   60.00000805
_symmetry_Int_Tables_number   1
_chemical_formula_structural   Pr3Nd5(CdCo)2
_chemical_formula_sum   'Pr6 Nd10 Cd4 Co4'
_cell_volume   676.25047129
_cell_formula_units_Z   2
loop_
 _symmetry_equiv_pos_site_id
 _symmetry_equiv_pos_as_xyz
  1  'x, y, z'
loop_
 _atom_site_type_symbol
 _atom_site_label
 _atom_site_symmetry_multiplicity
 _atom_site_fract_x
 _atom_site_fract_y
 _atom_site_fract_z
 _atom_site_occupancy
  Pr  Pr0  1  0.939592  0.560408  0.560408  1
  Pr  Pr1  1  0.560408  0.939592  0.939592  1
  Pr  Pr2  1  0.560408  0.939592  0.560408  1
  Pr  Pr3  1  0.939592  0.560408  0.939592  1
  Pr  Pr4  1  0.560408  0.560408  0.939592  1
  Pr  Pr5  1  0.939592  0.939592  0.560408  1
  Nd  Nd6  1  0.346743  0.346743  0.346743  1
  Nd  Nd7  1  0.346743  0.346743  0.959769  1
  Nd  Nd8  1  0.346743  0.959769  0.346743  1
  Nd  Nd9  1  0.959769  0.346743  0.346743  1
  Nd  Nd10  1  0.810972  0.189028  0.189028  1
  Nd  Nd11  1  0.189028  0.810972  0.810972  1
  Nd  Nd12  1  0.189028  0.810972  0.189028  1
  Nd  Nd13  1  0.810972  0.189028  0.810972  1
  Nd  Nd14  1  0.189028  0.189028  0.810972  1
  Nd  Nd15  1  0.810972  0.810972  0.189028  1
  Cd  Cd16  1  0.579333  0.579333  0.579333  1
  Cd  Cd17  1  0.579333  0.579333  0.261998  1
  Cd  Cd18  1  0.579333  0.261998  0.579333  1
  Cd  Cd19  1  0.261998  0.579333  0.579333  1
  Co  Co20  1  0.141097  0.141097  0.141097  1
  Co  Co21  1  0.141097  0.141097  0.576711  1
  Co  Co22  1  0.141097  0.576711  0.141097  1
  Co  Co23  1  0.576711  0.141097  0.141097  1
