# generated using pymatgen
data_Cs12Na8Hf4As7P5
_symmetry_space_group_name_H-M   'P 1'
_cell_length_a   11.01561387
_cell_length_b   11.01149855
_cell_length_c   16.73716011
_cell_angle_alpha   90.01211726
_cell_angle_beta   89.98685844
_cell_angle_gamma   142.75102270
_symmetry_Int_Tables_number   1
_chemical_formula_structural   Cs12Na8Hf4As7P5
_chemical_formula_sum   'Cs12 Na8 Hf4 As7 P5'
_cell_volume   1228.83353454
_cell_formula_units_Z   1
loop_
 _symmetry_equiv_pos_site_id
 _symmetry_equiv_pos_as_xyz
  1  'x, y, z'
loop_
 _atom_site_type_symbol
 _atom_site_label
 _atom_site_symmetry_multiplicity
 _atom_site_fract_x
 _atom_site_fract_y
 _atom_site_fract_z
 _atom_site_occupancy
  Cs  Cs0  1  0.948229  0.608893  0.825470  1
  Cs  Cs1  1  0.552550  0.891273  0.327031  1
  Cs  Cs2  1  0.390746  0.051645  0.174506  1
  Cs  Cs3  1  0.051835  0.390918  0.175545  1
  Cs  Cs4  1  0.891798  0.551150  0.326150  1
  Cs  Cs5  1  0.448326  0.108755  0.673747  1
  Cs  Cs6  1  0.608940  0.948396  0.825315  1
  Cs  Cs7  1  0.282221  0.285275  0.314849  1
  Cs  Cs8  1  0.784353  0.783857  0.186391  1
  Cs  Cs9  1  0.216066  0.216015  0.813536  1
  Cs  Cs10  1  0.716186  0.716906  0.685261  1
  Cs  Cs11  1  0.108996  0.448100  0.674189  1
  Na  Na12  1  0.921020  0.078884  0.000065  1
  Na  Na13  1  0.578954  0.421201  0.499950  1
  Na  Na14  1  0.078909  0.921002  0.000014  1
  Na  Na15  1  0.418832  0.578184  0.499192  1
  Na  Na16  1  0.754296  0.245616  0.000039  1
  Na  Na17  1  0.749139  0.255396  0.499117  1
  Na  Na18  1  0.245697  0.754368  0.000055  1
  Na  Na19  1  0.252802  0.742936  0.499504  1
  Hf  Hf20  1  0.583294  0.416824  0.000103  1
  Hf  Hf21  1  0.918485  0.086705  0.498746  1
  Hf  Hf22  1  0.416742  0.583157  0.000202  1
  Hf  Hf23  1  0.082873  0.917491  0.499363  1
  As  As24  1  0.869656  0.560292  0.092611  1
  As  As25  1  0.439294  0.130201  0.907645  1
  As  As26  1  0.629410  0.939502  0.591477  1
  As  As27  1  0.939579  0.630662  0.591785  1
  As  As28  1  0.130274  0.439375  0.907717  1
  As  As29  1  0.560430  0.869557  0.092970  1
  As  As30  1  0.369768  0.060376  0.407175  1
  P  P31  1  0.194770  0.195291  0.577842  1
  P  P32  1  0.693876  0.693934  0.921514  1
  P  P33  1  0.305907  0.306004  0.078696  1
  P  P34  1  0.059166  0.364676  0.411863  1
  P  P35  1  0.806577  0.807185  0.420364  1
