# generated using pymatgen
data_GdBiO4
_symmetry_space_group_name_H-M   'P 1'
_cell_length_a   5.59393660
_cell_length_b   5.33706910
_cell_length_c   5.59393854
_cell_angle_alpha   88.95785411
_cell_angle_beta   90.13601816
_cell_angle_gamma   88.95786029
_symmetry_Int_Tables_number   1
_chemical_formula_structural   GdBiO4
_chemical_formula_sum   'Gd2 Bi2 O8'
_cell_volume   166.95244318
_cell_formula_units_Z   2
loop_
 _symmetry_equiv_pos_site_id
 _symmetry_equiv_pos_as_xyz
  1  'x, y, z'
loop_
 _atom_site_type_symbol
 _atom_site_label
 _atom_site_symmetry_multiplicity
 _atom_site_fract_x
 _atom_site_fract_y
 _atom_site_fract_z
 _atom_site_occupancy
  Gd  Gd0  1  0.868051  0.364014  0.360563  1
  Gd  Gd1  1  0.360563  0.364014  0.868051  1
  Bi  Bi2  1  0.853320  0.864799  0.853320  1
  Bi  Bi3  1  0.370236  0.862473  0.370236  1
  O  O4  1  0.573541  0.108771  0.573541  1
  O  O5  1  0.563748  0.613633  0.158202  1
  O  O6  1  0.158203  0.613633  0.563748  1
  O  O7  1  0.657072  0.608689  0.657072  1
  O  O8  1  0.172855  0.126033  0.172855  1
  O  O9  1  0.667463  0.116002  0.069306  1
  O  O10  1  0.069306  0.116002  0.667463  1
  O  O11  1  0.063090  0.619383  0.063090  1
