# generated using pymatgen
data_Dy20Ir11Os
_symmetry_space_group_name_H-M   'P 1'
_cell_length_a   10.87155000
_cell_length_b   10.87155000
_cell_length_c   6.39140200
_cell_angle_alpha   90.00000000
_cell_angle_beta   90.00000000
_cell_angle_gamma   90.00000000
_symmetry_Int_Tables_number   1
_chemical_formula_structural   Dy20Ir11Os
_chemical_formula_sum   'Dy20 Ir11 Os1'
_cell_volume   755.40363340
_cell_formula_units_Z   1
loop_
 _symmetry_equiv_pos_site_id
 _symmetry_equiv_pos_as_xyz
  1  'x, y, z'
loop_
 _atom_site_type_symbol
 _atom_site_label
 _atom_site_symmetry_multiplicity
 _atom_site_fract_x
 _atom_site_fract_y
 _atom_site_fract_z
 _atom_site_occupancy
  Dy  Dy0  1  0.292717  0.087519  0.376569  1
  Dy  Dy1  1  0.293055  0.912574  0.879942  1
  Dy  Dy2  1  0.706945  0.087426  0.879942  1
  Dy  Dy3  1  0.707283  0.912481  0.376569  1
  Dy  Dy4  1  0.587426  0.793055  0.879942  1
  Dy  Dy5  1  0.587519  0.207283  0.376569  1
  Dy  Dy6  1  0.412481  0.792717  0.376569  1
  Dy  Dy7  1  0.412574  0.206945  0.879942  1
  Dy  Dy8  1  0.208765  0.411638  0.621409  1
  Dy  Dy9  1  0.208731  0.588256  0.121328  1
  Dy  Dy10  1  0.791269  0.411744  0.121328  1
  Dy  Dy11  1  0.791235  0.588362  0.621409  1
  Dy  Dy12  1  0.911744  0.708731  0.121328  1
  Dy  Dy13  1  0.911638  0.291235  0.621409  1
  Dy  Dy14  1  0.088362  0.708765  0.621409  1
  Dy  Dy15  1  0.088256  0.291269  0.121328  1
  Dy  Dy16  1  0.000000  0.000000  0.499659  1
  Dy  Dy17  1  0.000000  0.000000  0.999625  1
  Dy  Dy18  1  0.500000  0.500000  0.999625  1
  Dy  Dy19  1  0.500000  0.500000  0.499659  1
  Ir  Ir20  1  0.847352  0.153781  0.250387  1
  Ir  Ir21  1  0.847461  0.846408  0.750043  1
  Ir  Ir22  1  0.152539  0.153592  0.750043  1
  Ir  Ir23  1  0.152648  0.846219  0.250387  1
  Ir  Ir24  1  0.653592  0.347461  0.750043  1
  Ir  Ir25  1  0.653781  0.652648  0.250387  1
  Ir  Ir26  1  0.346219  0.347352  0.250387  1
  Ir  Ir27  1  0.346408  0.652539  0.750043  1
  Ir  Ir28  1  0.500000  0.000000  0.623881  1
  Ir  Ir29  1  0.000000  0.500000  0.876732  1
  Ir  Ir30  1  0.000000  0.500000  0.376977  1
  Os  Os31  1  0.500000  0.000000  0.125125  1
