# generated using pymatgen
data_Na5YbTaP4
_symmetry_space_group_name_H-M   'P 1'
_cell_length_a   9.28311154
_cell_length_b   9.28311233
_cell_length_c   7.19305910
_cell_angle_alpha   90.79253403
_cell_angle_beta   90.79253693
_cell_angle_gamma   120.22808842
_symmetry_Int_Tables_number   1
_chemical_formula_structural   Na5YbTaP4
_chemical_formula_sum   'Na10 Yb2 Ta2 P8'
_cell_volume   535.37892618
_cell_formula_units_Z   2
loop_
 _symmetry_equiv_pos_site_id
 _symmetry_equiv_pos_as_xyz
  1  'x, y, z'
loop_
 _atom_site_type_symbol
 _atom_site_label
 _atom_site_symmetry_multiplicity
 _atom_site_fract_x
 _atom_site_fract_y
 _atom_site_fract_z
 _atom_site_occupancy
  Na  Na0  1  0.538976  0.469897  0.611559  1
  Na  Na1  1  0.935925  0.469673  0.613112  1
  Na  Na2  1  0.469897  0.538976  0.111559  1
  Na  Na3  1  0.469673  0.935925  0.113112  1
  Na  Na4  1  0.138279  0.853965  0.781427  1
  Na  Na5  1  0.712071  0.848344  0.802046  1
  Na  Na6  1  0.148345  0.290439  0.771535  1
  Na  Na7  1  0.853965  0.138279  0.281427  1
  Na  Na8  1  0.290439  0.148345  0.271535  1
  Na  Na9  1  0.848344  0.712071  0.302046  1
  Yb  Yb10  1  0.533892  0.060228  0.605970  1
  Yb  Yb11  1  0.060228  0.533892  0.105970  1
  Ta  Ta12  1  0.330959  0.664678  0.500497  1
  Ta  Ta13  1  0.664678  0.330959  0.000497  1
  P  P14  1  0.811585  0.195788  0.888843  1
  P  P15  1  0.387252  0.188760  0.874607  1
  P  P16  1  0.817401  0.617755  0.913740  1
  P  P17  1  0.195788  0.811585  0.388843  1
  P  P18  1  0.617755  0.817401  0.413740  1
  P  P19  1  0.188760  0.387252  0.374607  1
  P  P20  1  0.320884  0.664905  0.833764  1
  P  P21  1  0.664905  0.320884  0.333764  1
