# generated using pymatgen
data_Sc3Cu3C
_symmetry_space_group_name_H-M   'P 1'
_cell_length_a   8.45658350
_cell_length_b   8.45658420
_cell_length_c   8.45658300
_cell_angle_alpha   60.00000079
_cell_angle_beta   59.99999806
_cell_angle_gamma   59.99999692
_symmetry_Int_Tables_number   1
_chemical_formula_structural   Sc3Cu3C
_chemical_formula_sum   'Sc12 Cu12 C4'
_cell_volume   427.63163245
_cell_formula_units_Z   4
loop_
 _symmetry_equiv_pos_site_id
 _symmetry_equiv_pos_as_xyz
  1  'x, y, z'
loop_
 _atom_site_type_symbol
 _atom_site_label
 _atom_site_symmetry_multiplicity
 _atom_site_fract_x
 _atom_site_fract_y
 _atom_site_fract_z
 _atom_site_occupancy
  Sc  Sc0  1  0.445487  0.445487  0.054513  1
  Sc  Sc1  1  0.054513  0.445487  0.054513  1
  Sc  Sc2  1  0.445487  0.054513  0.054513  1
  Sc  Sc3  1  0.054513  0.054513  0.445487  1
  Sc  Sc4  1  0.445487  0.054513  0.445487  1
  Sc  Sc5  1  0.054513  0.445487  0.445487  1
  Sc  Sc6  1  0.804513  0.804513  0.195487  1
  Sc  Sc7  1  0.195487  0.804513  0.195487  1
  Sc  Sc8  1  0.804513  0.195487  0.195487  1
  Sc  Sc9  1  0.195487  0.195487  0.804513  1
  Sc  Sc10  1  0.804513  0.195487  0.804513  1
  Sc  Sc11  1  0.195487  0.804513  0.804513  1
  Cu  Cu12  1  0.827175  0.827175  0.518474  1
  Cu  Cu13  1  0.827175  0.518474  0.827175  1
  Cu  Cu14  1  0.518474  0.827175  0.827175  1
  Cu  Cu15  1  0.827175  0.827175  0.827175  1
  Cu  Cu16  1  0.422825  0.422825  0.731526  1
  Cu  Cu17  1  0.422825  0.731526  0.422825  1
  Cu  Cu18  1  0.731526  0.422825  0.422825  1
  Cu  Cu19  1  0.422825  0.422825  0.422825  1
  Cu  Cu20  1  0.625000  0.625000  0.125000  1
  Cu  Cu21  1  0.625000  0.125000  0.625000  1
  Cu  Cu22  1  0.125000  0.625000  0.625000  1
  Cu  Cu23  1  0.625000  0.625000  0.625000  1
  C  C24  1  0.125000  0.125000  0.625000  1
  C  C25  1  0.125000  0.625000  0.125000  1
  C  C26  1  0.625000  0.125000  0.125000  1
  C  C27  1  0.125000  0.125000  0.125000  1
