# generated using pymatgen
data_Y8CoNiB28
_symmetry_space_group_name_H-M   'P 1'
_cell_length_a   7.23307200
_cell_length_b   7.23307200
_cell_length_c   7.51569400
_cell_angle_alpha   90.00000000
_cell_angle_beta   90.00000000
_cell_angle_gamma   90.00000000
_symmetry_Int_Tables_number   1
_chemical_formula_structural   Y8CoNiB28
_chemical_formula_sum   'Y8 Co1 Ni1 B28'
_cell_volume   393.20104736
_cell_formula_units_Z   1
loop_
 _symmetry_equiv_pos_site_id
 _symmetry_equiv_pos_as_xyz
  1  'x, y, z'
loop_
 _atom_site_type_symbol
 _atom_site_label
 _atom_site_symmetry_multiplicity
 _atom_site_fract_x
 _atom_site_fract_y
 _atom_site_fract_z
 _atom_site_occupancy
  Y  Y0  1  0.193566  0.331748  0.000000  1
  Y  Y1  1  0.668252  0.193566  0.000000  1
  Y  Y2  1  0.331748  0.806434  0.000000  1
  Y  Y3  1  0.693673  0.169547  0.500000  1
  Y  Y4  1  0.306327  0.830453  0.500000  1
  Y  Y5  1  0.806434  0.668252  0.000000  1
  Y  Y6  1  0.830453  0.693673  0.500000  1
  Y  Y7  1  0.169547  0.306327  0.500000  1
  Co  Co8  1  0.500000  0.500000  0.500000  1
  Ni  Ni9  1  0.000000  0.000000  0.000000  1
  B  B10  1  0.174577  0.039204  0.232525  1
  B  B11  1  0.960796  0.174577  0.232525  1
  B  B12  1  0.039204  0.825423  0.232525  1
  B  B13  1  0.673748  0.461180  0.269146  1
  B  B14  1  0.326252  0.538820  0.269146  1
  B  B15  1  0.825423  0.960796  0.232525  1
  B  B16  1  0.538820  0.673748  0.269146  1
  B  B17  1  0.461180  0.326252  0.269146  1
  B  B18  1  0.825423  0.960796  0.767475  1
  B  B19  1  0.039204  0.825423  0.767475  1
  B  B20  1  0.960796  0.174577  0.767475  1
  B  B21  1  0.326252  0.538820  0.730854  1
  B  B22  1  0.673748  0.461180  0.730854  1
  B  B23  1  0.174577  0.039204  0.767475  1
  B  B24  1  0.461180  0.326252  0.730854  1
  B  B25  1  0.538820  0.673748  0.730854  1
  B  B26  1  0.088878  0.588954  0.249476  1
  B  B27  1  0.411046  0.088878  0.249476  1
  B  B28  1  0.588954  0.911122  0.249476  1
  B  B29  1  0.911122  0.411046  0.249476  1
  B  B30  1  0.911122  0.411046  0.750524  1
  B  B31  1  0.588954  0.911122  0.750524  1
  B  B32  1  0.411046  0.088878  0.750524  1
  B  B33  1  0.088878  0.588954  0.750524  1
  B  B34  1  0.000000  0.000000  0.388369  1
  B  B35  1  0.500000  0.500000  0.111930  1
  B  B36  1  0.000000  0.000000  0.611631  1
  B  B37  1  0.500000  0.500000  0.888070  1
