# generated using pymatgen
data_La5PrIn8HgGe
_symmetry_space_group_name_H-M   'P 1'
_cell_length_a   8.71156196
_cell_length_b   8.71156177
_cell_length_c   8.71156176
_cell_angle_alpha   119.83191255
_cell_angle_beta   119.83191714
_cell_angle_gamma   90.29138256
_symmetry_Int_Tables_number   1
_chemical_formula_structural   La5PrIn8HgGe
_chemical_formula_sum   'La5 Pr1 In8 Hg1 Ge1'
_cell_volume   468.67193754
_cell_formula_units_Z   1
loop_
 _symmetry_equiv_pos_site_id
 _symmetry_equiv_pos_as_xyz
  1  'x, y, z'
loop_
 _atom_site_type_symbol
 _atom_site_label
 _atom_site_symmetry_multiplicity
 _atom_site_fract_x
 _atom_site_fract_y
 _atom_site_fract_z
 _atom_site_occupancy
  La  La0  1  0.238214  0.238214  0.000000  1
  La  La1  1  0.323982  0.852964  0.177010  1
  La  La2  1  0.675953  0.146971  0.822990  1
  La  La3  1  0.852964  0.675953  0.528982  1
  La  La4  1  0.146971  0.323982  0.471018  1
  Pr  Pr5  1  0.761870  0.761870  0.000000  1
  In  In6  1  0.964886  0.452386  0.787283  1
  In  In7  1  0.665103  0.177603  0.212717  1
  In  In8  1  0.452386  0.665103  0.487502  1
  In  In9  1  0.177603  0.964886  0.512498  1
  In  In10  1  0.034501  0.548088  0.212614  1
  In  In11  1  0.335474  0.821887  0.787386  1
  In  In12  1  0.548088  0.335474  0.513586  1
  In  In13  1  0.821887  0.034501  0.486414  1
  Hg  Hg14  1  0.500886  0.500886  0.000000  1
  Ge  Ge15  1  0.999231  0.999231  0.000000  1
