# generated using pymatgen
data_HoErMn4(SiC)2
_symmetry_space_group_name_H-M   'P 1'
_cell_length_a   5.59082911
_cell_length_b   5.59082917
_cell_length_c   6.99117400
_cell_angle_alpha   90.00000000
_cell_angle_beta   90.00000000
_cell_angle_gamma   141.50594870
_symmetry_Int_Tables_number   1
_chemical_formula_structural   HoErMn4(SiC)2
_chemical_formula_sum   'Ho1 Er1 Mn4 Si2 C2'
_cell_volume   136.01769980
_cell_formula_units_Z   1
loop_
 _symmetry_equiv_pos_site_id
 _symmetry_equiv_pos_as_xyz
  1  'x, y, z'
loop_
 _atom_site_type_symbol
 _atom_site_label
 _atom_site_symmetry_multiplicity
 _atom_site_fract_x
 _atom_site_fract_y
 _atom_site_fract_z
 _atom_site_occupancy
  Ho  Ho0  1  0.456339  0.543661  0.750000  1
  Er  Er1  1  0.543591  0.456409  0.250000  1
  Mn  Mn2  1  0.831694  0.168306  0.061392  1
  Mn  Mn3  1  0.168312  0.831688  0.939017  1
  Mn  Mn4  1  0.168312  0.831688  0.560983  1
  Mn  Mn5  1  0.831694  0.168306  0.438608  1
  Si  Si6  1  0.264329  0.735671  0.250000  1
  Si  Si7  1  0.735584  0.264416  0.750000  1
  C  C8  1  0.000073  0.999927  0.000481  1
  C  C9  1  0.000073  0.999927  0.499519  1
