# generated using pymatgen
data_AcThZn5Si
_symmetry_space_group_name_H-M   'P 1'
_cell_length_a   8.48154700
_cell_length_b   8.48154678
_cell_length_c   8.95464100
_cell_angle_alpha   90.00000000
_cell_angle_beta   90.00000000
_cell_angle_gamma   149.00744351
_symmetry_Int_Tables_number   1
_chemical_formula_structural   AcThZn5Si
_chemical_formula_sum   'Ac2 Th2 Zn10 Si2'
_cell_volume   331.69867451
_cell_formula_units_Z   2
loop_
 _symmetry_equiv_pos_site_id
 _symmetry_equiv_pos_as_xyz
  1  'x, y, z'
loop_
 _atom_site_type_symbol
 _atom_site_label
 _atom_site_symmetry_multiplicity
 _atom_site_fract_x
 _atom_site_fract_y
 _atom_site_fract_z
 _atom_site_occupancy
  Ac  Ac0  1  0.000000  0.000000  0.500000  1
  Ac  Ac1  1  0.000000  0.000000  0.000000  1
  Th  Th2  1  0.205395  0.794605  0.250000  1
  Th  Th3  1  0.794605  0.205395  0.750000  1
  Zn  Zn4  1  0.812383  0.187617  0.392619  1
  Zn  Zn5  1  0.187617  0.812383  0.607381  1
  Zn  Zn6  1  0.812383  0.187617  0.107381  1
  Zn  Zn7  1  0.187617  0.812383  0.892619  1
  Zn  Zn8  1  0.654576  0.345424  0.478133  1
  Zn  Zn9  1  0.345424  0.654576  0.521867  1
  Zn  Zn10  1  0.654576  0.345424  0.021867  1
  Zn  Zn11  1  0.345424  0.654576  0.978133  1
  Zn  Zn12  1  0.405914  0.594086  0.250000  1
  Zn  Zn13  1  0.594086  0.405914  0.750000  1
  Si  Si14  1  0.563938  0.436062  0.250000  1
  Si  Si15  1  0.436062  0.563938  0.750000  1
