# generated using pymatgen
data_CaTmTh2(Al3Rh)6
_symmetry_space_group_name_H-M   'P 1'
_cell_length_a   7.60927444
_cell_length_b   7.61283725
_cell_length_c   9.52856000
_cell_angle_alpha   90.00000000
_cell_angle_beta   90.00000000
_cell_angle_gamma   119.33794350
_symmetry_Int_Tables_number   1
_chemical_formula_structural   CaTmTh2(Al3Rh)6
_chemical_formula_sum   'Ca1 Tm1 Th2 Al18 Rh6'
_cell_volume   481.17884755
_cell_formula_units_Z   1
loop_
 _symmetry_equiv_pos_site_id
 _symmetry_equiv_pos_as_xyz
  1  'x, y, z'
loop_
 _atom_site_type_symbol
 _atom_site_label
 _atom_site_symmetry_multiplicity
 _atom_site_fract_x
 _atom_site_fract_y
 _atom_site_fract_z
 _atom_site_occupancy
  Ca  Ca0  1  0.005137  0.327432  0.750000  1
  Tm  Tm1  1  0.327290  0.004547  0.750000  1
  Th  Th2  1  0.994514  0.670661  0.250000  1
  Th  Th3  1  0.672498  0.995155  0.250000  1
  Al  Al4  1  0.134824  0.134624  0.250000  1
  Al  Al5  1  0.874507  0.872869  0.750000  1
  Al  Al6  1  0.005879  0.335750  0.068484  1
  Al  Al7  1  0.000775  0.664474  0.917966  1
  Al  Al8  1  0.000775  0.664474  0.582034  1
  Al  Al9  1  0.335670  0.005545  0.431135  1
  Al  Al10  1  0.005879  0.335750  0.431516  1
  Al  Al11  1  0.663662  0.000483  0.581846  1
  Al  Al12  1  0.663662  0.000483  0.918154  1
  Al  Al13  1  0.335670  0.005545  0.068865  1
  Al  Al14  1  0.331851  0.331611  0.556060  1
  Al  Al15  1  0.663176  0.663235  0.460490  1
  Al  Al16  1  0.663176  0.663235  0.039510  1
  Al  Al17  1  0.331851  0.331611  0.943940  1
  Al  Al18  1  0.340259  0.543762  0.250000  1
  Al  Al19  1  0.655896  0.446737  0.750000  1
  Al  Al20  1  0.544053  0.339141  0.250000  1
  Al  Al21  1  0.448315  0.662395  0.750000  1
  Rh  Rh22  1  0.671745  0.328090  0.001387  1
  Rh  Rh23  1  0.329250  0.674292  0.001345  1
  Rh  Rh24  1  0.329250  0.674292  0.498655  1
  Rh  Rh25  1  0.671745  0.328090  0.498613  1
  Rh  Rh26  1  0.999346  0.997859  0.001763  1
  Rh  Rh27  1  0.999346  0.997859  0.498237  1
