# generated using pymatgen
data_Ho2Er10Co4CuPb
_symmetry_space_group_name_H-M   'P 1'
_cell_length_a   8.27051352
_cell_length_b   8.27051310
_cell_length_c   8.26725991
_cell_angle_alpha   110.39950163
_cell_angle_beta   111.11264330
_cell_angle_gamma   106.94850335
_symmetry_Int_Tables_number   1
_chemical_formula_structural   Ho2Er10Co4CuPb
_chemical_formula_sum   'Ho2 Er10 Co4 Cu1 Pb1'
_cell_volume   434.57510272
_cell_formula_units_Z   1
loop_
 _symmetry_equiv_pos_site_id
 _symmetry_equiv_pos_as_xyz
  1  'x, y, z'
loop_
 _atom_site_type_symbol
 _atom_site_label
 _atom_site_symmetry_multiplicity
 _atom_site_fract_x
 _atom_site_fract_y
 _atom_site_fract_z
 _atom_site_occupancy
  Ho  Ho0  1  0.289768  0.184631  0.474398  1
  Ho  Ho1  1  0.710232  0.815369  0.525602  1
  Er  Er2  1  0.289471  0.815301  0.104771  1
  Er  Er3  1  0.710529  0.184699  0.895229  1
  Er  Er4  1  0.620678  0.313967  0.306030  1
  Er  Er5  1  0.379322  0.686033  0.693970  1
  Er  Er6  1  0.007939  0.314648  0.693970  1
  Er  Er7  1  0.992061  0.685352  0.306030  1
  Er  Er8  1  0.214419  0.415268  0.200302  1
  Er  Er9  1  0.785581  0.584732  0.799698  1
  Er  Er10  1  0.214967  0.014117  0.799698  1
  Er  Er11  1  0.785033  0.985883  0.200302  1
  Co  Co12  1  0.999653  0.377350  0.377003  1
  Co  Co13  1  0.000347  0.622650  0.622997  1
  Co  Co14  1  0.387252  0.887252  0.500000  1
  Co  Co15  1  0.612748  0.112748  0.500000  1
  Cu  Cu16  1  0.000000  0.000000  0.000000  1
  Pb  Pb17  1  0.500000  0.500000  0.000000  1
