# generated using pymatgen
data_Mg4FeB4SbRh10
_symmetry_space_group_name_H-M   'P 1'
_cell_length_a   9.50290800
_cell_length_b   2.97344700
_cell_length_c   9.50290800
_cell_angle_alpha   90.00000000
_cell_angle_beta   90.00000000
_cell_angle_gamma   90.00000000
_symmetry_Int_Tables_number   1
_chemical_formula_structural   Mg4FeB4SbRh10
_chemical_formula_sum   'Mg4 Fe1 B4 Sb1 Rh10'
_cell_volume   268.51790579
_cell_formula_units_Z   1
loop_
 _symmetry_equiv_pos_site_id
 _symmetry_equiv_pos_as_xyz
  1  'x, y, z'
loop_
 _atom_site_type_symbol
 _atom_site_label
 _atom_site_symmetry_multiplicity
 _atom_site_fract_x
 _atom_site_fract_y
 _atom_site_fract_z
 _atom_site_occupancy
  Mg  Mg0  1  0.669701  0.000000  0.181915  1
  Mg  Mg1  1  0.181915  0.000000  0.330299  1
  Mg  Mg2  1  0.818085  0.000000  0.669701  1
  Mg  Mg3  1  0.330299  0.000000  0.818085  1
  Fe  Fe4  1  0.500000  0.000000  0.500000  1
  B  B5  1  0.382759  0.000000  0.130263  1
  B  B6  1  0.869737  0.000000  0.382759  1
  B  B7  1  0.130263  0.000000  0.617241  1
  B  B8  1  0.617241  0.000000  0.869737  1
  Sb  Sb9  1  0.000000  0.000000  0.000000  1
  Rh  Rh10  1  0.500000  0.500000  0.000000  1
  Rh  Rh11  1  0.221110  0.500000  0.076288  1
  Rh  Rh12  1  0.923711  0.500000  0.221110  1
  Rh  Rh13  1  0.431841  0.500000  0.285834  1
  Rh  Rh14  1  0.714166  0.500000  0.431841  1
  Rh  Rh15  1  0.000000  0.500000  0.500000  1
  Rh  Rh16  1  0.285834  0.500000  0.568159  1
  Rh  Rh17  1  0.568159  0.500000  0.714166  1
  Rh  Rh18  1  0.076288  0.500000  0.778890  1
  Rh  Rh19  1  0.778890  0.500000  0.923711  1
