# generated using pymatgen
data_Pr7SBr12
_symmetry_space_group_name_H-M   'P 1'
_cell_length_a   9.45153217
_cell_length_b   9.45153157
_cell_length_c   9.45153253
_cell_angle_alpha   107.82958705
_cell_angle_beta   107.82959514
_cell_angle_gamma   107.82960157
_symmetry_Int_Tables_number   1
_chemical_formula_structural   Pr7SBr12
_chemical_formula_sum   'Pr7 S1 Br12'
_cell_volume   686.62308179
_cell_formula_units_Z   1
loop_
 _symmetry_equiv_pos_site_id
 _symmetry_equiv_pos_as_xyz
  1  'x, y, z'
loop_
 _atom_site_type_symbol
 _atom_site_label
 _atom_site_symmetry_multiplicity
 _atom_site_fract_x
 _atom_site_fract_y
 _atom_site_fract_z
 _atom_site_occupancy
  Pr  Pr0  1  0.964080  0.889917  0.681685  1
  Pr  Pr1  1  0.035920  0.110083  0.318315  1
  Pr  Pr2  1  0.110083  0.318315  0.035920  1
  Pr  Pr3  1  0.318315  0.035920  0.110083  1
  Pr  Pr4  1  0.500000  0.500000  0.500000  1
  Pr  Pr5  1  0.889917  0.681685  0.964080  1
  Pr  Pr6  1  0.681685  0.964080  0.889917  1
  S  S7  1  0.000000  0.000000  0.000000  1
  Br  Br8  1  0.527125  0.609862  0.844837  1
  Br  Br9  1  0.472875  0.390138  0.155163  1
  Br  Br10  1  0.313956  0.924418  0.774704  1
  Br  Br11  1  0.390138  0.155163  0.472875  1
  Br  Br12  1  0.924418  0.774704  0.313956  1
  Br  Br13  1  0.686044  0.075582  0.225296  1
  Br  Br14  1  0.075582  0.225296  0.686044  1
  Br  Br15  1  0.774704  0.313956  0.924418  1
  Br  Br16  1  0.225296  0.686044  0.075582  1
  Br  Br17  1  0.844837  0.527125  0.609862  1
  Br  Br18  1  0.155163  0.472875  0.390138  1
  Br  Br19  1  0.609862  0.844837  0.527125  1
