# generated using pymatgen
data_Eu2(AlCu)5
_symmetry_space_group_name_H-M   'P 1'
_cell_length_a   4.16146200
_cell_length_b   5.42995600
_cell_length_c   9.14948500
_cell_angle_alpha   90.00000000
_cell_angle_beta   90.00000000
_cell_angle_gamma   90.00000000
_symmetry_Int_Tables_number   1
_chemical_formula_structural   Eu2(AlCu)5
_chemical_formula_sum   'Eu2 Al5 Cu5'
_cell_volume   206.74684611
_cell_formula_units_Z   1
loop_
 _symmetry_equiv_pos_site_id
 _symmetry_equiv_pos_as_xyz
  1  'x, y, z'
loop_
 _atom_site_type_symbol
 _atom_site_label
 _atom_site_symmetry_multiplicity
 _atom_site_fract_x
 _atom_site_fract_y
 _atom_site_fract_z
 _atom_site_occupancy
  Eu  Eu0  1  0.000000  0.500000  0.000000  1
  Eu  Eu1  1  0.000000  0.000000  0.500000  1
  Al  Al2  1  0.500000  0.500000  0.500000  1
  Al  Al3  1  0.500000  0.751279  0.240966  1
  Al  Al4  1  0.500000  0.248721  0.759034  1
  Al  Al5  1  0.500000  0.248721  0.240966  1
  Al  Al6  1  0.500000  0.751279  0.759034  1
  Cu  Cu7  1  0.000000  0.500000  0.332776  1
  Cu  Cu8  1  0.000000  0.000000  0.835999  1
  Cu  Cu9  1  0.000000  0.000000  0.164001  1
  Cu  Cu10  1  0.000000  0.500000  0.667224  1
  Cu  Cu11  1  0.500000  0.000000  0.000000  1
