# generated using pymatgen
data_Ac8CdPd6
_symmetry_space_group_name_H-M   'P 1'
_cell_length_a   8.08927699
_cell_length_b   8.08927628
_cell_length_c   8.08927725
_cell_angle_alpha   71.81649453
_cell_angle_beta   71.81649661
_cell_angle_gamma   71.81649182
_symmetry_Int_Tables_number   1
_chemical_formula_structural   Ac8CdPd6
_chemical_formula_sum   'Ac8 Cd1 Pd6'
_cell_volume   464.07502347
_cell_formula_units_Z   1
loop_
 _symmetry_equiv_pos_site_id
 _symmetry_equiv_pos_as_xyz
  1  'x, y, z'
loop_
 _atom_site_type_symbol
 _atom_site_label
 _atom_site_symmetry_multiplicity
 _atom_site_fract_x
 _atom_site_fract_y
 _atom_site_fract_z
 _atom_site_occupancy
  Ac  Ac0  1  0.802978  0.802978  0.802978  1
  Ac  Ac1  1  0.197022  0.197022  0.197022  1
  Ac  Ac2  1  0.320791  0.627006  0.837733  1
  Ac  Ac3  1  0.837733  0.320791  0.627006  1
  Ac  Ac4  1  0.627005  0.837733  0.320791  1
  Ac  Ac5  1  0.679209  0.372994  0.162267  1
  Ac  Ac6  1  0.162267  0.679209  0.372994  1
  Ac  Ac7  1  0.372994  0.162267  0.679209  1
  Cd  Cd8  1  0.000000  0.000000  0.000000  1
  Pd  Pd9  1  0.155786  0.961393  0.584989  1
  Pd  Pd10  1  0.584989  0.155786  0.961393  1
  Pd  Pd11  1  0.961393  0.584989  0.155786  1
  Pd  Pd12  1  0.844214  0.038607  0.415011  1
  Pd  Pd13  1  0.415011  0.844214  0.038607  1
  Pd  Pd14  1  0.038607  0.415011  0.844214  1
