# generated using pymatgen
data_Er8Ti3Si16Mo9
_symmetry_space_group_name_H-M   'P 1'
_cell_length_a   6.89181990
_cell_length_b   6.89181990
_cell_length_c   12.75881003
_cell_angle_alpha   90.00519918
_cell_angle_beta   89.99480082
_cell_angle_gamma   89.76991297
_symmetry_Int_Tables_number   1
_chemical_formula_structural   Er8Ti3Si16Mo9
_chemical_formula_sum   'Er8 Ti3 Si16 Mo9'
_cell_volume   606.00262456
_cell_formula_units_Z   1
loop_
 _symmetry_equiv_pos_site_id
 _symmetry_equiv_pos_as_xyz
  1  'x, y, z'
loop_
 _atom_site_type_symbol
 _atom_site_label
 _atom_site_symmetry_multiplicity
 _atom_site_fract_x
 _atom_site_fract_y
 _atom_site_fract_z
 _atom_site_occupancy
  Er  Er0  1  0.339762  0.001688  0.468708  1
  Er  Er1  1  0.497293  0.839199  0.719335  1
  Er  Er2  1  0.499179  0.161602  0.217575  1
  Er  Er3  1  0.839199  0.497293  0.280665  1
  Er  Er4  1  0.161602  0.499179  0.782425  1
  Er  Er5  1  0.659338  0.000053  0.968913  1
  Er  Er6  1  0.001688  0.339762  0.531292  1
  Er  Er7  1  0.000053  0.659338  0.031087  1
  Ti  Ti8  1  0.169859  0.831566  0.248637  1
  Ti  Ti9  1  0.831566  0.169859  0.751363  1
  Ti  Ti10  1  0.668925  0.668925  0.500000  1
  Si  Si11  1  0.200897  0.129539  0.683243  1
  Si  Si12  1  0.373376  0.697317  0.933779  1
  Si  Si13  1  0.629214  0.299026  0.433247  1
  Si  Si14  1  0.697317  0.373376  0.066221  1
  Si  Si15  1  0.299026  0.629214  0.566753  1
  Si  Si16  1  0.796780  0.871414  0.183793  1
  Si  Si17  1  0.129539  0.200897  0.316757  1
  Si  Si18  1  0.871414  0.796780  0.816207  1
  Si  Si19  1  0.288202  0.963645  0.061701  1
  Si  Si20  1  0.539249  0.791630  0.313562  1
  Si  Si21  1  0.458441  0.210558  0.815151  1
  Si  Si22  1  0.791630  0.539249  0.686438  1
  Si  Si23  1  0.210558  0.458441  0.184849  1
  Si  Si24  1  0.709353  0.040994  0.563898  1
  Si  Si25  1  0.963645  0.288202  0.938299  1
  Si  Si26  1  0.040994  0.709353  0.436102  1
  Mo  Mo27  1  0.331394  0.331394  0.000000  1
  Mo  Mo28  1  0.155779  0.001200  0.872989  1
  Mo  Mo29  1  0.496795  0.666651  0.124371  1
  Mo  Mo30  1  0.505402  0.340399  0.624524  1
  Mo  Mo31  1  0.666651  0.496795  0.875629  1
  Mo  Mo32  1  0.340399  0.505402  0.375476  1
  Mo  Mo33  1  0.840537  0.993745  0.374309  1
  Mo  Mo34  1  0.001200  0.155779  0.127011  1
  Mo  Mo35  1  0.993745  0.840537  0.625691  1
