# generated using pymatgen
data_La7Nd5(GeBr3)4
_symmetry_space_group_name_H-M   'P 1'
_cell_length_a   10.62316177
_cell_length_b   10.57181880
_cell_length_c   10.62316022
_cell_angle_alpha   109.34025456
_cell_angle_beta   109.74278018
_cell_angle_gamma   109.34024245
_symmetry_Int_Tables_number   1
_chemical_formula_structural   La7Nd5(GeBr3)4
_chemical_formula_sum   'La7 Nd5 Ge4 Br12'
_cell_volume   918.28699838
_cell_formula_units_Z   1
loop_
 _symmetry_equiv_pos_site_id
 _symmetry_equiv_pos_as_xyz
  1  'x, y, z'
loop_
 _atom_site_type_symbol
 _atom_site_label
 _atom_site_symmetry_multiplicity
 _atom_site_fract_x
 _atom_site_fract_y
 _atom_site_fract_z
 _atom_site_occupancy
  La  La0  1  0.241486  0.483427  0.490626  1
  La  La1  1  0.009374  0.016573  0.258514  1
  La  La2  1  0.008811  0.493405  0.747747  1
  La  La3  1  0.494219  0.244160  0.483791  1
  La  La4  1  0.752253  0.006595  0.491189  1
  La  La5  1  0.016209  0.255840  0.005781  1
  La  La6  1  0.258395  0.750000  0.241605  1
  Nd  Nd7  1  0.486637  0.750000  0.013363  1
  Nd  Nd8  1  0.749225  0.236052  0.261149  1
  Nd  Nd9  1  0.238851  0.263948  0.750775  1
  Nd  Nd10  1  0.473471  0.485397  0.233402  1
  Nd  Nd11  1  0.266598  0.014603  0.026529  1
  Ge  Ge12  1  0.249766  0.250000  0.250234  1
  Ge  Ge13  1  0.000363  0.250000  0.499637  1
  Ge  Ge14  1  0.246729  0.499520  0.998451  1
  Ge  Ge15  1  0.501549  0.000480  0.253271  1
  Br  Br16  1  0.008591  0.994404  0.748115  1
  Br  Br17  1  0.746217  0.739479  0.242194  1
  Br  Br18  1  0.995597  0.751711  0.991907  1
  Br  Br19  1  0.253416  0.001073  0.509639  1
  Br  Br20  1  0.740884  0.995189  0.994439  1
  Br  Br21  1  0.501307  0.250000  0.998693  1
  Br  Br22  1  0.746350  0.250000  0.753650  1
  Br  Br23  1  0.508093  0.748289  0.504403  1
  Br  Br24  1  0.751885  0.505596  0.491409  1
  Br  Br25  1  0.257806  0.760521  0.753783  1
  Br  Br26  1  0.505561  0.504811  0.759116  1
  Br  Br27  1  0.990361  0.498927  0.246584  1
