# generated using pymatgen
data_Tb3Dy(NiPt)2
_symmetry_space_group_name_H-M   'P 1'
_cell_length_a   4.37514000
_cell_length_b   5.50142349
_cell_length_c   7.10018601
_cell_angle_alpha   89.90291081
_cell_angle_beta   90.00000000
_cell_angle_gamma   90.00000000
_symmetry_Int_Tables_number   1
_chemical_formula_structural   Tb3Dy(NiPt)2
_chemical_formula_sum   'Tb3 Dy1 Ni2 Pt2'
_cell_volume   170.89766741
_cell_formula_units_Z   1
loop_
 _symmetry_equiv_pos_site_id
 _symmetry_equiv_pos_as_xyz
  1  'x, y, z'
loop_
 _atom_site_type_symbol
 _atom_site_label
 _atom_site_symmetry_multiplicity
 _atom_site_fract_x
 _atom_site_fract_y
 _atom_site_fract_z
 _atom_site_occupancy
  Tb  Tb0  1  0.000000  0.117653  0.679630  1
  Tb  Tb1  1  0.000000  0.882452  0.179236  1
  Tb  Tb2  1  0.500000  0.385566  0.318159  1
  Dy  Dy3  1  0.500000  0.614354  0.818533  1
  Ni  Ni4  1  0.000000  0.608398  0.543253  1
  Ni  Ni5  1  0.000000  0.392511  0.040120  1
  Pt  Pt6  1  0.500000  0.884081  0.461318  1
  Pt  Pt7  1  0.500000  0.114986  0.959751  1
