# generated using pymatgen
data_TmMgScNi7B2
_symmetry_space_group_name_H-M   'P 1'
_cell_length_a   4.92917400
_cell_length_b   4.92917408
_cell_length_c   14.02778300
_cell_angle_alpha   90.00000000
_cell_angle_beta   90.00000000
_cell_angle_gamma   119.99999944
_symmetry_Int_Tables_number   1
_chemical_formula_structural   TmMgScNi7B2
_chemical_formula_sum   'Tm2 Mg2 Sc2 Ni14 B4'
_cell_volume   295.16712053
_cell_formula_units_Z   2
loop_
 _symmetry_equiv_pos_site_id
 _symmetry_equiv_pos_as_xyz
  1  'x, y, z'
loop_
 _atom_site_type_symbol
 _atom_site_label
 _atom_site_symmetry_multiplicity
 _atom_site_fract_x
 _atom_site_fract_y
 _atom_site_fract_z
 _atom_site_occupancy
  Tm  Tm0  1  0.333333  0.666667  0.746627  1
  Tm  Tm1  1  0.666667  0.333333  0.246627  1
  Mg  Mg2  1  0.333333  0.666667  0.531255  1
  Mg  Mg3  1  0.666667  0.333333  0.031255  1
  Sc  Sc4  1  0.666667  0.333333  0.470609  1
  Sc  Sc5  1  0.333333  0.666667  0.970609  1
  Ni  Ni6  1  0.000000  0.000000  0.000574  1
  Ni  Ni7  1  0.000000  0.000000  0.500574  1
  Ni  Ni8  1  0.166456  0.332913  0.144888  1
  Ni  Ni9  1  0.833544  0.667087  0.644888  1
  Ni  Ni10  1  0.667087  0.833544  0.144888  1
  Ni  Ni11  1  0.166456  0.833544  0.144888  1
  Ni  Ni12  1  0.833544  0.166456  0.644888  1
  Ni  Ni13  1  0.332913  0.166456  0.644888  1
  Ni  Ni14  1  0.833635  0.667270  0.854736  1
  Ni  Ni15  1  0.833635  0.166365  0.854736  1
  Ni  Ni16  1  0.332730  0.166365  0.854736  1
  Ni  Ni17  1  0.667270  0.833635  0.354736  1
  Ni  Ni18  1  0.166365  0.833635  0.354736  1
  Ni  Ni19  1  0.166365  0.332730  0.354736  1
  B  B20  1  0.333333  0.666667  0.250276  1
  B  B21  1  0.666667  0.333333  0.750276  1
  B  B22  1  0.000000  0.000000  0.251787  1
  B  B23  1  0.000000  0.000000  0.751787  1
