# generated using pymatgen
data_Pr7NdV4O20
_symmetry_space_group_name_H-M   'P 1'
_cell_length_a   3.90734600
_cell_length_b   10.86737530
_cell_length_c   11.56658731
_cell_angle_alpha   90.02675069
_cell_angle_beta   90.00000000
_cell_angle_gamma   90.00000000
_symmetry_Int_Tables_number   1
_chemical_formula_structural   Pr7NdV4O20
_chemical_formula_sum   'Pr7 Nd1 V4 O20'
_cell_volume   491.14726372
_cell_formula_units_Z   1
loop_
 _symmetry_equiv_pos_site_id
 _symmetry_equiv_pos_as_xyz
  1  'x, y, z'
loop_
 _atom_site_type_symbol
 _atom_site_label
 _atom_site_symmetry_multiplicity
 _atom_site_fract_x
 _atom_site_fract_y
 _atom_site_fract_z
 _atom_site_occupancy
  Pr  Pr0  1  0.750000  0.109361  0.722687  1
  Pr  Pr1  1  0.250000  0.891072  0.277117  1
  Pr  Pr2  1  0.750000  0.609432  0.777569  1
  Pr  Pr3  1  0.250000  0.389982  0.222235  1
  Pr  Pr4  1  0.250000  0.361832  0.555450  1
  Pr  Pr5  1  0.750000  0.638153  0.444425  1
  Pr  Pr6  1  0.250000  0.862476  0.944909  1
  Nd  Nd7  1  0.750000  0.138702  0.054592  1
  V  V8  1  0.250000  0.319853  0.877377  1
  V  V9  1  0.750000  0.679735  0.122922  1
  V  V10  1  0.250000  0.820192  0.622859  1
  V  V11  1  0.750000  0.179730  0.376814  1
  O  O12  1  0.250000  0.475593  0.840532  1
  O  O13  1  0.750000  0.524039  0.159723  1
  O  O14  1  0.250000  0.975929  0.659883  1
  O  O15  1  0.750000  0.023987  0.340620  1
  O  O16  1  0.250000  0.232537  0.731903  1
  O  O17  1  0.750000  0.767612  0.268172  1
  O  O18  1  0.250000  0.732561  0.768275  1
  O  O19  1  0.750000  0.266477  0.230736  1
  O  O20  1  0.750000  0.266153  0.880180  1
  O  O21  1  0.250000  0.733551  0.120570  1
  O  O22  1  0.750000  0.766677  0.620629  1
  O  O23  1  0.250000  0.233481  0.379279  1
  O  O24  1  0.250000  0.009659  0.103788  1
  O  O25  1  0.750000  0.992789  0.896981  1
  O  O26  1  0.250000  0.508056  0.395880  1
  O  O27  1  0.750000  0.491813  0.604053  1
  O  O28  1  0.250000  0.273509  0.035075  1
  O  O29  1  0.750000  0.725073  0.964892  1
  O  O30  1  0.250000  0.775168  0.464798  1
  O  O31  1  0.750000  0.224817  0.535074  1
