# generated using pymatgen
data_Lu4MnOs5Ru2
_symmetry_space_group_name_H-M   'P 1'
_cell_length_a   5.28914900
_cell_length_b   5.21670490
_cell_length_c   8.83955500
_cell_angle_alpha   90.00000000
_cell_angle_beta   90.00000000
_cell_angle_gamma   120.44551107
_symmetry_Int_Tables_number   1
_chemical_formula_structural   Lu4MnOs5Ru2
_chemical_formula_sum   'Lu4 Mn1 Os5 Ru2'
_cell_volume   210.26930770
_cell_formula_units_Z   1
loop_
 _symmetry_equiv_pos_site_id
 _symmetry_equiv_pos_as_xyz
  1  'x, y, z'
loop_
 _atom_site_type_symbol
 _atom_site_label
 _atom_site_symmetry_multiplicity
 _atom_site_fract_x
 _atom_site_fract_y
 _atom_site_fract_z
 _atom_site_occupancy
  Lu  Lu0  1  0.667041  0.334374  0.565751  1
  Lu  Lu1  1  0.332108  0.664695  0.434851  1
  Lu  Lu2  1  0.332108  0.664695  0.065149  1
  Lu  Lu3  1  0.667041  0.334374  0.934249  1
  Mn  Mn4  1  0.167462  0.334623  0.750000  1
  Os  Os5  1  0.174311  0.827306  0.750000  1
  Os  Os6  1  0.653345  0.827432  0.750000  1
  Os  Os7  1  0.832832  0.665444  0.250000  1
  Os  Os8  1  0.828361  0.172395  0.250000  1
  Os  Os9  1  0.344738  0.172458  0.250000  1
  Ru  Ru10  1  0.000326  0.001100  0.502794  1
  Ru  Ru11  1  0.000326  0.001100  0.997206  1
