# generated using pymatgen
data_Li4CeEu3Bi3Pb
_symmetry_space_group_name_H-M   'P 1'
_cell_length_a   4.86560000
_cell_length_b   8.01019894
_cell_length_c   8.53803000
_cell_angle_alpha   89.93636105
_cell_angle_beta   90.00000000
_cell_angle_gamma   90.00000000
_symmetry_Int_Tables_number   1
_chemical_formula_structural   Li4CeEu3Bi3Pb
_chemical_formula_sum   'Li4 Ce1 Eu3 Bi3 Pb1'
_cell_volume   332.76459580
_cell_formula_units_Z   1
loop_
 _symmetry_equiv_pos_site_id
 _symmetry_equiv_pos_as_xyz
  1  'x, y, z'
loop_
 _atom_site_type_symbol
 _atom_site_label
 _atom_site_symmetry_multiplicity
 _atom_site_fract_x
 _atom_site_fract_y
 _atom_site_fract_z
 _atom_site_occupancy
  Li  Li0  1  0.250000  0.167865  0.921247  1
  Li  Li1  1  0.250000  0.662178  0.576853  1
  Li  Li2  1  0.750000  0.834703  0.077111  1
  Li  Li3  1  0.750000  0.332221  0.425024  1
  Ce  Ce4  1  0.750000  0.000551  0.707957  1
  Eu  Eu5  1  0.250000  0.006778  0.292845  1
  Eu  Eu6  1  0.250000  0.501961  0.212462  1
  Eu  Eu7  1  0.750000  0.493627  0.787505  1
  Bi  Bi8  1  0.250000  0.774706  0.906577  1
  Bi  Bi9  1  0.750000  0.723666  0.406296  1
  Bi  Bi10  1  0.750000  0.224897  0.093922  1
  Pb  Pb11  1  0.250000  0.276847  0.592200  1
