# generated using pymatgen
data_Dy2Y3Co19SiP11
_symmetry_space_group_name_H-M   'P 1'
_cell_length_a   12.01638211
_cell_length_b   12.02411231
_cell_length_c   3.68715600
_cell_angle_alpha   90.00000000
_cell_angle_beta   90.00000000
_cell_angle_gamma   120.02128046
_symmetry_Int_Tables_number   1
_chemical_formula_structural   Dy2Y3Co19SiP11
_chemical_formula_sum   'Dy2 Y3 Co19 Si1 P11'
_cell_volume   461.27055245
_cell_formula_units_Z   1
loop_
 _symmetry_equiv_pos_site_id
 _symmetry_equiv_pos_as_xyz
  1  'x, y, z'
loop_
 _atom_site_type_symbol
 _atom_site_label
 _atom_site_symmetry_multiplicity
 _atom_site_fract_x
 _atom_site_fract_y
 _atom_site_fract_z
 _atom_site_occupancy
  Dy  Dy0  1  0.332504  0.666256  0.500000  1
  Dy  Dy1  1  0.667496  0.333751  0.500000  1
  Y  Y2  1  0.000000  0.185047  0.000000  1
  Y  Y3  1  0.812099  0.812142  0.000000  1
  Y  Y4  1  0.187901  0.000043  0.000000  1
  Co  Co5  1  0.621482  0.821489  0.500000  1
  Co  Co6  1  0.178369  0.800910  0.500000  1
  Co  Co7  1  0.203943  0.378266  0.500000  1
  Co  Co8  1  0.378518  0.200007  0.500000  1
  Co  Co9  1  0.821631  0.622541  0.500000  1
  Co  Co10  1  0.796057  0.174323  0.500000  1
  Co  Co11  1  0.000000  0.557855  0.500000  1
  Co  Co12  1  0.448343  0.446600  0.500000  1
  Co  Co13  1  0.551657  0.998256  0.500000  1
  Co  Co14  1  0.516218  0.640972  0.000000  1
  Co  Co15  1  0.358589  0.874750  0.000000  1
  Co  Co16  1  0.127124  0.486071  0.000000  1
  Co  Co17  1  0.483782  0.124754  0.000000  1
  Co  Co18  1  0.641411  0.516161  0.000000  1
  Co  Co19  1  0.872876  0.358947  0.000000  1
  Co  Co20  1  0.000000  0.715953  0.000000  1
  Co  Co21  1  0.286258  0.285156  0.000000  1
  Co  Co22  1  0.713742  0.998899  0.000000  1
  Co  Co23  1  0.000000  0.000007  0.500000  1
  Si  Si24  1  0.000000  0.369618  0.500000  1
  P  P25  1  0.631084  0.631104  0.500000  1
  P  P26  1  0.368916  0.000021  0.500000  1
  P  P27  1  0.519519  0.833199  0.000000  1
  P  P28  1  0.165393  0.686335  0.000000  1
  P  P29  1  0.313281  0.479733  0.000000  1
  P  P30  1  0.480481  0.313681  0.000000  1
  P  P31  1  0.834607  0.520941  0.000000  1
  P  P32  1  0.686719  0.166453  0.000000  1
  P  P33  1  0.000000  0.819227  0.500000  1
  P  P34  1  0.181657  0.181090  0.500000  1
  P  P35  1  0.818343  0.999434  0.500000  1
