# generated using pymatgen
data_Na4Ac7Tb9Pb16
_symmetry_space_group_name_H-M   'P 1'
_cell_length_a   8.35638288
_cell_length_b   16.14061520
_cell_length_c   8.46227300
_cell_angle_alpha   90.09217031
_cell_angle_beta   89.61071073
_cell_angle_gamma   90.29794040
_symmetry_Int_Tables_number   1
_chemical_formula_structural   Na4Ac7Tb9Pb16
_chemical_formula_sum   'Na4 Ac7 Tb9 Pb16'
_cell_volume   1141.32416542
_cell_formula_units_Z   1
loop_
 _symmetry_equiv_pos_site_id
 _symmetry_equiv_pos_as_xyz
  1  'x, y, z'
loop_
 _atom_site_type_symbol
 _atom_site_label
 _atom_site_symmetry_multiplicity
 _atom_site_fract_x
 _atom_site_fract_y
 _atom_site_fract_z
 _atom_site_occupancy
  Na  Na0  1  0.817508  0.748204  0.500852  1
  Na  Na1  1  0.318429  0.748349  0.000001  1
  Na  Na2  1  0.184311  0.251213  0.500489  1
  Na  Na3  1  0.682146  0.251069  0.000040  1
  Ac  Ac4  1  0.996282  0.900942  0.821130  1
  Ac  Ac5  1  0.502440  0.097126  0.321834  1
  Ac  Ac6  1  0.999749  0.407304  0.179767  1
  Ac  Ac7  1  0.502780  0.405559  0.323702  1
  Ac  Ac8  1  0.003106  0.096555  0.176943  1
  Ac  Ac9  1  0.498630  0.902386  0.677551  1
  Ac  Ac10  1  0.996347  0.596704  0.819868  1
  Tb  Tb11  1  0.650923  0.624265  0.168420  1
  Tb  Tb12  1  0.153769  0.872575  0.331912  1
  Tb  Tb13  1  0.346854  0.124547  0.831499  1
  Tb  Tb14  1  0.852561  0.377152  0.666600  1
  Tb  Tb15  1  0.350747  0.376588  0.829477  1
  Tb  Tb16  1  0.847809  0.124673  0.669644  1
  Tb  Tb17  1  0.651821  0.872945  0.167595  1
  Tb  Tb18  1  0.150399  0.623805  0.332767  1
  Tb  Tb19  1  0.496501  0.597435  0.681970  1
  Pb  Pb20  1  0.676261  0.463696  0.949115  1
  Pb  Pb21  1  0.178283  0.037865  0.544303  1
  Pb  Pb22  1  0.320225  0.960059  0.044668  1
  Pb  Pb23  1  0.805548  0.542719  0.462767  1
  Pb  Pb24  1  0.322267  0.541178  0.037210  1
  Pb  Pb25  1  0.822362  0.960352  0.454073  1
  Pb  Pb26  1  0.678225  0.038048  0.956184  1
  Pb  Pb27  1  0.189259  0.465207  0.548019  1
  Pb  Pb28  1  0.456995  0.746472  0.380868  1
  Pb  Pb29  1  0.952925  0.748271  0.122625  1
  Pb  Pb30  1  0.548039  0.250247  0.624953  1
  Pb  Pb31  1  0.046275  0.251790  0.874828  1
  Pb  Pb32  1  0.683515  0.745698  0.865520  1
  Pb  Pb33  1  0.197204  0.746771  0.632341  1
  Pb  Pb34  1  0.307723  0.251449  0.129120  1
  Pb  Pb35  1  0.811781  0.250776  0.371345  1
