# generated using pymatgen
data_Y2Ho2Al4RuPt3
_symmetry_space_group_name_H-M   'P 1'
_cell_length_a   4.36192800
_cell_length_b   6.85869738
_cell_length_c   7.87866603
_cell_angle_alpha   89.80150428
_cell_angle_beta   90.00000000
_cell_angle_gamma   90.00000000
_symmetry_Int_Tables_number   1
_chemical_formula_structural   Y2Ho2Al4RuPt3
_chemical_formula_sum   'Y2 Ho2 Al4 Ru1 Pt3'
_cell_volume   235.70577306
_cell_formula_units_Z   1
loop_
 _symmetry_equiv_pos_site_id
 _symmetry_equiv_pos_as_xyz
  1  'x, y, z'
loop_
 _atom_site_type_symbol
 _atom_site_label
 _atom_site_symmetry_multiplicity
 _atom_site_fract_x
 _atom_site_fract_y
 _atom_site_fract_z
 _atom_site_occupancy
  Y  Y0  1  0.250000  0.033285  0.677532  1
  Y  Y1  1  0.250000  0.530072  0.819241  1
  Ho  Ho2  1  0.750000  0.976533  0.320934  1
  Ho  Ho3  1  0.750000  0.467100  0.184536  1
  Al  Al4  1  0.250000  0.144009  0.062494  1
  Al  Al5  1  0.250000  0.637964  0.436652  1
  Al  Al6  1  0.750000  0.858232  0.938101  1
  Al  Al7  1  0.750000  0.355868  0.559911  1
  Ru  Ru8  1  0.250000  0.264569  0.380417  1
  Pt  Pt9  1  0.250000  0.771647  0.119144  1
  Pt  Pt10  1  0.750000  0.730029  0.620014  1
  Pt  Pt11  1  0.750000  0.230691  0.881022  1
