# generated using pymatgen
data_Cs16Zr3CrS16
_symmetry_space_group_name_H-M   'P 1'
_cell_length_a   8.74868129
_cell_length_b   10.43603300
_cell_length_c   15.31936200
_cell_angle_alpha   90.00000000
_cell_angle_beta   90.04147530
_cell_angle_gamma   90.00000000
_symmetry_Int_Tables_number   1
_chemical_formula_structural   Cs16Zr3CrS16
_chemical_formula_sum   'Cs16 Zr3 Cr1 S16'
_cell_volume   1398.68077178
_cell_formula_units_Z   1
loop_
 _symmetry_equiv_pos_site_id
 _symmetry_equiv_pos_as_xyz
  1  'x, y, z'
loop_
 _atom_site_type_symbol
 _atom_site_label
 _atom_site_symmetry_multiplicity
 _atom_site_fract_x
 _atom_site_fract_y
 _atom_site_fract_z
 _atom_site_occupancy
  Cs  Cs0  1  0.000071  0.002651  0.999989  1
  Cs  Cs1  1  0.503292  0.993802  0.502261  1
  Cs  Cs2  1  0.000071  0.497349  0.999989  1
  Cs  Cs3  1  0.503292  0.506198  0.502261  1
  Cs  Cs4  1  0.990656  0.750000  0.427338  1
  Cs  Cs5  1  0.494726  0.250000  0.075575  1
  Cs  Cs6  1  0.998475  0.250000  0.578442  1
  Cs  Cs7  1  0.508949  0.750000  0.919869  1
  Cs  Cs8  1  0.831197  0.057236  0.281811  1
  Cs  Cs9  1  0.330714  0.942762  0.218545  1
  Cs  Cs10  1  0.169169  0.562115  0.716084  1
  Cs  Cs11  1  0.668585  0.446836  0.780237  1
  Cs  Cs12  1  0.169169  0.937885  0.716084  1
  Cs  Cs13  1  0.668585  0.053164  0.780237  1
  Cs  Cs14  1  0.831197  0.442764  0.281811  1
  Cs  Cs15  1  0.330714  0.557238  0.218545  1
  Zr  Zr16  1  0.239183  0.250000  0.337122  1
  Zr  Zr17  1  0.738988  0.750000  0.164913  1
  Zr  Zr18  1  0.260419  0.250000  0.832830  1
  Cr  Cr19  1  0.762482  0.750000  0.665286  1
  S  S20  1  0.983289  0.250000  0.825259  1
  S  S21  1  0.516134  0.250000  0.328309  1
  S  S22  1  0.508899  0.750000  0.674077  1
  S  S23  1  0.016112  0.750000  0.172296  1
  S  S24  1  0.653778  0.560521  0.089574  1
  S  S25  1  0.152922  0.439523  0.412346  1
  S  S26  1  0.344546  0.059935  0.908309  1
  S  S27  1  0.841992  0.922519  0.596866  1
  S  S28  1  0.344546  0.440065  0.908309  1
  S  S29  1  0.841992  0.577481  0.596866  1
  S  S30  1  0.653778  0.939479  0.089574  1
  S  S31  1  0.152922  0.060477  0.412346  1
  S  S32  1  0.630402  0.750000  0.311714  1
  S  S33  1  0.131073  0.250000  0.189839  1
  S  S34  1  0.366796  0.250000  0.685809  1
  S  S35  1  0.860880  0.750000  0.799275  1
