# generated using pymatgen
data_IrOsBr18
_symmetry_space_group_name_H-M   'P 1'
_cell_length_a   9.10445889
_cell_length_b   9.10445705
_cell_length_c   9.10445822
_cell_angle_alpha   91.63378401
_cell_angle_beta   91.63378531
_cell_angle_gamma   91.63378678
_symmetry_Int_Tables_number   1
_chemical_formula_structural   IrOsBr18
_chemical_formula_sum   'Ir1 Os1 Br18'
_cell_volume   753.74078635
_cell_formula_units_Z   1
loop_
 _symmetry_equiv_pos_site_id
 _symmetry_equiv_pos_as_xyz
  1  'x, y, z'
loop_
 _atom_site_type_symbol
 _atom_site_label
 _atom_site_symmetry_multiplicity
 _atom_site_fract_x
 _atom_site_fract_y
 _atom_site_fract_z
 _atom_site_occupancy
  Ir  Ir0  1  0.000000  0.000000  0.000000  1
  Os  Os1  1  0.500000  0.500000  0.500000  1
  Br  Br2  1  0.273641  0.990938  0.021880  1
  Br  Br3  1  0.021880  0.273641  0.990938  1
  Br  Br4  1  0.990938  0.021880  0.273641  1
  Br  Br5  1  0.726359  0.009062  0.978120  1
  Br  Br6  1  0.978120  0.726359  0.009062  1
  Br  Br7  1  0.009062  0.978120  0.726359  1
  Br  Br8  1  0.631685  0.239639  0.119393  1
  Br  Br9  1  0.119393  0.631685  0.239639  1
  Br  Br10  1  0.239639  0.119393  0.631685  1
  Br  Br11  1  0.368315  0.760361  0.880607  1
  Br  Br12  1  0.880607  0.368315  0.760361  1
  Br  Br13  1  0.760361  0.880607  0.368315  1
  Br  Br14  1  0.477708  0.226901  0.516338  1
  Br  Br15  1  0.516338  0.477708  0.226901  1
  Br  Br16  1  0.226901  0.516338  0.477708  1
  Br  Br17  1  0.522292  0.773099  0.483662  1
  Br  Br18  1  0.483662  0.522292  0.773099  1
  Br  Br19  1  0.773099  0.483662  0.522292  1
