# generated using pymatgen
data_La19YbSi15Cl
_symmetry_space_group_name_H-M   'P 1'
_cell_length_a   8.00384952
_cell_length_b   8.09971679
_cell_length_c   15.62797500
_cell_angle_alpha   88.84639743
_cell_angle_beta   85.32174518
_cell_angle_gamma   89.61229421
_symmetry_Int_Tables_number   1
_chemical_formula_structural   La19YbSi15Cl
_chemical_formula_sum   'La19 Yb1 Si15 Cl1'
_cell_volume   1009.55125638
_cell_formula_units_Z   1
loop_
 _symmetry_equiv_pos_site_id
 _symmetry_equiv_pos_as_xyz
  1  'x, y, z'
loop_
 _atom_site_type_symbol
 _atom_site_label
 _atom_site_symmetry_multiplicity
 _atom_site_fract_x
 _atom_site_fract_y
 _atom_site_fract_z
 _atom_site_occupancy
  La  La0  1  0.869221  0.348039  0.614097  1
  La  La1  1  0.469292  0.692408  0.895498  1
  La  La2  1  0.969072  0.813517  0.896369  1
  La  La3  1  0.177479  0.676562  0.121438  1
  La  La4  1  0.676885  0.812532  0.121645  1
  La  La5  1  0.323880  0.186967  0.880110  1
  La  La6  1  0.135688  0.658696  0.385833  1
  La  La7  1  0.030741  0.184015  0.105283  1
  La  La8  1  0.365405  0.176847  0.614593  1
  La  La9  1  0.827201  0.485127  0.238493  1
  La  La10  1  0.328850  0.997311  0.253236  1
  La  La11  1  0.486197  0.301619  0.395158  1
  La  La12  1  0.825841  0.323913  0.879336  1
  La  La13  1  0.019801  0.840328  0.607643  1
  La  La14  1  0.492485  0.704068  0.612508  1
  La  La15  1  0.991051  0.159905  0.393028  1
  La  La16  1  0.630722  0.827135  0.386559  1
  La  La17  1  0.672002  0.005754  0.746158  1
  La  La18  1  0.528947  0.305715  0.104532  1
  Yb  Yb19  1  0.172465  0.511580  0.749769  1
  Si  Si20  1  0.445117  0.594840  0.254931  1
  Si  Si21  1  0.220344  0.371686  0.250951  1
  Si  Si22  1  0.557440  0.408658  0.749923  1
  Si  Si23  1  0.635246  0.025331  0.958251  1
  Si  Si24  1  0.050600  0.108989  0.751177  1
  Si  Si25  1  0.774849  0.627861  0.750892  1
  Si  Si26  1  0.717641  0.109931  0.251386  1
  Si  Si27  1  0.289920  0.967198  0.455566  1
  Si  Si28  1  0.944685  0.889855  0.252714  1
  Si  Si29  1  0.367436  0.972998  0.041545  1
  Si  Si30  1  0.719104  0.034333  0.541947  1
  Si  Si31  1  0.137038  0.476758  0.960038  1
  Si  Si32  1  0.214023  0.488317  0.549201  1
  Si  Si33  1  0.867134  0.523160  0.040479  1
  Si  Si34  1  0.277050  0.891579  0.754020  1
  Cl  Cl35  1  0.789145  0.496470  0.435690  1
