# generated using pymatgen
data_Lu3ScGa2Ir3
_symmetry_space_group_name_H-M   'P 1'
_cell_length_a   7.08174811
_cell_length_b   7.08174805
_cell_length_c   4.02602300
_cell_angle_alpha   90.00000000
_cell_angle_beta   90.00000000
_cell_angle_gamma   120.26230387
_symmetry_Int_Tables_number   1
_chemical_formula_structural   Lu3ScGa2Ir3
_chemical_formula_sum   'Lu3 Sc1 Ga2 Ir3'
_cell_volume   174.39492670
_cell_formula_units_Z   1
loop_
 _symmetry_equiv_pos_site_id
 _symmetry_equiv_pos_as_xyz
  1  'x, y, z'
loop_
 _atom_site_type_symbol
 _atom_site_label
 _atom_site_symmetry_multiplicity
 _atom_site_fract_x
 _atom_site_fract_y
 _atom_site_fract_z
 _atom_site_occupancy
  Lu  Lu0  1  0.392253  0.392253  0.500000  1
  Lu  Lu1  1  0.582934  0.013199  0.500000  1
  Lu  Lu2  1  0.013199  0.582934  0.500000  1
  Sc  Sc3  1  0.764597  0.764597  0.000000  1
  Ga  Ga4  1  0.248946  0.993696  0.000000  1
  Ga  Ga5  1  0.993696  0.248946  0.000000  1
  Ir  Ir6  1  0.662629  0.334905  0.000000  1
  Ir  Ir7  1  0.334905  0.662629  0.000000  1
  Ir  Ir8  1  0.006843  0.006843  0.500000  1
