# generated using pymatgen
data_PrCo3P3Pd2
_symmetry_space_group_name_H-M   'P 1'
_cell_length_a   3.82461400
_cell_length_b   10.63775600
_cell_length_c   12.46698800
_cell_angle_alpha   90.00000000
_cell_angle_beta   90.00000000
_cell_angle_gamma   90.00000000
_symmetry_Int_Tables_number   1
_chemical_formula_structural   PrCo3P3Pd2
_chemical_formula_sum   'Pr4 Co12 P12 Pd8'
_cell_volume   507.22327811
_cell_formula_units_Z   4
loop_
 _symmetry_equiv_pos_site_id
 _symmetry_equiv_pos_as_xyz
  1  'x, y, z'
loop_
 _atom_site_type_symbol
 _atom_site_label
 _atom_site_symmetry_multiplicity
 _atom_site_fract_x
 _atom_site_fract_y
 _atom_site_fract_z
 _atom_site_occupancy
  Pr  Pr0  1  0.250000  0.583091  0.708886  1
  Pr  Pr1  1  0.250000  0.916909  0.208886  1
  Pr  Pr2  1  0.750000  0.416909  0.291114  1
  Pr  Pr3  1  0.750000  0.083091  0.791114  1
  Co  Co4  1  0.250000  0.222045  0.178073  1
  Co  Co5  1  0.250000  0.277955  0.678073  1
  Co  Co6  1  0.750000  0.777955  0.821927  1
  Co  Co7  1  0.750000  0.722045  0.321927  1
  Co  Co8  1  0.250000  0.881804  0.694450  1
  Co  Co9  1  0.250000  0.618196  0.194450  1
  Co  Co10  1  0.750000  0.118196  0.305550  1
  Co  Co11  1  0.750000  0.381804  0.805550  1
  Co  Co12  1  0.250000  0.463896  0.934148  1
  Co  Co13  1  0.250000  0.036104  0.434148  1
  Co  Co14  1  0.750000  0.536104  0.065852  1
  Co  Co15  1  0.750000  0.963896  0.565852  1
  P  P16  1  0.250000  0.425088  0.110239  1
  P  P17  1  0.250000  0.074912  0.610239  1
  P  P18  1  0.750000  0.574912  0.889761  1
  P  P19  1  0.750000  0.925088  0.389761  1
  P  P20  1  0.250000  0.282496  0.855735  1
  P  P21  1  0.250000  0.217504  0.355735  1
  P  P22  1  0.750000  0.717504  0.144265  1
  P  P23  1  0.750000  0.782496  0.644265  1
  P  P24  1  0.250000  0.612782  0.373077  1
  P  P25  1  0.250000  0.887218  0.873077  1
  P  P26  1  0.750000  0.387218  0.626923  1
  P  P27  1  0.750000  0.112782  0.126923  1
  Pd  Pd28  1  0.250000  0.708163  0.985878  1
  Pd  Pd29  1  0.250000  0.791837  0.485878  1
  Pd  Pd30  1  0.750000  0.291837  0.014122  1
  Pd  Pd31  1  0.750000  0.208163  0.514122  1
  Pd  Pd32  1  0.250000  0.405378  0.481821  1
  Pd  Pd33  1  0.250000  0.094622  0.981821  1
  Pd  Pd34  1  0.750000  0.594622  0.518179  1
  Pd  Pd35  1  0.750000  0.905378  0.018179  1
