# generated using pymatgen
data_EuNiCl6
_symmetry_space_group_name_H-M   'P 1'
_cell_length_a   6.55067664
_cell_length_b   6.55074268
_cell_length_c   6.58957600
_cell_angle_alpha   99.24189001
_cell_angle_beta   99.24243593
_cell_angle_gamma   120.00431170
_symmetry_Int_Tables_number   1
_chemical_formula_structural   EuNiCl6
_chemical_formula_sum   'Eu1 Ni1 Cl6'
_cell_volume   231.89721075
_cell_formula_units_Z   1
loop_
 _symmetry_equiv_pos_site_id
 _symmetry_equiv_pos_as_xyz
  1  'x, y, z'
loop_
 _atom_site_type_symbol
 _atom_site_label
 _atom_site_symmetry_multiplicity
 _atom_site_fract_x
 _atom_site_fract_y
 _atom_site_fract_z
 _atom_site_occupancy
  Eu  Eu0  1  0.833599  0.166432  0.000015  1
  Ni  Ni1  1  0.166101  0.833917  0.999994  1
  Cl  Cl2  1  0.953942  0.619172  0.215985  1
  Cl  Cl3  1  0.522386  0.905186  0.217481  1
  Cl  Cl4  1  0.234853  0.186476  0.218583  1
  Cl  Cl5  1  0.813515  0.765157  0.781422  1
  Cl  Cl6  1  0.380797  0.046044  0.784004  1
  Cl  Cl7  1  0.094807  0.477617  0.782516  1
