# generated using pymatgen
data_Mn11Ni(W6C)2
_symmetry_space_group_name_H-M   'P 1'
_cell_length_a   7.78941200
_cell_length_b   7.78941194
_cell_length_c   7.78941267
_cell_angle_alpha   59.62751311
_cell_angle_beta   59.62751024
_cell_angle_gamma   59.62751195
_symmetry_Int_Tables_number   1
_chemical_formula_structural   Mn11Ni(W6C)2
_chemical_formula_sum   'Mn11 Ni1 W12 C2'
_cell_volume   331.36543033
_cell_formula_units_Z   1
loop_
 _symmetry_equiv_pos_site_id
 _symmetry_equiv_pos_as_xyz
  1  'x, y, z'
loop_
 _atom_site_type_symbol
 _atom_site_label
 _atom_site_symmetry_multiplicity
 _atom_site_fract_x
 _atom_site_fract_y
 _atom_site_fract_z
 _atom_site_occupancy
  Mn  Mn0  1  0.421338  0.421338  0.736635  1
  Mn  Mn1  1  0.421338  0.736635  0.421338  1
  Mn  Mn2  1  0.736635  0.421338  0.421338  1
  Mn  Mn3  1  0.420824  0.420824  0.420824  1
  Mn  Mn4  1  0.829432  0.829432  0.516009  1
  Mn  Mn5  1  0.829432  0.516009  0.829432  1
  Mn  Mn6  1  0.516009  0.829432  0.829432  1
  Mn  Mn7  1  0.622984  0.622984  0.125419  1
  Mn  Mn8  1  0.622984  0.125419  0.622984  1
  Mn  Mn9  1  0.125419  0.622984  0.622984  1
  Mn  Mn10  1  0.625358  0.625358  0.625358  1
  Ni  Ni11  1  0.833435  0.833435  0.833435  1
  W  W12  1  0.053027  0.053027  0.447420  1
  W  W13  1  0.446946  0.052826  0.446946  1
  W  W14  1  0.052826  0.446946  0.446946  1
  W  W15  1  0.446946  0.446946  0.052826  1
  W  W16  1  0.053027  0.447420  0.053027  1
  W  W17  1  0.447420  0.053027  0.053027  1
  W  W18  1  0.195503  0.195503  0.802908  1
  W  W19  1  0.802802  0.196148  0.802802  1
  W  W20  1  0.196148  0.802802  0.802802  1
  W  W21  1  0.802802  0.802802  0.196148  1
  W  W22  1  0.195503  0.802908  0.195503  1
  W  W23  1  0.802908  0.195503  0.195503  1
  C  C24  1  0.249841  0.249841  0.249841  1
  C  C25  1  0.999115  0.999115  0.999115  1
