# generated using pymatgen
data_Dy5(FeO6)2
_symmetry_space_group_name_H-M   'P 1'
_cell_length_a   6.75833450
_cell_length_b   6.75833335
_cell_length_c   7.24994100
_cell_angle_alpha   74.40990133
_cell_angle_beta   74.40990200
_cell_angle_gamma   51.18497947
_symmetry_Int_Tables_number   1
_chemical_formula_structural   Dy5(FeO6)2
_chemical_formula_sum   'Dy5 Fe2 O12'
_cell_volume   246.29491584
_cell_formula_units_Z   1
loop_
 _symmetry_equiv_pos_site_id
 _symmetry_equiv_pos_as_xyz
  1  'x, y, z'
loop_
 _atom_site_type_symbol
 _atom_site_label
 _atom_site_symmetry_multiplicity
 _atom_site_fract_x
 _atom_site_fract_y
 _atom_site_fract_z
 _atom_site_occupancy
  Dy  Dy0  1  0.304524  0.304524  0.358871  1
  Dy  Dy1  1  0.695476  0.695476  0.641129  1
  Dy  Dy2  1  0.307412  0.307412  0.832235  1
  Dy  Dy3  1  0.692588  0.692588  0.167765  1
  Dy  Dy4  1  0.000000  0.000000  0.500000  1
  Fe  Fe5  1  0.756668  0.243332  0.000000  1
  Fe  Fe6  1  0.243332  0.756668  0.000000  1
  O  O7  1  0.898855  0.421582  0.920274  1
  O  O8  1  0.421582  0.898855  0.920274  1
  O  O9  1  0.101145  0.578418  0.079726  1
  O  O10  1  0.578418  0.101145  0.079726  1
  O  O11  1  0.096717  0.596216  0.576826  1
  O  O12  1  0.596216  0.096717  0.576826  1
  O  O13  1  0.903283  0.403784  0.423174  1
  O  O14  1  0.403784  0.903283  0.423174  1
  O  O15  1  0.000196  0.000196  0.818214  1
  O  O16  1  0.999804  0.999804  0.181786  1
  O  O17  1  0.499891  0.499891  0.816587  1
  O  O18  1  0.500109  0.500109  0.183413  1
