# generated using pymatgen
data_Te4OsRhBr8
_symmetry_space_group_name_H-M   'P 1'
_cell_length_a   11.57812117
_cell_length_b   11.07697273
_cell_length_c   11.60928800
_cell_angle_alpha   118.09376261
_cell_angle_beta   117.99123107
_cell_angle_gamma   93.97493891
_symmetry_Int_Tables_number   1
_chemical_formula_structural   Te4OsRhBr8
_chemical_formula_sum   'Te8 Os2 Rh2 Br16'
_cell_volume   1076.25171989
_cell_formula_units_Z   2
loop_
 _symmetry_equiv_pos_site_id
 _symmetry_equiv_pos_as_xyz
  1  'x, y, z'
loop_
 _atom_site_type_symbol
 _atom_site_label
 _atom_site_symmetry_multiplicity
 _atom_site_fract_x
 _atom_site_fract_y
 _atom_site_fract_z
 _atom_site_occupancy
  Te  Te0  1  0.675371  0.713661  0.592093  1
  Te  Te1  1  0.357156  0.985900  0.706805  1
  Te  Te2  1  0.291766  0.873697  0.964205  1
  Te  Te3  1  0.295233  0.641549  0.288855  1
  Te  Te4  1  0.118777  0.072237  0.406917  1
  Te  Te5  1  0.999585  0.739507  0.396989  1
  Te  Te6  1  0.916797  0.341039  0.028657  1
  Te  Te7  1  0.340457  0.636456  0.612374  1
  Os  Os8  1  0.213320  0.851071  0.402368  1
  Os  Os9  1  0.114312  0.552857  0.337577  1
  Rh  Rh10  1  0.477494  0.817341  0.595157  1
  Rh  Rh11  1  0.189780  0.781914  0.670935  1
  Br  Br12  1  0.693930  0.403611  0.938790  1
  Br  Br13  1  0.097825  0.981090  0.796503  1
  Br  Br14  1  0.931581  0.365870  0.301407  1
  Br  Br15  1  0.617925  0.557500  0.308049  1
  Br  Br16  1  0.508542  0.113651  0.134597  1
  Br  Br17  1  0.624279  0.488857  0.603442  1
  Br  Br18  1  0.013005  0.778428  0.119025  1
  Br  Br19  1  0.047940  0.610241  0.700448  1
  Br  Br20  1  0.441107  0.730949  0.047891  1
  Br  Br21  1  0.660398  0.967214  0.583183  1
  Br  Br22  1  0.180999  0.313429  0.220349  1
  Br  Br23  1  0.363145  0.040394  0.407833  1
  Br  Br24  1  0.684787  0.918525  0.879288  1
  Br  Br25  1  0.266330  0.306069  0.695421  1
  Br  Br26  1  0.886960  0.030678  0.389917  1
  Br  Br27  1  0.991198  0.386262  0.870923  1
