# generated using pymatgen
data_TbHo9(Pb3Cl)2
_symmetry_space_group_name_H-M   'P 1'
_cell_length_a   9.17231700
_cell_length_b   9.17514227
_cell_length_c   6.59305700
_cell_angle_alpha   90.00000000
_cell_angle_beta   90.00000000
_cell_angle_gamma   119.98981077
_symmetry_Int_Tables_number   1
_chemical_formula_structural   TbHo9(Pb3Cl)2
_chemical_formula_sum   'Tb1 Ho9 Pb6 Cl2'
_cell_volume   480.56695749
_cell_formula_units_Z   1
loop_
 _symmetry_equiv_pos_site_id
 _symmetry_equiv_pos_as_xyz
  1  'x, y, z'
loop_
 _atom_site_type_symbol
 _atom_site_label
 _atom_site_symmetry_multiplicity
 _atom_site_fract_x
 _atom_site_fract_y
 _atom_site_fract_z
 _atom_site_occupancy
  Tb  Tb0  1  0.259825  0.000000  0.750000  1
  Ho  Ho1  1  0.739722  0.000000  0.250000  1
  Ho  Ho2  1  0.000014  0.260089  0.750000  1
  Ho  Ho3  1  0.999984  0.739694  0.250000  1
  Ho  Ho4  1  0.739925  0.739911  0.750000  1
  Ho  Ho5  1  0.260290  0.260306  0.250000  1
  Ho  Ho6  1  0.333349  0.666571  0.499943  1
  Ho  Ho7  1  0.666779  0.333429  0.499943  1
  Ho  Ho8  1  0.666779  0.333429  0.000057  1
  Ho  Ho9  1  0.333349  0.666571  0.000057  1
  Pb  Pb10  1  0.610467  0.000000  0.750000  1
  Pb  Pb11  1  0.390191  0.000000  0.250000  1
  Pb  Pb12  1  0.999502  0.609187  0.750000  1
  Pb  Pb13  1  0.000092  0.390120  0.250000  1
  Pb  Pb14  1  0.390315  0.390813  0.750000  1
  Pb  Pb15  1  0.609971  0.609880  0.250000  1
  Cl  Cl16  1  0.999723  0.000000  0.499598  1
  Cl  Cl17  1  0.999723  0.000000  0.000402  1
