# generated using pymatgen
data_Nb8Fe7CoSi13P
_symmetry_space_group_name_H-M   'P 1'
_cell_length_a   9.20277913
_cell_length_b   9.20560814
_cell_length_c   9.21400191
_cell_angle_alpha   94.26951652
_cell_angle_beta   94.25318867
_cell_angle_gamma   148.34565655
_symmetry_Int_Tables_number   1
_chemical_formula_structural   Nb8Fe7CoSi13P
_chemical_formula_sum   'Nb8 Fe7 Co1 Si13 P1'
_cell_volume   394.14904499
_cell_formula_units_Z   1
loop_
 _symmetry_equiv_pos_site_id
 _symmetry_equiv_pos_as_xyz
  1  'x, y, z'
loop_
 _atom_site_type_symbol
 _atom_site_label
 _atom_site_symmetry_multiplicity
 _atom_site_fract_x
 _atom_site_fract_y
 _atom_site_fract_z
 _atom_site_occupancy
  Nb  Nb0  1  0.135602  0.135602  0.271203  1
  Nb  Nb1  1  0.864650  0.864650  0.729301  1
  Nb  Nb2  1  0.865987  0.135602  0.000566  1
  Nb  Nb3  1  0.134579  0.864964  0.000566  1
  Nb  Nb4  1  0.499257  0.691262  0.191098  1
  Nb  Nb5  1  0.497512  0.308084  0.805375  1
  Nb  Nb6  1  0.307863  0.497291  0.805375  1
  Nb  Nb7  1  0.691841  0.499836  0.191098  1
  Fe  Fe8  1  0.100790  0.600790  0.201580  1
  Fe  Fe9  1  0.101110  0.905087  0.502561  1
  Fe  Fe10  1  0.401451  0.597474  0.502561  1
  Fe  Fe11  1  0.597333  0.402221  0.501963  1
  Fe  Fe12  1  0.904630  0.099742  0.501963  1
  Fe  Fe13  1  0.898994  0.398994  0.797988  1
  Fe  Fe14  1  0.600715  0.100715  0.201431  1
  Co  Co15  1  0.398917  0.898917  0.797834  1
  Si  Si16  1  0.706456  0.706456  0.412910  1
  Si  Si17  1  0.708311  0.290985  0.998954  1
  Si  Si18  1  0.290642  0.707967  0.998954  1
  Si  Si19  1  0.001364  0.297741  0.299883  1
  Si  Si20  1  0.998674  0.700862  0.701630  1
  Si  Si21  1  0.702955  0.000768  0.701630  1
  Si  Si22  1  0.298519  0.002142  0.299883  1
  Si  Si23  1  0.501448  0.904535  0.407798  1
  Si  Si24  1  0.500901  0.096899  0.592511  1
  Si  Si25  1  0.091610  0.495612  0.592511  1
  Si  Si26  1  0.906351  0.503264  0.407798  1
  Si  Si27  1  0.751545  0.751421  0.999866  1
  Si  Si28  1  0.248319  0.248444  0.999866  1
  P  P29  1  0.291670  0.291670  0.583341  1
