# generated using pymatgen
data_Ba6Sc2TaO12
_symmetry_space_group_name_H-M   'P 1'
_cell_length_a   9.33948141
_cell_length_b   9.33948077
_cell_length_c   7.38644445
_cell_angle_alpha   67.71893290
_cell_angle_beta   67.71893320
_cell_angle_gamma   36.81883883
_symmetry_Int_Tables_number   1
_chemical_formula_structural   Ba6Sc2TaO12
_chemical_formula_sum   'Ba6 Sc2 Ta1 O12'
_cell_volume   353.94674282
_cell_formula_units_Z   1
loop_
 _symmetry_equiv_pos_site_id
 _symmetry_equiv_pos_as_xyz
  1  'x, y, z'
loop_
 _atom_site_type_symbol
 _atom_site_label
 _atom_site_symmetry_multiplicity
 _atom_site_fract_x
 _atom_site_fract_y
 _atom_site_fract_z
 _atom_site_occupancy
  Ba  Ba0  1  0.878552  0.878552  0.712082  1
  Ba  Ba1  1  0.217366  0.217366  0.711944  1
  Ba  Ba2  1  0.548261  0.548261  0.708469  1
  Ba  Ba3  1  0.451739  0.451739  0.291531  1
  Ba  Ba4  1  0.782634  0.782634  0.288056  1
  Ba  Ba5  1  0.121448  0.121448  0.287918  1
  Sc  Sc6  1  0.666205  0.666205  0.999632  1
  Sc  Sc7  1  0.333795  0.333795  0.000368  1
  Ta  Ta8  1  0.000000  0.000000  0.000000  1
  O  O9  1  0.950186  0.950186  0.300369  1
  O  O10  1  0.281373  0.281373  0.317121  1
  O  O11  1  0.612478  0.612478  0.316849  1
  O  O12  1  0.387522  0.387522  0.683151  1
  O  O13  1  0.718627  0.718627  0.682879  1
  O  O14  1  0.049814  0.049814  0.699631  1
  O  O15  1  0.500000  0.000000  0.000000  1
  O  O16  1  0.838759  0.321139  0.000025  1
  O  O17  1  0.161241  0.678861  0.999975  1
  O  O18  1  0.000000  0.500000  0.000000  1
  O  O19  1  0.321139  0.838759  0.000025  1
  O  O20  1  0.678861  0.161241  0.999975  1
