# generated using pymatgen
data_Th2BPtRh5
_symmetry_space_group_name_H-M   'P 1'
_cell_length_a   5.94903236
_cell_length_b   5.94903163
_cell_length_c   6.00503400
_cell_angle_alpha   59.68809464
_cell_angle_beta   59.68809876
_cell_angle_gamma   60.62378677
_symmetry_Int_Tables_number   1
_chemical_formula_structural   Th2BPtRh5
_chemical_formula_sum   'Th2 B1 Pt1 Rh5'
_cell_volume   150.25028451
_cell_formula_units_Z   1
loop_
 _symmetry_equiv_pos_site_id
 _symmetry_equiv_pos_as_xyz
  1  'x, y, z'
loop_
 _atom_site_type_symbol
 _atom_site_label
 _atom_site_symmetry_multiplicity
 _atom_site_fract_x
 _atom_site_fract_y
 _atom_site_fract_z
 _atom_site_occupancy
  Th  Th0  1  0.750114  0.750114  0.749886  1
  Th  Th1  1  0.250114  0.250114  0.249886  1
  B  B2  1  0.496441  0.496441  0.503559  1
  Pt  Pt3  1  0.757947  0.757947  0.242053  1
  Rh  Rh4  1  0.753396  0.247478  0.246604  1
  Rh  Rh5  1  0.247478  0.753396  0.246604  1
  Rh  Rh6  1  0.243637  0.243637  0.756363  1
  Rh  Rh7  1  0.753396  0.247478  0.752522  1
  Rh  Rh8  1  0.247478  0.753396  0.752522  1
