# generated using pymatgen
data_ErTh(Co3Si2)2
_symmetry_space_group_name_H-M   'P 1'
_cell_length_a   6.28941454
_cell_length_b   6.28941482
_cell_length_c   6.28941460
_cell_angle_alpha   130.30464453
_cell_angle_beta   113.47274591
_cell_angle_gamma   87.41138894
_symmetry_Int_Tables_number   1
_chemical_formula_structural   ErTh(Co3Si2)2
_chemical_formula_sum   'Er1 Th1 Co6 Si4'
_cell_volume   165.80666962
_cell_formula_units_Z   1
loop_
 _symmetry_equiv_pos_site_id
 _symmetry_equiv_pos_as_xyz
  1  'x, y, z'
loop_
 _atom_site_type_symbol
 _atom_site_label
 _atom_site_symmetry_multiplicity
 _atom_site_fract_x
 _atom_site_fract_y
 _atom_site_fract_z
 _atom_site_occupancy
  Er  Er0  1  0.750000  0.458214  0.708214  1
  Th  Th1  1  0.250000  0.534819  0.284819  1
  Co  Co2  1  0.012294  0.001473  0.513768  1
  Co  Co3  1  0.487706  0.001473  0.989179  1
  Co  Co4  1  0.722236  0.999954  0.721311  1
  Co  Co5  1  0.221357  0.499076  0.721311  1
  Co  Co6  1  0.278643  0.999954  0.277719  1
  Co  Co7  1  0.777764  0.499076  0.277719  1
  Si  Si8  1  0.070837  0.868873  0.798036  1
  Si  Si9  1  0.907502  0.112447  0.204944  1
  Si  Si10  1  0.592498  0.797443  0.204944  1
  Si  Si11  1  0.429163  0.227197  0.798036  1
