# generated using pymatgen
data_Ca12Zn11GaN4
_symmetry_space_group_name_H-M   'P 1'
_cell_length_a   9.22948434
_cell_length_b   9.22948374
_cell_length_c   9.22521649
_cell_angle_alpha   59.98469019
_cell_angle_beta   59.98469224
_cell_angle_gamma   60.00000280
_symmetry_Int_Tables_number   1
_chemical_formula_structural   Ca12Zn11GaN4
_chemical_formula_sum   'Ca12 Zn11 Ga1 N4'
_cell_volume   555.54071481
_cell_formula_units_Z   1
loop_
 _symmetry_equiv_pos_site_id
 _symmetry_equiv_pos_as_xyz
  1  'x, y, z'
loop_
 _atom_site_type_symbol
 _atom_site_label
 _atom_site_symmetry_multiplicity
 _atom_site_fract_x
 _atom_site_fract_y
 _atom_site_fract_z
 _atom_site_occupancy
  Ca  Ca0  1  0.804982  0.194821  0.195216  1
  Ca  Ca1  1  0.194821  0.804982  0.195216  1
  Ca  Ca2  1  0.804982  0.804982  0.195216  1
  Ca  Ca3  1  0.195357  0.804646  0.804640  1
  Ca  Ca4  1  0.804646  0.195357  0.804640  1
  Ca  Ca5  1  0.195357  0.195357  0.804640  1
  Ca  Ca6  1  0.445371  0.054718  0.054541  1
  Ca  Ca7  1  0.054718  0.445371  0.054541  1
  Ca  Ca8  1  0.445371  0.445371  0.054541  1
  Ca  Ca9  1  0.054469  0.445496  0.445566  1
  Ca  Ca10  1  0.445496  0.054469  0.445566  1
  Ca  Ca11  1  0.054469  0.054469  0.445566  1
  Zn  Zn12  1  0.426522  0.426522  0.426591  1
  Zn  Zn13  1  0.720365  0.426522  0.426591  1
  Zn  Zn14  1  0.426522  0.720365  0.426591  1
  Zn  Zn15  1  0.823706  0.823706  0.528882  1
  Zn  Zn16  1  0.823234  0.823234  0.823434  1
  Zn  Zn17  1  0.530098  0.823234  0.823434  1
  Zn  Zn18  1  0.823234  0.530098  0.823434  1
  Zn  Zn19  1  0.625174  0.625174  0.124477  1
  Zn  Zn20  1  0.625150  0.625150  0.625248  1
  Zn  Zn21  1  0.124453  0.625150  0.625248  1
  Zn  Zn22  1  0.625150  0.124453  0.625248  1
  Ga  Ga23  1  0.426139  0.426139  0.721583  1
  N  N24  1  0.125064  0.125064  0.624807  1
  N  N25  1  0.125016  0.125016  0.124849  1
  N  N26  1  0.625120  0.125016  0.124849  1
  N  N27  1  0.125016  0.625120  0.124849  1
