# generated using pymatgen
data_Na2CaOsO6
_symmetry_space_group_name_H-M   'P 1'
_cell_length_a   5.72113200
_cell_length_b   5.72113230
_cell_length_c   10.33850000
_cell_angle_alpha   90.00000000
_cell_angle_beta   90.00000000
_cell_angle_gamma   119.99999825
_symmetry_Int_Tables_number   1
_chemical_formula_structural   Na2CaOsO6
_chemical_formula_sum   'Na4 Ca2 Os2 O12'
_cell_volume   293.05702100
_cell_formula_units_Z   2
loop_
 _symmetry_equiv_pos_site_id
 _symmetry_equiv_pos_as_xyz
  1  'x, y, z'
loop_
 _atom_site_type_symbol
 _atom_site_label
 _atom_site_symmetry_multiplicity
 _atom_site_fract_x
 _atom_site_fract_y
 _atom_site_fract_z
 _atom_site_occupancy
  Na  Na0  1  0.666666  0.333333  0.053385  1
  Na  Na1  1  0.666666  0.333333  0.446615  1
  Na  Na2  1  0.333334  0.666667  0.553385  1
  Na  Na3  1  0.333334  0.666667  0.946615  1
  Ca  Ca4  1  0.000000  0.000000  0.250000  1
  Ca  Ca5  1  0.000000  0.000000  0.750000  1
  Os  Os6  1  0.333334  0.666667  0.250000  1
  Os  Os7  1  0.666666  0.333333  0.750000  1
  O  O8  1  0.320781  0.393184  0.144665  1
  O  O9  1  0.072402  0.679219  0.144665  1
  O  O10  1  0.606816  0.927598  0.144665  1
  O  O11  1  0.072402  0.393184  0.355336  1
  O  O12  1  0.606816  0.679219  0.355336  1
  O  O13  1  0.320781  0.927598  0.355336  1
  O  O14  1  0.679219  0.072402  0.644665  1
  O  O15  1  0.393183  0.320781  0.644665  1
  O  O16  1  0.927598  0.606816  0.644665  1
  O  O17  1  0.393184  0.072402  0.855336  1
  O  O18  1  0.927598  0.320781  0.855336  1
  O  O19  1  0.679219  0.606816  0.855336  1
