# generated using pymatgen
data_Yb2MnAlO5
_symmetry_space_group_name_H-M   'P 1'
_cell_length_a   5.26977590
_cell_length_b   5.55106049
_cell_length_c   8.26643726
_cell_angle_alpha   109.61999949
_cell_angle_beta   108.58705699
_cell_angle_gamma   90.00000197
_symmetry_Int_Tables_number   1
_chemical_formula_structural   Yb2MnAlO5
_chemical_formula_sum   'Yb4 Mn2 Al2 O10'
_cell_volume   214.33933251
_cell_formula_units_Z   2
loop_
 _symmetry_equiv_pos_site_id
 _symmetry_equiv_pos_as_xyz
  1  'x, y, z'
loop_
 _atom_site_type_symbol
 _atom_site_label
 _atom_site_symmetry_multiplicity
 _atom_site_fract_x
 _atom_site_fract_y
 _atom_site_fract_z
 _atom_site_occupancy
  Yb  Yb0  1  0.119660  0.640129  0.219734  1
  Yb  Yb1  1  0.399888  0.920416  0.780254  1
  Yb  Yb2  1  0.899927  0.359871  0.780266  1
  Yb  Yb3  1  0.619634  0.079584  0.219746  1
  Mn  Mn4  1  0.498652  0.500000  0.000000  1
  Mn  Mn5  1  0.998512  0.000000  0.000000  1
  Al  Al6  1  0.287610  0.322047  0.499992  1
  Al  Al7  1  0.787617  0.677953  0.500008  1
  O  O8  1  0.625549  0.389567  0.499992  1
  O  O9  1  0.125558  0.610433  0.500008  1
  O  O10  1  0.609858  0.723252  0.295773  1
  O  O11  1  0.314085  0.276748  0.704228  1
  O  O12  1  0.109860  0.072506  0.295758  1
  O  O13  1  0.814101  0.927494  0.704242  1
  O  O14  1  0.237827  0.740304  0.970810  1
  O  O15  1  0.267018  0.259696  0.029190  1
  O  O16  1  0.767025  0.269504  0.029207  1
  O  O17  1  0.737819  0.730496  0.970793  1
