# generated using pymatgen
data_Y6Ho4TlBi5
_symmetry_space_group_name_H-M   'P 1'
_cell_length_a   9.15371100
_cell_length_b   9.17189056
_cell_length_c   6.42579700
_cell_angle_alpha   90.00000000
_cell_angle_beta   90.00000000
_cell_angle_gamma   119.93445804
_symmetry_Int_Tables_number   1
_chemical_formula_structural   Y6Ho4TlBi5
_chemical_formula_sum   'Y6 Ho4 Tl1 Bi5'
_cell_volume   467.51994463
_cell_formula_units_Z   1
loop_
 _symmetry_equiv_pos_site_id
 _symmetry_equiv_pos_as_xyz
  1  'x, y, z'
loop_
 _atom_site_type_symbol
 _atom_site_label
 _atom_site_symmetry_multiplicity
 _atom_site_fract_x
 _atom_site_fract_y
 _atom_site_fract_z
 _atom_site_occupancy
  Y  Y0  1  0.241587  0.000000  0.250000  1
  Y  Y1  1  0.244706  0.237711  0.750000  1
  Y  Y2  1  0.006994  0.762289  0.750000  1
  Y  Y3  1  0.997716  0.242235  0.250000  1
  Y  Y4  1  0.755481  0.757765  0.250000  1
  Y  Y5  1  0.756160  0.000000  0.750000  1
  Ho  Ho6  1  0.334364  0.671067  0.000060  1
  Ho  Ho7  1  0.663298  0.328933  0.499940  1
  Ho  Ho8  1  0.663298  0.328933  0.000060  1
  Ho  Ho9  1  0.334364  0.671067  0.499940  1
  Tl  Tl10  1  0.393471  0.000000  0.750000  1
  Bi  Bi11  1  0.608735  0.000000  0.250000  1
  Bi  Bi12  1  0.611767  0.610592  0.750000  1
  Bi  Bi13  1  0.001174  0.389408  0.750000  1
  Bi  Bi14  1  0.998178  0.609469  0.250000  1
  Bi  Bi15  1  0.388710  0.390531  0.250000  1
