# generated using pymatgen
data_Y2ErLu3FeBi2
_symmetry_space_group_name_H-M   'P 1'
_cell_length_a   8.21646200
_cell_length_b   8.23939251
_cell_length_c   4.16708900
_cell_angle_alpha   90.00000000
_cell_angle_beta   90.00000000
_cell_angle_gamma   119.90797257
_symmetry_Int_Tables_number   1
_chemical_formula_structural   Y2ErLu3FeBi2
_chemical_formula_sum   'Y2 Er1 Lu3 Fe1 Bi2'
_cell_volume   244.53748364
_cell_formula_units_Z   1
loop_
 _symmetry_equiv_pos_site_id
 _symmetry_equiv_pos_as_xyz
  1  'x, y, z'
loop_
 _atom_site_type_symbol
 _atom_site_label
 _atom_site_symmetry_multiplicity
 _atom_site_fract_x
 _atom_site_fract_y
 _atom_site_fract_z
 _atom_site_occupancy
  Y  Y0  1  0.999908  0.610234  0.000000  1
  Y  Y1  1  0.389673  0.389766  0.000000  1
  Er  Er2  1  0.612943  0.000000  0.000000  1
  Lu  Lu3  1  0.227563  0.000000  0.500000  1
  Lu  Lu4  1  0.999170  0.227144  0.500000  1
  Lu  Lu5  1  0.772026  0.772856  0.500000  1
  Fe  Fe6  1  0.997889  0.000000  0.000000  1
  Bi  Bi7  1  0.334214  0.667601  0.500000  1
  Bi  Bi8  1  0.666614  0.332399  0.500000  1
