# generated using pymatgen
data_DyYAl20FeRh3
_symmetry_space_group_name_H-M   'P 1'
_cell_length_a   6.83253931
_cell_length_b   6.82822382
_cell_length_c   9.11741400
_cell_angle_alpha   90.02480386
_cell_angle_beta   90.14309412
_cell_angle_gamma   97.29526541
_symmetry_Int_Tables_number   1
_chemical_formula_structural   DyYAl20FeRh3
_chemical_formula_sum   'Dy1 Y1 Al20 Fe1 Rh3'
_cell_volume   421.92002402
_cell_formula_units_Z   1
loop_
 _symmetry_equiv_pos_site_id
 _symmetry_equiv_pos_as_xyz
  1  'x, y, z'
loop_
 _atom_site_type_symbol
 _atom_site_label
 _atom_site_symmetry_multiplicity
 _atom_site_fract_x
 _atom_site_fract_y
 _atom_site_fract_z
 _atom_site_occupancy
  Dy  Dy0  1  0.872303  0.130473  0.751270  1
  Y  Y1  1  0.128057  0.869151  0.248506  1
  Al  Al2  1  0.622446  0.378933  0.550371  1
  Al  Al3  1  0.377509  0.621149  0.449626  1
  Al  Al4  1  0.371616  0.619628  0.046847  1
  Al  Al5  1  0.628353  0.380474  0.953265  1
  Al  Al6  1  0.222115  0.223043  0.498612  1
  Al  Al7  1  0.777928  0.776934  0.501289  1
  Al  Al8  1  0.782279  0.773528  0.002763  1
  Al  Al9  1  0.217791  0.226476  0.997429  1
  Al  Al10  1  0.848035  0.159658  0.100444  1
  Al  Al11  1  0.152044  0.840339  0.899709  1
  Al  Al12  1  0.155090  0.845396  0.603965  1
  Al  Al13  1  0.844996  0.154557  0.395976  1
  Al  Al14  1  0.860300  0.587618  0.755094  1
  Al  Al15  1  0.139727  0.412634  0.244962  1
  Al  Al16  1  0.409617  0.143147  0.750989  1
  Al  Al17  1  0.590159  0.856862  0.249049  1
  Al  Al18  1  0.222387  0.481156  0.756406  1
  Al  Al19  1  0.777732  0.518932  0.243650  1
  Al  Al20  1  0.520721  0.774076  0.751197  1
  Al  Al21  1  0.479229  0.225848  0.248850  1
  Fe  Fe22  1  0.999915  0.499771  0.999859  1
  Rh  Rh23  1  0.000053  0.500218  0.499799  1
  Rh  Rh24  1  0.499774  0.000026  0.000254  1
  Rh  Rh25  1  0.499826  0.999969  0.499819  1
