# generated using pymatgen
data_Zn14B6Ir13PdRh4
_symmetry_space_group_name_H-M   'P 1'
_cell_length_a   2.89761400
_cell_length_b   11.49427259
_cell_length_c   14.85442503
_cell_angle_alpha   89.93983312
_cell_angle_beta   90.00000000
_cell_angle_gamma   90.00000000
_symmetry_Int_Tables_number   1
_chemical_formula_structural   Zn14B6Ir13PdRh4
_chemical_formula_sum   'Zn14 B6 Ir13 Pd1 Rh4'
_cell_volume   494.74069033
_cell_formula_units_Z   1
loop_
 _symmetry_equiv_pos_site_id
 _symmetry_equiv_pos_as_xyz
  1  'x, y, z'
loop_
 _atom_site_type_symbol
 _atom_site_label
 _atom_site_symmetry_multiplicity
 _atom_site_fract_x
 _atom_site_fract_y
 _atom_site_fract_z
 _atom_site_occupancy
  Zn  Zn0  1  0.500000  0.501696  0.349936  1
  Zn  Zn1  1  0.500000  0.000097  0.652897  1
  Zn  Zn2  1  0.500000  0.390576  0.995976  1
  Zn  Zn3  1  0.500000  0.111815  0.000808  1
  Zn  Zn4  1  0.500000  0.609428  0.995735  1
  Zn  Zn5  1  0.500000  0.888468  0.000349  1
  Zn  Zn6  1  0.500000  0.368228  0.770132  1
  Zn  Zn7  1  0.500000  0.133900  0.230528  1
  Zn  Zn8  1  0.500000  0.631760  0.770079  1
  Zn  Zn9  1  0.500000  0.866319  0.230866  1
  Zn  Zn10  1  0.500000  0.295941  0.603466  1
  Zn  Zn11  1  0.500000  0.202980  0.396962  1
  Zn  Zn12  1  0.500000  0.702815  0.602840  1
  Zn  Zn13  1  0.500000  0.795661  0.397854  1
  B  B14  1  0.500000  0.498291  0.533374  1
  B  B15  1  0.500000  0.999714  0.469193  1
  B  B16  1  0.500000  0.142728  0.822843  1
  B  B17  1  0.500000  0.359097  0.177963  1
  B  B18  1  0.500000  0.857153  0.822463  1
  B  B19  1  0.500000  0.641388  0.177334  1
  Ir  Ir20  1  0.000000  0.245056  0.896243  1
  Ir  Ir21  1  0.000000  0.256509  0.102662  1
  Ir  Ir22  1  0.000000  0.754835  0.895876  1
  Ir  Ir23  1  0.000000  0.743698  0.101892  1
  Ir  Ir24  1  0.000000  0.500194  0.645264  1
  Ir  Ir25  1  0.000000  0.170993  0.717201  1
  Ir  Ir26  1  0.000000  0.330017  0.283765  1
  Ir  Ir27  1  0.000000  0.828851  0.716788  1
  Ir  Ir28  1  0.000000  0.671698  0.283059  1
  Ir  Ir29  1  0.000000  0.500156  0.137789  1
  Ir  Ir30  1  0.000000  0.121056  0.528651  1
  Ir  Ir31  1  0.000000  0.379284  0.471374  1
  Ir  Ir32  1  0.000000  0.878776  0.529085  1
  Pd  Pd33  1  0.000000  0.999686  0.124826  1
  Rh  Rh34  1  0.000000  0.999921  0.354981  1
  Rh  Rh35  1  0.000000  0.999922  0.863435  1
  Rh  Rh36  1  0.000000  0.621243  0.472018  1
  Rh  Rh37  1  0.000000  0.500048  0.873493  1
