# generated using pymatgen
data_Dy3HoGa12Ru
_symmetry_space_group_name_H-M   'P 1'
_cell_length_a   7.47466276
_cell_length_b   7.47466388
_cell_length_c   7.47466318
_cell_angle_alpha   109.43943485
_cell_angle_beta   109.43942503
_cell_angle_gamma   109.43942644
_symmetry_Int_Tables_number   1
_chemical_formula_structural   Dy3HoGa12Ru
_chemical_formula_sum   'Dy3 Ho1 Ga12 Ru1'
_cell_volume   321.85714075
_cell_formula_units_Z   1
loop_
 _symmetry_equiv_pos_site_id
 _symmetry_equiv_pos_as_xyz
  1  'x, y, z'
loop_
 _atom_site_type_symbol
 _atom_site_label
 _atom_site_symmetry_multiplicity
 _atom_site_fract_x
 _atom_site_fract_y
 _atom_site_fract_z
 _atom_site_occupancy
  Dy  Dy0  1  0.000000  0.000000  0.500000  1
  Dy  Dy1  1  0.000000  0.500000  0.000000  1
  Dy  Dy2  1  0.500000  0.000000  0.000000  1
  Ho  Ho3  1  0.500000  0.500000  0.500000  1
  Ga  Ga4  1  0.749691  0.250309  0.500000  1
  Ga  Ga5  1  0.749691  0.500000  0.250309  1
  Ga  Ga6  1  0.500000  0.250309  0.749691  1
  Ga  Ga7  1  0.250309  0.500000  0.749691  1
  Ga  Ga8  1  0.250309  0.749691  0.500000  1
  Ga  Ga9  1  0.500000  0.749691  0.250309  1
  Ga  Ga10  1  0.710501  0.710501  0.999526  1
  Ga  Ga11  1  0.289499  0.000474  0.289499  1
  Ga  Ga12  1  0.000474  0.289499  0.289499  1
  Ga  Ga13  1  0.289499  0.289499  0.000474  1
  Ga  Ga14  1  0.710501  0.999526  0.710501  1
  Ga  Ga15  1  0.999526  0.710501  0.710501  1
  Ru  Ru16  1  0.000000  0.000000  0.000000  1
