# generated using pymatgen
data_Dy2Er6In3Os
_symmetry_space_group_name_H-M   'P 1'
_cell_length_a   10.32609600
_cell_length_b   10.31990060
_cell_length_c   7.06343424
_cell_angle_alpha   90.02954186
_cell_angle_beta   90.00000000
_cell_angle_gamma   120.01985449
_symmetry_Int_Tables_number   1
_chemical_formula_structural   Dy2Er6In3Os
_chemical_formula_sum   'Dy4 Er12 In6 Os2'
_cell_volume   651.73525023
_cell_formula_units_Z   2
loop_
 _symmetry_equiv_pos_site_id
 _symmetry_equiv_pos_as_xyz
  1  'x, y, z'
loop_
 _atom_site_type_symbol
 _atom_site_label
 _atom_site_symmetry_multiplicity
 _atom_site_fract_x
 _atom_site_fract_y
 _atom_site_fract_z
 _atom_site_occupancy
  Dy  Dy0  1  0.533074  0.066148  0.793318  1
  Dy  Dy1  1  0.934330  0.467162  0.793692  1
  Dy  Dy2  1  0.532833  0.467162  0.793692  1
  Dy  Dy3  1  0.466633  0.933266  0.293409  1
  Er  Er4  1  0.066975  0.533424  0.293858  1
  Er  Er5  1  0.466449  0.533424  0.293858  1
  Er  Er6  1  0.822632  0.645263  0.497766  1
  Er  Er7  1  0.354254  0.177446  0.497978  1
  Er  Er8  1  0.823191  0.177446  0.497978  1
  Er  Er9  1  0.177405  0.354809  0.999069  1
  Er  Er10  1  0.645600  0.822558  0.998745  1
  Er  Er11  1  0.176958  0.822558  0.998745  1
  Er  Er12  1  0.666938  0.333875  0.173260  1
  Er  Er13  1  0.333053  0.666108  0.673027  1
  Er  Er14  1  0.000076  0.000150  0.777923  1
  Er  Er15  1  0.000011  0.000021  0.277995  1
  In  In16  1  0.837120  0.674243  0.040597  1
  In  In17  1  0.325803  0.163012  0.040512  1
  In  In18  1  0.837207  0.163012  0.040512  1
  In  In19  1  0.163148  0.326295  0.540108  1
  In  In20  1  0.673952  0.836683  0.540230  1
  In  In21  1  0.162731  0.836683  0.540230  1
  Os  Os22  1  0.666626  0.333251  0.569350  1
  Os  Os23  1  0.333000  0.666000  0.070055  1
