# generated using pymatgen
data_Dy3Er13(LuSn4)4
_symmetry_space_group_name_H-M   'P 1'
_cell_length_a   7.97159069
_cell_length_b   8.08854069
_cell_length_c   15.33707130
_cell_angle_alpha   90.00099410
_cell_angle_beta   90.15040344
_cell_angle_gamma   89.95348275
_symmetry_Int_Tables_number   1
_chemical_formula_structural   Dy3Er13(LuSn4)4
_chemical_formula_sum   'Dy3 Er13 Lu4 Sn16'
_cell_volume   988.90816477
_cell_formula_units_Z   1
loop_
 _symmetry_equiv_pos_site_id
 _symmetry_equiv_pos_as_xyz
  1  'x, y, z'
loop_
 _atom_site_type_symbol
 _atom_site_label
 _atom_site_symmetry_multiplicity
 _atom_site_fract_x
 _atom_site_fract_y
 _atom_site_fract_z
 _atom_site_occupancy
  Dy  Dy0  1  0.978675  0.821330  0.403776  1
  Dy  Dy1  1  0.520578  0.321671  0.595497  1
  Dy  Dy2  1  0.021562  0.178129  0.904455  1
  Er  Er3  1  0.368389  0.837061  0.877206  1
  Er  Er4  1  0.867274  0.662635  0.622933  1
  Er  Er5  1  0.632549  0.161919  0.376305  1
  Er  Er6  1  0.131302  0.337685  0.123041  1
  Er  Er7  1  0.630979  0.162532  0.123085  1
  Er  Er8  1  0.131681  0.337796  0.376681  1
  Er  Er9  1  0.368548  0.837751  0.623123  1
  Er  Er10  1  0.870356  0.662272  0.877188  1
  Er  Er11  1  0.525005  0.321727  0.903013  1
  Er  Er12  1  0.023510  0.179017  0.596515  1
  Er  Er13  1  0.477010  0.678695  0.403299  1
  Er  Er14  1  0.975829  0.820977  0.097326  1
  Er  Er15  1  0.476191  0.677970  0.096480  1
  Lu  Lu16  1  0.199502  0.504432  0.750191  1
  Lu  Lu17  1  0.699016  0.995812  0.750226  1
  Lu  Lu18  1  0.800974  0.495871  0.249574  1
  Lu  Lu19  1  0.301168  0.004352  0.249714  1
  Sn  Sn20  1  0.292525  0.035227  0.042520  1
  Sn  Sn21  1  0.792985  0.462896  0.457746  1
  Sn  Sn22  1  0.706807  0.963818  0.541901  1
  Sn  Sn23  1  0.209203  0.536076  0.958523  1
  Sn  Sn24  1  0.705546  0.960766  0.959089  1
  Sn  Sn25  1  0.204498  0.539567  0.540918  1
  Sn  Sn26  1  0.295231  0.038938  0.458663  1
  Sn  Sn27  1  0.792110  0.463354  0.041666  1
  Sn  Sn28  1  0.565470  0.618188  0.750150  1
  Sn  Sn29  1  0.064947  0.881985  0.749910  1
  Sn  Sn30  1  0.435187  0.382296  0.250012  1
  Sn  Sn31  1  0.935256  0.118027  0.249888  1
  Sn  Sn32  1  0.333207  0.150599  0.750398  1
  Sn  Sn33  1  0.833549  0.349328  0.749538  1
  Sn  Sn34  1  0.665889  0.848524  0.249780  1
  Sn  Sn35  1  0.167492  0.650779  0.249673  1
