# generated using pymatgen
data_BeV10Si3GeP
_symmetry_space_group_name_H-M   'P 1'
_cell_length_a   9.40596125
_cell_length_b   7.04072273
_cell_length_c   7.04027750
_cell_angle_alpha   83.84644490
_cell_angle_beta   48.11457929
_cell_angle_gamma   48.08854879
_symmetry_Int_Tables_number   1
_chemical_formula_structural   BeV10Si3GeP
_chemical_formula_sum   'Be1 V10 Si3 Ge1 P1'
_cell_volume   204.38898930
_cell_formula_units_Z   1
loop_
 _symmetry_equiv_pos_site_id
 _symmetry_equiv_pos_as_xyz
  1  'x, y, z'
loop_
 _atom_site_type_symbol
 _atom_site_label
 _atom_site_symmetry_multiplicity
 _atom_site_fract_x
 _atom_site_fract_y
 _atom_site_fract_z
 _atom_site_occupancy
  Be  Be0  1  0.249545  0.249738  0.250457  1
  V  V1  1  0.784050  0.424355  0.570592  1
  V  V2  1  0.219655  0.571926  0.422062  1
  V  V3  1  0.714540  0.930996  0.073560  1
  V  V4  1  0.277792  0.072737  0.933265  1
  V  V5  1  0.930481  0.714601  0.281430  1
  V  V6  1  0.073416  0.277333  0.715673  1
  V  V7  1  0.423494  0.784821  0.221407  1
  V  V8  1  0.572585  0.219219  0.785988  1
  V  V9  1  0.755223  0.249401  0.244868  1
  V  V10  1  0.249781  0.755565  0.750201  1
  Si  Si11  1  0.666998  0.667034  0.333195  1
  Si  Si12  1  0.166007  0.833207  0.166871  1
  Si  Si13  1  0.833256  0.165951  0.833763  1
  Ge  Ge14  1  0.333461  0.333493  0.666490  1
  P  P15  1  0.749716  0.749624  0.750180  1
