# generated using pymatgen
data_Er16Ni3Ag4Ru
_symmetry_space_group_name_H-M   'P 1'
_cell_length_a   9.40130908
_cell_length_b   9.40393509
_cell_length_c   9.40212321
_cell_angle_alpha   59.45661550
_cell_angle_beta   59.44409921
_cell_angle_gamma   59.44988879
_symmetry_Int_Tables_number   1
_chemical_formula_structural   Er16Ni3Ag4Ru
_chemical_formula_sum   'Er16 Ni3 Ag4 Ru1'
_cell_volume   580.42032723
_cell_formula_units_Z   1
loop_
 _symmetry_equiv_pos_site_id
 _symmetry_equiv_pos_as_xyz
  1  'x, y, z'
loop_
 _atom_site_type_symbol
 _atom_site_label
 _atom_site_symmetry_multiplicity
 _atom_site_fract_x
 _atom_site_fract_y
 _atom_site_fract_z
 _atom_site_occupancy
  Er  Er0  1  0.348832  0.348849  0.348972  1
  Er  Er1  1  0.353096  0.353136  0.949155  1
  Er  Er2  1  0.353057  0.949166  0.353183  1
  Er  Er3  1  0.949284  0.353041  0.353127  1
  Er  Er4  1  0.810468  0.188081  0.188117  1
  Er  Er5  1  0.188614  0.810849  0.810650  1
  Er  Er6  1  0.188139  0.810482  0.188119  1
  Er  Er7  1  0.810825  0.188564  0.810707  1
  Er  Er8  1  0.188130  0.188075  0.810429  1
  Er  Er9  1  0.810702  0.810797  0.188607  1
  Er  Er10  1  0.935548  0.565189  0.565155  1
  Er  Er11  1  0.558831  0.937348  0.937373  1
  Er  Er12  1  0.565204  0.935519  0.565168  1
  Er  Er13  1  0.937377  0.558794  0.937359  1
  Er  Er14  1  0.565169  0.565167  0.935549  1
  Er  Er15  1  0.937380  0.937339  0.558819  1
  Ni  Ni16  1  0.142901  0.142888  0.572764  1
  Ni  Ni17  1  0.142859  0.572967  0.142855  1
  Ni  Ni18  1  0.572521  0.142891  0.142964  1
  Ag  Ag19  1  0.581526  0.581492  0.581514  1
  Ag  Ag20  1  0.581179  0.581128  0.253917  1
  Ag  Ag21  1  0.581179  0.253897  0.581146  1
  Ag  Ag22  1  0.253952  0.581121  0.581143  1
  Ru  Ru23  1  0.143225  0.143220  0.143208  1
