# generated using pymatgen
data_NaFeAs2O7
_symmetry_space_group_name_H-M   'P 1'
_cell_length_a   5.55051130
_cell_length_b   5.55051296
_cell_length_c   4.79686937
_cell_angle_alpha   97.24756840
_cell_angle_beta   97.24751625
_cell_angle_gamma   102.47375409
_symmetry_Int_Tables_number   1
_chemical_formula_structural   NaFeAs2O7
_chemical_formula_sum   'Na1 Fe1 As2 O7'
_cell_volume   141.33488818
_cell_formula_units_Z   1
loop_
 _symmetry_equiv_pos_site_id
 _symmetry_equiv_pos_as_xyz
  1  'x, y, z'
loop_
 _atom_site_type_symbol
 _atom_site_label
 _atom_site_symmetry_multiplicity
 _atom_site_fract_x
 _atom_site_fract_y
 _atom_site_fract_z
 _atom_site_occupancy
  Na  Na0  1  0.259029  0.740974  0.000001  1
  Fe  Fe1  1  0.873201  0.126786  0.999996  1
  As  As2  1  0.758008  0.675860  0.412404  1
  As  As3  1  0.324141  0.241994  0.587596  1
  O  O4  1  0.666379  0.867046  0.188213  1
  O  O5  1  0.883276  0.452606  0.251285  1
  O  O6  1  0.170108  0.065899  0.274249  1
  O  O7  1  0.457523  0.542481  0.500002  1
  O  O8  1  0.934103  0.829894  0.725753  1
  O  O9  1  0.547397  0.116725  0.748717  1
  O  O10  1  0.132957  0.333624  0.811788  1
