# generated using pymatgen
data_NdEr2Th(MoN3)4
_symmetry_space_group_name_H-M   'P 1'
_cell_length_a   7.21076199
_cell_length_b   7.21076218
_cell_length_c   6.10609989
_cell_angle_alpha   76.96394763
_cell_angle_beta   76.96395448
_cell_angle_gamma   83.20758596
_symmetry_Int_Tables_number   1
_chemical_formula_structural   NdEr2Th(MoN3)4
_chemical_formula_sum   'Nd1 Er2 Th1 Mo4 N12'
_cell_volume   300.57313315
_cell_formula_units_Z   1
loop_
 _symmetry_equiv_pos_site_id
 _symmetry_equiv_pos_as_xyz
  1  'x, y, z'
loop_
 _atom_site_type_symbol
 _atom_site_label
 _atom_site_symmetry_multiplicity
 _atom_site_fract_x
 _atom_site_fract_y
 _atom_site_fract_z
 _atom_site_occupancy
  Nd  Nd0  1  0.684493  0.315507  0.250000  1
  Er  Er1  1  0.912688  0.087312  0.750000  1
  Er  Er2  1  0.085338  0.914662  0.250000  1
  Th  Th3  1  0.313000  0.687000  0.750000  1
  Mo  Mo4  1  0.805771  0.616376  0.738041  1
  Mo  Mo5  1  0.197384  0.384213  0.264184  1
  Mo  Mo6  1  0.615787  0.802616  0.235816  1
  Mo  Mo7  1  0.383624  0.194229  0.761959  1
  N  N8  1  0.216541  0.996948  0.856434  1
  N  N9  1  0.335916  0.387483  0.501378  1
  N  N10  1  0.664656  0.619305  0.500187  1
  N  N11  1  0.620863  0.105980  0.654511  1
  N  N12  1  0.003052  0.783459  0.643566  1
  N  N13  1  0.780972  0.997727  0.143535  1
  N  N14  1  0.115798  0.625389  0.138240  1
  N  N15  1  0.894020  0.379137  0.845489  1
  N  N16  1  0.002273  0.219028  0.356465  1
  N  N17  1  0.380695  0.335344  0.999813  1
  N  N18  1  0.612517  0.664084  0.998622  1
  N  N19  1  0.374611  0.884202  0.361760  1
