# generated using pymatgen
data_Tb3Dy7(IrPb3)2
_symmetry_space_group_name_H-M   'P 1'
_cell_length_a   9.23331500
_cell_length_b   9.23331445
_cell_length_c   6.89562200
_cell_angle_alpha   90.00000000
_cell_angle_beta   90.00000000
_cell_angle_gamma   119.99999840
_symmetry_Int_Tables_number   1
_chemical_formula_structural   Tb3Dy7(IrPb3)2
_chemical_formula_sum   'Tb3 Dy7 Ir2 Pb6'
_cell_volume   509.11906837
_cell_formula_units_Z   1
loop_
 _symmetry_equiv_pos_site_id
 _symmetry_equiv_pos_as_xyz
  1  'x, y, z'
loop_
 _atom_site_type_symbol
 _atom_site_label
 _atom_site_symmetry_multiplicity
 _atom_site_fract_x
 _atom_site_fract_y
 _atom_site_fract_z
 _atom_site_occupancy
  Tb  Tb0  1  0.333333  0.666667  0.500000  1
  Tb  Tb1  1  0.666667  0.333333  0.500000  1
  Tb  Tb2  1  0.333333  0.666667  0.000000  1
  Dy  Dy3  1  0.235357  0.000022  0.249980  1
  Dy  Dy4  1  0.999978  0.764643  0.750020  1
  Dy  Dy5  1  0.999978  0.235335  0.249980  1
  Dy  Dy6  1  0.764665  0.000022  0.750020  1
  Dy  Dy7  1  0.235357  0.235335  0.750020  1
  Dy  Dy8  1  0.666667  0.333333  0.000000  1
  Dy  Dy9  1  0.764665  0.764643  0.249980  1
  Ir  Ir10  1  0.000000  0.000000  0.000000  1
  Ir  Ir11  1  0.000000  0.000000  0.500000  1
  Pb  Pb12  1  0.593995  0.000072  0.249945  1
  Pb  Pb13  1  0.406078  0.000072  0.750055  1
  Pb  Pb14  1  0.999928  0.593922  0.249945  1
  Pb  Pb15  1  0.593995  0.593922  0.750055  1
  Pb  Pb16  1  0.406078  0.406005  0.249945  1
  Pb  Pb17  1  0.999928  0.406005  0.750055  1
