# generated using pymatgen
data_CePr10In9Ru4
_symmetry_space_group_name_H-M   'P 1'
_cell_length_a   13.40827703
_cell_length_b   13.40185175
_cell_length_c   3.88404100
_cell_angle_alpha   90.00000000
_cell_angle_beta   90.00000000
_cell_angle_gamma   112.26841027
_symmetry_Int_Tables_number   1
_chemical_formula_structural   CePr10In9Ru4
_chemical_formula_sum   'Ce1 Pr10 In9 Ru4'
_cell_volume   645.89199566
_cell_formula_units_Z   1
loop_
 _symmetry_equiv_pos_site_id
 _symmetry_equiv_pos_as_xyz
  1  'x, y, z'
loop_
 _atom_site_type_symbol
 _atom_site_label
 _atom_site_symmetry_multiplicity
 _atom_site_fract_x
 _atom_site_fract_y
 _atom_site_fract_z
 _atom_site_occupancy
  Ce  Ce0  1  0.815831  0.815807  0.500000  1
  Pr  Pr1  1  0.498812  0.498866  0.500000  1
  Pr  Pr2  1  0.188628  0.188628  0.500000  1
  Pr  Pr3  1  0.584718  0.916739  0.500000  1
  Pr  Pr4  1  0.421954  0.080789  0.500000  1
  Pr  Pr5  1  0.916786  0.584825  0.500000  1
  Pr  Pr6  1  0.080740  0.421848  0.500000  1
  Pr  Pr7  1  0.125464  0.876789  0.500000  1
  Pr  Pr8  1  0.876845  0.125459  0.500000  1
  Pr  Pr9  1  0.341324  0.662845  0.500000  1
  Pr  Pr10  1  0.662881  0.341426  0.500000  1
  In  In11  1  0.333750  0.865510  0.000000  1
  In  In12  1  0.659123  0.134609  0.000000  1
  In  In13  1  0.865469  0.333860  0.000000  1
  In  In14  1  0.134517  0.659017  0.000000  1
  In  In15  1  0.578942  0.718159  0.000000  1
  In  In16  1  0.421433  0.279458  0.000000  1
  In  In17  1  0.718109  0.578972  0.000000  1
  In  In18  1  0.279356  0.421354  0.000000  1
  In  In19  1  0.002866  0.002713  0.000000  1
  Ru  Ru20  1  0.758215  0.928669  0.000000  1
  Ru  Ru21  1  0.253953  0.051481  0.000000  1
  Ru  Ru22  1  0.928777  0.758231  0.000000  1
  Ru  Ru23  1  0.051508  0.253945  0.000000  1
