# generated using pymatgen
data_Dy3Sc5Ga3Fe
_symmetry_space_group_name_H-M   'P 1'
_cell_length_a   9.50688300
_cell_length_b   9.50277447
_cell_length_c   6.81972701
_cell_angle_alpha   90.00107545
_cell_angle_beta   90.00000000
_cell_angle_gamma   120.01429958
_symmetry_Int_Tables_number   1
_chemical_formula_structural   Dy3Sc5Ga3Fe
_chemical_formula_sum   'Dy6 Sc10 Ga6 Fe2'
_cell_volume   533.48669999
_cell_formula_units_Z   2
loop_
 _symmetry_equiv_pos_site_id
 _symmetry_equiv_pos_as_xyz
  1  'x, y, z'
loop_
 _atom_site_type_symbol
 _atom_site_label
 _atom_site_symmetry_multiplicity
 _atom_site_fract_x
 _atom_site_fract_y
 _atom_site_fract_z
 _atom_site_occupancy
  Dy  Dy0  1  0.465336  0.930673  0.210703  1
  Dy  Dy1  1  0.532735  0.466761  0.712461  1
  Dy  Dy2  1  0.934027  0.466761  0.712461  1
  Dy  Dy3  1  0.533573  0.067146  0.713669  1
  Dy  Dy4  1  0.000097  0.000195  0.229607  1
  Dy  Dy5  1  0.000838  0.001676  0.729170  1
  Sc  Sc6  1  0.173948  0.821087  0.507475  1
  Sc  Sc7  1  0.647139  0.821087  0.507475  1
  Sc  Sc8  1  0.177349  0.354697  0.502972  1
  Sc  Sc9  1  0.827945  0.178155  0.018301  1
  Sc  Sc10  1  0.350210  0.178155  0.018301  1
  Sc  Sc11  1  0.823682  0.647366  0.020354  1
  Sc  Sc12  1  0.332131  0.664262  0.827886  1
  Sc  Sc13  1  0.668661  0.337321  0.321244  1
  Sc  Sc14  1  0.462713  0.536095  0.209302  1
  Sc  Sc15  1  0.073380  0.536095  0.209302  1
  Ga  Ga16  1  0.162742  0.832474  0.953819  1
  Ga  Ga17  1  0.669731  0.832474  0.953819  1
  Ga  Ga18  1  0.166761  0.333522  0.957882  1
  Ga  Ga19  1  0.836025  0.163982  0.451010  1
  Ga  Ga20  1  0.327957  0.163982  0.451010  1
  Ga  Ga21  1  0.835973  0.671947  0.451732  1
  Fe  Fe22  1  0.330923  0.661848  0.447531  1
  Fe  Fe23  1  0.666122  0.332242  0.957354  1
