# generated using pymatgen
data_Pr5MgRuO12
_symmetry_space_group_name_H-M   'P 1'
_cell_length_a   7.13161124
_cell_length_b   7.13161154
_cell_length_c   7.67424052
_cell_angle_alpha   74.29230714
_cell_angle_beta   74.29231847
_cell_angle_gamma   50.54402378
_symmetry_Int_Tables_number   1
_chemical_formula_structural   Pr5MgRuO12
_chemical_formula_sum   'Pr5 Mg1 Ru1 O12'
_cell_volume   287.54151620
_cell_formula_units_Z   1
loop_
 _symmetry_equiv_pos_site_id
 _symmetry_equiv_pos_as_xyz
  1  'x, y, z'
loop_
 _atom_site_type_symbol
 _atom_site_label
 _atom_site_symmetry_multiplicity
 _atom_site_fract_x
 _atom_site_fract_y
 _atom_site_fract_z
 _atom_site_occupancy
  Pr  Pr0  1  0.320041  0.292205  0.355269  1
  Pr  Pr1  1  0.707795  0.679959  0.644731  1
  Pr  Pr2  1  0.689769  0.691781  0.166050  1
  Pr  Pr3  1  0.308219  0.310231  0.833950  1
  Pr  Pr4  1  0.011227  0.988773  0.500000  1
  Mg  Mg5  1  0.748582  0.251418  0.000000  1
  Ru  Ru6  1  0.234792  0.765208  0.000000  1
  O  O7  1  0.102038  0.593784  0.570490  1
  O  O8  1  0.016362  0.984601  0.174792  1
  O  O9  1  0.406216  0.897962  0.429510  1
  O  O10  1  0.475131  0.526419  0.175216  1
  O  O11  1  0.100546  0.591884  0.080768  1
  O  O12  1  0.912241  0.398745  0.420045  1
  O  O13  1  0.015399  0.983638  0.825208  1
  O  O14  1  0.601255  0.087758  0.579955  1
  O  O15  1  0.473581  0.524869  0.824784  1
  O  O16  1  0.566656  0.097970  0.080592  1
  O  O17  1  0.408116  0.899454  0.919232  1
  O  O18  1  0.902030  0.433344  0.919408  1
