# generated using pymatgen
data_Tb2Dy10Co4SnOs
_symmetry_space_group_name_H-M   'P 1'
_cell_length_a   8.30426810
_cell_length_b   8.30426737
_cell_length_c   8.30426801
_cell_angle_alpha   106.48289255
_cell_angle_beta   110.40992782
_cell_angle_gamma   111.56376691
_symmetry_Int_Tables_number   1
_chemical_formula_structural   Tb2Dy10Co4SnOs
_chemical_formula_sum   'Tb2 Dy10 Co4 Sn1 Os1'
_cell_volume   439.90054199
_cell_formula_units_Z   1
loop_
 _symmetry_equiv_pos_site_id
 _symmetry_equiv_pos_as_xyz
  1  'x, y, z'
loop_
 _atom_site_type_symbol
 _atom_site_label
 _atom_site_symmetry_multiplicity
 _atom_site_fract_x
 _atom_site_fract_y
 _atom_site_fract_z
 _atom_site_occupancy
  Tb  Tb0  1  0.468595  0.285551  0.183044  1
  Tb  Tb1  1  0.102507  0.285551  0.816956  1
  Dy  Dy2  1  0.897309  0.714614  0.182695  1
  Dy  Dy3  1  0.531917  0.714614  0.817305  1
  Dy  Dy4  1  0.306080  0.619900  0.313820  1
  Dy  Dy5  1  0.306080  0.992260  0.686180  1
  Dy  Dy6  1  0.693866  0.380278  0.686412  1
  Dy  Dy7  1  0.693866  0.007453  0.313588  1
  Dy  Dy8  1  0.194163  0.214621  0.408890  1
  Dy  Dy9  1  0.805730  0.785273  0.591110  1
  Dy  Dy10  1  0.194163  0.785273  0.979542  1
  Dy  Dy11  1  0.805730  0.214621  0.020458  1
  Co  Co12  1  0.500219  0.611549  0.111330  1
  Co  Co13  1  0.500219  0.388890  0.888670  1
  Co  Co14  1  0.378931  0.999931  0.379000  1
  Co  Co15  1  0.620931  0.999931  0.621000  1
  Sn  Sn16  1  0.000038  0.500038  0.500000  1
  Os  Os17  1  0.999654  0.999654  0.000000  1
