# generated using pymatgen
data_ErLuPd2F14
_symmetry_space_group_name_H-M   'P 1'
_cell_length_a   5.46743141
_cell_length_b   8.72803996
_cell_length_c   11.81407311
_cell_angle_alpha   62.70160240
_cell_angle_beta   89.89550897
_cell_angle_gamma   90.00146522
_symmetry_Int_Tables_number   1
_chemical_formula_structural   ErLuPd2F14
_chemical_formula_sum   'Er2 Lu2 Pd4 F28'
_cell_volume   500.97931723
_cell_formula_units_Z   2
loop_
 _symmetry_equiv_pos_site_id
 _symmetry_equiv_pos_as_xyz
  1  'x, y, z'
loop_
 _atom_site_type_symbol
 _atom_site_label
 _atom_site_symmetry_multiplicity
 _atom_site_fract_x
 _atom_site_fract_y
 _atom_site_fract_z
 _atom_site_occupancy
  Er  Er0  1  0.261492  0.815039  0.264423  1
  Er  Er1  1  0.738508  0.184961  0.735577  1
  Lu  Lu2  1  0.762529  0.186558  0.235642  1
  Lu  Lu3  1  0.237471  0.813442  0.764358  1
  Pd  Pd4  1  0.759470  0.726549  0.042499  1
  Pd  Pd5  1  0.240530  0.273451  0.957501  1
  Pd  Pd6  1  0.259692  0.270838  0.456055  1
  Pd  Pd7  1  0.740308  0.729162  0.543945  1
  F  F8  1  0.936479  0.702027  0.416851  1
  F  F9  1  0.063521  0.297973  0.583149  1
  F  F10  1  0.436766  0.299876  0.084631  1
  F  F11  1  0.563234  0.700124  0.915369  1
  F  F12  1  0.464878  0.723478  0.136140  1
  F  F13  1  0.535122  0.276522  0.863860  1
  F  F14  1  0.965505  0.275389  0.361766  1
  F  F15  1  0.034495  0.724611  0.638234  1
  F  F16  1  0.947769  0.744994  0.176127  1
  F  F17  1  0.052231  0.255006  0.823873  1
  F  F18  1  0.450714  0.252524  0.322828  1
  F  F19  1  0.549286  0.747476  0.677172  1
  F  F20  1  0.776346  0.476112  0.142598  1
  F  F21  1  0.223654  0.523888  0.857402  1
  F  F22  1  0.276578  0.521244  0.357383  1
  F  F23  1  0.723422  0.478756  0.642617  1
  F  F24  1  0.936547  0.278520  0.043400  1
  F  F25  1  0.063453  0.721480  0.956600  1
  F  F26  1  0.438343  0.722492  0.458603  1
  F  F27  1  0.561657  0.277508  0.541397  1
  F  F28  1  0.745683  0.979145  0.450394  1
  F  F29  1  0.254317  0.020855  0.549606  1
  F  F30  1  0.246003  0.023556  0.049676  1
  F  F31  1  0.753997  0.976444  0.950324  1
  F  F32  1  0.586277  0.973655  0.232303  1
  F  F33  1  0.413723  0.026345  0.767697  1
  F  F34  1  0.081478  0.032285  0.267336  1
  F  F35  1  0.918522  0.967715  0.732664  1
