# generated using pymatgen
data_Ba3Na(PPt)4
_symmetry_space_group_name_H-M   'P 1'
_cell_length_a   6.55607247
_cell_length_b   6.55607247
_cell_length_c   6.55607247
_cell_angle_alpha   89.71849342
_cell_angle_beta   90.28150658
_cell_angle_gamma   90.28150658
_symmetry_Int_Tables_number   1
_chemical_formula_structural   Ba3Na(PPt)4
_chemical_formula_sum   'Ba3 Na1 P4 Pt4'
_cell_volume   281.78350179
_cell_formula_units_Z   1
loop_
 _symmetry_equiv_pos_site_id
 _symmetry_equiv_pos_as_xyz
  1  'x, y, z'
loop_
 _atom_site_type_symbol
 _atom_site_label
 _atom_site_symmetry_multiplicity
 _atom_site_fract_x
 _atom_site_fract_y
 _atom_site_fract_z
 _atom_site_occupancy
  Ba  Ba0  1  0.367729  0.863008  0.640530  1
  Ba  Ba1  1  0.136992  0.140530  0.132271  1
  Ba  Ba2  1  0.859470  0.632271  0.363008  1
  Na  Na3  1  0.640615  0.359385  0.859385  1
  P  P4  1  0.584017  0.917900  0.084394  1
  P  P5  1  0.082100  0.584394  0.915983  1
  P  P6  1  0.909589  0.090411  0.590411  1
  P  P7  1  0.415606  0.415983  0.417900  1
  Pt  Pt8  1  0.154071  0.348769  0.654005  1
  Pt  Pt9  1  0.651231  0.154005  0.345929  1
  Pt  Pt10  1  0.845995  0.845929  0.848769  1
  Pt  Pt11  1  0.352586  0.647414  0.147414  1
