# generated using pymatgen
data_Ca11La8YSi16
_symmetry_space_group_name_H-M   'P 1'
_cell_length_a   7.56885208
_cell_length_b   8.02970139
_cell_length_c   15.35787468
_cell_angle_alpha   89.96652491
_cell_angle_beta   90.00779305
_cell_angle_gamma   89.98668719
_symmetry_Int_Tables_number   1
_chemical_formula_structural   Ca11La8YSi16
_chemical_formula_sum   'Ca11 La8 Y1 Si16'
_cell_volume   933.38419427
_cell_formula_units_Z   1
loop_
 _symmetry_equiv_pos_site_id
 _symmetry_equiv_pos_as_xyz
  1  'x, y, z'
loop_
 _atom_site_type_symbol
 _atom_site_label
 _atom_site_symmetry_multiplicity
 _atom_site_fract_x
 _atom_site_fract_y
 _atom_site_fract_z
 _atom_site_occupancy
  Ca  Ca0  1  0.323531  0.181615  0.622640  1
  Ca  Ca1  1  0.676371  0.818767  0.377540  1
  Ca  Ca2  1  0.652098  0.997905  0.749646  1
  Ca  Ca3  1  0.177422  0.681031  0.377542  1
  Ca  Ca4  1  0.823739  0.319096  0.877726  1
  Ca  Ca5  1  0.823708  0.318262  0.622532  1
  Ca  Ca6  1  0.849466  0.495686  0.251186  1
  Ca  Ca7  1  0.345806  0.004048  0.250695  1
  Ca  Ca8  1  0.323230  0.180825  0.878203  1
  Ca  Ca9  1  0.176651  0.682462  0.121720  1
  Ca  Ca10  1  0.151477  0.502007  0.749668  1
  La  La11  1  0.021608  0.183625  0.402174  1
  La  La12  1  0.521220  0.316559  0.402637  1
  La  La13  1  0.477098  0.683674  0.900836  1
  La  La14  1  0.478087  0.684139  0.598375  1
  La  La15  1  0.978028  0.815750  0.598131  1
  La  La16  1  0.977447  0.815724  0.901319  1
  La  La17  1  0.522032  0.316220  0.098691  1
  La  La18  1  0.021497  0.184962  0.097191  1
  Y  Y19  1  0.675878  0.817116  0.123670  1
  Si  Si20  1  0.261693  0.876879  0.750542  1
  Si  Si21  1  0.468399  0.596620  0.247026  1
  Si  Si22  1  0.035073  0.092542  0.750212  1
  Si  Si23  1  0.535019  0.406785  0.750608  1
  Si  Si24  1  0.144631  0.473155  0.535998  1
  Si  Si25  1  0.961318  0.903839  0.246225  1
  Si  Si26  1  0.736263  0.119166  0.247132  1
  Si  Si27  1  0.851663  0.533240  0.037578  1
  Si  Si28  1  0.361760  0.970989  0.038603  1
  Si  Si29  1  0.141813  0.473207  0.964320  1
  Si  Si30  1  0.644084  0.026900  0.536026  1
  Si  Si31  1  0.355579  0.973957  0.463298  1
  Si  Si32  1  0.856140  0.526279  0.463251  1
  Si  Si33  1  0.761453  0.623459  0.750344  1
  Si  Si34  1  0.240439  0.379058  0.249636  1
  Si  Si35  1  0.648277  0.024451  0.967076  1
