# generated using pymatgen
data_Ba3YbPa2O9
_symmetry_space_group_name_H-M   'P 1'
_cell_length_a   10.91037673
_cell_length_b   10.91037718
_cell_length_c   10.91037700
_cell_angle_alpha   146.47981672
_cell_angle_beta   131.88068656
_cell_angle_gamma   59.91574147
_symmetry_Int_Tables_number   1
_chemical_formula_structural   Ba3YbPa2O9
_chemical_formula_sum   'Ba6 Yb2 Pa4 O18'
_cell_volume   529.13202720
_cell_formula_units_Z   2
loop_
 _symmetry_equiv_pos_site_id
 _symmetry_equiv_pos_as_xyz
  1  'x, y, z'
loop_
 _atom_site_type_symbol
 _atom_site_label
 _atom_site_symmetry_multiplicity
 _atom_site_fract_x
 _atom_site_fract_y
 _atom_site_fract_z
 _atom_site_occupancy
  Ba  Ba0  1  0.774248  0.500000  0.274248  1
  Ba  Ba1  1  0.414927  0.175694  0.239233  1
  Ba  Ba2  1  0.063539  0.824306  0.239233  1
  Ba  Ba3  1  0.225752  0.500000  0.725752  1
  Ba  Ba4  1  0.936461  0.175694  0.760767  1
  Ba  Ba5  1  0.585073  0.824306  0.760767  1
  Yb  Yb6  1  0.167121  0.667121  0.500000  1
  Yb  Yb7  1  0.832879  0.332879  0.500000  1
  Pa  Pa8  1  0.000000  0.000000  0.000000  1
  Pa  Pa9  1  0.665344  0.665344  0.000000  1
  Pa  Pa10  1  0.334656  0.334656  0.000000  1
  Pa  Pa11  1  0.500000  0.000000  0.500000  1
  O  O12  1  0.744658  0.000000  0.744658  1
  O  O13  1  0.426195  0.666133  0.760061  1
  O  O14  1  0.093929  0.333867  0.760061  1
  O  O15  1  0.580921  0.835475  0.254555  1
  O  O16  1  0.252162  0.491027  0.238867  1
  O  O17  1  0.921491  0.166824  0.245333  1
  O  O18  1  0.419079  0.673634  0.254555  1
  O  O19  1  0.078509  0.323842  0.245333  1
  O  O20  1  0.747838  0.986706  0.238867  1
  O  O21  1  0.255342  0.000000  0.255342  1
  O  O22  1  0.906071  0.666133  0.239939  1
  O  O23  1  0.573805  0.333867  0.239939  1
  O  O24  1  0.419079  0.164525  0.745445  1
  O  O25  1  0.078509  0.833176  0.754667  1
  O  O26  1  0.747838  0.508973  0.761133  1
  O  O27  1  0.580921  0.326366  0.745445  1
  O  O28  1  0.252162  0.013294  0.761133  1
  O  O29  1  0.921491  0.676158  0.754667  1
