# generated using pymatgen
data_ErTh3(NiAs)4
_symmetry_space_group_name_H-M   'P 1'
_cell_length_a   4.11102400
_cell_length_b   4.11102518
_cell_length_c   15.68383300
_cell_angle_alpha   90.00000000
_cell_angle_beta   90.00000000
_cell_angle_gamma   120.00000663
_symmetry_Int_Tables_number   1
_chemical_formula_structural   ErTh3(NiAs)4
_chemical_formula_sum   'Er1 Th3 Ni4 As4'
_cell_volume   229.55299350
_cell_formula_units_Z   1
loop_
 _symmetry_equiv_pos_site_id
 _symmetry_equiv_pos_as_xyz
  1  'x, y, z'
loop_
 _atom_site_type_symbol
 _atom_site_label
 _atom_site_symmetry_multiplicity
 _atom_site_fract_x
 _atom_site_fract_y
 _atom_site_fract_z
 _atom_site_occupancy
  Er  Er0  1  0.000000  0.000000  0.750000  1
  Th  Th1  1  0.000000  0.000000  0.250000  1
  Th  Th2  1  0.000000  0.000000  0.994499  1
  Th  Th3  1  0.000000  0.000000  0.505501  1
  Ni  Ni4  1  0.333333  0.666667  0.124935  1
  Ni  Ni5  1  0.666667  0.333333  0.855053  1
  Ni  Ni6  1  0.666667  0.333333  0.644947  1
  Ni  Ni7  1  0.333333  0.666667  0.375065  1
  As  As8  1  0.333333  0.666667  0.627365  1
  As  As9  1  0.666667  0.333333  0.378801  1
  As  As10  1  0.666667  0.333333  0.121199  1
  As  As11  1  0.333333  0.666667  0.872635  1
