# generated using pymatgen
data_Y5Lu(SnIr)6
_symmetry_space_group_name_H-M   'P 1'
_cell_length_a   7.45351405
_cell_length_b   7.54867994
_cell_length_c   7.93955500
_cell_angle_alpha   90.00000000
_cell_angle_beta   90.00000000
_cell_angle_gamma   120.45928657
_symmetry_Int_Tables_number   1
_chemical_formula_structural   Y5Lu(SnIr)6
_chemical_formula_sum   'Y5 Lu1 Sn6 Ir6'
_cell_volume   385.06165198
_cell_formula_units_Z   1
loop_
 _symmetry_equiv_pos_site_id
 _symmetry_equiv_pos_as_xyz
  1  'x, y, z'
loop_
 _atom_site_type_symbol
 _atom_site_label
 _atom_site_symmetry_multiplicity
 _atom_site_fract_x
 _atom_site_fract_y
 _atom_site_fract_z
 _atom_site_occupancy
  Y  Y0  1  0.407201  0.005043  0.250000  1
  Y  Y1  1  0.595484  0.594713  0.750000  1
  Y  Y2  1  0.593644  0.596236  0.250000  1
  Y  Y3  1  0.001184  0.405421  0.750000  1
  Y  Y4  1  0.404368  0.998327  0.750000  1
  Lu  Lu5  1  0.998651  0.399856  0.250000  1
  Sn  Sn6  1  0.260713  0.260062  0.500597  1
  Sn  Sn7  1  0.260713  0.260062  0.999403  1
  Sn  Sn8  1  0.738899  0.998535  0.999647  1
  Sn  Sn9  1  0.000256  0.743464  0.496123  1
  Sn  Sn10  1  0.738899  0.998535  0.500353  1
  Sn  Sn11  1  0.000256  0.743464  0.003877  1
  Ir  Ir12  1  0.675313  0.335587  0.497687  1
  Ir  Ir13  1  0.675313  0.335587  0.002313  1
  Ir  Ir14  1  0.324599  0.660615  0.005183  1
  Ir  Ir15  1  0.324599  0.660615  0.494817  1
  Ir  Ir16  1  0.999959  0.999194  0.750000  1
  Ir  Ir17  1  0.999947  0.004685  0.250000  1
