# generated using pymatgen
data_Er4Lu(RuO6)2
_symmetry_space_group_name_H-M   'P 1'
_cell_length_a   6.77769905
_cell_length_b   6.77769927
_cell_length_c   7.35317650
_cell_angle_alpha   74.00251991
_cell_angle_beta   74.00251920
_cell_angle_gamma   49.36479928
_symmetry_Int_Tables_number   1
_chemical_formula_structural   Er4Lu(RuO6)2
_chemical_formula_sum   'Er4 Lu1 Ru2 O12'
_cell_volume   244.25976017
_cell_formula_units_Z   1
loop_
 _symmetry_equiv_pos_site_id
 _symmetry_equiv_pos_as_xyz
  1  'x, y, z'
loop_
 _atom_site_type_symbol
 _atom_site_label
 _atom_site_symmetry_multiplicity
 _atom_site_fract_x
 _atom_site_fract_y
 _atom_site_fract_z
 _atom_site_occupancy
  Er  Er0  1  0.198978  0.198978  0.641196  1
  Er  Er1  1  0.186863  0.186863  0.173362  1
  Er  Er2  1  0.801022  0.801022  0.358804  1
  Er  Er3  1  0.813137  0.813137  0.826638  1
  Lu  Lu4  1  0.500000  0.500000  0.500000  1
  Ru  Ru5  1  0.721762  0.278238  0.000000  1
  Ru  Ru6  1  0.278238  0.721762  0.000000  1
  O  O7  1  0.414698  0.920536  0.912460  1
  O  O8  1  0.920536  0.414698  0.912460  1
  O  O9  1  0.900556  0.400512  0.429690  1
  O  O10  1  0.400512  0.900556  0.429690  1
  O  O11  1  0.502101  0.502101  0.204535  1
  O  O12  1  0.998637  0.998637  0.178086  1
  O  O13  1  0.001363  0.001363  0.821914  1
  O  O14  1  0.497899  0.497899  0.795465  1
  O  O15  1  0.079464  0.585302  0.087540  1
  O  O16  1  0.585302  0.079464  0.087540  1
  O  O17  1  0.099444  0.599488  0.570310  1
  O  O18  1  0.599488  0.099444  0.570310  1
