# generated using pymatgen
data_Tb13Dy2Er5Sn16
_symmetry_space_group_name_H-M   'P 1'
_cell_length_a   8.03512541
_cell_length_b   8.18481693
_cell_length_c   15.48005609
_cell_angle_alpha   90.00692697
_cell_angle_beta   90.05186534
_cell_angle_gamma   90.02681663
_symmetry_Int_Tables_number   1
_chemical_formula_structural   Tb13Dy2Er5Sn16
_chemical_formula_sum   'Tb13 Dy2 Er5 Sn16'
_cell_volume   1018.06130428
_cell_formula_units_Z   1
loop_
 _symmetry_equiv_pos_site_id
 _symmetry_equiv_pos_as_xyz
  1  'x, y, z'
loop_
 _atom_site_type_symbol
 _atom_site_label
 _atom_site_symmetry_multiplicity
 _atom_site_fract_x
 _atom_site_fract_y
 _atom_site_fract_z
 _atom_site_occupancy
  Tb  Tb0  1  0.134227  0.337272  0.122261  1
  Tb  Tb1  1  0.633692  0.162914  0.122600  1
  Tb  Tb2  1  0.133696  0.337194  0.377962  1
  Tb  Tb3  1  0.366227  0.837105  0.622423  1
  Tb  Tb4  1  0.866437  0.662631  0.877782  1
  Tb  Tb5  1  0.518979  0.320540  0.902895  1
  Tb  Tb6  1  0.019149  0.179439  0.597073  1
  Tb  Tb7  1  0.481267  0.679609  0.403299  1
  Tb  Tb8  1  0.980574  0.820730  0.097163  1
  Tb  Tb9  1  0.481374  0.679515  0.096958  1
  Tb  Tb10  1  0.981843  0.820780  0.403391  1
  Tb  Tb11  1  0.518344  0.320875  0.596575  1
  Tb  Tb12  1  0.018705  0.178655  0.902563  1
  Dy  Dy13  1  0.365722  0.837663  0.876892  1
  Dy  Dy14  1  0.865009  0.662540  0.622344  1
  Er  Er15  1  0.634712  0.162253  0.377267  1
  Er  Er16  1  0.197389  0.503065  0.750113  1
  Er  Er17  1  0.697473  0.997075  0.749501  1
  Er  Er18  1  0.802397  0.496820  0.250781  1
  Er  Er19  1  0.302931  0.003190  0.249948  1
  Sn  Sn20  1  0.293938  0.036888  0.041546  1
  Sn  Sn21  1  0.793073  0.460934  0.458280  1
  Sn  Sn22  1  0.705870  0.963031  0.541023  1
  Sn  Sn23  1  0.206646  0.537745  0.957977  1
  Sn  Sn24  1  0.704732  0.962515  0.957804  1
  Sn  Sn25  1  0.204315  0.537720  0.542204  1
  Sn  Sn26  1  0.297143  0.038058  0.457840  1
  Sn  Sn27  1  0.794091  0.462801  0.042231  1
  Sn  Sn28  1  0.563201  0.617691  0.749921  1
  Sn  Sn29  1  0.063000  0.882166  0.749932  1
  Sn  Sn30  1  0.437143  0.381811  0.250629  1
  Sn  Sn31  1  0.936178  0.117686  0.250624  1
  Sn  Sn32  1  0.328365  0.149236  0.749774  1
  Sn  Sn33  1  0.828462  0.351260  0.749896  1
  Sn  Sn34  1  0.671736  0.851345  0.250431  1
  Sn  Sn35  1  0.171958  0.649251  0.250098  1
