# generated using pymatgen
data_Er2ScB2Ir5
_symmetry_space_group_name_H-M   'P 1'
_cell_length_a   3.16227800
_cell_length_b   9.77182400
_cell_length_c   9.77182400
_cell_angle_alpha   90.00000000
_cell_angle_beta   90.00000000
_cell_angle_gamma   90.00000000
_symmetry_Int_Tables_number   1
_chemical_formula_structural   Er2ScB2Ir5
_chemical_formula_sum   'Er4 Sc2 B4 Ir10'
_cell_volume   301.96132285
_cell_formula_units_Z   2
loop_
 _symmetry_equiv_pos_site_id
 _symmetry_equiv_pos_as_xyz
  1  'x, y, z'
loop_
 _atom_site_type_symbol
 _atom_site_label
 _atom_site_symmetry_multiplicity
 _atom_site_fract_x
 _atom_site_fract_y
 _atom_site_fract_z
 _atom_site_occupancy
  Er  Er0  1  0.000000  0.176658  0.676658  1
  Er  Er1  1  0.000000  0.823342  0.323342  1
  Er  Er2  1  0.000000  0.323342  0.176658  1
  Er  Er3  1  0.000000  0.676658  0.823342  1
  Sc  Sc4  1  0.000000  0.000000  0.000000  1
  Sc  Sc5  1  0.000000  0.500000  0.500000  1
  B  B6  1  0.000000  0.620664  0.120664  1
  B  B7  1  0.000000  0.379336  0.879336  1
  B  B8  1  0.000000  0.879336  0.620664  1
  B  B9  1  0.000000  0.120664  0.379336  1
  Ir  Ir10  1  0.500000  0.069274  0.224858  1
  Ir  Ir11  1  0.500000  0.930726  0.775142  1
  Ir  Ir12  1  0.500000  0.775142  0.069274  1
  Ir  Ir13  1  0.500000  0.430726  0.724858  1
  Ir  Ir14  1  0.500000  0.224858  0.930726  1
  Ir  Ir15  1  0.500000  0.569274  0.275142  1
  Ir  Ir16  1  0.500000  0.724858  0.569274  1
  Ir  Ir17  1  0.500000  0.275142  0.430726  1
  Ir  Ir18  1  0.500000  0.000000  0.500000  1
  Ir  Ir19  1  0.500000  0.500000  0.000000  1
