# generated using pymatgen
data_La(ThTe2)6
_symmetry_space_group_name_H-M   'P 1'
_cell_length_a   12.60326717
_cell_length_b   12.62749619
_cell_length_c   4.36906400
_cell_angle_alpha   90.00000000
_cell_angle_beta   90.00000000
_cell_angle_gamma   119.88822276
_symmetry_Int_Tables_number   1
_chemical_formula_structural   La(ThTe2)6
_chemical_formula_sum   'La1 Th6 Te12'
_cell_volume   602.84753561
_cell_formula_units_Z   1
loop_
 _symmetry_equiv_pos_site_id
 _symmetry_equiv_pos_as_xyz
  1  'x, y, z'
loop_
 _atom_site_type_symbol
 _atom_site_label
 _atom_site_symmetry_multiplicity
 _atom_site_fract_x
 _atom_site_fract_y
 _atom_site_fract_z
 _atom_site_occupancy
  La  La0  1  0.723323  0.158495  0.000000  1
  Th  Th1  1  0.843932  0.567177  0.000000  1
  Th  Th2  1  0.432662  0.275506  0.000000  1
  Th  Th3  1  0.550227  0.712216  0.500000  1
  Th  Th4  1  0.289099  0.838809  0.500000  1
  Th  Th5  1  0.161445  0.450058  0.500000  1
  Th  Th6  1  0.996585  0.999563  0.000000  1
  Te  Te7  1  0.744328  0.750279  0.000000  1
  Te  Te8  1  0.244445  0.991216  0.000000  1
  Te  Te9  1  0.010411  0.256337  0.000000  1
  Te  Te10  1  0.489416  0.863032  0.000000  1
  Te  Te11  1  0.135047  0.626315  0.000000  1
  Te  Te12  1  0.375180  0.508974  0.000000  1
  Te  Te13  1  0.865546  0.390573  0.500000  1
  Te  Te14  1  0.216138  0.212763  0.500000  1
  Te  Te15  1  0.997236  0.784288  0.500000  1
  Te  Te16  1  0.792588  0.999634  0.500000  1
  Te  Te17  1  0.518328  0.137499  0.500000  1
  Te  Te18  1  0.614065  0.477263  0.500000  1
