# generated using pymatgen
data_Na2InGaAu2
_symmetry_space_group_name_H-M   'P 1'
_cell_length_a   4.49082000
_cell_length_b   7.43959379
_cell_length_c   8.12269477
_cell_angle_alpha   93.16618141
_cell_angle_beta   90.00000000
_cell_angle_gamma   90.00000000
_symmetry_Int_Tables_number   1
_chemical_formula_structural   Na2InGaAu2
_chemical_formula_sum   'Na4 In2 Ga2 Au4'
_cell_volume   270.96398134
_cell_formula_units_Z   2
loop_
 _symmetry_equiv_pos_site_id
 _symmetry_equiv_pos_as_xyz
  1  'x, y, z'
loop_
 _atom_site_type_symbol
 _atom_site_label
 _atom_site_symmetry_multiplicity
 _atom_site_fract_x
 _atom_site_fract_y
 _atom_site_fract_z
 _atom_site_occupancy
  Na  Na0  1  0.250000  0.009696  0.308143  1
  Na  Na1  1  0.250000  0.512686  0.172302  1
  Na  Na2  1  0.750000  0.990304  0.691857  1
  Na  Na3  1  0.750000  0.487314  0.827698  1
  In  In4  1  0.250000  0.663341  0.574299  1
  In  In5  1  0.750000  0.336659  0.425701  1
  Ga  Ga6  1  0.750000  0.835047  0.075081  1
  Ga  Ga7  1  0.250000  0.164953  0.924919  1
  Au  Au8  1  0.250000  0.804394  0.906756  1
  Au  Au9  1  0.750000  0.195606  0.093244  1
  Au  Au10  1  0.750000  0.719424  0.371568  1
  Au  Au11  1  0.250000  0.280576  0.628432  1
