# generated using pymatgen
data_Tm5Al2HgC4
_symmetry_space_group_name_H-M   'P 1'
_cell_length_a   10.83274200
_cell_length_b   10.83274200
_cell_length_c   3.46288800
_cell_angle_alpha   90.00000000
_cell_angle_beta   90.00000000
_cell_angle_gamma   90.00000000
_symmetry_Int_Tables_number   1
_chemical_formula_structural   Tm5Al2HgC4
_chemical_formula_sum   'Tm10 Al4 Hg2 C8'
_cell_volume   406.36401725
_cell_formula_units_Z   2
loop_
 _symmetry_equiv_pos_site_id
 _symmetry_equiv_pos_as_xyz
  1  'x, y, z'
loop_
 _atom_site_type_symbol
 _atom_site_label
 _atom_site_symmetry_multiplicity
 _atom_site_fract_x
 _atom_site_fract_y
 _atom_site_fract_z
 _atom_site_occupancy
  Tm  Tm0  1  0.548966  0.733668  0.500000  1
  Tm  Tm1  1  0.451034  0.266332  0.500000  1
  Tm  Tm2  1  0.048966  0.766332  0.500000  1
  Tm  Tm3  1  0.951034  0.233668  0.500000  1
  Tm  Tm4  1  0.266332  0.548966  0.500000  1
  Tm  Tm5  1  0.733668  0.451034  0.500000  1
  Tm  Tm6  1  0.233668  0.048966  0.500000  1
  Tm  Tm7  1  0.766332  0.951034  0.500000  1
  Tm  Tm8  1  0.500000  0.000000  0.000000  1
  Tm  Tm9  1  0.000000  0.500000  0.000000  1
  Al  Al10  1  0.703678  0.203678  0.000000  1
  Al  Al11  1  0.296322  0.796322  0.000000  1
  Al  Al12  1  0.203678  0.296322  0.000000  1
  Al  Al13  1  0.796322  0.703678  0.000000  1
  Hg  Hg14  1  0.500000  0.500000  0.000000  1
  Hg  Hg15  1  0.000000  0.000000  0.000000  1
  C  C16  1  0.630064  0.130064  0.500000  1
  C  C17  1  0.369936  0.869936  0.500000  1
  C  C18  1  0.130064  0.369936  0.500000  1
  C  C19  1  0.869936  0.630064  0.500000  1
  C  C20  1  0.160580  0.660580  0.000000  1
  C  C21  1  0.839420  0.339420  0.000000  1
  C  C22  1  0.660580  0.839420  0.000000  1
  C  C23  1  0.339420  0.160580  0.000000  1
