# generated using pymatgen
data_Ti12MoP8W
_symmetry_space_group_name_H-M   'P 1'
_cell_length_a   7.47118128
_cell_length_b   7.47118186
_cell_length_c   13.57787494
_cell_angle_alpha   75.68994951
_cell_angle_beta   75.68994774
_cell_angle_gamma   26.39717042
_symmetry_Int_Tables_number   1
_chemical_formula_structural   Ti12MoP8W
_chemical_formula_sum   'Ti12 Mo1 P8 W1'
_cell_volume   325.91465388
_cell_formula_units_Z   1
loop_
 _symmetry_equiv_pos_site_id
 _symmetry_equiv_pos_as_xyz
  1  'x, y, z'
loop_
 _atom_site_type_symbol
 _atom_site_label
 _atom_site_symmetry_multiplicity
 _atom_site_fract_x
 _atom_site_fract_y
 _atom_site_fract_z
 _atom_site_occupancy
  Ti  Ti0  1  0.430494  0.430494  0.167791  1
  Ti  Ti1  1  0.569506  0.569506  0.832209  1
  Ti  Ti2  1  0.195848  0.195848  0.691460  1
  Ti  Ti3  1  0.804152  0.804152  0.308540  1
  Ti  Ti4  1  0.207377  0.207377  0.205551  1
  Ti  Ti5  1  0.792623  0.792623  0.794449  1
  Ti  Ti6  1  0.341810  0.341810  0.968250  1
  Ti  Ti7  1  0.658190  0.658190  0.031750  1
  Ti  Ti8  1  0.003948  0.003948  0.340566  1
  Ti  Ti9  1  0.996052  0.996052  0.659434  1
  Ti  Ti10  1  0.176288  0.176288  0.458842  1
  Ti  Ti11  1  0.823712  0.823712  0.541158  1
  Mo  Mo12  1  0.500000  0.500000  0.500000  1
  P  P13  1  0.177615  0.177615  0.890235  1
  P  P14  1  0.822385  0.822385  0.109765  1
  P  P15  1  0.371983  0.371983  0.395799  1
  P  P16  1  0.628017  0.628017  0.604201  1
  P  P17  1  0.368595  0.368595  0.659963  1
  P  P18  1  0.631405  0.631405  0.340037  1
  P  P19  1  0.061697  0.061697  0.152512  1
  P  P20  1  0.938303  0.938303  0.847488  1
  W  W21  1  0.000000  0.000000  0.000000  1
