# generated using pymatgen
data_Yb4Sb3Rh7Pb3
_symmetry_space_group_name_H-M   'P 1'
_cell_length_a   7.65241417
_cell_length_b   7.66524071
_cell_length_c   7.65241434
_cell_angle_alpha   109.50517918
_cell_angle_beta   109.43723710
_cell_angle_gamma   109.50518070
_symmetry_Int_Tables_number   1
_chemical_formula_structural   Yb4Sb3Rh7Pb3
_chemical_formula_sum   'Yb4 Sb3 Rh7 Pb3'
_cell_volume   345.39709518
_cell_formula_units_Z   1
loop_
 _symmetry_equiv_pos_site_id
 _symmetry_equiv_pos_as_xyz
  1  'x, y, z'
loop_
 _atom_site_type_symbol
 _atom_site_label
 _atom_site_symmetry_multiplicity
 _atom_site_fract_x
 _atom_site_fract_y
 _atom_site_fract_z
 _atom_site_occupancy
  Yb  Yb0  1  0.507041  0.998881  0.000000  1
  Yb  Yb1  1  0.000000  0.478488  0.000000  1
  Yb  Yb2  1  0.000000  0.998881  0.507041  1
  Yb  Yb3  1  0.492959  0.491839  0.492959  1
  Sb  Sb4  1  0.669702  0.993091  0.669702  1
  Sb  Sb5  1  0.000000  0.323389  0.330298  1
  Sb  Sb6  1  0.330298  0.323389  0.000000  1
  Rh  Rh7  1  0.254068  0.498941  0.752985  1
  Rh  Rh8  1  0.498917  0.244873  0.745932  1
  Rh  Rh9  1  0.745932  0.244873  0.498917  1
  Rh  Rh10  1  0.501083  0.745956  0.247015  1
  Rh  Rh11  1  0.000000  0.039061  0.000000  1
  Rh  Rh12  1  0.247015  0.745956  0.501083  1
  Rh  Rh13  1  0.752985  0.498941  0.254068  1
  Pb  Pb14  1  0.299578  0.990865  0.299578  1
  Pb  Pb15  1  0.000000  0.691287  0.700422  1
  Pb  Pb16  1  0.700422  0.691287  0.000000  1
