# generated using pymatgen
data_Yb2SiHgPd13
_symmetry_space_group_name_H-M   'P 1'
_cell_length_a   9.01459574
_cell_length_b   8.96181700
_cell_length_c   7.08577532
_cell_angle_alpha   90.00000000
_cell_angle_beta   90.61649739
_cell_angle_gamma   90.00000000
_symmetry_Int_Tables_number   1
_chemical_formula_structural   Yb2SiHgPd13
_chemical_formula_sum   'Yb4 Si2 Hg2 Pd26'
_cell_volume   572.40650907
_cell_formula_units_Z   2
loop_
 _symmetry_equiv_pos_site_id
 _symmetry_equiv_pos_as_xyz
  1  'x, y, z'
loop_
 _atom_site_type_symbol
 _atom_site_label
 _atom_site_symmetry_multiplicity
 _atom_site_fract_x
 _atom_site_fract_y
 _atom_site_fract_z
 _atom_site_occupancy
  Yb  Yb0  1  0.515500  0.000000  0.935296  1
  Yb  Yb1  1  0.984500  0.500000  0.064704  1
  Yb  Yb2  1  0.995507  0.000000  0.499931  1
  Yb  Yb3  1  0.504493  0.500000  0.500069  1
  Si  Si4  1  0.505928  0.000000  0.442740  1
  Si  Si5  1  0.994072  0.500000  0.557260  1
  Hg  Hg6  1  0.250000  0.750000  0.000000  1
  Hg  Hg7  1  0.250000  0.250000  0.000000  1
  Pd  Pd8  1  0.339765  0.836098  0.609448  1
  Pd  Pd9  1  0.339765  0.163902  0.609448  1
  Pd  Pd10  1  0.668348  0.834170  0.617878  1
  Pd  Pd11  1  0.668348  0.165830  0.617878  1
  Pd  Pd12  1  0.160235  0.663902  0.390552  1
  Pd  Pd13  1  0.160235  0.336098  0.390552  1
  Pd  Pd14  1  0.831652  0.665830  0.382122  1
  Pd  Pd15  1  0.831652  0.334170  0.382122  1
  Pd  Pd16  1  0.506264  0.768920  0.257548  1
  Pd  Pd17  1  0.506264  0.231080  0.257548  1
  Pd  Pd18  1  0.269280  0.000000  0.261854  1
  Pd  Pd19  1  0.732048  0.000000  0.255374  1
  Pd  Pd20  1  0.993736  0.731080  0.742452  1
  Pd  Pd21  1  0.993736  0.268920  0.742452  1
  Pd  Pd22  1  0.230720  0.500000  0.738146  1
  Pd  Pd23  1  0.767952  0.500000  0.744626  1
  Pd  Pd24  1  0.500714  0.349328  0.850229  1
  Pd  Pd25  1  0.500714  0.650672  0.850229  1
  Pd  Pd26  1  0.849835  0.000000  0.856286  1
  Pd  Pd27  1  0.149697  0.000000  0.842796  1
  Pd  Pd28  1  0.999286  0.150672  0.149771  1
  Pd  Pd29  1  0.999286  0.849328  0.149771  1
  Pd  Pd30  1  0.650165  0.500000  0.143714  1
  Pd  Pd31  1  0.350303  0.500000  0.157204  1
  Pd  Pd32  1  0.750000  0.750000  0.000000  1
  Pd  Pd33  1  0.750000  0.250000  0.000000  1
