# generated using pymatgen
data_Ce2TmLu(AlIr)4
_symmetry_space_group_name_H-M   'P 1'
_cell_length_a   6.80405845
_cell_length_b   4.28894800
_cell_length_c   7.91464685
_cell_angle_alpha   90.00000000
_cell_angle_beta   90.09719827
_cell_angle_gamma   90.00000000
_symmetry_Int_Tables_number   1
_chemical_formula_structural   Ce2TmLu(AlIr)4
_chemical_formula_sum   'Ce2 Tm1 Lu1 Al4 Ir4'
_cell_volume   230.96689333
_cell_formula_units_Z   1
loop_
 _symmetry_equiv_pos_site_id
 _symmetry_equiv_pos_as_xyz
  1  'x, y, z'
loop_
 _atom_site_type_symbol
 _atom_site_label
 _atom_site_symmetry_multiplicity
 _atom_site_fract_x
 _atom_site_fract_y
 _atom_site_fract_z
 _atom_site_occupancy
  Ce  Ce0  1  0.032582  0.750000  0.822324  1
  Ce  Ce1  1  0.532276  0.750000  0.677310  1
  Tm  Tm2  1  0.965085  0.250000  0.184689  1
  Lu  Lu3  1  0.464701  0.250000  0.315678  1
  Al  Al4  1  0.862864  0.250000  0.555411  1
  Al  Al5  1  0.363273  0.250000  0.944859  1
  Al  Al6  1  0.138764  0.750000  0.432953  1
  Al  Al7  1  0.638137  0.750000  0.067214  1
  Ir  Ir8  1  0.738923  0.250000  0.877268  1
  Ir  Ir9  1  0.239209  0.250000  0.621841  1
  Ir  Ir10  1  0.263065  0.750000  0.118331  1
  Ir  Ir11  1  0.761121  0.750000  0.382123  1
