# generated using pymatgen
data_Pr4NdOsRu
_symmetry_space_group_name_H-M   'P 1'
_cell_length_a   8.99718192
_cell_length_b   8.99718011
_cell_length_c   7.42843400
_cell_angle_alpha   83.62226815
_cell_angle_beta   83.62227585
_cell_angle_gamma   43.66655237
_symmetry_Int_Tables_number   1
_chemical_formula_structural   Pr4NdOsRu
_chemical_formula_sum   'Pr8 Nd2 Os2 Ru2'
_cell_volume   412.20839465
_cell_formula_units_Z   2
loop_
 _symmetry_equiv_pos_site_id
 _symmetry_equiv_pos_as_xyz
  1  'x, y, z'
loop_
 _atom_site_type_symbol
 _atom_site_label
 _atom_site_symmetry_multiplicity
 _atom_site_fract_x
 _atom_site_fract_y
 _atom_site_fract_z
 _atom_site_occupancy
  Pr  Pr0  1  0.018147  0.799521  0.914690  1
  Pr  Pr1  1  0.200479  0.981853  0.585310  1
  Pr  Pr2  1  0.982309  0.201858  0.086099  1
  Pr  Pr3  1  0.798142  0.017691  0.413901  1
  Pr  Pr4  1  0.357579  0.210661  0.815456  1
  Pr  Pr5  1  0.789339  0.642421  0.684544  1
  Pr  Pr6  1  0.641063  0.790161  0.184772  1
  Pr  Pr7  1  0.209839  0.358937  0.315228  1
  Nd  Nd8  1  0.571350  0.428650  0.750000  1
  Nd  Nd9  1  0.428045  0.571955  0.250000  1
  Os  Os10  1  0.178676  0.602274  0.574371  1
  Os  Os11  1  0.397726  0.821324  0.925629  1
  Ru  Ru12  1  0.824795  0.397489  0.424939  1
  Ru  Ru13  1  0.602511  0.175205  0.075061  1
