# generated using pymatgen
data_YPa3(InPd2)2
_symmetry_space_group_name_H-M   'P 1'
_cell_length_a   7.81287479
_cell_length_b   7.81287479
_cell_length_c   3.67702700
_cell_angle_alpha   90.00000000
_cell_angle_beta   90.00000000
_cell_angle_gamma   91.00385274
_symmetry_Int_Tables_number   1
_chemical_formula_structural   YPa3(InPd2)2
_chemical_formula_sum   'Y1 Pa3 In2 Pd4'
_cell_volume   224.41500219
_cell_formula_units_Z   1
loop_
 _symmetry_equiv_pos_site_id
 _symmetry_equiv_pos_as_xyz
  1  'x, y, z'
loop_
 _atom_site_type_symbol
 _atom_site_label
 _atom_site_symmetry_multiplicity
 _atom_site_fract_x
 _atom_site_fract_y
 _atom_site_fract_z
 _atom_site_occupancy
  Y  Y0  1  0.824585  0.675415  0.500000  1
  Pa  Pa1  1  0.674192  0.173242  0.500000  1
  Pa  Pa2  1  0.326758  0.825808  0.500000  1
  Pa  Pa3  1  0.171129  0.328871  0.500000  1
  In  In4  1  0.504577  0.501882  0.000000  1
  In  In5  1  0.998118  0.995423  0.000000  1
  Pd  Pd6  1  0.139180  0.622886  0.000000  1
  Pd  Pd7  1  0.877114  0.360820  0.000000  1
  Pd  Pd8  1  0.617854  0.882146  0.000000  1
  Pd  Pd9  1  0.366492  0.133508  0.000000  1
