# generated using pymatgen
data_Y2U(AlRu)3
_symmetry_space_group_name_H-M   'P 1'
_cell_length_a   6.86254711
_cell_length_b   6.86254644
_cell_length_c   4.06063100
_cell_angle_alpha   90.00000000
_cell_angle_beta   90.00000000
_cell_angle_gamma   116.25747970
_symmetry_Int_Tables_number   1
_chemical_formula_structural   Y2U(AlRu)3
_chemical_formula_sum   'Y2 U1 Al3 Ru3'
_cell_volume   171.50114446
_cell_formula_units_Z   1
loop_
 _symmetry_equiv_pos_site_id
 _symmetry_equiv_pos_as_xyz
  1  'x, y, z'
loop_
 _atom_site_type_symbol
 _atom_site_label
 _atom_site_symmetry_multiplicity
 _atom_site_fract_x
 _atom_site_fract_y
 _atom_site_fract_z
 _atom_site_occupancy
  Y  Y0  1  0.418975  0.009178  0.500000  1
  Y  Y1  1  0.009178  0.418975  0.500000  1
  U  U2  1  0.608156  0.608156  0.500000  1
  Al  Al3  1  0.752572  0.024056  0.000000  1
  Al  Al4  1  0.024056  0.752572  0.000000  1
  Al  Al5  1  0.208684  0.208684  0.000000  1
  Ru  Ru6  1  0.381013  0.636679  0.000000  1
  Ru  Ru7  1  0.636679  0.381013  0.000000  1
  Ru  Ru8  1  0.960687  0.960687  0.500000  1
