# generated using pymatgen
data_K2GeAsRh2
_symmetry_space_group_name_H-M   'P 1'
_cell_length_a   4.12315400
_cell_length_b   4.12315400
_cell_length_c   10.42125600
_cell_angle_alpha   90.00000000
_cell_angle_beta   90.00000000
_cell_angle_gamma   90.00000000
_symmetry_Int_Tables_number   1
_chemical_formula_structural   K2GeAsRh2
_chemical_formula_sum   'K2 Ge1 As1 Rh2'
_cell_volume   177.16550912
_cell_formula_units_Z   1
loop_
 _symmetry_equiv_pos_site_id
 _symmetry_equiv_pos_as_xyz
  1  'x, y, z'
loop_
 _atom_site_type_symbol
 _atom_site_label
 _atom_site_symmetry_multiplicity
 _atom_site_fract_x
 _atom_site_fract_y
 _atom_site_fract_z
 _atom_site_occupancy
  K  K0  1  0.500000  0.000000  0.299672  1
  K  K1  1  0.000000  0.500000  0.707437  1
  Ge  Ge2  1  0.000000  0.500000  0.128075  1
  As  As3  1  0.500000  0.000000  0.870648  1
  Rh  Rh4  1  0.000000  0.000000  0.997085  1
  Rh  Rh5  1  0.500000  0.500000  0.997085  1
