# generated using pymatgen
data_Tm5AsRuO12
_symmetry_space_group_name_H-M   'P 1'
_cell_length_a   6.74604912
_cell_length_b   6.74604980
_cell_length_c   7.10579407
_cell_angle_alpha   74.58700375
_cell_angle_beta   74.58700004
_cell_angle_gamma   51.32848026
_symmetry_Int_Tables_number   1
_chemical_formula_structural   Tm5AsRuO12
_chemical_formula_sum   'Tm5 As1 Ru1 O12'
_cell_volume   241.24995536
_cell_formula_units_Z   1
loop_
 _symmetry_equiv_pos_site_id
 _symmetry_equiv_pos_as_xyz
  1  'x, y, z'
loop_
 _atom_site_type_symbol
 _atom_site_label
 _atom_site_symmetry_multiplicity
 _atom_site_fract_x
 _atom_site_fract_y
 _atom_site_fract_z
 _atom_site_occupancy
  Tm  Tm0  1  0.802139  0.799536  0.360730  1
  Tm  Tm1  1  0.200464  0.197861  0.639270  1
  Tm  Tm2  1  0.194244  0.191922  0.169318  1
  Tm  Tm3  1  0.808078  0.805756  0.830682  1
  Tm  Tm4  1  0.509231  0.490769  0.500000  1
  As  As5  1  0.741392  0.258608  0.000000  1
  Ru  Ru6  1  0.250951  0.749049  0.000000  1
  O  O7  1  0.402875  0.932345  0.916453  1
  O  O8  1  0.067655  0.597125  0.083547  1
  O  O9  1  0.599949  0.080227  0.082934  1
  O  O10  1  0.919773  0.400051  0.917066  1
  O  O11  1  0.601259  0.092940  0.572714  1
  O  O12  1  0.907060  0.398741  0.427286  1
  O  O13  1  0.405994  0.896611  0.425139  1
  O  O14  1  0.978980  0.020450  0.816676  1
  O  O15  1  0.979550  0.021020  0.183324  1
  O  O16  1  0.512742  0.485725  0.820093  1
  O  O17  1  0.514275  0.487258  0.179907  1
  O  O18  1  0.103389  0.594006  0.574861  1
