# generated using pymatgen
data_Dy4CuRu7
_symmetry_space_group_name_H-M   'P 1'
_cell_length_a   5.28157028
_cell_length_b   5.30784816
_cell_length_c   8.84198400
_cell_angle_alpha   90.00000000
_cell_angle_beta   90.00000000
_cell_angle_gamma   120.16474116
_symmetry_Int_Tables_number   1
_chemical_formula_structural   Dy4CuRu7
_chemical_formula_sum   'Dy4 Cu1 Ru7'
_cell_volume   214.30809087
_cell_formula_units_Z   1
loop_
 _symmetry_equiv_pos_site_id
 _symmetry_equiv_pos_as_xyz
  1  'x, y, z'
loop_
 _atom_site_type_symbol
 _atom_site_label
 _atom_site_symmetry_multiplicity
 _atom_site_fract_x
 _atom_site_fract_y
 _atom_site_fract_z
 _atom_site_occupancy
  Dy  Dy0  1  0.342250  0.671126  0.433420  1
  Dy  Dy1  1  0.669315  0.334657  0.565498  1
  Dy  Dy2  1  0.669315  0.334657  0.934502  1
  Dy  Dy3  1  0.342250  0.671126  0.066580  1
  Cu  Cu4  1  0.662762  0.831381  0.750000  1
  Ru  Ru5  1  0.019517  0.009759  0.501140  1
  Ru  Ru6  1  0.019517  0.009759  0.998860  1
  Ru  Ru7  1  0.821478  0.176627  0.250000  1
  Ru  Ru8  1  0.821478  0.644852  0.250000  1
  Ru  Ru9  1  0.313376  0.156689  0.250000  1
  Ru  Ru10  1  0.159370  0.817537  0.750000  1
  Ru  Ru11  1  0.159370  0.341833  0.750000  1
