# generated using pymatgen
data_Tb17(ThRu4)3
_symmetry_space_group_name_H-M   'P 1'
_cell_length_a   10.98388285
_cell_length_b   10.86911670
_cell_length_c   6.41152222
_cell_angle_alpha   90.07144825
_cell_angle_beta   89.70860867
_cell_angle_gamma   89.94339199
_symmetry_Int_Tables_number   1
_chemical_formula_structural   Tb17(ThRu4)3
_chemical_formula_sum   'Tb17 Th3 Ru12'
_cell_volume   765.42937757
_cell_formula_units_Z   1
loop_
 _symmetry_equiv_pos_site_id
 _symmetry_equiv_pos_as_xyz
  1  'x, y, z'
loop_
 _atom_site_type_symbol
 _atom_site_label
 _atom_site_symmetry_multiplicity
 _atom_site_fract_x
 _atom_site_fract_y
 _atom_site_fract_z
 _atom_site_occupancy
  Tb  Tb0  1  0.707625  0.909599  0.377171  1
  Tb  Tb1  1  0.590603  0.786841  0.880805  1
  Tb  Tb2  1  0.591069  0.209859  0.379878  1
  Tb  Tb3  1  0.416450  0.787311  0.379479  1
  Tb  Tb4  1  0.410990  0.213246  0.878940  1
  Tb  Tb5  1  0.206207  0.414436  0.619718  1
  Tb  Tb6  1  0.206217  0.587728  0.121230  1
  Tb  Tb7  1  0.792011  0.414374  0.120420  1
  Tb  Tb8  1  0.793555  0.587164  0.621304  1
  Tb  Tb9  1  0.912597  0.707127  0.119216  1
  Tb  Tb10  1  0.915202  0.294575  0.617175  1
  Tb  Tb11  1  0.084180  0.705721  0.619365  1
  Tb  Tb12  1  0.085012  0.295512  0.114733  1
  Tb  Tb13  1  0.995561  0.997649  0.495893  1
  Tb  Tb14  1  0.001153  0.001158  0.996819  1
  Tb  Tb15  1  0.499487  0.499234  0.009139  1
  Tb  Tb16  1  0.501392  0.498398  0.509018  1
  Th  Th17  1  0.291803  0.092587  0.379722  1
  Th  Th18  1  0.292906  0.906547  0.879313  1
  Th  Th19  1  0.707870  0.090409  0.880477  1
  Ru  Ru20  1  0.844194  0.151643  0.237765  1
  Ru  Ru21  1  0.841395  0.854884  0.755299  1
  Ru  Ru22  1  0.158852  0.145249  0.739056  1
  Ru  Ru23  1  0.160066  0.854660  0.244815  1
  Ru  Ru24  1  0.654773  0.341377  0.757526  1
  Ru  Ru25  1  0.653643  0.648911  0.254495  1
  Ru  Ru26  1  0.345621  0.343412  0.259846  1
  Ru  Ru27  1  0.346944  0.657801  0.758161  1
  Ru  Ru28  1  0.495795  0.000840  0.120084  1
  Ru  Ru29  1  0.498178  0.999841  0.626781  1
  Ru  Ru30  1  0.999635  0.500959  0.873563  1
  Ru  Ru31  1  0.999014  0.500947  0.372790  1
