# generated using pymatgen
data_LiTa4(NbB4)5
_symmetry_space_group_name_H-M   'P 1'
_cell_length_a   6.19470348
_cell_length_b   7.03904376
_cell_length_c   7.33610580
_cell_angle_alpha   93.50951475
_cell_angle_beta   102.08715563
_cell_angle_gamma   116.17904340
_symmetry_Int_Tables_number   1
_chemical_formula_structural   LiTa4(NbB4)5
_chemical_formula_sum   'Li1 Ta4 Nb5 B20'
_cell_volume   276.37713165
_cell_formula_units_Z   1
loop_
 _symmetry_equiv_pos_site_id
 _symmetry_equiv_pos_as_xyz
  1  'x, y, z'
loop_
 _atom_site_type_symbol
 _atom_site_label
 _atom_site_symmetry_multiplicity
 _atom_site_fract_x
 _atom_site_fract_y
 _atom_site_fract_z
 _atom_site_occupancy
  Li  Li0  1  0.999760  0.999810  0.000150  1
  Ta  Ta1  1  0.500184  0.000272  0.000312  1
  Ta  Ta2  1  0.498011  0.399436  0.199164  1
  Ta  Ta3  1  0.000694  0.203151  0.601193  1
  Ta  Ta4  1  0.000324  0.602459  0.800291  1
  Nb  Nb5  1  0.499484  0.799525  0.399859  1
  Nb  Nb6  1  0.999454  0.397304  0.199857  1
  Nb  Nb7  1  0.500700  0.199883  0.599938  1
  Nb  Nb8  1  0.999356  0.796857  0.398860  1
  Nb  Nb9  1  0.502126  0.600900  0.800654  1
  B  B10  1  0.328735  0.228920  0.870250  1
  B  B11  1  0.333454  0.633562  0.066007  1
  B  B12  1  0.165168  0.362249  0.935817  1
  B  B13  1  0.329151  0.033986  0.260642  1
  B  B14  1  0.164918  0.770849  0.128759  1
  B  B15  1  0.835205  0.230352  0.868982  1
  B  B16  1  0.165291  0.164886  0.328640  1
  B  B17  1  0.835250  0.637755  0.063288  1
  B  B18  1  0.332456  0.431607  0.465282  1
  B  B19  1  0.666490  0.366405  0.933840  1
  B  B20  1  0.834333  0.032960  0.262027  1
  B  B21  1  0.670451  0.770378  0.130400  1
  B  B22  1  0.334279  0.834447  0.668653  1
  B  B23  1  0.166852  0.566735  0.534359  1
  B  B24  1  0.665482  0.165448  0.332251  1
  B  B25  1  0.832345  0.432237  0.467058  1
  B  B26  1  0.165044  0.966446  0.739167  1
  B  B27  1  0.836048  0.835882  0.671669  1
  B  B28  1  0.667404  0.567818  0.534386  1
  B  B29  1  0.671551  0.967480  0.738244  1
