# generated using pymatgen
data_Rb(MnSe2)12
_symmetry_space_group_name_H-M   'P 1'
_cell_length_a   10.92297733
_cell_length_b   10.99164661
_cell_length_c   10.51712400
_cell_angle_alpha   108.90344476
_cell_angle_beta   109.03451255
_cell_angle_gamma   67.10592210
_symmetry_Int_Tables_number   1
_chemical_formula_structural   Rb(MnSe2)12
_chemical_formula_sum   'Rb1 Mn12 Se24'
_cell_volume   1071.09658297
_cell_formula_units_Z   1
loop_
 _symmetry_equiv_pos_site_id
 _symmetry_equiv_pos_as_xyz
  1  'x, y, z'
loop_
 _atom_site_type_symbol
 _atom_site_label
 _atom_site_symmetry_multiplicity
 _atom_site_fract_x
 _atom_site_fract_y
 _atom_site_fract_z
 _atom_site_occupancy
  Rb  Rb0  1  0.000000  0.500000  0.000000  1
  Mn  Mn1  1  0.497415  0.500106  0.665700  1
  Mn  Mn2  1  0.998146  0.998488  0.664374  1
  Mn  Mn3  1  0.744829  0.244584  0.829472  1
  Mn  Mn4  1  0.251898  0.754806  0.834680  1
  Mn  Mn5  1  0.500000  0.500000  0.000000  1
  Mn  Mn6  1  0.000000  0.000000  0.000000  1
  Mn  Mn7  1  0.748102  0.245194  0.165320  1
  Mn  Mn8  1  0.255171  0.755416  0.170528  1
  Mn  Mn9  1  0.502585  0.499894  0.334300  1
  Mn  Mn10  1  0.001854  0.001512  0.335626  1
  Mn  Mn11  1  0.746734  0.245139  0.496422  1
  Mn  Mn12  1  0.253266  0.754861  0.503578  1
  Se  Se13  1  0.492473  0.333621  0.774836  1
  Se  Se14  1  0.999126  0.832165  0.776645  1
  Se  Se15  1  0.746091  0.078348  0.941296  1
  Se  Se16  1  0.249193  0.588770  0.944719  1
  Se  Se17  1  0.749306  0.411364  0.720172  1
  Se  Se18  1  0.252446  0.921434  0.725754  1
  Se  Se19  1  0.494844  0.334005  0.109266  1
  Se  Se20  1  0.001153  0.835483  0.112356  1
  Se  Se21  1  0.998847  0.164517  0.887644  1
  Se  Se22  1  0.505156  0.665995  0.890734  1
  Se  Se23  1  0.250694  0.588636  0.279828  1
  Se  Se24  1  0.747554  0.078566  0.274246  1
  Se  Se25  1  0.750807  0.411230  0.055281  1
  Se  Se26  1  0.253909  0.921652  0.058704  1
  Se  Se27  1  0.493645  0.333952  0.440691  1
  Se  Se28  1  0.000016  0.832765  0.442144  1
  Se  Se29  1  0.000874  0.167835  0.223355  1
  Se  Se30  1  0.507527  0.666379  0.225164  1
  Se  Se31  1  0.246344  0.588203  0.610280  1
  Se  Se32  1  0.744384  0.078116  0.605757  1
  Se  Se33  1  0.753656  0.411797  0.389720  1
  Se  Se34  1  0.255616  0.921884  0.394243  1
  Se  Se35  1  0.999984  0.167235  0.557856  1
  Se  Se36  1  0.506355  0.666048  0.559309  1
