# generated using pymatgen
data_ErU3(TaN2)4
_symmetry_space_group_name_H-M   'P 1'
_cell_length_a   3.25115800
_cell_length_b   5.66685332
_cell_length_c   10.94385264
_cell_angle_alpha   90.03893381
_cell_angle_beta   90.00000000
_cell_angle_gamma   90.00000000
_symmetry_Int_Tables_number   1
_chemical_formula_structural   ErU3(TaN2)4
_chemical_formula_sum   'Er1 U3 Ta4 N8'
_cell_volume   201.62769439
_cell_formula_units_Z   1
loop_
 _symmetry_equiv_pos_site_id
 _symmetry_equiv_pos_as_xyz
  1  'x, y, z'
loop_
 _atom_site_type_symbol
 _atom_site_label
 _atom_site_symmetry_multiplicity
 _atom_site_fract_x
 _atom_site_fract_y
 _atom_site_fract_z
 _atom_site_occupancy
  Er  Er0  1  0.250000  0.578116  0.856225  1
  U  U1  1  0.750000  0.422500  0.139345  1
  U  U2  1  0.750000  0.922437  0.357407  1
  U  U3  1  0.250000  0.080410  0.643618  1
  Ta  Ta4  1  0.250000  0.921910  0.102154  1
  Ta  Ta5  1  0.750000  0.073187  0.899823  1
  Ta  Ta6  1  0.750000  0.577827  0.603923  1
  Ta  Ta7  1  0.250000  0.424404  0.397652  1
  N  N8  1  0.250000  0.661700  0.245277  1
  N  N9  1  0.750000  0.334615  0.754034  1
  N  N10  1  0.750000  0.841014  0.744588  1
  N  N11  1  0.250000  0.162027  0.254969  1
  N  N12  1  0.250000  0.758062  0.506116  1
  N  N13  1  0.750000  0.242777  0.495519  1
  N  N14  1  0.750000  0.737946  0.003493  1
  N  N15  1  0.250000  0.261069  0.995858  1
