# generated using pymatgen
data_Nd3Y2(In2Pt)2
_symmetry_space_group_name_H-M   'P 1'
_cell_length_a   3.76811600
_cell_length_b   8.28235674
_cell_length_c   18.42381569
_cell_angle_alpha   89.78395767
_cell_angle_beta   90.00000000
_cell_angle_gamma   90.00000000
_symmetry_Int_Tables_number   1
_chemical_formula_structural   Nd3Y2(In2Pt)2
_chemical_formula_sum   'Nd6 Y4 In8 Pt4'
_cell_volume   574.98258324
_cell_formula_units_Z   2
loop_
 _symmetry_equiv_pos_site_id
 _symmetry_equiv_pos_as_xyz
  1  'x, y, z'
loop_
 _atom_site_type_symbol
 _atom_site_label
 _atom_site_symmetry_multiplicity
 _atom_site_fract_x
 _atom_site_fract_y
 _atom_site_fract_z
 _atom_site_occupancy
  Nd  Nd0  1  0.000000  0.239719  0.215442  1
  Nd  Nd1  1  0.000000  0.760368  0.784585  1
  Nd  Nd2  1  0.000000  0.260321  0.715452  1
  Nd  Nd3  1  0.000000  0.739764  0.284554  1
  Nd  Nd4  1  0.000000  0.000004  0.999977  1
  Nd  Nd5  1  0.000000  0.499995  0.500021  1
  Y  Y6  1  0.000000  0.116029  0.413976  1
  Y  Y7  1  0.000000  0.883912  0.585974  1
  Y  Y8  1  0.000000  0.383902  0.914086  1
  Y  Y9  1  0.000000  0.616038  0.085948  1
  In  In10  1  0.500000  0.416751  0.349676  1
  In  In11  1  0.500000  0.583311  0.650316  1
  In  In12  1  0.500000  0.083530  0.849744  1
  In  In13  1  0.500000  0.916659  0.150269  1
  In  In14  1  0.500000  0.301869  0.063219  1
  In  In15  1  0.500000  0.697931  0.936871  1
  In  In16  1  0.500000  0.197953  0.563133  1
  In  In17  1  0.500000  0.801940  0.436799  1
  Pt  Pt18  1  0.500000  0.026811  0.304611  1
  Pt  Pt19  1  0.500000  0.973195  0.695327  1
  Pt  Pt20  1  0.500000  0.473116  0.804702  1
  Pt  Pt21  1  0.500000  0.526882  0.195316  1
