# generated using pymatgen
data_Sc2FeOs2Ru
_symmetry_space_group_name_H-M   'P 1'
_cell_length_a   5.10359858
_cell_length_b   5.03522964
_cell_length_c   8.65456600
_cell_angle_alpha   90.00000000
_cell_angle_beta   90.00000000
_cell_angle_gamma   119.55785344
_symmetry_Int_Tables_number   1
_chemical_formula_structural   Sc2FeOs2Ru
_chemical_formula_sum   'Sc4 Fe2 Os4 Ru2'
_cell_volume   193.45923416
_cell_formula_units_Z   2
loop_
 _symmetry_equiv_pos_site_id
 _symmetry_equiv_pos_as_xyz
  1  'x, y, z'
loop_
 _atom_site_type_symbol
 _atom_site_label
 _atom_site_symmetry_multiplicity
 _atom_site_fract_x
 _atom_site_fract_y
 _atom_site_fract_z
 _atom_site_occupancy
  Sc  Sc0  1  0.331739  0.664179  0.065606  1
  Sc  Sc1  1  0.668261  0.332439  0.565606  1
  Sc  Sc2  1  0.331739  0.664179  0.434394  1
  Sc  Sc3  1  0.668261  0.332439  0.934394  1
  Fe  Fe4  1  0.833920  0.171183  0.250000  1
  Fe  Fe5  1  0.166080  0.337264  0.750000  1
  Os  Os6  1  0.832095  0.661032  0.250000  1
  Os  Os7  1  0.167905  0.828939  0.750000  1
  Os  Os8  1  0.650525  0.826465  0.750000  1
  Os  Os9  1  0.349475  0.175940  0.250000  1
  Ru  Ru10  1  0.000000  0.002970  0.500000  1
  Ru  Ru11  1  0.000000  0.002970  0.000000  1
