# generated using pymatgen
data_Mg3Zr2(ReTc)12
_symmetry_space_group_name_H-M   'P 1'
_cell_length_a   8.43370038
_cell_length_b   8.43370065
_cell_length_c   8.41173162
_cell_angle_alpha   109.51751167
_cell_angle_beta   109.51750636
_cell_angle_gamma   109.48443328
_symmetry_Int_Tables_number   1
_chemical_formula_structural   Mg3Zr2(ReTc)12
_chemical_formula_sum   'Mg3 Zr2 Re12 Tc12'
_cell_volume   459.97213687
_cell_formula_units_Z   1
loop_
 _symmetry_equiv_pos_site_id
 _symmetry_equiv_pos_as_xyz
  1  'x, y, z'
loop_
 _atom_site_type_symbol
 _atom_site_label
 _atom_site_symmetry_multiplicity
 _atom_site_fract_x
 _atom_site_fract_y
 _atom_site_fract_z
 _atom_site_occupancy
  Mg  Mg0  1  0.996215  0.996215  0.000000  1
  Mg  Mg1  1  0.635226  0.999817  0.000000  1
  Mg  Mg2  1  0.999817  0.635226  0.000000  1
  Zr  Zr3  1  0.000856  0.000856  0.635119  1
  Zr  Zr4  1  0.365738  0.365738  0.364881  1
  Re  Re5  1  0.379005  0.193904  0.000000  1
  Re  Re6  1  0.186355  0.807220  0.810222  1
  Re  Re7  1  0.376132  0.996998  0.189778  1
  Re  Re8  1  0.193904  0.379005  0.000000  1
  Re  Re9  1  0.996998  0.376132  0.189778  1
  Re  Re10  1  0.807220  0.186355  0.810222  1
  Re  Re11  1  0.810074  0.810074  0.184286  1
  Re  Re12  1  0.997117  0.192540  0.374062  1
  Re  Re13  1  0.192540  0.997117  0.374062  1
  Re  Re14  1  0.625790  0.625790  0.815714  1
  Re  Re15  1  0.818477  0.623054  0.625938  1
  Re  Re16  1  0.623054  0.818477  0.625938  1
  Tc  Tc17  1  0.397001  0.676308  0.000000  1
  Tc  Tc18  1  0.721315  0.323204  0.325818  1
  Tc  Tc19  1  0.395498  0.997385  0.674182  1
  Tc  Tc20  1  0.676308  0.397001  0.000000  1
  Tc  Tc21  1  0.997385  0.395498  0.674182  1
  Tc  Tc22  1  0.323204  0.721315  0.325818  1
  Tc  Tc23  1  0.324273  0.324273  0.720237  1
  Tc  Tc24  1  0.997302  0.675283  0.394354  1
  Tc  Tc25  1  0.675283  0.997302  0.394354  1
  Tc  Tc26  1  0.604035  0.604035  0.279763  1
  Tc  Tc27  1  0.280930  0.602948  0.605646  1
  Tc  Tc28  1  0.602948  0.280930  0.605646  1
