# generated using pymatgen
data_Nd2SiNiCl
_symmetry_space_group_name_H-M   'P 1'
_cell_length_a   4.09003800
_cell_length_b   4.09003593
_cell_length_c   7.90780300
_cell_angle_alpha   90.00000000
_cell_angle_beta   90.00000000
_cell_angle_gamma   120.00000055
_symmetry_Int_Tables_number   1
_chemical_formula_structural   Nd2SiNiCl
_chemical_formula_sum   'Nd2 Si1 Ni1 Cl1'
_cell_volume   114.56209244
_cell_formula_units_Z   1
loop_
 _symmetry_equiv_pos_site_id
 _symmetry_equiv_pos_as_xyz
  1  'x, y, z'
loop_
 _atom_site_type_symbol
 _atom_site_label
 _atom_site_symmetry_multiplicity
 _atom_site_fract_x
 _atom_site_fract_y
 _atom_site_fract_z
 _atom_site_occupancy
  Nd  Nd0  1  0.000000  0.000000  0.770252  1
  Nd  Nd1  1  0.000000  0.000000  0.237530  1
  Si  Si2  1  0.333333  0.666667  0.011698  1
  Ni  Ni3  1  0.666667  0.333333  0.984028  1
  Cl  Cl4  1  0.666667  0.333333  0.496494  1
