# generated using pymatgen
data_Er8Tm2(GaSb)3
_symmetry_space_group_name_H-M   'P 1'
_cell_length_a   8.61849121
_cell_length_b   8.63291752
_cell_length_c   6.31741900
_cell_angle_alpha   89.99661518
_cell_angle_beta   90.01262456
_cell_angle_gamma   120.05735773
_symmetry_Int_Tables_number   1
_chemical_formula_structural   Er8Tm2(GaSb)3
_chemical_formula_sum   'Er8 Tm2 Ga3 Sb3'
_cell_volume   406.82519008
_cell_formula_units_Z   1
loop_
 _symmetry_equiv_pos_site_id
 _symmetry_equiv_pos_as_xyz
  1  'x, y, z'
loop_
 _atom_site_type_symbol
 _atom_site_label
 _atom_site_symmetry_multiplicity
 _atom_site_fract_x
 _atom_site_fract_y
 _atom_site_fract_z
 _atom_site_occupancy
  Er  Er0  1  0.333918  0.683686  0.003352  1
  Er  Er1  1  0.666000  0.322546  0.496769  1
  Er  Er2  1  0.232942  0.987114  0.250065  1
  Er  Er3  1  0.757983  0.001377  0.750009  1
  Er  Er4  1  0.985665  0.233881  0.250058  1
  Er  Er5  1  0.764139  0.764446  0.250064  1
  Er  Er6  1  0.244202  0.230708  0.750129  1
  Er  Er7  1  0.014535  0.771030  0.749835  1
  Tm  Tm8  1  0.665978  0.321784  0.003288  1
  Tm  Tm9  1  0.333866  0.684713  0.496677  1
  Ga  Ga10  1  0.602676  0.998735  0.250061  1
  Ga  Ga11  1  0.401776  0.004489  0.750084  1
  Ga  Ga12  1  0.993878  0.600640  0.249801  1
  Sb  Sb13  1  0.388164  0.392725  0.250057  1
  Sb  Sb14  1  0.608096  0.605422  0.749999  1
  Sb  Sb15  1  0.006184  0.396703  0.749749  1
