# generated using pymatgen
data_Gd3Zn3Ag2Ir
_symmetry_space_group_name_H-M   'P 1'
_cell_length_a   7.46313000
_cell_length_b   7.46312935
_cell_length_c   3.78934800
_cell_angle_alpha   90.00000000
_cell_angle_beta   90.00000000
_cell_angle_gamma   119.99999401
_symmetry_Int_Tables_number   1
_chemical_formula_structural   Gd3Zn3Ag2Ir
_chemical_formula_sum   'Gd3 Zn3 Ag2 Ir1'
_cell_volume   182.78355703
_cell_formula_units_Z   1
loop_
 _symmetry_equiv_pos_site_id
 _symmetry_equiv_pos_as_xyz
  1  'x, y, z'
loop_
 _atom_site_type_symbol
 _atom_site_label
 _atom_site_symmetry_multiplicity
 _atom_site_fract_x
 _atom_site_fract_y
 _atom_site_fract_z
 _atom_site_occupancy
  Gd  Gd0  1  0.416294  0.395439  0.000000  1
  Gd  Gd1  1  0.604561  0.020855  0.000000  1
  Gd  Gd2  1  0.979145  0.583706  0.000000  1
  Zn  Zn3  1  0.736353  0.733309  0.500000  1
  Zn  Zn4  1  0.266691  0.003044  0.500000  1
  Zn  Zn5  1  0.996956  0.263647  0.500000  1
  Ag  Ag6  1  0.000000  0.000000  0.000000  1
  Ag  Ag7  1  0.333333  0.666667  0.500000  1
  Ir  Ir8  1  0.666667  0.333333  0.500000  1
