# generated using pymatgen
data_LaSc2Al7Cu2
_symmetry_space_group_name_H-M   'P 1'
_cell_length_a   9.03568525
_cell_length_b   9.03568584
_cell_length_c   9.03568623
_cell_angle_alpha   34.99395479
_cell_angle_beta   34.99394734
_cell_angle_gamma   34.99395412
_symmetry_Int_Tables_number   1
_chemical_formula_structural   LaSc2Al7Cu2
_chemical_formula_sum   'La1 Sc2 Al7 Cu2'
_cell_volume   216.63266664
_cell_formula_units_Z   1
loop_
 _symmetry_equiv_pos_site_id
 _symmetry_equiv_pos_as_xyz
  1  'x, y, z'
loop_
 _atom_site_type_symbol
 _atom_site_label
 _atom_site_symmetry_multiplicity
 _atom_site_fract_x
 _atom_site_fract_y
 _atom_site_fract_z
 _atom_site_occupancy
  La  La0  1  0.000000  0.000000  0.000000  1
  Sc  Sc1  1  0.856898  0.856898  0.856898  1
  Sc  Sc2  1  0.143102  0.143102  0.143102  1
  Al  Al3  1  0.414318  0.414318  0.924371  1
  Al  Al4  1  0.924371  0.414318  0.414318  1
  Al  Al5  1  0.414318  0.924371  0.414318  1
  Al  Al6  1  0.500000  0.500000  0.500000  1
  Al  Al7  1  0.585682  0.075629  0.585682  1
  Al  Al8  1  0.075629  0.585682  0.585682  1
  Al  Al9  1  0.585682  0.585682  0.075629  1
  Cu  Cu10  1  0.664842  0.664842  0.664842  1
  Cu  Cu11  1  0.335158  0.335158  0.335158  1
