# generated using pymatgen
data_TbDy2TmCdNi
_symmetry_space_group_name_H-M   'P 1'
_cell_length_a   9.50540671
_cell_length_b   9.50540597
_cell_length_c   9.50828600
_cell_angle_alpha   59.98997671
_cell_angle_beta   59.98997928
_cell_angle_gamma   60.02004603
_symmetry_Int_Tables_number   1
_chemical_formula_structural   TbDy2TmCdNi
_chemical_formula_sum   'Tb4 Dy8 Tm4 Cd4 Ni4'
_cell_volume   607.47518135
_cell_formula_units_Z   4
loop_
 _symmetry_equiv_pos_site_id
 _symmetry_equiv_pos_as_xyz
  1  'x, y, z'
loop_
 _atom_site_type_symbol
 _atom_site_label
 _atom_site_symmetry_multiplicity
 _atom_site_fract_x
 _atom_site_fract_y
 _atom_site_fract_z
 _atom_site_occupancy
  Tb  Tb0  1  0.599206  0.599206  0.598560  1
  Tb  Tb1  1  0.599206  0.599206  0.203029  1
  Tb  Tb2  1  0.598560  0.203029  0.599206  1
  Tb  Tb3  1  0.203029  0.598560  0.599206  1
  Dy  Dy4  1  0.437333  0.437333  0.062667  1
  Dy  Dy5  1  0.062667  0.062667  0.437333  1
  Dy  Dy6  1  0.186094  0.813906  0.813906  1
  Dy  Dy7  1  0.813906  0.186094  0.186094  1
  Dy  Dy8  1  0.813906  0.186094  0.813906  1
  Dy  Dy9  1  0.186094  0.813906  0.186094  1
  Dy  Dy10  1  0.813884  0.813884  0.186116  1
  Dy  Dy11  1  0.186116  0.186116  0.813884  1
  Tm  Tm12  1  0.062065  0.437935  0.437935  1
  Tm  Tm13  1  0.437935  0.062065  0.062065  1
  Tm  Tm14  1  0.437935  0.062065  0.437935  1
  Tm  Tm15  1  0.062065  0.437935  0.062065  1
  Cd  Cd16  1  0.831107  0.831107  0.831515  1
  Cd  Cd17  1  0.831107  0.831107  0.506272  1
  Cd  Cd18  1  0.831515  0.506272  0.831107  1
  Cd  Cd19  1  0.506272  0.831515  0.831107  1
  Ni  Ni20  1  0.391908  0.391908  0.392279  1
  Ni  Ni21  1  0.391908  0.391908  0.823903  1
  Ni  Ni22  1  0.392279  0.823903  0.391908  1
  Ni  Ni23  1  0.823903  0.392279  0.391908  1
