# generated using pymatgen
data_Th10Sn3HgBi4
_symmetry_space_group_name_H-M   'P 1'
_cell_length_a   9.72365709
_cell_length_b   9.73711049
_cell_length_c   6.62021906
_cell_angle_alpha   89.99229585
_cell_angle_beta   90.01542374
_cell_angle_gamma   119.95429528
_symmetry_Int_Tables_number   1
_chemical_formula_structural   Th10Sn3HgBi4
_chemical_formula_sum   'Th10 Sn3 Hg1 Bi4'
_cell_volume   543.07841255
_cell_formula_units_Z   1
loop_
 _symmetry_equiv_pos_site_id
 _symmetry_equiv_pos_as_xyz
  1  'x, y, z'
loop_
 _atom_site_type_symbol
 _atom_site_label
 _atom_site_symmetry_multiplicity
 _atom_site_fract_x
 _atom_site_fract_y
 _atom_site_fract_z
 _atom_site_occupancy
  Th  Th0  1  0.999808  0.719043  0.748885  1
  Th  Th1  1  0.280765  0.280957  0.748885  1
  Th  Th2  1  0.331526  0.664662  0.497818  1
  Th  Th3  1  0.666865  0.335338  0.497818  1
  Th  Th4  1  0.720408  0.717421  0.251122  1
  Th  Th5  1  0.720513  0.000000  0.748830  1
  Th  Th6  1  0.002987  0.282579  0.251122  1
  Th  Th7  1  0.278818  0.000000  0.250916  1
  Th  Th8  1  0.331653  0.664626  0.001942  1
  Th  Th9  1  0.667028  0.335374  0.001942  1
  Sn  Sn10  1  0.377794  0.377666  0.248192  1
  Sn  Sn11  1  0.000128  0.622334  0.248192  1
  Sn  Sn12  1  0.999887  0.000000  0.499720  1
  Hg  Hg13  1  0.000169  0.000000  0.000819  1
  Bi  Bi14  1  0.621814  0.621636  0.751888  1
  Bi  Bi15  1  0.000179  0.378364  0.751888  1
  Bi  Bi16  1  0.378069  0.000000  0.751932  1
  Bi  Bi17  1  0.621589  0.000000  0.248087  1
