# generated using pymatgen
data_CeNd3Hg2Rh3
_symmetry_space_group_name_H-M   'P 1'
_cell_length_a   7.66865200
_cell_length_b   7.89294332
_cell_length_c   4.01418600
_cell_angle_alpha   90.00000000
_cell_angle_beta   90.00000000
_cell_angle_gamma   119.06436082
_symmetry_Int_Tables_number   1
_chemical_formula_structural   CeNd3Hg2Rh3
_chemical_formula_sum   'Ce1 Nd3 Hg2 Rh3'
_cell_volume   212.37529199
_cell_formula_units_Z   1
loop_
 _symmetry_equiv_pos_site_id
 _symmetry_equiv_pos_as_xyz
  1  'x, y, z'
loop_
 _atom_site_type_symbol
 _atom_site_label
 _atom_site_symmetry_multiplicity
 _atom_site_fract_x
 _atom_site_fract_y
 _atom_site_fract_z
 _atom_site_occupancy
  Ce  Ce0  1  0.255280  0.000000  0.000000  1
  Nd  Nd1  1  0.633780  0.000000  0.500000  1
  Nd  Nd2  1  0.409846  0.443844  0.500000  1
  Nd  Nd3  1  0.966001  0.556156  0.500000  1
  Hg  Hg4  1  0.747448  0.735464  0.000000  1
  Hg  Hg5  1  0.011985  0.264536  0.000000  1
  Rh  Rh6  1  0.024706  0.000000  0.500000  1
  Rh  Rh7  1  0.323789  0.696624  0.000000  1
  Rh  Rh8  1  0.627165  0.303376  0.000000  1
