# generated using pymatgen
data_Ho6Er6Co4TcBi
_symmetry_space_group_name_H-M   'P 1'
_cell_length_a   8.28273452
_cell_length_b   8.28093524
_cell_length_c   8.28093546
_cell_angle_alpha   110.52933339
_cell_angle_beta   111.59670798
_cell_angle_gamma   106.32592566
_symmetry_Int_Tables_number   1
_chemical_formula_structural   Ho6Er6Co4TcBi
_chemical_formula_sum   'Ho6 Er6 Co4 Tc1 Bi1'
_cell_volume   436.25724666
_cell_formula_units_Z   1
loop_
 _symmetry_equiv_pos_site_id
 _symmetry_equiv_pos_as_xyz
  1  'x, y, z'
loop_
 _atom_site_type_symbol
 _atom_site_label
 _atom_site_symmetry_multiplicity
 _atom_site_fract_x
 _atom_site_fract_y
 _atom_site_fract_z
 _atom_site_occupancy
  Ho  Ho0  1  0.282136  0.182310  0.464880  1
  Ho  Ho1  1  0.717864  0.817690  0.535120  1
  Ho  Ho2  1  0.282136  0.817255  0.099826  1
  Ho  Ho3  1  0.717864  0.182745  0.900174  1
  Ho  Ho4  1  0.618883  0.310265  0.308618  1
  Ho  Ho5  1  0.381117  0.689735  0.691382  1
  Er  Er6  1  0.001415  0.310265  0.691148  1
  Er  Er7  1  0.998585  0.689735  0.308852  1
  Er  Er8  1  0.214056  0.411157  0.196656  1
  Er  Er9  1  0.785944  0.588843  0.803344  1
  Er  Er10  1  0.214056  0.017400  0.802899  1
  Er  Er11  1  0.785944  0.982600  0.197101  1
  Co  Co12  1  0.000000  0.377650  0.377650  1
  Co  Co13  1  0.000000  0.622350  0.622350  1
  Co  Co14  1  0.388997  0.889118  0.499879  1
  Co  Co15  1  0.611003  0.110882  0.500121  1
  Tc  Tc16  1  0.000000  0.000000  0.000000  1
  Bi  Bi17  1  0.500000  0.500000  0.000000  1
