# generated using pymatgen
data_Er12TcIr2Pd
_symmetry_space_group_name_H-M   'P 1'
_cell_length_a   6.37789039
_cell_length_b   7.21732055
_cell_length_c   9.11125300
_cell_angle_alpha   90.00000000
_cell_angle_beta   90.00000000
_cell_angle_gamma   89.92800716
_symmetry_Int_Tables_number   1
_chemical_formula_structural   Er12TcIr2Pd
_chemical_formula_sum   'Er12 Tc1 Ir2 Pd1'
_cell_volume   419.40230129
_cell_formula_units_Z   1
loop_
 _symmetry_equiv_pos_site_id
 _symmetry_equiv_pos_as_xyz
  1  'x, y, z'
loop_
 _atom_site_type_symbol
 _atom_site_label
 _atom_site_symmetry_multiplicity
 _atom_site_fract_x
 _atom_site_fract_y
 _atom_site_fract_z
 _atom_site_occupancy
  Er  Er0  1  0.333322  0.673587  0.059157  1
  Er  Er1  1  0.177088  0.184282  0.441498  1
  Er  Er2  1  0.669947  0.321228  0.559872  1
  Er  Er3  1  0.821662  0.820946  0.935230  1
  Er  Er4  1  0.669947  0.321228  0.940128  1
  Er  Er5  1  0.821662  0.820946  0.564770  1
  Er  Er6  1  0.333322  0.673587  0.440843  1
  Er  Er7  1  0.177088  0.184282  0.058502  1
  Er  Er8  1  0.876946  0.530711  0.250000  1
  Er  Er9  1  0.619060  0.035713  0.250000  1
  Er  Er10  1  0.123087  0.464449  0.750000  1
  Er  Er11  1  0.371310  0.964989  0.750000  1
  Tc  Tc12  1  0.465702  0.387232  0.250000  1
  Ir  Ir13  1  0.959314  0.112083  0.750000  1
  Ir  Ir14  1  0.535964  0.613867  0.750000  1
  Pd  Pd15  1  0.044576  0.890870  0.250000  1
