# generated using pymatgen
data_Tb5YAl23VOs8
_symmetry_space_group_name_H-M   'P 1'
_cell_length_a   8.84685136
_cell_length_b   8.84685185
_cell_length_c   9.55434212
_cell_angle_alpha   90.01554764
_cell_angle_beta   89.98445108
_cell_angle_gamma   119.97110459
_symmetry_Int_Tables_number   1
_chemical_formula_structural   Tb5YAl23VOs8
_chemical_formula_sum   'Tb5 Y1 Al23 V1 Os8'
_cell_volume   647.79152735
_cell_formula_units_Z   1
loop_
 _symmetry_equiv_pos_site_id
 _symmetry_equiv_pos_as_xyz
  1  'x, y, z'
loop_
 _atom_site_type_symbol
 _atom_site_label
 _atom_site_symmetry_multiplicity
 _atom_site_fract_x
 _atom_site_fract_y
 _atom_site_fract_z
 _atom_site_occupancy
  Tb  Tb0  1  0.194928  0.390025  0.246989  1
  Tb  Tb1  1  0.807611  0.615136  0.750503  1
  Tb  Tb2  1  0.609975  0.805072  0.246989  1
  Tb  Tb3  1  0.384864  0.192389  0.750503  1
  Tb  Tb4  1  0.195101  0.804899  0.246986  1
  Y  Y5  1  0.807382  0.192618  0.750574  1
  Al  Al6  1  0.666865  0.333135  0.978056  1
  Al  Al7  1  0.666759  0.333241  0.518932  1
  Al  Al8  1  0.333300  0.666700  0.483720  1
  Al  Al9  1  0.162229  0.324488  0.575333  1
  Al  Al10  1  0.837031  0.674038  0.425341  1
  Al  Al11  1  0.675512  0.837771  0.575333  1
  Al  Al12  1  0.835566  0.671121  0.075985  1
  Al  Al13  1  0.325962  0.162969  0.425341  1
  Al  Al14  1  0.160526  0.321122  0.925930  1
  Al  Al15  1  0.162245  0.837755  0.575374  1
  Al  Al16  1  0.328879  0.164434  0.075985  1
  Al  Al17  1  0.836996  0.163004  0.425380  1
  Al  Al18  1  0.678878  0.839474  0.925930  1
  Al  Al19  1  0.835493  0.164507  0.075941  1
  Al  Al20  1  0.160594  0.839406  0.925871  1
  Al  Al21  1  0.562149  0.124243  0.252969  1
  Al  Al22  1  0.441505  0.882972  0.750887  1
  Al  Al23  1  0.875757  0.437851  0.252969  1
  Al  Al24  1  0.117028  0.558495  0.750887  1
  Al  Al25  1  0.562137  0.437863  0.253035  1
  Al  Al26  1  0.441376  0.558624  0.750831  1
  Al  Al27  1  0.000020  0.999980  0.250408  1
  Al  Al28  1  0.000024  0.999976  0.749525  1
  V  V29  1  0.333461  0.666539  0.982471  1
  Os  Os30  1  0.495214  0.990496  0.005100  1
  Os  Os31  1  0.009504  0.504786  0.005100  1
  Os  Os32  1  0.499337  0.998637  0.503115  1
  Os  Os33  1  0.495155  0.504845  0.005202  1
  Os  Os34  1  0.001363  0.500663  0.503115  1
  Os  Os35  1  0.499326  0.500674  0.503136  1
  Os  Os36  1  0.999983  0.000017  0.001029  1
  Os  Os37  1  0.999963  0.000037  0.499219  1
