# generated using pymatgen
data_PrNd3B4Cl5
_symmetry_space_group_name_H-M   'P 1'
_cell_length_a   10.58077876
_cell_length_b   10.58077885
_cell_length_c   9.40239735
_cell_angle_alpha   53.11080199
_cell_angle_beta   53.11080188
_cell_angle_gamma   23.36748702
_symmetry_Int_Tables_number   1
_chemical_formula_structural   PrNd3B4Cl5
_chemical_formula_sum   'Pr1 Nd3 B4 Cl5'
_cell_volume   329.86911058
_cell_formula_units_Z   1
loop_
 _symmetry_equiv_pos_site_id
 _symmetry_equiv_pos_as_xyz
  1  'x, y, z'
loop_
 _atom_site_type_symbol
 _atom_site_label
 _atom_site_symmetry_multiplicity
 _atom_site_fract_x
 _atom_site_fract_y
 _atom_site_fract_z
 _atom_site_occupancy
  Pr  Pr0  1  0.148642  0.148642  0.777934  1
  Nd  Nd1  1  0.517313  0.517313  0.236353  1
  Nd  Nd2  1  0.482469  0.482469  0.764026  1
  Nd  Nd3  1  0.852098  0.852098  0.220548  1
  B  B4  1  0.004945  0.004945  0.095046  1
  B  B5  1  0.686242  0.313107  0.000500  1
  B  B6  1  0.994308  0.994308  0.906034  1
  B  B7  1  0.313107  0.686242  0.000500  1
  Cl  Cl8  1  0.311267  0.311267  0.074359  1
  Cl  Cl9  1  0.999979  0.999979  0.500056  1
  Cl  Cl10  1  0.333249  0.333249  0.466393  1
  Cl  Cl11  1  0.667486  0.667486  0.530327  1
  Cl  Cl12  1  0.688895  0.688895  0.927923  1
