# generated using pymatgen
data_Zr5AsRh10
_symmetry_space_group_name_H-M   'P 1'
_cell_length_a   5.62982346
_cell_length_b   5.62982325
_cell_length_c   8.41056500
_cell_angle_alpha   90.00000000
_cell_angle_beta   90.00000000
_cell_angle_gamma   100.23792900
_symmetry_Int_Tables_number   1
_chemical_formula_structural   Zr5AsRh10
_chemical_formula_sum   'Zr5 As1 Rh10'
_cell_volume   262.32779194
_cell_formula_units_Z   1
loop_
 _symmetry_equiv_pos_site_id
 _symmetry_equiv_pos_as_xyz
  1  'x, y, z'
loop_
 _atom_site_type_symbol
 _atom_site_label
 _atom_site_symmetry_multiplicity
 _atom_site_fract_x
 _atom_site_fract_y
 _atom_site_fract_z
 _atom_site_occupancy
  Zr  Zr0  1  0.434960  0.434960  0.250000  1
  Zr  Zr1  1  0.794258  0.213595  0.500563  1
  Zr  Zr2  1  0.213595  0.794258  0.999437  1
  Zr  Zr3  1  0.213595  0.794258  0.500563  1
  Zr  Zr4  1  0.794258  0.213595  0.999437  1
  As  As5  1  0.535575  0.535575  0.750000  1
  Rh  Rh6  1  0.713532  0.713532  0.001419  1
  Rh  Rh7  1  0.713532  0.713532  0.498581  1
  Rh  Rh8  1  0.297003  0.297003  0.962240  1
  Rh  Rh9  1  0.297003  0.297003  0.537760  1
  Rh  Rh10  1  0.504439  0.987564  0.750000  1
  Rh  Rh11  1  0.514568  0.971997  0.250000  1
  Rh  Rh12  1  0.014470  0.014470  0.250000  1
  Rh  Rh13  1  0.999651  0.999651  0.750000  1
  Rh  Rh14  1  0.987564  0.504439  0.750000  1
  Rh  Rh15  1  0.971997  0.514568  0.250000  1
