# generated using pymatgen
data_Ca4Al18(IrAu)3
_symmetry_space_group_name_H-M   'P 1'
_cell_length_a   7.65725575
_cell_length_b   7.65725642
_cell_length_c   9.51099700
_cell_angle_alpha   89.93621128
_cell_angle_beta   89.93621127
_cell_angle_gamma   119.49519180
_symmetry_Int_Tables_number   1
_chemical_formula_structural   Ca4Al18(IrAu)3
_chemical_formula_sum   'Ca4 Al18 Ir3 Au3'
_cell_volume   485.38764878
_cell_formula_units_Z   1
loop_
 _symmetry_equiv_pos_site_id
 _symmetry_equiv_pos_as_xyz
  1  'x, y, z'
loop_
 _atom_site_type_symbol
 _atom_site_label
 _atom_site_symmetry_multiplicity
 _atom_site_fract_x
 _atom_site_fract_y
 _atom_site_fract_z
 _atom_site_occupancy
  Ca  Ca0  1  0.994689  0.673117  0.251239  1
  Ca  Ca1  1  0.999568  0.323003  0.749336  1
  Ca  Ca2  1  0.676997  0.000432  0.250664  1
  Ca  Ca3  1  0.326883  0.005311  0.748761  1
  Al  Al4  1  0.142044  0.140146  0.251111  1
  Al  Al5  1  0.859854  0.857956  0.748889  1
  Al  Al6  1  0.012247  0.345730  0.080934  1
  Al  Al7  1  0.009227  0.664976  0.918874  1
  Al  Al8  1  0.001625  0.654698  0.575735  1
  Al  Al9  1  0.345302  0.998375  0.424265  1
  Al  Al10  1  0.000170  0.345161  0.423509  1
  Al  Al11  1  0.654839  0.999830  0.576491  1
  Al  Al12  1  0.654270  0.987753  0.919066  1
  Al  Al13  1  0.335024  0.990773  0.081126  1
  Al  Al14  1  0.338948  0.339376  0.553361  1
  Al  Al15  1  0.660624  0.661052  0.446639  1
  Al  Al16  1  0.656685  0.664201  0.063074  1
  Al  Al17  1  0.335799  0.343315  0.936926  1
  Al  Al18  1  0.340589  0.554490  0.252067  1
  Al  Al19  1  0.659907  0.455010  0.742729  1
  Al  Al20  1  0.544990  0.340093  0.257271  1
  Al  Al21  1  0.445510  0.659411  0.747933  1
  Ir  Ir22  1  0.330041  0.669959  0.000000  1
  Ir  Ir23  1  0.329921  0.670079  0.500000  1
  Ir  Ir24  1  0.670791  0.329209  0.500000  1
  Au  Au25  1  0.673122  0.326878  0.000000  1
  Au  Au26  1  0.000046  0.999954  0.000000  1
  Au  Au27  1  0.000286  0.999714  0.500000  1
