# generated using pymatgen
data_Dy6Ho(TmPb2)3
_symmetry_space_group_name_H-M   'P 1'
_cell_length_a   6.57786200
_cell_length_b   9.04364644
_cell_length_c   9.04485202
_cell_angle_alpha   119.99577370
_cell_angle_beta   89.99996358
_cell_angle_gamma   89.99991155
_symmetry_Int_Tables_number   1
_chemical_formula_structural   Dy6Ho(TmPb2)3
_chemical_formula_sum   'Dy6 Ho1 Tm3 Pb6'
_cell_volume   465.99249734
_cell_formula_units_Z   1
loop_
 _symmetry_equiv_pos_site_id
 _symmetry_equiv_pos_as_xyz
  1  'x, y, z'
loop_
 _atom_site_type_symbol
 _atom_site_label
 _atom_site_symmetry_multiplicity
 _atom_site_fract_x
 _atom_site_fract_y
 _atom_site_fract_z
 _atom_site_occupancy
  Dy  Dy0  1  0.750049  0.238645  0.000038  1
  Dy  Dy1  1  0.750041  0.761333  0.761346  1
  Dy  Dy2  1  0.750043  0.999907  0.238615  1
  Dy  Dy3  1  0.249958  0.761394  0.000041  1
  Dy  Dy4  1  0.249954  0.238707  0.238616  1
  Dy  Dy5  1  0.249952  0.000013  0.761345  1
  Ho  Ho6  1  0.500003  0.333338  0.666722  1
  Tm  Tm7  1  0.500001  0.666613  0.333270  1
  Tm  Tm8  1  0.999999  0.666661  0.333274  1
  Tm  Tm9  1  0.999999  0.333386  0.666728  1
  Pb  Pb10  1  0.750116  0.605284  0.000142  1
  Pb  Pb11  1  0.750124  0.394808  0.394621  1
  Pb  Pb12  1  0.750125  0.999904  0.605237  1
  Pb  Pb13  1  0.249873  0.394861  0.000144  1
  Pb  Pb14  1  0.249882  0.605333  0.605237  1
  Pb  Pb15  1  0.249883  0.999812  0.394622  1
