# generated using pymatgen
data_NaPrPt3Rh
_symmetry_space_group_name_H-M   'P 1'
_cell_length_a   5.42992476
_cell_length_b   5.42827611
_cell_length_c   5.42992600
_cell_angle_alpha   59.98995732
_cell_angle_beta   60.00000462
_cell_angle_gamma   59.98995930
_symmetry_Int_Tables_number   1
_chemical_formula_structural   NaPrPt3Rh
_chemical_formula_sum   'Na1 Pr1 Pt3 Rh1'
_cell_volume   113.15369393
_cell_formula_units_Z   1
loop_
 _symmetry_equiv_pos_site_id
 _symmetry_equiv_pos_as_xyz
  1  'x, y, z'
loop_
 _atom_site_type_symbol
 _atom_site_label
 _atom_site_symmetry_multiplicity
 _atom_site_fract_x
 _atom_site_fract_y
 _atom_site_fract_z
 _atom_site_occupancy
  Na  Na0  1  0.750026  0.749921  0.750026  1
  Pr  Pr1  1  0.499901  0.500296  0.499901  1
  Pt  Pt2  1  0.124619  0.124664  0.626098  1
  Pt  Pt3  1  0.626098  0.124664  0.124619  1
  Pt  Pt4  1  0.124619  0.124664  0.124619  1
  Rh  Rh5  1  0.124737  0.625790  0.124737  1
