# generated using pymatgen
data_Li4Sm3YSi8
_symmetry_space_group_name_H-M   'P 1'
_cell_length_a   3.83452200
_cell_length_b   7.63932820
_cell_length_c   10.33476531
_cell_angle_alpha   89.99295202
_cell_angle_beta   90.00000000
_cell_angle_gamma   90.00000000
_symmetry_Int_Tables_number   1
_chemical_formula_structural   Li4Sm3YSi8
_chemical_formula_sum   'Li4 Sm3 Y1 Si8'
_cell_volume   302.73805606
_cell_formula_units_Z   1
loop_
 _symmetry_equiv_pos_site_id
 _symmetry_equiv_pos_as_xyz
  1  'x, y, z'
loop_
 _atom_site_type_symbol
 _atom_site_label
 _atom_site_symmetry_multiplicity
 _atom_site_fract_x
 _atom_site_fract_y
 _atom_site_fract_z
 _atom_site_occupancy
  Li  Li0  1  0.250000  0.992330  0.389701  1
  Li  Li1  1  0.750000  0.006551  0.610118  1
  Li  Li2  1  0.250000  0.493269  0.108379  1
  Li  Li3  1  0.750000  0.509328  0.890748  1
  Sm  Sm4  1  0.750000  0.861453  0.135517  1
  Sm  Sm5  1  0.250000  0.638654  0.635930  1
  Sm  Sm6  1  0.750000  0.359570  0.364769  1
  Y  Y7  1  0.250000  0.138010  0.864383  1
  Si  Si8  1  0.750000  0.271444  0.067128  1
  Si  Si9  1  0.250000  0.731463  0.930628  1
  Si  Si10  1  0.750000  0.770927  0.430539  1
  Si  Si11  1  0.250000  0.226096  0.571683  1
  Si  Si12  1  0.750000  0.841888  0.821734  1
  Si  Si13  1  0.250000  0.161352  0.176674  1
  Si  Si14  1  0.750000  0.337639  0.680362  1
  Si  Si15  1  0.250000  0.660024  0.321707  1
