# generated using pymatgen
data_Mn4GaGePd10
_symmetry_space_group_name_H-M   'P 1'
_cell_length_a   4.08146500
_cell_length_b   5.50903316
_cell_length_c   10.79676831
_cell_angle_alpha   89.97235365
_cell_angle_beta   90.00000000
_cell_angle_gamma   90.00000000
_symmetry_Int_Tables_number   1
_chemical_formula_structural   Mn4GaGePd10
_chemical_formula_sum   'Mn4 Ga1 Ge1 Pd10'
_cell_volume   242.76450862
_cell_formula_units_Z   1
loop_
 _symmetry_equiv_pos_site_id
 _symmetry_equiv_pos_as_xyz
  1  'x, y, z'
loop_
 _atom_site_type_symbol
 _atom_site_label
 _atom_site_symmetry_multiplicity
 _atom_site_fract_x
 _atom_site_fract_y
 _atom_site_fract_z
 _atom_site_occupancy
  Mn  Mn0  1  0.000000  0.823958  0.640857  1
  Mn  Mn1  1  0.000000  0.320709  0.862339  1
  Mn  Mn2  1  0.000000  0.176042  0.359143  1
  Mn  Mn3  1  0.000000  0.679291  0.137661  1
  Ga  Ga4  1  0.500000  0.000000  0.000000  1
  Ge  Ge5  1  0.500000  0.500000  0.500000  1
  Pd  Pd6  1  0.000000  0.811043  0.890594  1
  Pd  Pd7  1  0.000000  0.687082  0.392913  1
  Pd  Pd8  1  0.000000  0.312918  0.607087  1
  Pd  Pd9  1  0.500000  0.924904  0.240695  1
  Pd  Pd10  1  0.500000  0.425546  0.260539  1
  Pd  Pd11  1  0.500000  0.574454  0.739461  1
  Pd  Pd12  1  0.500000  0.075096  0.759305  1
  Pd  Pd13  1  0.500000  0.500000  0.000000  1
  Pd  Pd14  1  0.500000  0.000000  0.500000  1
  Pd  Pd15  1  0.000000  0.188957  0.109406  1
