# generated using pymatgen
data_TbEr9CoBi5
_symmetry_space_group_name_H-M   'P 1'
_cell_length_a   8.04532800
_cell_length_b   9.33677100
_cell_length_c   12.04155300
_cell_angle_alpha   90.00000000
_cell_angle_beta   90.00000000
_cell_angle_gamma   90.00000000
_symmetry_Int_Tables_number   1
_chemical_formula_structural   TbEr9CoBi5
_chemical_formula_sum   'Tb2 Er18 Co2 Bi10'
_cell_volume   904.52997458
_cell_formula_units_Z   2
loop_
 _symmetry_equiv_pos_site_id
 _symmetry_equiv_pos_as_xyz
  1  'x, y, z'
loop_
 _atom_site_type_symbol
 _atom_site_label
 _atom_site_symmetry_multiplicity
 _atom_site_fract_x
 _atom_site_fract_y
 _atom_site_fract_z
 _atom_site_occupancy
  Tb  Tb0  1  0.575322  0.500000  0.774405  1
  Tb  Tb1  1  0.424678  0.500000  0.274405  1
  Er  Er2  1  0.431935  0.176557  0.562218  1
  Er  Er3  1  0.568065  0.823443  0.062218  1
  Er  Er4  1  0.073267  0.728072  0.436478  1
  Er  Er5  1  0.926733  0.271928  0.936478  1
  Er  Er6  1  0.073267  0.271928  0.436478  1
  Er  Er7  1  0.926733  0.728072  0.936478  1
  Er  Er8  1  0.431935  0.823443  0.562218  1
  Er  Er9  1  0.568065  0.176557  0.062218  1
  Er  Er10  1  0.904943  0.000000  0.199673  1
  Er  Er11  1  0.095057  0.000000  0.699673  1
  Er  Er12  1  0.258098  0.500000  0.993747  1
  Er  Er13  1  0.741902  0.500000  0.493747  1
  Er  Er14  1  0.195187  0.000000  0.996322  1
  Er  Er15  1  0.804813  0.000000  0.496322  1
  Er  Er16  1  0.088749  0.500000  0.718954  1
  Er  Er17  1  0.911251  0.500000  0.218954  1
  Er  Er18  1  0.374354  0.000000  0.307184  1
  Er  Er19  1  0.625646  0.000000  0.807184  1
  Co  Co20  1  0.176095  0.000000  0.487433  1
  Co  Co21  1  0.823905  0.000000  0.987433  1
  Bi  Bi22  1  0.816129  0.742718  0.671624  1
  Bi  Bi23  1  0.183871  0.257282  0.171624  1
  Bi  Bi24  1  0.681823  0.241547  0.325370  1
  Bi  Bi25  1  0.318177  0.758453  0.825370  1
  Bi  Bi26  1  0.681823  0.758453  0.325370  1
  Bi  Bi27  1  0.318177  0.241547  0.825370  1
  Bi  Bi28  1  0.816129  0.257282  0.671624  1
  Bi  Bi29  1  0.183871  0.742718  0.171624  1
  Bi  Bi30  1  0.348395  0.500000  0.530901  1
  Bi  Bi31  1  0.651605  0.500000  0.030901  1
