# generated using pymatgen
data_Y20Cd3Hg3RuPt
_symmetry_space_group_name_H-M   'P 1'
_cell_length_a   9.74253000
_cell_length_b   9.74252959
_cell_length_c   9.70265200
_cell_angle_alpha   90.00000000
_cell_angle_beta   90.00000000
_cell_angle_gamma   120.00000140
_symmetry_Int_Tables_number   1
_chemical_formula_structural   Y20Cd3Hg3RuPt
_chemical_formula_sum   'Y20 Cd3 Hg3 Ru1 Pt1'
_cell_volume   797.56220567
_cell_formula_units_Z   1
loop_
 _symmetry_equiv_pos_site_id
 _symmetry_equiv_pos_as_xyz
  1  'x, y, z'
loop_
 _atom_site_type_symbol
 _atom_site_label
 _atom_site_symmetry_multiplicity
 _atom_site_fract_x
 _atom_site_fract_y
 _atom_site_fract_z
 _atom_site_occupancy
  Y  Y0  1  0.000000  0.000000  0.486477  1
  Y  Y1  1  0.000000  0.000000  0.013523  1
  Y  Y2  1  0.209233  0.790767  0.438413  1
  Y  Y3  1  0.209233  0.418466  0.438413  1
  Y  Y4  1  0.581534  0.790767  0.438413  1
  Y  Y5  1  0.792724  0.207276  0.559393  1
  Y  Y6  1  0.792724  0.585448  0.559393  1
  Y  Y7  1  0.414552  0.207276  0.559393  1
  Y  Y8  1  0.792724  0.207276  0.940607  1
  Y  Y9  1  0.792724  0.585448  0.940607  1
  Y  Y10  1  0.414552  0.207276  0.940607  1
  Y  Y11  1  0.209233  0.790767  0.061587  1
  Y  Y12  1  0.209233  0.418466  0.061587  1
  Y  Y13  1  0.581534  0.790767  0.061587  1
  Y  Y14  1  0.540952  0.459048  0.250000  1
  Y  Y15  1  0.540952  0.081906  0.250000  1
  Y  Y16  1  0.918094  0.459048  0.250000  1
  Y  Y17  1  0.457091  0.542909  0.750000  1
  Y  Y18  1  0.457091  0.914181  0.750000  1
  Y  Y19  1  0.085819  0.542909  0.750000  1
  Cd  Cd20  1  0.112808  0.887192  0.750000  1
  Cd  Cd21  1  0.112808  0.225616  0.750000  1
  Cd  Cd22  1  0.774384  0.887192  0.750000  1
  Hg  Hg23  1  0.876412  0.123588  0.250000  1
  Hg  Hg24  1  0.876412  0.752825  0.250000  1
  Hg  Hg25  1  0.247175  0.123588  0.250000  1
  Ru  Ru26  1  0.333333  0.666667  0.250000  1
  Pt  Pt27  1  0.666667  0.333333  0.750000  1
