# generated using pymatgen
data_Ta4Be4ReIr
_symmetry_space_group_name_H-M   'P 1'
_cell_length_a   6.27077700
_cell_length_b   6.27077700
_cell_length_c   3.33824500
_cell_angle_alpha   90.00000000
_cell_angle_beta   90.00000000
_cell_angle_gamma   90.00000000
_symmetry_Int_Tables_number   1
_chemical_formula_structural   Ta4Be4ReIr
_chemical_formula_sum   'Ta4 Be4 Re1 Ir1'
_cell_volume   131.26862033
_cell_formula_units_Z   1
loop_
 _symmetry_equiv_pos_site_id
 _symmetry_equiv_pos_as_xyz
  1  'x, y, z'
loop_
 _atom_site_type_symbol
 _atom_site_label
 _atom_site_symmetry_multiplicity
 _atom_site_fract_x
 _atom_site_fract_y
 _atom_site_fract_z
 _atom_site_occupancy
  Ta  Ta0  1  0.678299  0.170798  0.500000  1
  Ta  Ta1  1  0.321701  0.829202  0.500000  1
  Ta  Ta2  1  0.170798  0.321701  0.500000  1
  Ta  Ta3  1  0.829202  0.678299  0.500000  1
  Be  Be4  1  0.124096  0.618489  0.000000  1
  Be  Be5  1  0.875904  0.381511  0.000000  1
  Be  Be6  1  0.618489  0.875904  0.000000  1
  Be  Be7  1  0.381511  0.124096  0.000000  1
  Re  Re8  1  0.000000  0.000000  0.000000  1
  Ir  Ir9  1  0.500000  0.500000  0.000000  1
