# generated using pymatgen
data_Y5AlSnBi
_symmetry_space_group_name_H-M   'P 1'
_cell_length_a   8.97409138
_cell_length_b   8.97529088
_cell_length_c   6.56435000
_cell_angle_alpha   90.00002741
_cell_angle_beta   90.00006585
_cell_angle_gamma   119.81364356
_symmetry_Int_Tables_number   1
_chemical_formula_structural   Y5AlSnBi
_chemical_formula_sum   'Y10 Al2 Sn2 Bi2'
_cell_volume   458.74766001
_cell_formula_units_Z   2
loop_
 _symmetry_equiv_pos_site_id
 _symmetry_equiv_pos_as_xyz
  1  'x, y, z'
loop_
 _atom_site_type_symbol
 _atom_site_label
 _atom_site_symmetry_multiplicity
 _atom_site_fract_x
 _atom_site_fract_y
 _atom_site_fract_z
 _atom_site_occupancy
  Y  Y0  1  0.664779  0.322646  0.503290  1
  Y  Y1  1  0.329382  0.669165  0.503236  1
  Y  Y2  1  0.329384  0.669163  0.996765  1
  Y  Y3  1  0.664773  0.322644  0.996713  1
  Y  Y4  1  0.756563  0.761707  0.249996  1
  Y  Y5  1  0.242393  0.003171  0.249995  1
  Y  Y6  1  0.998237  0.235348  0.250003  1
  Y  Y7  1  0.235031  0.234662  0.750002  1
  Y  Y8  1  0.764121  0.013055  0.750000  1
  Y  Y9  1  0.013707  0.766055  0.749997  1
  Al  Al10  1  0.397318  0.000498  0.750007  1
  Al  Al11  1  0.001878  0.397959  0.750003  1
  Sn  Sn12  1  0.394759  0.395371  0.250002  1
  Sn  Sn13  1  0.601197  0.996383  0.249997  1
  Bi  Bi14  1  0.995844  0.602596  0.249990  1
  Bi  Bi15  1  0.610631  0.609575  0.750005  1
