# generated using pymatgen
data_Hf3Zr7Sn6BH
_symmetry_space_group_name_H-M   'P 1'
_cell_length_a   8.52134600
_cell_length_b   8.52134640
_cell_length_c   5.80467200
_cell_angle_alpha   90.00000000
_cell_angle_beta   90.00000000
_cell_angle_gamma   120.00000619
_symmetry_Int_Tables_number   1
_chemical_formula_structural   Hf3Zr7Sn6BH
_chemical_formula_sum   'Hf3 Zr7 Sn6 B1 H1'
_cell_volume   365.02676458
_cell_formula_units_Z   1
loop_
 _symmetry_equiv_pos_site_id
 _symmetry_equiv_pos_as_xyz
  1  'x, y, z'
loop_
 _atom_site_type_symbol
 _atom_site_label
 _atom_site_symmetry_multiplicity
 _atom_site_fract_x
 _atom_site_fract_y
 _atom_site_fract_z
 _atom_site_occupancy
  Hf  Hf0  1  0.666667  0.333333  0.000000  1
  Hf  Hf1  1  0.333333  0.666667  0.000000  1
  Hf  Hf2  1  0.333333  0.666667  0.500000  1
  Zr  Zr3  1  0.666667  0.333333  0.500000  1
  Zr  Zr4  1  0.765906  0.765988  0.745635  1
  Zr  Zr5  1  0.234012  0.999918  0.745635  1
  Zr  Zr6  1  0.000082  0.234094  0.745635  1
  Zr  Zr7  1  0.234012  0.234094  0.254365  1
  Zr  Zr8  1  0.765906  0.999918  0.254365  1
  Zr  Zr9  1  0.000082  0.765988  0.254365  1
  Sn  Sn10  1  0.396775  0.397352  0.750953  1
  Sn  Sn11  1  0.602648  0.999423  0.750953  1
  Sn  Sn12  1  0.000577  0.603225  0.750953  1
  Sn  Sn13  1  0.602648  0.603225  0.249047  1
  Sn  Sn14  1  0.396775  0.999423  0.249047  1
  Sn  Sn15  1  0.000577  0.397352  0.249047  1
  B  B16  1  0.000000  0.000000  0.500000  1
  H  H17  1  0.000000  0.000000  0.000000  1
