# generated using pymatgen
data_Tb5Er11(Ga3Fe)2
_symmetry_space_group_name_H-M   'P 1'
_cell_length_a   9.90969100
_cell_length_b   9.90968975
_cell_length_c   6.94790100
_cell_angle_alpha   90.00000000
_cell_angle_beta   90.00000000
_cell_angle_gamma   120.00000082
_symmetry_Int_Tables_number   1
_chemical_formula_structural   Tb5Er11(Ga3Fe)2
_chemical_formula_sum   'Tb5 Er11 Ga6 Fe2'
_cell_volume   590.88697995
_cell_formula_units_Z   1
loop_
 _symmetry_equiv_pos_site_id
 _symmetry_equiv_pos_as_xyz
  1  'x, y, z'
loop_
 _atom_site_type_symbol
 _atom_site_label
 _atom_site_symmetry_multiplicity
 _atom_site_fract_x
 _atom_site_fract_y
 _atom_site_fract_z
 _atom_site_occupancy
  Tb  Tb0  1  0.464002  0.928005  0.291711  1
  Tb  Tb1  1  0.071995  0.535998  0.291711  1
  Tb  Tb2  1  0.464002  0.535998  0.291711  1
  Tb  Tb3  1  0.000000  0.000000  0.769230  1
  Tb  Tb4  1  0.000000  0.000000  0.268402  1
  Er  Er5  1  0.826201  0.652401  0.489945  1
  Er  Er6  1  0.347599  0.173799  0.489945  1
  Er  Er7  1  0.826201  0.173799  0.489945  1
  Er  Er8  1  0.173582  0.347164  0.986358  1
  Er  Er9  1  0.652836  0.826418  0.986358  1
  Er  Er10  1  0.173582  0.826418  0.986358  1
  Er  Er11  1  0.666667  0.333333  0.170498  1
  Er  Er12  1  0.333333  0.666667  0.672983  1
  Er  Er13  1  0.537440  0.074880  0.792962  1
  Er  Er14  1  0.925120  0.462560  0.792962  1
  Er  Er15  1  0.537440  0.462560  0.792962  1
  Ga  Ga16  1  0.835514  0.671030  0.041460  1
  Ga  Ga17  1  0.328970  0.164486  0.041460  1
  Ga  Ga18  1  0.835514  0.164486  0.041460  1
  Ga  Ga19  1  0.163764  0.327526  0.543179  1
  Ga  Ga20  1  0.672474  0.836236  0.543179  1
  Ga  Ga21  1  0.163764  0.836236  0.543179  1
  Fe  Fe22  1  0.666667  0.333333  0.555197  1
  Fe  Fe23  1  0.333333  0.666667  0.052921  1
