# generated using pymatgen
data_Y3ErReOs7
_symmetry_space_group_name_H-M   'P 1'
_cell_length_a   5.30507985
_cell_length_b   5.30549430
_cell_length_c   8.84530581
_cell_angle_alpha   90.04297424
_cell_angle_beta   89.96013788
_cell_angle_gamma   118.28161961
_symmetry_Int_Tables_number   1
_chemical_formula_structural   Y3ErReOs7
_chemical_formula_sum   'Y3 Er1 Re1 Os7'
_cell_volume   219.24194841
_cell_formula_units_Z   1
loop_
 _symmetry_equiv_pos_site_id
 _symmetry_equiv_pos_as_xyz
  1  'x, y, z'
loop_
 _atom_site_type_symbol
 _atom_site_label
 _atom_site_symmetry_multiplicity
 _atom_site_fract_x
 _atom_site_fract_y
 _atom_site_fract_z
 _atom_site_occupancy
  Y  Y0  1  0.330578  0.669417  0.435189  1
  Y  Y1  1  0.666136  0.333800  0.566074  1
  Y  Y2  1  0.666116  0.333822  0.934341  1
  Er  Er3  1  0.330079  0.669979  0.064285  1
  Re  Re4  1  0.833745  0.166133  0.249473  1
  Os  Os5  1  0.993275  0.006736  0.500005  1
  Os  Os6  1  0.993341  0.006684  0.000344  1
  Os  Os7  1  0.827914  0.649638  0.249114  1
  Os  Os8  1  0.350343  0.172135  0.249106  1
  Os  Os9  1  0.176561  0.823475  0.750950  1
  Os  Os10  1  0.171736  0.339897  0.750561  1
  Os  Os11  1  0.660176  0.828285  0.750559  1
