# generated using pymatgen
data_LiCa2PuO6
_symmetry_space_group_name_H-M   'P 1'
_cell_length_a   5.79365600
_cell_length_b   5.59797286
_cell_length_c   9.65254715
_cell_angle_alpha   55.57642983
_cell_angle_beta   90.00000000
_cell_angle_gamma   90.00000000
_symmetry_Int_Tables_number   1
_chemical_formula_structural   LiCa2PuO6
_chemical_formula_sum   'Li2 Ca4 Pu2 O12'
_cell_volume   258.23596849
_cell_formula_units_Z   2
loop_
 _symmetry_equiv_pos_site_id
 _symmetry_equiv_pos_as_xyz
  1  'x, y, z'
loop_
 _atom_site_type_symbol
 _atom_site_label
 _atom_site_symmetry_multiplicity
 _atom_site_fract_x
 _atom_site_fract_y
 _atom_site_fract_z
 _atom_site_occupancy
  Li  Li0  1  0.500000  0.500000  0.000000  1
  Li  Li1  1  0.000000  0.500000  0.500000  1
  Ca  Ca2  1  0.059326  0.728965  0.755331  1
  Ca  Ca3  1  0.940674  0.271035  0.244669  1
  Ca  Ca4  1  0.559326  0.271035  0.744669  1
  Ca  Ca5  1  0.440674  0.728965  0.255331  1
  Pu  Pu6  1  0.500000  0.000000  0.500000  1
  Pu  Pu7  1  0.000000  0.000000  0.000000  1
  O  O8  1  0.313352  0.656710  0.550203  1
  O  O9  1  0.686648  0.343290  0.449797  1
  O  O10  1  0.813352  0.343290  0.949797  1
  O  O11  1  0.186648  0.656710  0.050203  1
  O  O12  1  0.455224  0.871209  0.738753  1
  O  O13  1  0.544776  0.128791  0.261247  1
  O  O14  1  0.955224  0.128791  0.761247  1
  O  O15  1  0.044776  0.871209  0.238753  1
  O  O16  1  0.786837  0.755070  0.563186  1
  O  O17  1  0.213163  0.244930  0.436814  1
  O  O18  1  0.286837  0.244930  0.936814  1
  O  O19  1  0.713163  0.755070  0.063186  1
