# generated using pymatgen
data_Zr6Ga17Rh7
_symmetry_space_group_name_H-M   'P 1'
_cell_length_a   8.84920725
_cell_length_b   8.84474336
_cell_length_c   8.84921877
_cell_angle_alpha   119.99275112
_cell_angle_beta   120.04223660
_cell_angle_gamma   89.98422277
_symmetry_Int_Tables_number   1
_chemical_formula_structural   Zr6Ga17Rh7
_chemical_formula_sum   'Zr6 Ga17 Rh7'
_cell_volume   489.56403082
_cell_formula_units_Z   1
loop_
 _symmetry_equiv_pos_site_id
 _symmetry_equiv_pos_as_xyz
  1  'x, y, z'
loop_
 _atom_site_type_symbol
 _atom_site_label
 _atom_site_symmetry_multiplicity
 _atom_site_fract_x
 _atom_site_fract_y
 _atom_site_fract_z
 _atom_site_occupancy
  Zr  Zr0  1  0.784755  0.284671  0.069305  1
  Zr  Zr1  1  0.215368  0.284672  0.499917  1
  Zr  Zr2  1  0.214836  0.714864  0.500031  1
  Zr  Zr3  1  0.215390  0.715488  0.930748  1
  Zr  Zr4  1  0.784738  0.715487  0.500098  1
  Zr  Zr5  1  0.784214  0.284237  0.500021  1
  Ga  Ga6  1  0.375866  0.124030  0.748163  1
  Ga  Ga7  1  0.375803  0.627614  0.251810  1
  Ga  Ga8  1  0.999514  0.499561  0.500046  1
  Ga  Ga9  1  0.153951  0.345913  0.191961  1
  Ga  Ga10  1  0.154015  0.962079  0.808063  1
  Ga  Ga11  1  0.153904  0.346154  0.807684  1
  Ga  Ga12  1  0.538468  0.346155  0.192250  1
  Ga  Ga13  1  0.846109  0.653753  0.807645  1
  Ga  Ga14  1  0.846108  0.038469  0.192361  1
  Ga  Ga15  1  0.846021  0.653847  0.192171  1
  Ga  Ga16  1  0.461679  0.653847  0.807827  1
  Ga  Ga17  1  0.375535  0.124268  0.251319  1
  Ga  Ga18  1  0.872949  0.124268  0.748733  1
  Ga  Ga19  1  0.624271  0.875503  0.251232  1
  Ga  Ga20  1  0.624272  0.373039  0.748768  1
  Ga  Ga21  1  0.624038  0.875746  0.748246  1
  Ga  Ga22  1  0.127500  0.875746  0.251708  1
  Rh  Rh23  1  0.000260  0.999910  0.500009  1
  Rh  Rh24  1  0.499900  0.999910  0.999648  1
  Rh  Rh25  1  0.499944  0.499935  0.999992  1
  Rh  Rh26  1  0.499903  0.500212  0.499965  1
  Rh  Rh27  1  0.000244  0.500211  0.000307  1
  Rh  Rh28  1  0.999875  0.999885  0.000010  1
  Rh  Rh29  1  0.500563  0.000522  0.499959  1
