# generated using pymatgen
data_Ca3In3AgGe2
_symmetry_space_group_name_H-M   'P 1'
_cell_length_a   7.50788100
_cell_length_b   7.50788067
_cell_length_c   4.52038300
_cell_angle_alpha   90.00000000
_cell_angle_beta   90.00000000
_cell_angle_gamma   120.00000588
_symmetry_Int_Tables_number   1
_chemical_formula_structural   Ca3In3AgGe2
_chemical_formula_sum   'Ca3 In3 Ag1 Ge2'
_cell_volume   220.66862072
_cell_formula_units_Z   1
loop_
 _symmetry_equiv_pos_site_id
 _symmetry_equiv_pos_as_xyz
  1  'x, y, z'
loop_
 _atom_site_type_symbol
 _atom_site_label
 _atom_site_symmetry_multiplicity
 _atom_site_fract_x
 _atom_site_fract_y
 _atom_site_fract_z
 _atom_site_occupancy
  Ca  Ca0  1  0.420225  0.000000  0.000000  1
  Ca  Ca1  1  0.000000  0.420225  0.000000  1
  Ca  Ca2  1  0.579776  0.579775  0.000000  1
  In  In3  1  0.749861  0.000000  0.499999  1
  In  In4  1  0.250139  0.250139  0.499999  1
  In  In5  1  0.000000  0.749861  0.499999  1
  Ag  Ag6  1  0.000000  0.000000  0.000000  1
  Ge  Ge7  1  0.666667  0.333333  0.499999  1
  Ge  Ge8  1  0.333333  0.666667  0.499999  1
