# generated using pymatgen
data_TbYbDy(MnC3)2
_symmetry_space_group_name_H-M   'P 1'
_cell_length_a   8.09394510
_cell_length_b   8.06866178
_cell_length_c   4.98462900
_cell_angle_alpha   90.00000000
_cell_angle_beta   90.00000000
_cell_angle_gamma   120.09287467
_symmetry_Int_Tables_number   1
_chemical_formula_structural   TbYbDy(MnC3)2
_chemical_formula_sum   'Tb2 Yb2 Dy2 Mn4 C12'
_cell_volume   281.65536912
_cell_formula_units_Z   2
loop_
 _symmetry_equiv_pos_site_id
 _symmetry_equiv_pos_as_xyz
  1  'x, y, z'
loop_
 _atom_site_type_symbol
 _atom_site_label
 _atom_site_symmetry_multiplicity
 _atom_site_fract_x
 _atom_site_fract_y
 _atom_site_fract_z
 _atom_site_occupancy
  Tb  Tb0  1  0.067133  0.383748  0.750000  1
  Tb  Tb1  1  0.381758  0.315452  0.250000  1
  Yb  Yb2  1  0.613345  0.683316  0.750000  1
  Yb  Yb3  1  0.928241  0.614424  0.250000  1
  Dy  Dy4  1  0.686231  0.067627  0.250000  1
  Dy  Dy5  1  0.309992  0.932069  0.750000  1
  Mn  Mn6  1  0.997012  0.996325  0.500287  1
  Mn  Mn7  1  0.997012  0.996325  0.999713  1
  Mn  Mn8  1  0.666728  0.329546  0.750000  1
  Mn  Mn9  1  0.337095  0.668482  0.250000  1
  C  C10  1  0.957823  0.771500  0.750000  1
  C  C11  1  0.189488  0.961618  0.250000  1
  C  C12  1  0.777208  0.820018  0.250000  1
  C  C13  1  0.229551  0.193699  0.750000  1
  C  C14  1  0.818045  0.039556  0.750000  1
  C  C15  1  0.035507  0.229049  0.250000  1
  C  C16  1  0.857553  0.577135  0.750000  1
  C  C17  1  0.282360  0.860252  0.250000  1
  C  C18  1  0.583330  0.719864  0.250000  1
  C  C19  1  0.424139  0.282108  0.750000  1
  C  C20  1  0.142716  0.424350  0.250000  1
  C  C21  1  0.717733  0.133535  0.750000  1
