# generated using pymatgen
data_Yb3Tm3(Si3Os)8
_symmetry_space_group_name_H-M   'P 1'
_cell_length_a   10.14337380
_cell_length_b   10.14337376
_cell_length_c   8.15331039
_cell_angle_alpha   89.99640325
_cell_angle_beta   90.00359706
_cell_angle_gamma   132.59892335
_symmetry_Int_Tables_number   1
_chemical_formula_structural   Yb3Tm3(Si3Os)8
_chemical_formula_sum   'Yb3 Tm3 Si24 Os8'
_cell_volume   617.50636247
_cell_formula_units_Z   1
loop_
 _symmetry_equiv_pos_site_id
 _symmetry_equiv_pos_as_xyz
  1  'x, y, z'
loop_
 _atom_site_type_symbol
 _atom_site_label
 _atom_site_symmetry_multiplicity
 _atom_site_fract_x
 _atom_site_fract_y
 _atom_site_fract_z
 _atom_site_occupancy
  Yb  Yb0  1  0.998570  0.498570  0.250000  1
  Yb  Yb1  1  0.500401  0.000401  0.250000  1
  Yb  Yb2  1  0.999395  0.499395  0.750000  1
  Tm  Tm3  1  0.497874  0.997874  0.750000  1
  Tm  Tm4  1  0.999553  0.999609  0.999976  1
  Tm  Tm5  1  0.499609  0.499553  0.500024  1
  Si  Si6  1  0.793625  0.206221  0.500431  1
  Si  Si7  1  0.706221  0.293625  0.999569  1
  Si  Si8  1  0.204565  0.792505  0.498348  1
  Si  Si9  1  0.292505  0.704565  0.001652  1
  Si  Si10  1  0.668879  0.663715  0.168259  1
  Si  Si11  1  0.163715  0.168879  0.331741  1
  Si  Si12  1  0.831838  0.835307  0.667469  1
  Si  Si13  1  0.335307  0.331838  0.832531  1
  Si  Si14  1  0.846029  0.610340  0.996163  1
  Si  Si15  1  0.110340  0.346029  0.503837  1
  Si  Si16  1  0.657128  0.890602  0.495934  1
  Si  Si17  1  0.390602  0.157128  0.004066  1
  Si  Si18  1  0.154363  0.389161  0.004893  1
  Si  Si19  1  0.889161  0.654363  0.495107  1
  Si  Si20  1  0.123451  0.889515  0.726647  1
  Si  Si21  1  0.389515  0.623451  0.773353  1
  Si  Si22  1  0.377252  0.612261  0.228783  1
  Si  Si23  1  0.112261  0.877252  0.271217  1
  Si  Si24  1  0.877352  0.112176  0.271595  1
  Si  Si25  1  0.612176  0.377352  0.228405  1
  Si  Si26  1  0.622074  0.388425  0.773403  1
  Si  Si27  1  0.888425  0.122074  0.726597  1
  Si  Si28  1  0.609905  0.844111  0.994522  1
  Si  Si29  1  0.344111  0.109905  0.505478  1
  Os  Os30  1  0.628059  0.628668  0.874197  1
  Os  Os31  1  0.128668  0.128059  0.625803  1
  Os  Os32  1  0.371746  0.373426  0.126860  1
  Os  Os33  1  0.873426  0.871746  0.373140  1
  Os  Os34  1  0.171951  0.833900  0.997377  1
  Os  Os35  1  0.333900  0.671951  0.502623  1
  Os  Os36  1  0.829681  0.166371  0.997110  1
  Os  Os37  1  0.666371  0.329681  0.502890  1
