# generated using pymatgen
data_Y2Er2Al15(GaRh2)3
_symmetry_space_group_name_H-M   'P 1'
_cell_length_a   7.52157257
_cell_length_b   7.52281338
_cell_length_c   9.54230900
_cell_angle_alpha   90.00000000
_cell_angle_beta   90.00000000
_cell_angle_gamma   119.31887832
_symmetry_Int_Tables_number   1
_chemical_formula_structural   Y2Er2Al15(GaRh2)3
_chemical_formula_sum   'Y2 Er2 Al15 Ga3 Rh6'
_cell_volume   470.77464682
_cell_formula_units_Z   1
loop_
 _symmetry_equiv_pos_site_id
 _symmetry_equiv_pos_as_xyz
  1  'x, y, z'
loop_
 _atom_site_type_symbol
 _atom_site_label
 _atom_site_symmetry_multiplicity
 _atom_site_fract_x
 _atom_site_fract_y
 _atom_site_fract_z
 _atom_site_occupancy
  Y  Y0  1  0.997639  0.674559  0.250000  1
  Y  Y1  1  0.670373  0.991311  0.250000  1
  Er  Er2  1  0.005640  0.325364  0.750000  1
  Er  Er3  1  0.324965  0.004223  0.750000  1
  Al  Al4  1  0.001857  0.335186  0.071804  1
  Al  Al5  1  0.998715  0.663833  0.924893  1
  Al  Al6  1  0.998715  0.663833  0.575107  1
  Al  Al7  1  0.336112  0.003693  0.428094  1
  Al  Al8  1  0.001857  0.335186  0.428196  1
  Al  Al9  1  0.663915  0.999048  0.574881  1
  Al  Al10  1  0.663915  0.999048  0.925119  1
  Al  Al11  1  0.336112  0.003693  0.071906  1
  Al  Al12  1  0.334276  0.334380  0.556490  1
  Al  Al13  1  0.665944  0.665469  0.451123  1
  Al  Al14  1  0.665944  0.665469  0.048877  1
  Al  Al15  1  0.334276  0.334380  0.943510  1
  Al  Al16  1  0.662559  0.448639  0.750000  1
  Al  Al17  1  0.550859  0.339523  0.250000  1
  Al  Al18  1  0.449319  0.662456  0.750000  1
  Ga  Ga19  1  0.130428  0.131158  0.250000  1
  Ga  Ga20  1  0.868147  0.867948  0.750000  1
  Ga  Ga21  1  0.338475  0.547178  0.250000  1
  Rh  Rh22  1  0.671665  0.328358  0.999543  1
  Rh  Rh23  1  0.327646  0.672948  0.997163  1
  Rh  Rh24  1  0.327646  0.672948  0.502837  1
  Rh  Rh25  1  0.671665  0.328358  0.500457  1
  Rh  Rh26  1  0.000668  0.000903  0.999307  1
  Rh  Rh27  1  0.000668  0.000903  0.500693  1
