# generated using pymatgen
data_TbSm(Ga3Ni)6
_symmetry_space_group_name_H-M   'P 1'
_cell_length_a   10.12775518
_cell_length_b   10.12775542
_cell_length_c   10.12775401
_cell_angle_alpha   42.32660493
_cell_angle_beta   42.32660814
_cell_angle_gamma   42.32661047
_symmetry_Int_Tables_number   1
_chemical_formula_structural   TbSm(Ga3Ni)6
_chemical_formula_sum   'Tb1 Sm1 Ga18 Ni6'
_cell_volume   426.34017719
_cell_formula_units_Z   1
loop_
 _symmetry_equiv_pos_site_id
 _symmetry_equiv_pos_as_xyz
  1  'x, y, z'
loop_
 _atom_site_type_symbol
 _atom_site_label
 _atom_site_symmetry_multiplicity
 _atom_site_fract_x
 _atom_site_fract_y
 _atom_site_fract_z
 _atom_site_occupancy
  Tb  Tb0  1  0.166968  0.166968  0.166968  1
  Sm  Sm1  1  0.833044  0.833044  0.833044  1
  Ga  Ga2  1  0.050873  0.050873  0.050873  1
  Ga  Ga3  1  0.707876  0.499210  0.292913  1
  Ga  Ga4  1  0.666068  0.333922  0.000010  1
  Ga  Ga5  1  0.103875  0.432279  0.762252  1
  Ga  Ga6  1  0.432279  0.762252  0.103875  1
  Ga  Ga7  1  0.385854  0.385854  0.385854  1
  Ga  Ga8  1  0.333922  0.000010  0.666068  1
  Ga  Ga9  1  0.614154  0.614154  0.614154  1
  Ga  Ga10  1  0.238272  0.566674  0.896646  1
  Ga  Ga11  1  0.566674  0.896646  0.238272  1
  Ga  Ga12  1  0.499210  0.292913  0.707876  1
  Ga  Ga13  1  0.762252  0.103875  0.432279  1
  Ga  Ga14  1  0.949218  0.949218  0.949218  1
  Ga  Ga15  1  0.292913  0.707876  0.499210  1
  Ga  Ga16  1  0.000010  0.666068  0.333922  1
  Ga  Ga17  1  0.716772  0.716772  0.716772  1
  Ga  Ga18  1  0.283127  0.283127  0.283127  1
  Ga  Ga19  1  0.896646  0.238272  0.566674  1
  Ni  Ni20  1  0.242506  0.921908  0.582021  1
  Ni  Ni21  1  0.921908  0.582021  0.242506  1
  Ni  Ni22  1  0.757668  0.417580  0.078309  1
  Ni  Ni23  1  0.078309  0.757668  0.417580  1
  Ni  Ni24  1  0.417580  0.078309  0.757668  1
  Ni  Ni25  1  0.582021  0.242506  0.921908  1
