# generated using pymatgen
data_Ca3NdTa2(FeO6)2
_symmetry_space_group_name_H-M   'P 1'
_cell_length_a   5.66979274
_cell_length_b   9.66643683
_cell_length_c   9.61696837
_cell_angle_alpha   69.94105505
_cell_angle_beta   90.35200232
_cell_angle_gamma   90.20096035
_symmetry_Int_Tables_number   1
_chemical_formula_structural   Ca3NdTa2(FeO6)2
_chemical_formula_sum   'Ca6 Nd2 Ta4 Fe4 O24'
_cell_volume   495.09215636
_cell_formula_units_Z   2
loop_
 _symmetry_equiv_pos_site_id
 _symmetry_equiv_pos_as_xyz
  1  'x, y, z'
loop_
 _atom_site_type_symbol
 _atom_site_label
 _atom_site_symmetry_multiplicity
 _atom_site_fract_x
 _atom_site_fract_y
 _atom_site_fract_z
 _atom_site_occupancy
  Ca  Ca0  1  0.548404  0.119788  0.631075  1
  Ca  Ca1  1  0.547330  0.619706  0.131491  1
  Ca  Ca2  1  0.054696  0.883001  0.873534  1
  Ca  Ca3  1  0.054519  0.383574  0.373090  1
  Ca  Ca4  1  0.449567  0.880027  0.366100  1
  Ca  Ca5  1  0.450428  0.380097  0.865838  1
  Nd  Nd6  1  0.939434  0.114687  0.127769  1
  Nd  Nd7  1  0.939862  0.614539  0.628058  1
  Ta  Ta8  1  0.495965  0.753307  0.750920  1
  Ta  Ta9  1  0.495537  0.253188  0.251069  1
  Ta  Ta10  1  0.003812  0.246272  0.747439  1
  Ta  Ta11  1  0.002288  0.746301  0.247677  1
  Fe  Fe12  1  0.998600  0.499754  0.001393  1
  Fe  Fe13  1  0.498757  0.499595  0.498415  1
  Fe  Fe14  1  0.998654  0.999699  0.501390  1
  Fe  Fe15  1  0.498684  0.999617  0.998579  1
  O  O16  1  0.524723  0.679732  0.581001  1
  O  O17  1  0.524904  0.179892  0.081476  1
  O  O18  1  0.966417  0.171424  0.579360  1
  O  O19  1  0.965508  0.671189  0.079490  1
  O  O20  1  0.468665  0.319007  0.420682  1
  O  O21  1  0.468486  0.818927  0.920224  1
  O  O22  1  0.030625  0.827927  0.421429  1
  O  O23  1  0.031238  0.327962  0.921533  1
  O  O24  1  0.708520  0.080506  0.366216  1
  O  O25  1  0.708582  0.580621  0.865871  1
  O  O26  1  0.816698  0.079696  0.878581  1
  O  O27  1  0.817326  0.580041  0.377976  1
  O  O28  1  0.292798  0.920477  0.630684  1
  O  O29  1  0.292725  0.420362  0.130951  1
  O  O30  1  0.191946  0.920835  0.126721  1
  O  O31  1  0.190661  0.420609  0.627503  1
  O  O32  1  0.209005  0.121505  0.324732  1
  O  O33  1  0.208829  0.621899  0.824867  1
  O  O34  1  0.297459  0.135124  0.816172  1
  O  O35  1  0.296197  0.634186  0.317213  1
  O  O36  1  0.790751  0.874974  0.675111  1
  O  O37  1  0.790789  0.374647  0.175092  1
  O  O38  1  0.715142  0.872276  0.182073  1
  O  O39  1  0.715472  0.373032  0.681197  1
