# generated using pymatgen
data_LiGa(BrO3)4
_symmetry_space_group_name_H-M   'P 1'
_cell_length_a   4.87697216
_cell_length_b   6.51406470
_cell_length_c   8.50131084
_cell_angle_alpha   82.25346495
_cell_angle_beta   87.94293710
_cell_angle_gamma   88.68118746
_symmetry_Int_Tables_number   1
_chemical_formula_structural   LiGa(BrO3)4
_chemical_formula_sum   'Li1 Ga1 Br4 O12'
_cell_volume   267.39516559
_cell_formula_units_Z   1
loop_
 _symmetry_equiv_pos_site_id
 _symmetry_equiv_pos_as_xyz
  1  'x, y, z'
loop_
 _atom_site_type_symbol
 _atom_site_label
 _atom_site_symmetry_multiplicity
 _atom_site_fract_x
 _atom_site_fract_y
 _atom_site_fract_z
 _atom_site_occupancy
  Li  Li0  1  0.500000  0.000000  0.500000  1
  Ga  Ga1  1  0.500000  0.500000  0.500000  1
  Br  Br2  1  0.566188  0.800172  0.161145  1
  Br  Br3  1  0.029097  0.292320  0.275925  1
  Br  Br4  1  0.970903  0.707680  0.724075  1
  Br  Br5  1  0.433812  0.199828  0.838855  1
  O  O6  1  0.753418  0.623460  0.080791  1
  O  O7  1  0.720475  0.025436  0.114917  1
  O  O8  1  0.223272  0.488851  0.327926  1
  O  O9  1  0.200467  0.075912  0.333908  1
  O  O10  1  0.640018  0.748801  0.370830  1
  O  O11  1  0.749087  0.280919  0.406969  1
  O  O12  1  0.250913  0.719081  0.593031  1
  O  O13  1  0.359982  0.251199  0.629170  1
  O  O14  1  0.799533  0.924088  0.666092  1
  O  O15  1  0.776728  0.511149  0.672074  1
  O  O16  1  0.279525  0.974564  0.885083  1
  O  O17  1  0.246582  0.376540  0.919209  1
