# generated using pymatgen
data_Tb3Zr3Pa2(P3Ir4)4
_symmetry_space_group_name_H-M   'P 1'
_cell_length_a   12.89296100
_cell_length_b   12.89222354
_cell_length_c   3.99063500
_cell_angle_alpha   90.00000000
_cell_angle_beta   90.00000000
_cell_angle_gamma   119.99810758
_symmetry_Int_Tables_number   1
_chemical_formula_structural   Tb3Zr3Pa2(P3Ir4)4
_chemical_formula_sum   'Tb3 Zr3 Pa2 P12 Ir16'
_cell_volume   574.46214628
_cell_formula_units_Z   1
loop_
 _symmetry_equiv_pos_site_id
 _symmetry_equiv_pos_as_xyz
  1  'x, y, z'
loop_
 _atom_site_type_symbol
 _atom_site_label
 _atom_site_symmetry_multiplicity
 _atom_site_fract_x
 _atom_site_fract_y
 _atom_site_fract_z
 _atom_site_occupancy
  Tb  Tb0  1  0.334059  0.666861  0.500000  1
  Tb  Tb1  1  0.665941  0.332801  0.500000  1
  Tb  Tb2  1  0.000000  0.815171  0.000000  1
  Zr  Zr3  1  0.000000  0.448854  0.500000  1
  Zr  Zr4  1  0.552637  0.553572  0.500000  1
  Zr  Zr5  1  0.447363  0.000935  0.500000  1
  Pa  Pa6  1  0.180969  0.179588  0.000000  1
  Pa  Pa7  1  0.819031  0.998619  0.000000  1
  P  P8  1  0.000000  0.647510  0.500000  1
  P  P9  1  0.356584  0.356462  0.500000  1
  P  P10  1  0.643416  0.999878  0.500000  1
  P  P11  1  0.515304  0.684037  0.000000  1
  P  P12  1  0.315462  0.831299  0.000000  1
  P  P13  1  0.168607  0.485147  0.000000  1
  P  P14  1  0.484696  0.168733  0.000000  1
  P  P15  1  0.684538  0.515836  0.000000  1
  P  P16  1  0.831393  0.316540  0.000000  1
  P  P17  1  0.000000  0.178973  0.500000  1
  P  P18  1  0.826844  0.822164  0.500000  1
  P  P19  1  0.173156  0.995322  0.500000  1
  Ir  Ir20  1  0.512085  0.865289  0.000000  1
  Ir  Ir21  1  0.136318  0.645618  0.000000  1
  Ir  Ir22  1  0.352760  0.488455  0.000000  1
  Ir  Ir23  1  0.487915  0.353201  0.000000  1
  Ir  Ir24  1  0.863682  0.509299  0.000000  1
  Ir  Ir25  1  0.647240  0.135695  0.000000  1
  Ir  Ir26  1  0.000000  0.280738  0.000000  1
  Ir  Ir27  1  0.718107  0.720117  0.000000  1
  Ir  Ir28  1  0.281893  0.002008  0.000000  1
  Ir  Ir29  1  0.635055  0.812263  0.500000  1
  Ir  Ir30  1  0.192306  0.822387  0.500000  1
  Ir  Ir31  1  0.177628  0.366609  0.500000  1
  Ir  Ir32  1  0.364945  0.177209  0.500000  1
  Ir  Ir33  1  0.807694  0.630081  0.500000  1
  Ir  Ir34  1  0.822372  0.188982  0.500000  1
  Ir  Ir35  1  0.000000  0.003746  0.500000  1
