# generated using pymatgen
data_LiCeH6Ru
_symmetry_space_group_name_H-M   'P 1'
_cell_length_a   5.05030551
_cell_length_b   5.06472430
_cell_length_c   5.05318169
_cell_angle_alpha   59.42101965
_cell_angle_beta   59.21039270
_cell_angle_gamma   59.44704083
_symmetry_Int_Tables_number   1
_chemical_formula_structural   LiCeH6Ru
_chemical_formula_sum   'Li1 Ce1 H6 Ru1'
_cell_volume   90.06176938
_cell_formula_units_Z   1
loop_
 _symmetry_equiv_pos_site_id
 _symmetry_equiv_pos_as_xyz
  1  'x, y, z'
loop_
 _atom_site_type_symbol
 _atom_site_label
 _atom_site_symmetry_multiplicity
 _atom_site_fract_x
 _atom_site_fract_y
 _atom_site_fract_z
 _atom_site_occupancy
  Li  Li0  1  0.746936  0.751098  0.746754  1
  Ce  Ce1  1  0.248993  0.250529  0.248927  1
  H  H2  1  0.240404  0.759051  0.240565  1
  H  H3  1  0.758249  0.759395  0.244792  1
  H  H4  1  0.758201  0.239052  0.242574  1
  H  H5  1  0.244492  0.759717  0.758434  1
  H  H6  1  0.759895  0.242186  0.759787  1
  H  H7  1  0.242685  0.239341  0.757960  1
  Ru  Ru8  1  0.000145  0.999627  0.000207  1
