# generated using pymatgen
data_TbEu3Al6(O3F)4
_symmetry_space_group_name_H-M   'P 1'
_cell_length_a   7.82635427
_cell_length_b   7.82635357
_cell_length_c   7.82635415
_cell_angle_alpha   109.53013049
_cell_angle_beta   109.53013312
_cell_angle_gamma   109.53011967
_symmetry_Int_Tables_number   1
_chemical_formula_structural   TbEu3Al6(O3F)4
_chemical_formula_sum   'Tb1 Eu3 Al6 O12 F4'
_cell_volume   368.21862992
_cell_formula_units_Z   1
loop_
 _symmetry_equiv_pos_site_id
 _symmetry_equiv_pos_as_xyz
  1  'x, y, z'
loop_
 _atom_site_type_symbol
 _atom_site_label
 _atom_site_symmetry_multiplicity
 _atom_site_fract_x
 _atom_site_fract_y
 _atom_site_fract_z
 _atom_site_occupancy
  Tb  Tb0  1  0.311455  0.311455  0.311455  1
  Eu  Eu1  1  0.693759  0.002166  0.002166  1
  Eu  Eu2  1  0.002166  0.693759  0.002166  1
  Eu  Eu3  1  0.002166  0.002166  0.693759  1
  Al  Al4  1  0.245899  0.745259  0.495749  1
  Al  Al5  1  0.745259  0.245899  0.495749  1
  Al  Al6  1  0.745259  0.495749  0.245899  1
  Al  Al7  1  0.245899  0.495749  0.745259  1
  Al  Al8  1  0.495749  0.245899  0.745259  1
  Al  Al9  1  0.495749  0.745259  0.245899  1
  O  O10  1  0.276432  0.547872  0.547872  1
  O  O11  1  0.716150  0.276630  0.276630  1
  O  O12  1  0.995985  0.438452  0.717908  1
  O  O13  1  0.547872  0.547872  0.276432  1
  O  O14  1  0.995985  0.717908  0.438452  1
  O  O15  1  0.276630  0.276630  0.716150  1
  O  O16  1  0.438452  0.717908  0.995985  1
  O  O17  1  0.717908  0.438452  0.995985  1
  O  O18  1  0.547872  0.276432  0.547872  1
  O  O19  1  0.717908  0.995985  0.438452  1
  O  O20  1  0.438452  0.995985  0.717908  1
  O  O21  1  0.276630  0.716150  0.276630  1
  F  F22  1  0.783343  0.783343  0.783343  1
  F  F23  1  0.237332  0.024843  0.024843  1
  F  F24  1  0.024843  0.237332  0.024843  1
  F  F25  1  0.024843  0.024843  0.237332  1
