# generated using pymatgen
data_Ac(BrF4)3
_symmetry_space_group_name_H-M   'P 1'
_cell_length_a   8.58918989
_cell_length_b   8.58919056
_cell_length_c   8.58919176
_cell_angle_alpha   78.42767318
_cell_angle_beta   78.42767446
_cell_angle_gamma   78.42767515
_symmetry_Int_Tables_number   1
_chemical_formula_structural   Ac(BrF4)3
_chemical_formula_sum   'Ac2 Br6 F24'
_cell_volume   599.61134227
_cell_formula_units_Z   2
loop_
 _symmetry_equiv_pos_site_id
 _symmetry_equiv_pos_as_xyz
  1  'x, y, z'
loop_
 _atom_site_type_symbol
 _atom_site_label
 _atom_site_symmetry_multiplicity
 _atom_site_fract_x
 _atom_site_fract_y
 _atom_site_fract_z
 _atom_site_occupancy
  Ac  Ac0  1  0.250000  0.250000  0.250000  1
  Ac  Ac1  1  0.750000  0.750000  0.750000  1
  Br  Br2  1  0.164710  0.335290  0.750000  1
  Br  Br3  1  0.250000  0.835290  0.664710  1
  Br  Br4  1  0.664710  0.250000  0.835290  1
  Br  Br5  1  0.835290  0.664710  0.250000  1
  Br  Br6  1  0.335290  0.750000  0.164710  1
  Br  Br7  1  0.750000  0.164710  0.335290  1
  F  F8  1  0.516212  0.197524  0.369933  1
  F  F9  1  0.369933  0.516212  0.197524  1
  F  F10  1  0.197524  0.369933  0.516212  1
  F  F11  1  0.983788  0.130067  0.302476  1
  F  F12  1  0.302476  0.983788  0.130067  1
  F  F13  1  0.130067  0.302476  0.983788  1
  F  F14  1  0.483788  0.802476  0.630067  1
  F  F15  1  0.630067  0.483788  0.802476  1
  F  F16  1  0.022575  0.477425  0.250000  1
  F  F17  1  0.477425  0.250000  0.022575  1
  F  F18  1  0.250000  0.022575  0.477425  1
  F  F19  1  0.977425  0.522575  0.750000  1
  F  F20  1  0.522575  0.750000  0.977425  1
  F  F21  1  0.750000  0.977425  0.522575  1
  F  F22  1  0.665870  0.834130  0.250000  1
  F  F23  1  0.834130  0.250000  0.665870  1
  F  F24  1  0.250000  0.665870  0.834130  1
  F  F25  1  0.334130  0.165870  0.750000  1
  F  F26  1  0.165870  0.750000  0.334130  1
  F  F27  1  0.750000  0.334130  0.165870  1
  F  F28  1  0.869933  0.697524  0.016212  1
  F  F29  1  0.697524  0.016212  0.869933  1
  F  F30  1  0.016212  0.869933  0.697524  1
  F  F31  1  0.802476  0.630067  0.483788  1
