# generated using pymatgen
data_Er4Cd3Co2
_symmetry_space_group_name_H-M   'P 1'
_cell_length_a   3.67908500
_cell_length_b   7.30212879
_cell_length_c   7.93342847
_cell_angle_alpha   71.26671831
_cell_angle_beta   90.00000000
_cell_angle_gamma   90.00000000
_symmetry_Int_Tables_number   1
_chemical_formula_structural   Er4Cd3Co2
_chemical_formula_sum   'Er4 Cd3 Co2'
_cell_volume   201.84181904
_cell_formula_units_Z   1
loop_
 _symmetry_equiv_pos_site_id
 _symmetry_equiv_pos_as_xyz
  1  'x, y, z'
loop_
 _atom_site_type_symbol
 _atom_site_label
 _atom_site_symmetry_multiplicity
 _atom_site_fract_x
 _atom_site_fract_y
 _atom_site_fract_z
 _atom_site_occupancy
  Er  Er0  1  0.500000  0.603487  0.185451  1
  Er  Er1  1  0.500000  0.396513  0.814549  1
  Er  Er2  1  0.500000  0.095557  0.275248  1
  Er  Er3  1  0.500000  0.904443  0.724752  1
  Cd  Cd4  1  0.000000  0.708167  0.501885  1
  Cd  Cd5  1  0.000000  0.000000  0.000000  1
  Cd  Cd6  1  0.000000  0.291833  0.498115  1
  Co  Co7  1  0.000000  0.649495  0.896163  1
  Co  Co8  1  0.000000  0.350505  0.103837  1
