# generated using pymatgen
data_Ca5Nd8Tm7Si16
_symmetry_space_group_name_H-M   'P 1'
_cell_length_a   7.79008595
_cell_length_b   7.79240629
_cell_length_c   14.22282586
_cell_angle_alpha   89.97548964
_cell_angle_beta   90.16315443
_cell_angle_gamma   89.98045610
_symmetry_Int_Tables_number   1
_chemical_formula_structural   Ca5Nd8Tm7Si16
_chemical_formula_sum   'Ca5 Nd8 Tm7 Si16'
_cell_volume   863.37188916
_cell_formula_units_Z   1
loop_
 _symmetry_equiv_pos_site_id
 _symmetry_equiv_pos_as_xyz
  1  'x, y, z'
loop_
 _atom_site_type_symbol
 _atom_site_label
 _atom_site_symmetry_multiplicity
 _atom_site_fract_x
 _atom_site_fract_y
 _atom_site_fract_z
 _atom_site_occupancy
  Ca  Ca0  1  0.491218  0.363225  0.122868  1
  Ca  Ca1  1  0.316284  0.316616  0.500874  1
  Ca  Ca2  1  0.183937  0.815813  0.749458  1
  Ca  Ca3  1  0.812102  0.185767  0.249269  1
  Ca  Ca4  1  0.682862  0.681045  0.000861  1
  Nd  Nd5  1  0.640813  0.991647  0.459326  1
  Nd  Nd6  1  0.360712  0.006544  0.957992  1
  Nd  Nd7  1  0.991998  0.641654  0.540786  1
  Nd  Nd8  1  0.491200  0.859401  0.209506  1
  Nd  Nd9  1  0.508983  0.141567  0.709237  1
  Nd  Nd10  1  0.858478  0.491950  0.790132  1
  Nd  Nd11  1  0.140727  0.506944  0.292387  1
  Nd  Nd12  1  0.009536  0.359401  0.040272  1
  Tm  Tm13  1  0.994244  0.135548  0.627018  1
  Tm  Tm14  1  0.864925  0.005799  0.871432  1
  Tm  Tm15  1  0.135270  0.994374  0.375268  1
  Tm  Tm16  1  0.506038  0.635375  0.623226  1
  Tm  Tm17  1  0.364292  0.494744  0.875237  1
  Tm  Tm18  1  0.636831  0.507754  0.378163  1
  Tm  Tm19  1  0.006563  0.864795  0.126622  1
  Si  Si20  1  0.290728  0.928122  0.558982  1
  Si  Si21  1  0.714109  0.067239  0.055137  1
  Si  Si22  1  0.927549  0.289482  0.442286  1
  Si  Si23  1  0.426214  0.205645  0.311469  1
  Si  Si24  1  0.572210  0.789380  0.807998  1
  Si  Si25  1  0.209851  0.428582  0.691605  1
  Si  Si26  1  0.794746  0.576352  0.194223  1
  Si  Si27  1  0.070249  0.711290  0.940710  1
  Si  Si28  1  0.787436  0.850917  0.684589  1
  Si  Si29  1  0.206034  0.148546  0.189885  1
  Si  Si30  1  0.852692  0.789201  0.316110  1
  Si  Si31  1  0.350482  0.710950  0.435967  1
  Si  Si32  1  0.651304  0.285124  0.931648  1
  Si  Si33  1  0.712171  0.350703  0.564642  1
  Si  Si34  1  0.286501  0.656844  0.060610  1
  Si  Si35  1  0.150713  0.211660  0.814205  1
