# generated using pymatgen
data_Y10Er2Tc3Ni
_symmetry_space_group_name_H-M   'P 1'
_cell_length_a   6.30649544
_cell_length_b   7.38031295
_cell_length_c   9.23129304
_cell_angle_alpha   89.99641650
_cell_angle_beta   90.20705692
_cell_angle_gamma   90.19504766
_symmetry_Int_Tables_number   1
_chemical_formula_structural   Y10Er2Tc3Ni
_chemical_formula_sum   'Y10 Er2 Tc3 Ni1'
_cell_volume   429.65517662
_cell_formula_units_Z   1
loop_
 _symmetry_equiv_pos_site_id
 _symmetry_equiv_pos_as_xyz
  1  'x, y, z'
loop_
 _atom_site_type_symbol
 _atom_site_label
 _atom_site_symmetry_multiplicity
 _atom_site_fract_x
 _atom_site_fract_y
 _atom_site_fract_z
 _atom_site_occupancy
  Y  Y0  1  0.329589  0.677310  0.067323  1
  Y  Y1  1  0.163077  0.176937  0.436715  1
  Y  Y2  1  0.665524  0.323925  0.562389  1
  Y  Y3  1  0.836189  0.824298  0.938395  1
  Y  Y4  1  0.665934  0.322970  0.937859  1
  Y  Y5  1  0.835729  0.823261  0.561341  1
  Y  Y6  1  0.872561  0.540768  0.250062  1
  Y  Y7  1  0.622939  0.039913  0.249882  1
  Y  Y8  1  0.139784  0.456948  0.749866  1
  Y  Y9  1  0.372292  0.958023  0.749851  1
  Er  Er10  1  0.329101  0.676346  0.432172  1
  Er  Er11  1  0.163642  0.176126  0.063144  1
  Tc  Tc12  1  0.039928  0.886032  0.249798  1
  Tc  Tc13  1  0.458598  0.387734  0.250184  1
  Tc  Tc14  1  0.961204  0.113831  0.750879  1
  Ni  Ni15  1  0.543907  0.615579  0.750141  1
