# generated using pymatgen
data_Nd3Sm9(GaBr3)4
_symmetry_space_group_name_H-M   'P 1'
_cell_length_a   10.39436525
_cell_length_b   10.39247760
_cell_length_c   10.39166700
_cell_angle_alpha   109.44366779
_cell_angle_beta   109.47160992
_cell_angle_gamma   109.50205233
_symmetry_Int_Tables_number   1
_chemical_formula_structural   Nd3Sm9(GaBr3)4
_chemical_formula_sum   'Nd3 Sm9 Ga4 Br12'
_cell_volume   864.09333362
_cell_formula_units_Z   1
loop_
 _symmetry_equiv_pos_site_id
 _symmetry_equiv_pos_as_xyz
  1  'x, y, z'
loop_
 _atom_site_type_symbol
 _atom_site_label
 _atom_site_symmetry_multiplicity
 _atom_site_fract_x
 _atom_site_fract_y
 _atom_site_fract_z
 _atom_site_occupancy
  Nd  Nd0  1  0.017058  0.258318  0.008502  1
  Nd  Nd1  1  0.750253  0.008692  0.491507  1
  Nd  Nd2  1  0.258347  0.749652  0.241190  1
  Sm  Sm3  1  0.491277  0.750619  0.009085  1
  Sm  Sm4  1  0.750965  0.241550  0.259374  1
  Sm  Sm5  1  0.009685  0.490714  0.749733  1
  Sm  Sm6  1  0.240913  0.258946  0.749371  1
  Sm  Sm7  1  0.491333  0.240960  0.481931  1
  Sm  Sm8  1  0.481322  0.490574  0.240547  1
  Sm  Sm9  1  0.258852  0.009688  0.018164  1
  Sm  Sm10  1  0.009435  0.018934  0.259636  1
  Sm  Sm11  1  0.241473  0.481956  0.490722  1
  Ga  Ga12  1  0.500054  0.000976  0.248893  1
  Ga  Ga13  1  0.251166  0.500124  0.999127  1
  Ga  Ga14  1  0.251086  0.250093  0.251002  1
  Ga  Ga15  1  0.000789  0.250882  0.499871  1
  Br  Br16  1  0.754507  0.744242  0.248450  1
  Br  Br17  1  0.994045  0.504224  0.251417  1
  Br  Br18  1  0.250031  0.754564  0.745512  1
  Br  Br19  1  0.754536  0.508890  0.504459  1
  Br  Br20  1  0.504478  0.250084  0.995556  1
  Br  Br21  1  0.743996  0.993917  0.991261  1
  Br  Br22  1  0.997462  0.989725  0.745847  1
  Br  Br23  1  0.508961  0.504429  0.754394  1
  Br  Br24  1  0.250045  0.997287  0.506087  1
  Br  Br25  1  0.743921  0.251634  0.754099  1
  Br  Br26  1  0.504291  0.752780  0.510258  1
  Br  Br27  1  0.989721  0.745548  0.994007  1
