# generated using pymatgen
data_TiMn2NbP2
_symmetry_space_group_name_H-M   'P 1'
_cell_length_a   3.49935200
_cell_length_b   6.19750809
_cell_length_c   7.23415384
_cell_angle_alpha   89.71380475
_cell_angle_beta   90.00000000
_cell_angle_gamma   90.00000000
_symmetry_Int_Tables_number   1
_chemical_formula_structural   TiMn2NbP2
_chemical_formula_sum   'Ti2 Mn4 Nb2 P4'
_cell_volume   156.88703489
_cell_formula_units_Z   2
loop_
 _symmetry_equiv_pos_site_id
 _symmetry_equiv_pos_as_xyz
  1  'x, y, z'
loop_
 _atom_site_type_symbol
 _atom_site_label
 _atom_site_symmetry_multiplicity
 _atom_site_fract_x
 _atom_site_fract_y
 _atom_site_fract_z
 _atom_site_occupancy
  Ti  Ti0  1  0.250000  0.531582  0.671808  1
  Ti  Ti1  1  0.750000  0.468418  0.328192  1
  Mn  Mn2  1  0.750000  0.861181  0.559245  1
  Mn  Mn3  1  0.250000  0.138819  0.440755  1
  Mn  Mn4  1  0.750000  0.360946  0.939998  1
  Mn  Mn5  1  0.250000  0.639054  0.060002  1
  Nb  Nb6  1  0.250000  0.032926  0.827988  1
  Nb  Nb7  1  0.750000  0.967074  0.172012  1
  P  P8  1  0.250000  0.272533  0.135289  1
  P  P9  1  0.750000  0.727467  0.864711  1
  P  P10  1  0.250000  0.759764  0.372145  1
  P  P11  1  0.750000  0.240236  0.627855  1
