# generated using pymatgen
data_Tb2Er3Sn3Bi
_symmetry_space_group_name_H-M   'P 1'
_cell_length_a   8.14976300
_cell_length_b   8.17081300
_cell_length_c   15.41522900
_cell_angle_alpha   90.00000000
_cell_angle_beta   90.00000000
_cell_angle_gamma   90.00000000
_symmetry_Int_Tables_number   1
_chemical_formula_structural   Tb2Er3Sn3Bi
_chemical_formula_sum   'Tb8 Er12 Sn12 Bi4'
_cell_volume   1026.50301979
_cell_formula_units_Z   4
loop_
 _symmetry_equiv_pos_site_id
 _symmetry_equiv_pos_as_xyz
  1  'x, y, z'
loop_
 _atom_site_type_symbol
 _atom_site_label
 _atom_site_symmetry_multiplicity
 _atom_site_fract_x
 _atom_site_fract_y
 _atom_site_fract_z
 _atom_site_occupancy
  Tb  Tb0  1  0.538621  0.324464  0.897162  1
  Tb  Tb1  1  0.038621  0.175536  0.602838  1
  Tb  Tb2  1  0.461379  0.675536  0.397162  1
  Tb  Tb3  1  0.961379  0.824464  0.102838  1
  Tb  Tb4  1  0.479445  0.675460  0.101233  1
  Tb  Tb5  1  0.979445  0.824540  0.398767  1
  Tb  Tb6  1  0.520555  0.324540  0.601233  1
  Tb  Tb7  1  0.020555  0.175460  0.898767  1
  Er  Er8  1  0.373462  0.839794  0.874460  1
  Er  Er9  1  0.873462  0.660206  0.625540  1
  Er  Er10  1  0.626538  0.160206  0.374460  1
  Er  Er11  1  0.126538  0.339794  0.125540  1
  Er  Er12  1  0.636028  0.163084  0.123791  1
  Er  Er13  1  0.136028  0.336916  0.376209  1
  Er  Er14  1  0.363972  0.836916  0.623791  1
  Er  Er15  1  0.863972  0.663084  0.876209  1
  Er  Er16  1  0.197411  0.501013  0.746938  1
  Er  Er17  1  0.697411  0.998987  0.753062  1
  Er  Er18  1  0.802589  0.498987  0.246938  1
  Er  Er19  1  0.302589  0.001013  0.253062  1
  Sn  Sn20  1  0.709482  0.964970  0.957983  1
  Sn  Sn21  1  0.209482  0.535030  0.542017  1
  Sn  Sn22  1  0.290518  0.035030  0.457983  1
  Sn  Sn23  1  0.790518  0.464970  0.042017  1
  Sn  Sn24  1  0.563812  0.621726  0.748703  1
  Sn  Sn25  1  0.063812  0.878274  0.751297  1
  Sn  Sn26  1  0.436188  0.378274  0.248703  1
  Sn  Sn27  1  0.936188  0.121726  0.251297  1
  Sn  Sn28  1  0.334911  0.148009  0.751269  1
  Sn  Sn29  1  0.834911  0.351991  0.748731  1
  Sn  Sn30  1  0.665089  0.851991  0.251269  1
  Sn  Sn31  1  0.165089  0.648009  0.248731  1
  Bi  Bi32  1  0.285631  0.034365  0.042402  1
  Bi  Bi33  1  0.785631  0.465635  0.457598  1
  Bi  Bi34  1  0.714369  0.965635  0.542402  1
  Bi  Bi35  1  0.214369  0.534365  0.957598  1
