# generated using pymatgen
data_Tm2ThZnPt5
_symmetry_space_group_name_H-M   'P 1'
_cell_length_a   8.28900800
_cell_length_b   8.28900900
_cell_length_c   13.19651300
_cell_angle_alpha   90.00000000
_cell_angle_beta   90.00000000
_cell_angle_gamma   127.33864944
_symmetry_Int_Tables_number   1
_chemical_formula_structural   Tm2ThZnPt5
_chemical_formula_sum   'Tm8 Th4 Zn4 Pt20'
_cell_volume   720.88623970
_cell_formula_units_Z   4
loop_
 _symmetry_equiv_pos_site_id
 _symmetry_equiv_pos_as_xyz
  1  'x, y, z'
loop_
 _atom_site_type_symbol
 _atom_site_label
 _atom_site_symmetry_multiplicity
 _atom_site_fract_x
 _atom_site_fract_y
 _atom_site_fract_z
 _atom_site_occupancy
  Tm  Tm0  1  0.630045  0.369955  0.461035  1
  Tm  Tm1  1  0.369955  0.630045  0.538965  1
  Tm  Tm2  1  0.630045  0.369955  0.038965  1
  Tm  Tm3  1  0.369955  0.630045  0.961035  1
  Tm  Tm4  1  0.880578  0.119422  0.947773  1
  Tm  Tm5  1  0.119422  0.880578  0.052227  1
  Tm  Tm6  1  0.880578  0.119422  0.552227  1
  Tm  Tm7  1  0.119422  0.880578  0.447773  1
  Th  Th8  1  0.932643  0.067357  0.250000  1
  Th  Th9  1  0.067357  0.932643  0.750000  1
  Th  Th10  1  0.316394  0.683606  0.250000  1
  Th  Th11  1  0.683606  0.316394  0.750000  1
  Zn  Zn12  1  0.719142  0.280858  0.250000  1
  Zn  Zn13  1  0.280858  0.719142  0.750000  1
  Zn  Zn14  1  0.533718  0.466282  0.250000  1
  Zn  Zn15  1  0.466282  0.533718  0.750000  1
  Pt  Pt16  1  0.319661  0.066992  0.250000  1
  Pt  Pt17  1  0.066992  0.319661  0.750000  1
  Pt  Pt18  1  0.680339  0.933008  0.750000  1
  Pt  Pt19  1  0.933008  0.680339  0.250000  1
  Pt  Pt20  1  0.564599  0.999669  0.397765  1
  Pt  Pt21  1  0.999669  0.564599  0.602235  1
  Pt  Pt22  1  0.564599  0.999669  0.102235  1
  Pt  Pt23  1  0.999669  0.564599  0.897765  1
  Pt  Pt24  1  0.435401  0.000331  0.602235  1
  Pt  Pt25  1  0.000331  0.435401  0.397765  1
  Pt  Pt26  1  0.435401  0.000331  0.897765  1
  Pt  Pt27  1  0.000331  0.435401  0.102235  1
  Pt  Pt28  1  0.691412  0.746255  0.395860  1
  Pt  Pt29  1  0.746255  0.691412  0.604140  1
  Pt  Pt30  1  0.691412  0.746255  0.104140  1
  Pt  Pt31  1  0.746255  0.691412  0.895860  1
  Pt  Pt32  1  0.308588  0.253745  0.604140  1
  Pt  Pt33  1  0.253745  0.308588  0.395860  1
  Pt  Pt34  1  0.308588  0.253745  0.895860  1
  Pt  Pt35  1  0.253745  0.308588  0.104140  1
