# generated using pymatgen
data_Li(TiS2)4
_symmetry_space_group_name_H-M   'P 1'
_cell_length_a   6.81842143
_cell_length_b   6.81842163
_cell_length_c   8.60170958
_cell_angle_alpha   53.66884238
_cell_angle_beta   53.66884171
_cell_angle_gamma   60.10551024
_symmetry_Int_Tables_number   1
_chemical_formula_structural   Li(TiS2)4
_chemical_formula_sum   'Li1 Ti4 S8'
_cell_volume   252.75334575
_cell_formula_units_Z   1
loop_
 _symmetry_equiv_pos_site_id
 _symmetry_equiv_pos_as_xyz
  1  'x, y, z'
loop_
 _atom_site_type_symbol
 _atom_site_label
 _atom_site_symmetry_multiplicity
 _atom_site_fract_x
 _atom_site_fract_y
 _atom_site_fract_z
 _atom_site_occupancy
  Li  Li0  1  0.500000  0.500000  0.500000  1
  Ti  Ti1  1  0.753963  0.246037  0.000000  1
  Ti  Ti2  1  0.246037  0.753963  0.000000  1
  Ti  Ti3  1  0.245135  0.245135  0.007023  1
  Ti  Ti4  1  0.754865  0.754865  0.992977  1
  S  S5  1  0.967338  0.469811  0.230625  1
  S  S6  1  0.469811  0.967338  0.230625  1
  S  S7  1  0.471678  0.471678  0.225193  1
  S  S8  1  0.967668  0.967668  0.231134  1
  S  S9  1  0.032332  0.032332  0.768866  1
  S  S10  1  0.528322  0.528322  0.774807  1
  S  S11  1  0.530189  0.032662  0.769375  1
  S  S12  1  0.032662  0.530189  0.769375  1
