# generated using pymatgen
data_Tb2Ga9NiIr2
_symmetry_space_group_name_H-M   'P 1'
_cell_length_a   7.55479906
_cell_length_b   7.55479859
_cell_length_c   9.43755300
_cell_angle_alpha   90.00000000
_cell_angle_beta   90.00000000
_cell_angle_gamma   119.90717329
_symmetry_Int_Tables_number   1
_chemical_formula_structural   Tb2Ga9NiIr2
_chemical_formula_sum   'Tb4 Ga18 Ni2 Ir4'
_cell_volume   466.91875203
_cell_formula_units_Z   2
loop_
 _symmetry_equiv_pos_site_id
 _symmetry_equiv_pos_as_xyz
  1  'x, y, z'
loop_
 _atom_site_type_symbol
 _atom_site_label
 _atom_site_symmetry_multiplicity
 _atom_site_fract_x
 _atom_site_fract_y
 _atom_site_fract_z
 _atom_site_occupancy
  Tb  Tb0  1  0.996311  0.662938  0.250000  1
  Tb  Tb1  1  0.003689  0.337062  0.750000  1
  Tb  Tb2  1  0.662938  0.996311  0.250000  1
  Tb  Tb3  1  0.337062  0.003689  0.750000  1
  Ga  Ga4  1  0.113926  0.113926  0.250000  1
  Ga  Ga5  1  0.886074  0.886074  0.750000  1
  Ga  Ga6  1  0.999601  0.328374  0.078164  1
  Ga  Ga7  1  0.000399  0.671626  0.921836  1
  Ga  Ga8  1  0.000399  0.671626  0.578164  1
  Ga  Ga9  1  0.328374  0.999601  0.421836  1
  Ga  Ga10  1  0.999601  0.328374  0.421836  1
  Ga  Ga11  1  0.671626  0.000399  0.578164  1
  Ga  Ga12  1  0.671626  0.000399  0.921836  1
  Ga  Ga13  1  0.328374  0.999601  0.078164  1
  Ga  Ga14  1  0.327549  0.327549  0.564450  1
  Ga  Ga15  1  0.672451  0.672451  0.435550  1
  Ga  Ga16  1  0.672451  0.672451  0.064450  1
  Ga  Ga17  1  0.327549  0.327549  0.935550  1
  Ga  Ga18  1  0.337606  0.541498  0.250000  1
  Ga  Ga19  1  0.662394  0.458502  0.750000  1
  Ga  Ga20  1  0.541498  0.337606  0.250000  1
  Ga  Ga21  1  0.458502  0.662394  0.750000  1
  Ni  Ni22  1  0.000000  0.000000  0.000000  1
  Ni  Ni23  1  0.000000  0.000000  0.500000  1
  Ir  Ir24  1  0.671552  0.328448  0.000000  1
  Ir  Ir25  1  0.328448  0.671552  0.000000  1
  Ir  Ir26  1  0.328448  0.671552  0.500000  1
  Ir  Ir27  1  0.671552  0.328448  0.500000  1
