# generated using pymatgen
data_CeDy15(TmSn4)4
_symmetry_space_group_name_H-M   'P 1'
_cell_length_a   8.02297733
_cell_length_b   8.17097954
_cell_length_c   15.46298800
_cell_angle_alpha   89.98969220
_cell_angle_beta   89.77780717
_cell_angle_gamma   90.10377354
_symmetry_Int_Tables_number   1
_chemical_formula_structural   CeDy15(TmSn4)4
_chemical_formula_sum   'Ce1 Dy15 Tm4 Sn16'
_cell_volume   1013.67590044
_cell_formula_units_Z   1
loop_
 _symmetry_equiv_pos_site_id
 _symmetry_equiv_pos_as_xyz
  1  'x, y, z'
loop_
 _atom_site_type_symbol
 _atom_site_label
 _atom_site_symmetry_multiplicity
 _atom_site_fract_x
 _atom_site_fract_y
 _atom_site_fract_z
 _atom_site_occupancy
  Ce  Ce0  1  0.516603  0.318522  0.406631  1
  Dy  Dy1  1  0.020392  0.179115  0.403090  1
  Dy  Dy2  1  0.366475  0.837463  0.121955  1
  Dy  Dy3  1  0.134213  0.337494  0.623058  1
  Dy  Dy4  1  0.480021  0.679934  0.902817  1
  Dy  Dy5  1  0.866431  0.662312  0.122230  1
  Dy  Dy6  1  0.133020  0.337624  0.877245  1
  Dy  Dy7  1  0.481646  0.680462  0.597000  1
  Dy  Dy8  1  0.635084  0.162633  0.622961  1
  Dy  Dy9  1  0.865598  0.664064  0.377122  1
  Dy  Dy10  1  0.020162  0.178803  0.096279  1
  Dy  Dy11  1  0.979588  0.820508  0.902666  1
  Dy  Dy12  1  0.633407  0.162172  0.877488  1
  Dy  Dy13  1  0.520154  0.319571  0.097458  1
  Dy  Dy14  1  0.364409  0.837433  0.377493  1
  Dy  Dy15  1  0.981098  0.820318  0.596733  1
  Tm  Tm16  1  0.196687  0.503711  0.249314  1
  Tm  Tm17  1  0.697172  0.997054  0.249443  1
  Tm  Tm18  1  0.303004  0.002923  0.750022  1
  Tm  Tm19  1  0.803336  0.496956  0.750057  1
  Sn  Sn20  1  0.797252  0.464811  0.542949  1
  Sn  Sn21  1  0.707362  0.963201  0.457361  1
  Sn  Sn22  1  0.671222  0.850637  0.749511  1
  Sn  Sn23  1  0.203487  0.538853  0.458175  1
  Sn  Sn24  1  0.292257  0.036632  0.957286  1
  Sn  Sn25  1  0.830372  0.350761  0.249707  1
  Sn  Sn26  1  0.792619  0.463258  0.957536  1
  Sn  Sn27  1  0.562765  0.617747  0.250464  1
  Sn  Sn28  1  0.207678  0.535561  0.042385  1
  Sn  Sn29  1  0.437333  0.382363  0.750005  1
  Sn  Sn30  1  0.171399  0.649326  0.749685  1
  Sn  Sn31  1  0.936673  0.117619  0.749918  1
  Sn  Sn32  1  0.293120  0.036428  0.542520  1
  Sn  Sn33  1  0.707358  0.963163  0.042089  1
  Sn  Sn34  1  0.327809  0.148125  0.249810  1
  Sn  Sn35  1  0.062792  0.882440  0.249537  1
