# generated using pymatgen
data_Nd16Ag3HgPt4
_symmetry_space_group_name_H-M   'P 1'
_cell_length_a   9.92953937
_cell_length_b   9.99236644
_cell_length_c   9.99236700
_cell_angle_alpha   60.00000146
_cell_angle_beta   59.79047476
_cell_angle_gamma   59.79047400
_symmetry_Int_Tables_number   1
_chemical_formula_structural   Nd16Ag3HgPt4
_chemical_formula_sum   'Nd16 Ag3 Hg1 Pt4'
_cell_volume   698.82454713
_cell_formula_units_Z   1
loop_
 _symmetry_equiv_pos_site_id
 _symmetry_equiv_pos_as_xyz
  1  'x, y, z'
loop_
 _atom_site_type_symbol
 _atom_site_label
 _atom_site_symmetry_multiplicity
 _atom_site_fract_x
 _atom_site_fract_y
 _atom_site_fract_z
 _atom_site_occupancy
  Nd  Nd0  1  0.353830  0.352884  0.352884  1
  Nd  Nd1  1  0.353830  0.352884  0.940402  1
  Nd  Nd2  1  0.353830  0.940402  0.352884  1
  Nd  Nd3  1  0.936847  0.354384  0.354384  1
  Nd  Nd4  1  0.810564  0.189944  0.189944  1
  Nd  Nd5  1  0.191640  0.808326  0.808326  1
  Nd  Nd6  1  0.191640  0.808326  0.191709  1
  Nd  Nd7  1  0.810564  0.189944  0.809549  1
  Nd  Nd8  1  0.191640  0.191709  0.808326  1
  Nd  Nd9  1  0.810564  0.809549  0.189944  1
  Nd  Nd10  1  0.932422  0.564931  0.564931  1
  Nd  Nd11  1  0.564046  0.935754  0.935754  1
  Nd  Nd12  1  0.564046  0.935754  0.564446  1
  Nd  Nd13  1  0.932422  0.564931  0.937716  1
  Nd  Nd14  1  0.564046  0.564446  0.935754  1
  Nd  Nd15  1  0.932422  0.937716  0.564931  1
  Ag  Ag16  1  0.582818  0.583336  0.583336  1
  Ag  Ag17  1  0.582818  0.583336  0.250510  1
  Ag  Ag18  1  0.582818  0.250510  0.583336  1
  Hg  Hg19  1  0.256092  0.581303  0.581303  1
  Pt  Pt20  1  0.143839  0.143904  0.143904  1
  Pt  Pt21  1  0.143839  0.143904  0.568352  1
  Pt  Pt22  1  0.143839  0.568352  0.143904  1
  Pt  Pt23  1  0.569589  0.143470  0.143470  1
