# generated using pymatgen
data_Sm3Y2Tl3Se
_symmetry_space_group_name_H-M   'P 1'
_cell_length_a   9.26287300
_cell_length_b   9.26287333
_cell_length_c   6.81406000
_cell_angle_alpha   90.00000000
_cell_angle_beta   90.00000000
_cell_angle_gamma   119.99999525
_symmetry_Int_Tables_number   1
_chemical_formula_structural   Sm3Y2Tl3Se
_chemical_formula_sum   'Sm6 Y4 Tl6 Se2'
_cell_volume   506.32344849
_cell_formula_units_Z   2
loop_
 _symmetry_equiv_pos_site_id
 _symmetry_equiv_pos_as_xyz
  1  'x, y, z'
loop_
 _atom_site_type_symbol
 _atom_site_label
 _atom_site_symmetry_multiplicity
 _atom_site_fract_x
 _atom_site_fract_y
 _atom_site_fract_z
 _atom_site_occupancy
  Sm  Sm0  1  0.747902  0.747902  0.750000  1
  Sm  Sm1  1  0.252098  0.000000  0.750000  1
  Sm  Sm2  1  0.000000  0.252098  0.750000  1
  Sm  Sm3  1  0.252098  0.252098  0.250000  1
  Sm  Sm4  1  0.747902  0.000000  0.250000  1
  Sm  Sm5  1  0.000000  0.747902  0.250000  1
  Y  Y6  1  0.666667  0.333333  0.000000  1
  Y  Y7  1  0.333333  0.666667  0.000000  1
  Y  Y8  1  0.333333  0.666667  0.500000  1
  Y  Y9  1  0.666667  0.333333  0.500000  1
  Tl  Tl10  1  0.400906  0.400906  0.750000  1
  Tl  Tl11  1  0.599094  0.000000  0.750000  1
  Tl  Tl12  1  0.000000  0.599094  0.750000  1
  Tl  Tl13  1  0.599094  0.599094  0.250000  1
  Tl  Tl14  1  0.400906  0.000000  0.250000  1
  Tl  Tl15  1  0.000000  0.400906  0.250000  1
  Se  Se16  1  0.000000  0.000000  0.000000  1
  Se  Se17  1  0.000000  0.000000  0.500000  1
