# generated using pymatgen
data_ErZr2Fe9
_symmetry_space_group_name_H-M   'P 1'
_cell_length_a   8.43607784
_cell_length_b   8.43607765
_cell_length_c   8.43607732
_cell_angle_alpha   34.27824748
_cell_angle_beta   34.27824778
_cell_angle_gamma   34.27824953
_symmetry_Int_Tables_number   1
_chemical_formula_structural   ErZr2Fe9
_chemical_formula_sum   'Er1 Zr2 Fe9'
_cell_volume   169.83568968
_cell_formula_units_Z   1
loop_
 _symmetry_equiv_pos_site_id
 _symmetry_equiv_pos_as_xyz
  1  'x, y, z'
loop_
 _atom_site_type_symbol
 _atom_site_label
 _atom_site_symmetry_multiplicity
 _atom_site_fract_x
 _atom_site_fract_y
 _atom_site_fract_z
 _atom_site_occupancy
  Er  Er0  1  0.000000  0.000000  0.000000  1
  Zr  Zr1  1  0.142494  0.142494  0.142494  1
  Zr  Zr2  1  0.857506  0.857506  0.857506  1
  Fe  Fe3  1  0.415055  0.415055  0.917297  1
  Fe  Fe4  1  0.917297  0.415055  0.415055  1
  Fe  Fe5  1  0.584945  0.082703  0.584945  1
  Fe  Fe6  1  0.584945  0.584945  0.082703  1
  Fe  Fe7  1  0.415055  0.917297  0.415055  1
  Fe  Fe8  1  0.082703  0.584945  0.584945  1
  Fe  Fe9  1  0.332832  0.332832  0.332832  1
  Fe  Fe10  1  0.667168  0.667168  0.667168  1
  Fe  Fe11  1  0.500000  0.500000  0.500000  1
