# generated using pymatgen
data_Tb4Al13Ga5Ir6
_symmetry_space_group_name_H-M   'P 1'
_cell_length_a   7.54075327
_cell_length_b   7.54141920
_cell_length_c   9.58523900
_cell_angle_alpha   90.00000000
_cell_angle_beta   90.00000000
_cell_angle_gamma   119.57066475
_symmetry_Int_Tables_number   1
_chemical_formula_structural   Tb4Al13Ga5Ir6
_chemical_formula_sum   'Tb4 Al13 Ga5 Ir6'
_cell_volume   474.09355899
_cell_formula_units_Z   1
loop_
 _symmetry_equiv_pos_site_id
 _symmetry_equiv_pos_as_xyz
  1  'x, y, z'
loop_
 _atom_site_type_symbol
 _atom_site_label
 _atom_site_symmetry_multiplicity
 _atom_site_fract_x
 _atom_site_fract_y
 _atom_site_fract_z
 _atom_site_occupancy
  Tb  Tb0  1  0.995088  0.669865  0.250000  1
  Tb  Tb1  1  0.000467  0.326376  0.750000  1
  Tb  Tb2  1  0.670137  0.996504  0.250000  1
  Tb  Tb3  1  0.330505  0.006545  0.750000  1
  Al  Al4  1  0.002736  0.334954  0.072091  1
  Al  Al5  1  0.999218  0.665449  0.927399  1
  Al  Al6  1  0.999218  0.665449  0.572601  1
  Al  Al7  1  0.334780  0.002056  0.428069  1
  Al  Al8  1  0.002736  0.334954  0.427909  1
  Al  Al9  1  0.664717  0.997659  0.572823  1
  Al  Al10  1  0.664717  0.997659  0.927177  1
  Al  Al11  1  0.334780  0.002056  0.071931  1
  Al  Al12  1  0.333960  0.334425  0.556945  1
  Al  Al13  1  0.665775  0.665734  0.446876  1
  Al  Al14  1  0.665775  0.665734  0.053124  1
  Al  Al15  1  0.333960  0.334425  0.943055  1
  Al  Al16  1  0.451020  0.661846  0.750000  1
  Ga  Ga17  1  0.128684  0.128741  0.250000  1
  Ga  Ga18  1  0.869686  0.868941  0.750000  1
  Ga  Ga19  1  0.338514  0.547020  0.250000  1
  Ga  Ga20  1  0.662090  0.454644  0.750000  1
  Ga  Ga21  1  0.546956  0.339106  0.250000  1
  Ir  Ir22  1  0.672369  0.328123  0.000220  1
  Ir  Ir23  1  0.329491  0.671688  0.997784  1
  Ir  Ir24  1  0.329491  0.671688  0.502216  1
  Ir  Ir25  1  0.672369  0.328123  0.499780  1
  Ir  Ir26  1  0.000380  0.000117  0.999951  1
  Ir  Ir27  1  0.000380  0.000117  0.500049  1
