# generated using pymatgen
data_Hf6Zr11ScRe6(NiW)2
_symmetry_space_group_name_H-M   'P 1'
_cell_length_a   8.73021500
_cell_length_b   8.73021528
_cell_length_c   8.47763000
_cell_angle_alpha   90.00000000
_cell_angle_beta   90.00000000
_cell_angle_gamma   120.00000275
_symmetry_Int_Tables_number   1
_chemical_formula_structural   Hf6Zr11ScRe6(NiW)2
_chemical_formula_sum   'Hf6 Zr11 Sc1 Re6 Ni2 W2'
_cell_volume   559.57070516
_cell_formula_units_Z   1
loop_
 _symmetry_equiv_pos_site_id
 _symmetry_equiv_pos_as_xyz
  1  'x, y, z'
loop_
 _atom_site_type_symbol
 _atom_site_label
 _atom_site_symmetry_multiplicity
 _atom_site_fract_x
 _atom_site_fract_y
 _atom_site_fract_z
 _atom_site_occupancy
  Hf  Hf0  1  0.802579  0.197421  0.941860  1
  Hf  Hf1  1  0.802349  0.605911  0.942485  1
  Hf  Hf2  1  0.394089  0.197651  0.942485  1
  Hf  Hf3  1  0.196787  0.803213  0.058753  1
  Hf  Hf4  1  0.196772  0.394575  0.057502  1
  Hf  Hf5  1  0.605425  0.803228  0.057502  1
  Zr  Zr6  1  0.198254  0.397698  0.443020  1
  Zr  Zr7  1  0.602302  0.801746  0.443020  1
  Zr  Zr8  1  0.800661  0.199339  0.557128  1
  Zr  Zr9  1  0.803522  0.602981  0.556712  1
  Zr  Zr10  1  0.397019  0.196478  0.556712  1
  Zr  Zr11  1  0.541574  0.458426  0.247744  1
  Zr  Zr12  1  0.541643  0.083791  0.245064  1
  Zr  Zr13  1  0.916209  0.458357  0.245064  1
  Zr  Zr14  1  0.458210  0.541790  0.752709  1
  Zr  Zr15  1  0.457539  0.916111  0.755643  1
  Zr  Zr16  1  0.083889  0.542461  0.755643  1
  Sc  Sc17  1  0.200233  0.799767  0.441708  1
  Re  Re18  1  0.890412  0.109588  0.248967  1
  Re  Re19  1  0.890130  0.780405  0.248315  1
  Re  Re20  1  0.219595  0.109870  0.248315  1
  Re  Re21  1  0.110029  0.889971  0.752425  1
  Re  Re22  1  0.109393  0.219432  0.750986  1
  Re  Re23  1  0.780568  0.890607  0.750986  1
  Ni  Ni24  1  0.334152  0.665848  0.244541  1
  Ni  Ni25  1  0.666060  0.333940  0.754913  1
  W  W26  1  0.001179  0.998821  0.499801  1
  W  W27  1  0.999424  0.000576  0.999997  1
