# generated using pymatgen
data_La4CuAs2Pd27
_symmetry_space_group_name_H-M   'P 1'
_cell_length_a   9.00661559
_cell_length_b   9.00661584
_cell_length_c   7.15286700
_cell_angle_alpha   90.15176063
_cell_angle_beta   90.15176064
_cell_angle_gamma   89.31909881
_symmetry_Int_Tables_number   1
_chemical_formula_structural   La4CuAs2Pd27
_chemical_formula_sum   'La4 Cu1 As2 Pd27'
_cell_volume   580.18932910
_cell_formula_units_Z   1
loop_
 _symmetry_equiv_pos_site_id
 _symmetry_equiv_pos_as_xyz
  1  'x, y, z'
loop_
 _atom_site_type_symbol
 _atom_site_label
 _atom_site_symmetry_multiplicity
 _atom_site_fract_x
 _atom_site_fract_y
 _atom_site_fract_z
 _atom_site_occupancy
  La  La0  1  0.503375  0.003375  0.937109  1
  La  La1  1  0.996625  0.496625  0.062891  1
  La  La2  1  0.000707  0.999293  0.500000  1
  La  La3  1  0.499293  0.500707  0.500000  1
  Cu  Cu4  1  0.250000  0.750000  0.000000  1
  As  As5  1  0.500419  0.000419  0.447457  1
  As  As6  1  0.999581  0.499581  0.552543  1
  Pd  Pd7  1  0.332171  0.832171  0.617061  1
  Pd  Pd8  1  0.330622  0.168188  0.621427  1
  Pd  Pd9  1  0.668188  0.830622  0.621427  1
  Pd  Pd10  1  0.668113  0.168113  0.618691  1
  Pd  Pd11  1  0.167829  0.667829  0.382939  1
  Pd  Pd12  1  0.169378  0.331812  0.378573  1
  Pd  Pd13  1  0.831812  0.669378  0.378573  1
  Pd  Pd14  1  0.831887  0.331887  0.381309  1
  Pd  Pd15  1  0.497988  0.766810  0.251732  1
  Pd  Pd16  1  0.497704  0.234665  0.253920  1
  Pd  Pd17  1  0.266810  0.997988  0.251732  1
  Pd  Pd18  1  0.734665  0.997704  0.253920  1
  Pd  Pd19  1  0.002012  0.733190  0.748268  1
  Pd  Pd20  1  0.002296  0.265335  0.746080  1
  Pd  Pd21  1  0.233190  0.502012  0.748268  1
  Pd  Pd22  1  0.765335  0.502296  0.746080  1
  Pd  Pd23  1  0.499206  0.351804  0.855550  1
  Pd  Pd24  1  0.493304  0.657725  0.861553  1
  Pd  Pd25  1  0.851804  0.999206  0.855550  1
  Pd  Pd26  1  0.157725  0.993304  0.861553  1
  Pd  Pd27  1  0.000794  0.148196  0.144450  1
  Pd  Pd28  1  0.006696  0.842275  0.138447  1
  Pd  Pd29  1  0.648196  0.500794  0.144450  1
  Pd  Pd30  1  0.342275  0.506696  0.138447  1
  Pd  Pd31  1  0.250000  0.250000  0.000000  1
  Pd  Pd32  1  0.750000  0.750000  0.000000  1
  Pd  Pd33  1  0.750000  0.250000  0.000000  1
