# generated using pymatgen
data_Nb4CoCu3Pt8
_symmetry_space_group_name_H-M   'P 1'
_cell_length_a   4.55050700
_cell_length_b   4.84593600
_cell_length_c   11.02693400
_cell_angle_alpha   90.00000000
_cell_angle_beta   90.00000000
_cell_angle_gamma   90.00000000
_symmetry_Int_Tables_number   1
_chemical_formula_structural   Nb4CoCu3Pt8
_chemical_formula_sum   'Nb4 Co1 Cu3 Pt8'
_cell_volume   243.16005676
_cell_formula_units_Z   1
loop_
 _symmetry_equiv_pos_site_id
 _symmetry_equiv_pos_as_xyz
  1  'x, y, z'
loop_
 _atom_site_type_symbol
 _atom_site_label
 _atom_site_symmetry_multiplicity
 _atom_site_fract_x
 _atom_site_fract_y
 _atom_site_fract_z
 _atom_site_occupancy
  Nb  Nb0  1  0.500000  0.658400  0.256951  1
  Nb  Nb1  1  0.500000  0.658400  0.743049  1
  Nb  Nb2  1  0.000000  0.340968  0.000000  1
  Nb  Nb3  1  0.000000  0.351269  0.500000  1
  Co  Co4  1  0.500000  0.662665  0.500000  1
  Cu  Cu5  1  0.000000  0.324810  0.249700  1
  Cu  Cu6  1  0.000000  0.324810  0.750300  1
  Cu  Cu7  1  0.500000  0.674504  0.000000  1
  Pt  Pt8  1  0.500000  0.176366  0.375456  1
  Pt  Pt9  1  0.500000  0.178629  0.874973  1
  Pt  Pt10  1  0.500000  0.178629  0.125027  1
  Pt  Pt11  1  0.500000  0.176366  0.624544  1
  Pt  Pt12  1  0.000000  0.828762  0.375896  1
  Pt  Pt13  1  0.000000  0.818330  0.874458  1
  Pt  Pt14  1  0.000000  0.818330  0.125542  1
  Pt  Pt15  1  0.000000  0.828762  0.624104  1
