# generated using pymatgen
data_La20Si5Bi7
_symmetry_space_group_name_H-M   'P 1'
_cell_length_a   8.45125562
_cell_length_b   9.65208141
_cell_length_c   12.68770400
_cell_angle_alpha   89.96884138
_cell_angle_beta   90.03551811
_cell_angle_gamma   89.93622992
_symmetry_Int_Tables_number   1
_chemical_formula_structural   La20Si5Bi7
_chemical_formula_sum   'La20 Si5 Bi7'
_cell_volume   1034.96302741
_cell_formula_units_Z   1
loop_
 _symmetry_equiv_pos_site_id
 _symmetry_equiv_pos_as_xyz
  1  'x, y, z'
loop_
 _atom_site_type_symbol
 _atom_site_label
 _atom_site_symmetry_multiplicity
 _atom_site_fract_x
 _atom_site_fract_y
 _atom_site_fract_z
 _atom_site_occupancy
  La  La0  1  0.821788  0.548488  0.067573  1
  La  La1  1  0.682050  0.951764  0.556026  1
  La  La2  1  0.183168  0.050934  0.941411  1
  La  La3  1  0.308436  0.452593  0.438525  1
  La  La4  1  0.183133  0.449887  0.942280  1
  La  La5  1  0.318128  0.048381  0.440680  1
  La  La6  1  0.815865  0.949835  0.059685  1
  La  La7  1  0.687270  0.549333  0.555575  1
  La  La8  1  0.158038  0.738234  0.219861  1
  La  La9  1  0.335474  0.750319  0.712746  1
  La  La10  1  0.835149  0.250267  0.784806  1
  La  La11  1  0.674047  0.259930  0.285241  1
  La  La12  1  0.469099  0.752442  0.004620  1
  La  La13  1  0.025658  0.735292  0.496541  1
  La  La14  1  0.528016  0.248657  0.997239  1
  La  La15  1  0.966135  0.266549  0.490257  1
  La  La16  1  0.649048  0.738253  0.293276  1
  La  La17  1  0.865234  0.750294  0.793384  1
  La  La18  1  0.362724  0.249940  0.706676  1
  La  La19  1  0.129223  0.259905  0.210376  1
  Si  Si20  1  0.413164  0.748370  0.475641  1
  Si  Si21  1  0.089406  0.750295  0.978935  1
  Si  Si22  1  0.585004  0.251731  0.521220  1
  Si  Si23  1  0.910399  0.248743  0.022207  1
  Si  Si24  1  0.931626  0.508467  0.327653  1
  Bi  Bi25  1  0.572490  0.989725  0.823452  1
  Bi  Bi26  1  0.069852  0.009498  0.670604  1
  Bi  Bi27  1  0.427106  0.489797  0.174499  1
  Bi  Bi28  1  0.073444  0.490285  0.678689  1
  Bi  Bi29  1  0.427750  0.009906  0.179397  1
  Bi  Bi30  1  0.928604  0.991267  0.326181  1
  Bi  Bi31  1  0.573471  0.510620  0.824743  1
