# generated using pymatgen
data_NaPt(SO4)3
_symmetry_space_group_name_H-M   'P 1'
_cell_length_a   8.47045991
_cell_length_b   8.64567374
_cell_length_c   8.70164200
_cell_angle_alpha   109.42247235
_cell_angle_beta   107.36604865
_cell_angle_gamma   108.82826557
_symmetry_Int_Tables_number   1
_chemical_formula_structural   NaPt(SO4)3
_chemical_formula_sum   'Na2 Pt2 S6 O24'
_cell_volume   506.64667727
_cell_formula_units_Z   2
loop_
 _symmetry_equiv_pos_site_id
 _symmetry_equiv_pos_as_xyz
  1  'x, y, z'
loop_
 _atom_site_type_symbol
 _atom_site_label
 _atom_site_symmetry_multiplicity
 _atom_site_fract_x
 _atom_site_fract_y
 _atom_site_fract_z
 _atom_site_occupancy
  Na  Na0  1  0.838496  0.403968  0.230647  1
  Na  Na1  1  0.767915  0.153050  0.616123  1
  Pt  Pt2  1  0.012564  0.990859  0.996156  1
  Pt  Pt3  1  0.491985  0.505237  0.503132  1
  S  S4  1  0.574899  0.916402  0.776976  1
  S  S5  1  0.226256  0.424613  0.094090  1
  S  S6  1  0.082914  0.220994  0.422640  1
  S  S7  1  0.911836  0.772934  0.570741  1
  S  S8  1  0.754095  0.555034  0.893046  1
  S  S9  1  0.449676  0.104163  0.245903  1
  O  O10  1  0.038172  0.845058  0.776943  1
  O  O11  1  0.237028  0.970184  0.138199  1
  O  O12  1  0.016373  0.720434  0.478022  1
  O  O13  1  0.532149  0.998273  0.303077  1
  O  O14  1  0.095415  0.451080  0.160954  1
  O  O15  1  0.519526  0.848148  0.891144  1
  O  O16  1  0.504989  0.757249  0.580657  1
  O  O17  1  0.269707  0.506947  0.984046  1
  O  O18  1  0.234830  0.421795  0.488750  1
  O  O19  1  0.158349  0.212140  0.974349  1
  O  O20  1  0.419239  0.489096  0.252758  1
  O  O21  1  0.843616  0.898263  0.542371  1
  O  O22  1  0.160967  0.113282  0.478056  1
  O  O23  1  0.567252  0.530208  0.756958  1
  O  O24  1  0.871334  0.767859  0.020553  1
  O  O25  1  0.747411  0.580663  0.509753  1
  O  O26  1  0.705135  0.483060  0.008984  1
  O  O27  1  0.476697  0.251889  0.430074  1
  O  O28  1  0.520162  0.195006  0.150848  1
  O  O29  1  0.844724  0.478353  0.795789  1
  O  O30  1  0.525184  0.049252  0.738482  1
  O  O31  1  0.948482  0.258180  0.479058  1
  O  O32  1  0.794418  0.018263  0.853077  1
  O  O33  1  0.977493  0.136557  0.209860  1
