# generated using pymatgen
data_Ta3Mo3W10
_symmetry_space_group_name_H-M   'P 1'
_cell_length_a   6.40635537
_cell_length_b   6.40635537
_cell_length_c   6.40739536
_cell_angle_alpha   89.97276337
_cell_angle_beta   89.97276337
_cell_angle_gamma   90.02793652
_symmetry_Int_Tables_number   1
_chemical_formula_structural   Ta3Mo3W10
_chemical_formula_sum   'Ta3 Mo3 W10'
_cell_volume   262.96831575
_cell_formula_units_Z   1
loop_
 _symmetry_equiv_pos_site_id
 _symmetry_equiv_pos_as_xyz
  1  'x, y, z'
loop_
 _atom_site_type_symbol
 _atom_site_label
 _atom_site_symmetry_multiplicity
 _atom_site_fract_x
 _atom_site_fract_y
 _atom_site_fract_z
 _atom_site_occupancy
  Ta  Ta0  1  0.500649  0.999401  0.998246  1
  Ta  Ta1  1  0.999401  0.500649  0.998246  1
  Ta  Ta2  1  0.999443  0.999443  0.501923  1
  Mo  Mo3  1  0.749132  0.250863  0.749050  1
  Mo  Mo4  1  0.250863  0.749132  0.749050  1
  Mo  Mo5  1  0.749065  0.749065  0.749092  1
  W  W6  1  0.999874  0.999874  0.999646  1
  W  W7  1  0.500134  0.500134  0.999939  1
  W  W8  1  0.251264  0.251264  0.251247  1
  W  W9  1  0.748649  0.251302  0.251233  1
  W  W10  1  0.251302  0.748649  0.251233  1
  W  W11  1  0.748769  0.748769  0.251078  1
  W  W12  1  0.500071  0.999993  0.500341  1
  W  W13  1  0.999993  0.500071  0.500341  1
  W  W14  1  0.500212  0.500212  0.500662  1
  W  W15  1  0.251176  0.251176  0.748667  1
