# generated using pymatgen
data_Tb15Ho5(IrRu)6
_symmetry_space_group_name_H-M   'P 1'
_cell_length_a   10.86592649
_cell_length_b   10.86034017
_cell_length_c   6.40900709
_cell_angle_alpha   90.01842324
_cell_angle_beta   89.94442123
_cell_angle_gamma   89.99089518
_symmetry_Int_Tables_number   1
_chemical_formula_structural   Tb15Ho5(IrRu)6
_chemical_formula_sum   'Tb15 Ho5 Ir6 Ru6'
_cell_volume   756.31151175
_cell_formula_units_Z   1
loop_
 _symmetry_equiv_pos_site_id
 _symmetry_equiv_pos_as_xyz
  1  'x, y, z'
loop_
 _atom_site_type_symbol
 _atom_site_label
 _atom_site_symmetry_multiplicity
 _atom_site_fract_x
 _atom_site_fract_y
 _atom_site_fract_z
 _atom_site_occupancy
  Tb  Tb0  1  0.292484  0.086412  0.378402  1
  Tb  Tb1  1  0.292616  0.913793  0.878585  1
  Tb  Tb2  1  0.708277  0.086407  0.877672  1
  Tb  Tb3  1  0.708268  0.913632  0.377584  1
  Tb  Tb4  1  0.587459  0.793141  0.878676  1
  Tb  Tb5  1  0.587463  0.206871  0.378692  1
  Tb  Tb6  1  0.413575  0.793278  0.377777  1
  Tb  Tb7  1  0.413463  0.206727  0.877827  1
  Tb  Tb8  1  0.206517  0.413441  0.621517  1
  Tb  Tb9  1  0.206499  0.586156  0.121527  1
  Tb  Tb10  1  0.793287  0.412481  0.121973  1
  Tb  Tb11  1  0.793051  0.587405  0.621989  1
  Tb  Tb12  1  0.913458  0.707552  0.121457  1
  Tb  Tb13  1  0.913601  0.292383  0.621438  1
  Tb  Tb14  1  0.086007  0.708220  0.622451  1
  Ho  Ho15  1  0.086033  0.292027  0.122152  1
  Ho  Ho16  1  0.998642  0.000750  0.499780  1
  Ho  Ho17  1  0.998756  0.999476  0.999820  1
  Ho  Ho18  1  0.499872  0.500296  0.000260  1
  Ho  Ho19  1  0.499925  0.499656  0.500167  1
  Ir  Ir20  1  0.153129  0.153231  0.750950  1
  Ir  Ir21  1  0.153230  0.847072  0.250209  1
  Ir  Ir22  1  0.651728  0.348678  0.749684  1
  Ir  Ir23  1  0.651714  0.651362  0.249672  1
  Ir  Ir24  1  0.347639  0.347411  0.250189  1
  Ir  Ir25  1  0.347998  0.652528  0.750448  1
  Ru  Ru26  1  0.847876  0.152525  0.249523  1
  Ru  Ru27  1  0.847601  0.847539  0.749695  1
  Ru  Ru28  1  0.500167  0.000186  0.122533  1
  Ru  Ru29  1  0.500192  0.999818  0.622584  1
  Ru  Ru30  1  0.999751  0.500048  0.877663  1
  Ru  Ru31  1  0.999718  0.499498  0.377102  1
