# generated using pymatgen
data_U4Ga4Tc7Sb2
_symmetry_space_group_name_H-M   'P 1'
_cell_length_a   7.33192325
_cell_length_b   7.34422048
_cell_length_c   7.34422104
_cell_angle_alpha   109.36693995
_cell_angle_beta   109.55744955
_cell_angle_gamma   109.55746412
_symmetry_Int_Tables_number   1
_chemical_formula_structural   U4Ga4Tc7Sb2
_chemical_formula_sum   'U4 Ga4 Tc7 Sb2'
_cell_volume   304.17270094
_cell_formula_units_Z   1
loop_
 _symmetry_equiv_pos_site_id
 _symmetry_equiv_pos_as_xyz
  1  'x, y, z'
loop_
 _atom_site_type_symbol
 _atom_site_label
 _atom_site_symmetry_multiplicity
 _atom_site_fract_x
 _atom_site_fract_y
 _atom_site_fract_z
 _atom_site_occupancy
  U  U0  1  0.483328  0.472392  0.472392  1
  U  U1  1  0.022050  0.511025  0.011025  1
  U  U2  1  0.483328  0.010935  0.010935  1
  U  U3  1  0.022050  0.011025  0.511025  1
  Ga  Ga4  1  0.311025  0.315929  0.995095  1
  Ga  Ga5  1  0.991644  0.690350  0.690350  1
  Ga  Ga6  1  0.991644  0.301294  0.301294  1
  Ga  Ga7  1  0.311025  0.995095  0.315929  1
  Tc  Tc8  1  0.493687  0.746844  0.246844  1
  Tc  Tc9  1  0.745215  0.249675  0.495540  1
  Tc  Tc10  1  0.237649  0.742129  0.495520  1
  Tc  Tc11  1  0.237649  0.495520  0.742129  1
  Tc  Tc12  1  0.034585  0.017293  0.017293  1
  Tc  Tc13  1  0.493687  0.246844  0.746844  1
  Tc  Tc14  1  0.745215  0.495540  0.249675  1
  Sb  Sb15  1  0.698110  0.997101  0.701009  1
  Sb  Sb16  1  0.698110  0.701009  0.997101  1
