# generated using pymatgen
data_Tm6OsPt
_symmetry_space_group_name_H-M   'P 1'
_cell_length_a   7.22300866
_cell_length_b   8.96122500
_cell_length_c   6.38686907
_cell_angle_alpha   90.00000000
_cell_angle_beta   89.83758847
_cell_angle_gamma   90.00000000
_symmetry_Int_Tables_number   1
_chemical_formula_structural   Tm6OsPt
_chemical_formula_sum   'Tm12 Os2 Pt2'
_cell_volume   413.40125010
_cell_formula_units_Z   2
loop_
 _symmetry_equiv_pos_site_id
 _symmetry_equiv_pos_as_xyz
  1  'x, y, z'
loop_
 _atom_site_type_symbol
 _atom_site_label
 _atom_site_symmetry_multiplicity
 _atom_site_fract_x
 _atom_site_fract_y
 _atom_site_fract_z
 _atom_site_occupancy
  Tm  Tm0  1  0.026495  0.250000  0.620972  1
  Tm  Tm1  1  0.973505  0.750000  0.379028  1
  Tm  Tm2  1  0.462350  0.750000  0.123219  1
  Tm  Tm3  1  0.537650  0.250000  0.876781  1
  Tm  Tm4  1  0.175355  0.058915  0.166811  1
  Tm  Tm5  1  0.824645  0.941085  0.833189  1
  Tm  Tm6  1  0.315986  0.938409  0.680252  1
  Tm  Tm7  1  0.824645  0.558915  0.833189  1
  Tm  Tm8  1  0.684014  0.061591  0.319748  1
  Tm  Tm9  1  0.175355  0.441085  0.166811  1
  Tm  Tm10  1  0.684014  0.438409  0.319748  1
  Tm  Tm11  1  0.315986  0.561591  0.680252  1
  Os  Os12  1  0.113180  0.750000  0.965946  1
  Os  Os13  1  0.886820  0.250000  0.034054  1
  Pt  Pt14  1  0.388308  0.250000  0.459358  1
  Pt  Pt15  1  0.611692  0.750000  0.540642  1
