# generated using pymatgen
data_DyHo3(Co2O5)4
_symmetry_space_group_name_H-M   'P 1'
_cell_length_a   5.67562849
_cell_length_b   7.20555709
_cell_length_c   8.37598998
_cell_angle_alpha   89.93184361
_cell_angle_beta   90.15944076
_cell_angle_gamma   90.02391037
_symmetry_Int_Tables_number   1
_chemical_formula_structural   DyHo3(Co2O5)4
_chemical_formula_sum   'Dy1 Ho3 Co8 O20'
_cell_volume   342.54343316
_cell_formula_units_Z   1
loop_
 _symmetry_equiv_pos_site_id
 _symmetry_equiv_pos_as_xyz
  1  'x, y, z'
loop_
 _atom_site_type_symbol
 _atom_site_label
 _atom_site_symmetry_multiplicity
 _atom_site_fract_x
 _atom_site_fract_y
 _atom_site_fract_z
 _atom_site_occupancy
  Dy  Dy0  1  0.998597  0.638163  0.327912  1
  Ho  Ho1  1  0.001339  0.361152  0.672514  1
  Ho  Ho2  1  0.000853  0.138463  0.172140  1
  Ho  Ho3  1  0.999297  0.861663  0.828059  1
  Co  Co4  1  0.499653  0.909466  0.150542  1
  Co  Co5  1  0.500526  0.089952  0.848916  1
  Co  Co6  1  0.499732  0.409449  0.349292  1
  Co  Co7  1  0.500287  0.591001  0.650971  1
  Co  Co8  1  0.255540  0.501083  0.999212  1
  Co  Co9  1  0.744308  0.001903  0.500650  1
  Co  Co10  1  0.744339  0.498497  0.000449  1
  Co  Co11  1  0.254939  0.998992  0.499370  1
  O  O12  1  0.273724  0.499096  0.500624  1
  O  O13  1  0.727157  0.999061  0.999253  1
  O  O14  1  0.726041  0.499360  0.500853  1
  O  O15  1  0.273374  0.000854  0.000274  1
  O  O16  1  0.995955  0.662438  0.053269  1
  O  O17  1  0.004101  0.336730  0.945930  1
  O  O18  1  0.004019  0.163634  0.445917  1
  O  O19  1  0.995433  0.837930  0.554254  1
  O  O20  1  0.495874  0.653020  0.066514  1
  O  O21  1  0.504498  0.347380  0.933690  1
  O  O22  1  0.504594  0.152527  0.434132  1
  O  O23  1  0.495452  0.847023  0.566498  1
  O  O24  1  0.242992  0.897910  0.292665  1
  O  O25  1  0.242884  0.103306  0.707730  1
  O  O26  1  0.756188  0.396280  0.206982  1
  O  O27  1  0.757636  0.603829  0.792109  1
  O  O28  1  0.757060  0.103145  0.707006  1
  O  O29  1  0.757196  0.897790  0.291817  1
  O  O30  1  0.243253  0.603158  0.792808  1
  O  O31  1  0.243162  0.395747  0.207649  1
