# generated using pymatgen
data_YbLu3(ZnGa)4
_symmetry_space_group_name_H-M   'P 1'
_cell_length_a   4.41327300
_cell_length_b   7.59391200
_cell_length_c   7.10625800
_cell_angle_alpha   90.00052060
_cell_angle_beta   90.00000000
_cell_angle_gamma   90.00000000
_symmetry_Int_Tables_number   1
_chemical_formula_structural   YbLu3(ZnGa)4
_chemical_formula_sum   'Yb1 Lu3 Zn4 Ga4'
_cell_volume   238.15917889
_cell_formula_units_Z   1
loop_
 _symmetry_equiv_pos_site_id
 _symmetry_equiv_pos_as_xyz
  1  'x, y, z'
loop_
 _atom_site_type_symbol
 _atom_site_label
 _atom_site_symmetry_multiplicity
 _atom_site_fract_x
 _atom_site_fract_y
 _atom_site_fract_z
 _atom_site_occupancy
  Yb  Yb0  1  0.750000  0.759030  0.001049  1
  Lu  Lu1  1  0.250000  0.255775  0.501514  1
  Lu  Lu2  1  0.250000  0.242915  0.000822  1
  Lu  Lu3  1  0.750000  0.741826  0.501119  1
  Zn  Zn4  1  0.250000  0.918080  0.239572  1
  Zn  Zn5  1  0.250000  0.582593  0.715141  1
  Zn  Zn6  1  0.750000  0.084009  0.702261  1
  Zn  Zn7  1  0.750000  0.415969  0.209261  1
  Ga  Ga8  1  0.250000  0.919545  0.764899  1
  Ga  Ga9  1  0.250000  0.580930  0.285463  1
  Ga  Ga10  1  0.750000  0.085660  0.291985  1
  Ga  Ga11  1  0.750000  0.413667  0.786915  1
