# generated using pymatgen
data_Nd2MgGa7Ni2
_symmetry_space_group_name_H-M   'P 1'
_cell_length_a   4.22122048
_cell_length_b   6.55685559
_cell_length_c   8.21369076
_cell_angle_alpha   90.66755305
_cell_angle_beta   104.88990401
_cell_angle_gamma   90.00000320
_symmetry_Int_Tables_number   1
_chemical_formula_structural   Nd2MgGa7Ni2
_chemical_formula_sum   'Nd2 Mg1 Ga7 Ni2'
_cell_volume   219.68831997
_cell_formula_units_Z   1
loop_
 _symmetry_equiv_pos_site_id
 _symmetry_equiv_pos_as_xyz
  1  'x, y, z'
loop_
 _atom_site_type_symbol
 _atom_site_label
 _atom_site_symmetry_multiplicity
 _atom_site_fract_x
 _atom_site_fract_y
 _atom_site_fract_z
 _atom_site_occupancy
  Nd  Nd0  1  0.879858  0.757600  0.759715  1
  Nd  Nd1  1  0.120142  0.242400  0.240285  1
  Mg  Mg2  1  0.500000  0.500000  0.000000  1
  Ga  Ga3  1  0.500000  0.000000  0.000000  1
  Ga  Ga4  1  0.073719  0.751993  0.147439  1
  Ga  Ga5  1  0.926281  0.248007  0.852561  1
  Ga  Ga6  1  0.688204  0.547504  0.376408  1
  Ga  Ga7  1  0.311796  0.452496  0.623592  1
  Ga  Ga8  1  0.687999  0.945436  0.375999  1
  Ga  Ga9  1  0.312001  0.054564  0.624001  1
  Ni  Ni10  1  0.222139  0.752510  0.444277  1
  Ni  Ni11  1  0.777861  0.247490  0.555723  1
