# generated using pymatgen
data_Dy2Co5Ni5P6
_symmetry_space_group_name_H-M   'P 1'
_cell_length_a   3.68771900
_cell_length_b   10.29169600
_cell_length_c   11.81803500
_cell_angle_alpha   90.00000000
_cell_angle_beta   90.00000000
_cell_angle_gamma   90.00000000
_symmetry_Int_Tables_number   1
_chemical_formula_structural   Dy2Co5Ni5P6
_chemical_formula_sum   'Dy4 Co10 Ni10 P12'
_cell_volume   448.52849824
_cell_formula_units_Z   2
loop_
 _symmetry_equiv_pos_site_id
 _symmetry_equiv_pos_as_xyz
  1  'x, y, z'
loop_
 _atom_site_type_symbol
 _atom_site_label
 _atom_site_symmetry_multiplicity
 _atom_site_fract_x
 _atom_site_fract_y
 _atom_site_fract_z
 _atom_site_occupancy
  Dy  Dy0  1  0.250000  0.582620  0.703942  1
  Dy  Dy1  1  0.250000  0.917380  0.203942  1
  Dy  Dy2  1  0.750000  0.417422  0.296720  1
  Dy  Dy3  1  0.750000  0.082578  0.796720  1
  Co  Co4  1  0.750000  0.777881  0.824260  1
  Co  Co5  1  0.750000  0.722119  0.324260  1
  Co  Co6  1  0.250000  0.880353  0.697614  1
  Co  Co7  1  0.250000  0.619647  0.197614  1
  Co  Co8  1  0.750000  0.118487  0.302135  1
  Co  Co9  1  0.750000  0.381513  0.802135  1
  Co  Co10  1  0.250000  0.467867  0.932894  1
  Co  Co11  1  0.250000  0.032133  0.432894  1
  Co  Co12  1  0.750000  0.532675  0.067262  1
  Co  Co13  1  0.750000  0.967325  0.567262  1
  Ni  Ni14  1  0.250000  0.712075  0.988407  1
  Ni  Ni15  1  0.250000  0.787925  0.488407  1
  Ni  Ni16  1  0.750000  0.285154  0.009631  1
  Ni  Ni17  1  0.750000  0.214846  0.509631  1
  Ni  Ni18  1  0.250000  0.408410  0.486154  1
  Ni  Ni19  1  0.250000  0.091590  0.986154  1
  Ni  Ni20  1  0.750000  0.592560  0.514402  1
  Ni  Ni21  1  0.750000  0.907440  0.014402  1
  Ni  Ni22  1  0.250000  0.223085  0.176099  1
  Ni  Ni23  1  0.250000  0.276915  0.676099  1
  P  P24  1  0.250000  0.423879  0.113195  1
  P  P25  1  0.250000  0.076121  0.613195  1
  P  P26  1  0.750000  0.579839  0.886563  1
  P  P27  1  0.750000  0.920161  0.386563  1
  P  P28  1  0.250000  0.272855  0.868104  1
  P  P29  1  0.250000  0.227145  0.368104  1
  P  P30  1  0.750000  0.727795  0.134523  1
  P  P31  1  0.750000  0.772205  0.634523  1
  P  P32  1  0.250000  0.605796  0.387554  1
  P  P33  1  0.250000  0.894204  0.887554  1
  P  P34  1  0.750000  0.398388  0.610540  1
  P  P35  1  0.750000  0.101612  0.110540  1
