# generated using pymatgen
data_Ho8MgGaPd23
_symmetry_space_group_name_H-M   'P 1'
_cell_length_a   8.26808200
_cell_length_b   8.39723600
_cell_length_c   8.39723600
_cell_angle_alpha   90.00000000
_cell_angle_beta   90.00000000
_cell_angle_gamma   90.00000000
_symmetry_Int_Tables_number   1
_chemical_formula_structural   Ho8MgGaPd23
_chemical_formula_sum   'Ho8 Mg1 Ga1 Pd23'
_cell_volume   583.01199904
_cell_formula_units_Z   1
loop_
 _symmetry_equiv_pos_site_id
 _symmetry_equiv_pos_as_xyz
  1  'x, y, z'
loop_
 _atom_site_type_symbol
 _atom_site_label
 _atom_site_symmetry_multiplicity
 _atom_site_fract_x
 _atom_site_fract_y
 _atom_site_fract_z
 _atom_site_occupancy
  Ho  Ho0  1  0.251675  0.240502  0.240502  1
  Ho  Ho1  1  0.747383  0.746508  0.746508  1
  Ho  Ho2  1  0.747383  0.746508  0.253492  1
  Ho  Ho3  1  0.747383  0.253492  0.746508  1
  Ho  Ho4  1  0.251675  0.240502  0.759498  1
  Ho  Ho5  1  0.251675  0.759498  0.240502  1
  Ho  Ho6  1  0.251675  0.759498  0.759498  1
  Ho  Ho7  1  0.747383  0.253492  0.253492  1
  Mg  Mg8  1  0.255388  0.500000  0.500000  1
  Ga  Ga9  1  0.999216  0.000000  0.000000  1
  Pd  Pd10  1  0.258083  0.500000  0.000000  1
  Pd  Pd11  1  0.740267  0.500000  0.000000  1
  Pd  Pd12  1  0.007366  0.260055  0.500000  1
  Pd  Pd13  1  0.502361  0.262913  0.000000  1
  Pd  Pd14  1  0.007366  0.739945  0.500000  1
  Pd  Pd15  1  0.502361  0.737087  0.000000  1
  Pd  Pd16  1  0.502361  0.000000  0.262913  1
  Pd  Pd17  1  0.258083  0.000000  0.500000  1
  Pd  Pd18  1  0.502361  0.000000  0.737087  1
  Pd  Pd19  1  0.740267  0.000000  0.500000  1
  Pd  Pd20  1  0.007366  0.500000  0.260055  1
  Pd  Pd21  1  0.007366  0.500000  0.739945  1
  Pd  Pd22  1  0.747797  0.500000  0.500000  1
  Pd  Pd23  1  0.493348  0.253758  0.500000  1
  Pd  Pd24  1  0.493348  0.746242  0.500000  1
  Pd  Pd25  1  0.493348  0.500000  0.253758  1
  Pd  Pd26  1  0.493348  0.500000  0.746242  1
  Pd  Pd27  1  0.296035  0.000000  0.000000  1
  Pd  Pd28  1  0.706967  0.000000  0.000000  1
  Pd  Pd29  1  0.997341  0.290355  0.000000  1
  Pd  Pd30  1  0.997341  0.709645  0.000000  1
  Pd  Pd31  1  0.997341  0.000000  0.290355  1
  Pd  Pd32  1  0.997341  0.000000  0.709645  1
