# generated using pymatgen
data_Sm5ErNiBr10
_symmetry_space_group_name_H-M   'P 1'
_cell_length_a   7.44757280
_cell_length_b   9.37421982
_cell_length_c   9.37238878
_cell_angle_alpha   108.16237771
_cell_angle_beta   96.13828940
_cell_angle_gamma   105.33342785
_symmetry_Int_Tables_number   1
_chemical_formula_structural   Sm5ErNiBr10
_chemical_formula_sum   'Sm5 Er1 Ni1 Br10'
_cell_volume   586.66110100
_cell_formula_units_Z   1
loop_
 _symmetry_equiv_pos_site_id
 _symmetry_equiv_pos_as_xyz
  1  'x, y, z'
loop_
 _atom_site_type_symbol
 _atom_site_label
 _atom_site_symmetry_multiplicity
 _atom_site_fract_x
 _atom_site_fract_y
 _atom_site_fract_z
 _atom_site_occupancy
  Sm  Sm0  1  0.029418  0.704716  0.404488  1
  Sm  Sm1  1  0.967045  0.294628  0.593119  1
  Sm  Sm2  1  0.870879  0.952050  0.743235  1
  Sm  Sm3  1  0.124020  0.045158  0.255080  1
  Sm  Sm4  1  0.355270  0.131801  0.676107  1
  Er  Er5  1  0.652527  0.872084  0.328977  1
  Ni  Ni6  1  0.000428  0.000306  0.500777  1
  Br  Br7  1  0.453097  0.820818  0.578465  1
  Br  Br8  1  0.548451  0.172221  0.412944  1
  Br  Br9  1  0.912438  0.631164  0.670975  1
  Br  Br10  1  0.083907  0.366950  0.325913  1
  Br  Br11  1  0.247729  0.079625  0.953938  1
  Br  Br12  1  0.743954  0.914592  0.050150  1
  Br  Br13  1  0.350280  0.451754  0.768891  1
  Br  Br14  1  0.643682  0.557329  0.228957  1
  Br  Br15  1  0.782543  0.254371  0.848178  1
  Br  Br16  1  0.234334  0.750434  0.159807  1
