# generated using pymatgen
data_Tb5Pr3(HgIr)2
_symmetry_space_group_name_H-M   'P 1'
_cell_length_a   9.78726464
_cell_length_b   9.78726440
_cell_length_c   9.78726400
_cell_angle_alpha   60.00000137
_cell_angle_beta   60.00000217
_cell_angle_gamma   60.00000064
_symmetry_Int_Tables_number   1
_chemical_formula_structural   Tb5Pr3(HgIr)2
_chemical_formula_sum   'Tb10 Pr6 Hg4 Ir4'
_cell_volume   662.93198235
_cell_formula_units_Z   2
loop_
 _symmetry_equiv_pos_site_id
 _symmetry_equiv_pos_as_xyz
  1  'x, y, z'
loop_
 _atom_site_type_symbol
 _atom_site_label
 _atom_site_symmetry_multiplicity
 _atom_site_fract_x
 _atom_site_fract_y
 _atom_site_fract_z
 _atom_site_occupancy
  Tb  Tb0  1  0.348695  0.348695  0.348695  1
  Tb  Tb1  1  0.348695  0.348695  0.953914  1
  Tb  Tb2  1  0.348695  0.953914  0.348695  1
  Tb  Tb3  1  0.953914  0.348695  0.348695  1
  Tb  Tb4  1  0.811659  0.188341  0.188341  1
  Tb  Tb5  1  0.188341  0.811659  0.811659  1
  Tb  Tb6  1  0.188341  0.811659  0.188341  1
  Tb  Tb7  1  0.811659  0.188341  0.811659  1
  Tb  Tb8  1  0.188341  0.188341  0.811659  1
  Tb  Tb9  1  0.811659  0.811659  0.188341  1
  Pr  Pr10  1  0.941336  0.558664  0.558664  1
  Pr  Pr11  1  0.558664  0.941336  0.941336  1
  Pr  Pr12  1  0.558664  0.941336  0.558664  1
  Pr  Pr13  1  0.941336  0.558664  0.941336  1
  Pr  Pr14  1  0.558664  0.558664  0.941336  1
  Pr  Pr15  1  0.941336  0.941336  0.558664  1
  Hg  Hg16  1  0.582487  0.582487  0.582487  1
  Hg  Hg17  1  0.582487  0.582487  0.252537  1
  Hg  Hg18  1  0.582487  0.252537  0.582487  1
  Hg  Hg19  1  0.252537  0.582487  0.582487  1
  Ir  Ir20  1  0.141440  0.141440  0.141440  1
  Ir  Ir21  1  0.141440  0.141440  0.575680  1
  Ir  Ir22  1  0.141440  0.575680  0.141440  1
  Ir  Ir23  1  0.575680  0.141440  0.141440  1
