# generated using pymatgen
data_LiTb16Cd3CoNiPd2
_symmetry_space_group_name_H-M   'P 1'
_cell_length_a   9.65459412
_cell_length_b   9.65338882
_cell_length_c   9.66852800
_cell_angle_alpha   60.05179489
_cell_angle_beta   60.04765595
_cell_angle_gamma   59.99586946
_symmetry_Int_Tables_number   1
_chemical_formula_structural   LiTb16Cd3CoNiPd2
_chemical_formula_sum   'Li1 Tb16 Cd3 Co1 Ni1 Pd2'
_cell_volume   637.63420759
_cell_formula_units_Z   1
loop_
 _symmetry_equiv_pos_site_id
 _symmetry_equiv_pos_as_xyz
  1  'x, y, z'
loop_
 _atom_site_type_symbol
 _atom_site_label
 _atom_site_symmetry_multiplicity
 _atom_site_fract_x
 _atom_site_fract_y
 _atom_site_fract_z
 _atom_site_occupancy
  Li  Li0  1  0.823828  0.819609  0.532732  1
  Tb  Tb1  1  0.440924  0.439198  0.049893  1
  Tb  Tb2  1  0.588104  0.598422  0.603757  1
  Tb  Tb3  1  0.183604  0.815032  0.817758  1
  Tb  Tb4  1  0.068042  0.054951  0.438594  1
  Tb  Tb5  1  0.438699  0.065415  0.057188  1
  Tb  Tb6  1  0.814605  0.186611  0.815899  1
  Tb  Tb7  1  0.438414  0.054951  0.438594  1
  Tb  Tb8  1  0.593562  0.198325  0.614551  1
  Tb  Tb9  1  0.815302  0.815168  0.186806  1
  Tb  Tb10  1  0.209717  0.598422  0.603757  1
  Tb  Tb11  1  0.811927  0.187636  0.188508  1
  Tb  Tb12  1  0.061908  0.437521  0.438664  1
  Tb  Tb13  1  0.182725  0.815168  0.186806  1
  Tb  Tb14  1  0.598388  0.615630  0.187594  1
  Tb  Tb15  1  0.182886  0.186611  0.815899  1
  Tb  Tb16  1  0.069985  0.439198  0.049893  1
  Cd  Cd17  1  0.835241  0.831647  0.828262  1
  Cd  Cd18  1  0.504848  0.831647  0.828262  1
  Cd  Cd19  1  0.833525  0.506815  0.826134  1
  Co  Co20  1  0.391959  0.393048  0.823035  1
  Ni  Ni21  1  0.394426  0.823104  0.388044  1
  Pd  Pd22  1  0.398701  0.392936  0.389685  1
  Pd  Pd23  1  0.818679  0.392936  0.389685  1
