# generated using pymatgen
data_Tb4Ta5TiSi8
_symmetry_space_group_name_H-M   'P 1'
_cell_length_a   7.05408458
_cell_length_b   6.89536218
_cell_length_c   7.05094821
_cell_angle_alpha   71.23984416
_cell_angle_beta   89.98525469
_cell_angle_gamma   89.89674079
_symmetry_Int_Tables_number   1
_chemical_formula_structural   Tb4Ta5TiSi8
_chemical_formula_sum   'Tb4 Ta5 Ti1 Si8'
_cell_volume   324.74041092
_cell_formula_units_Z   1
loop_
 _symmetry_equiv_pos_site_id
 _symmetry_equiv_pos_as_xyz
  1  'x, y, z'
loop_
 _atom_site_type_symbol
 _atom_site_label
 _atom_site_symmetry_multiplicity
 _atom_site_fract_x
 _atom_site_fract_y
 _atom_site_fract_z
 _atom_site_occupancy
  Tb  Tb0  1  0.329857  0.565102  0.812473  1
  Tb  Tb1  1  0.830004  0.935121  0.187963  1
  Tb  Tb2  1  0.670015  0.435148  0.187875  1
  Tb  Tb3  1  0.169560  0.064024  0.812687  1
  Ta  Ta4  1  0.499178  0.999517  0.499099  1
  Ta  Ta5  1  0.000937  0.500522  0.499140  1
  Ta  Ta6  1  0.825085  0.747644  0.743112  1
  Ta  Ta7  1  0.324336  0.752427  0.256583  1
  Ta  Ta8  1  0.175600  0.251898  0.256397  1
  Ti  Ti9  1  0.674550  0.247125  0.743792  1
  Si  Si10  1  0.538164  0.869587  0.914886  1
  Si  Si11  1  0.038125  0.631815  0.083397  1
  Si  Si12  1  0.463193  0.132497  0.082705  1
  Si  Si13  1  0.960436  0.368232  0.915134  1
  Si  Si14  1  0.125429  0.871355  0.505690  1
  Si  Si15  1  0.626080  0.627753  0.494691  1
  Si  Si16  1  0.873804  0.130322  0.496972  1
  Si  Si17  1  0.375651  0.369912  0.507404  1
