# generated using pymatgen
data_Be4IrRh2Au
_symmetry_space_group_name_H-M   'P 1'
_cell_length_a   5.66771900
_cell_length_b   3.97936700
_cell_length_c   8.02329900
_cell_angle_alpha   90.00000000
_cell_angle_beta   90.00000000
_cell_angle_gamma   90.00000000
_symmetry_Int_Tables_number   1
_chemical_formula_structural   Be4IrRh2Au
_chemical_formula_sum   'Be8 Ir2 Rh4 Au2'
_cell_volume   180.95695574
_cell_formula_units_Z   2
loop_
 _symmetry_equiv_pos_site_id
 _symmetry_equiv_pos_as_xyz
  1  'x, y, z'
loop_
 _atom_site_type_symbol
 _atom_site_label
 _atom_site_symmetry_multiplicity
 _atom_site_fract_x
 _atom_site_fract_y
 _atom_site_fract_z
 _atom_site_occupancy
  Be  Be0  1  0.011560  0.750000  0.135062  1
  Be  Be1  1  0.488484  0.750000  0.135085  1
  Be  Be2  1  0.988486  0.249999  0.364920  1
  Be  Be3  1  0.511537  0.249999  0.364929  1
  Be  Be4  1  0.513185  0.750000  0.610862  1
  Be  Be5  1  0.986793  0.750000  0.610876  1
  Be  Be6  1  0.486806  0.249999  0.889126  1
  Be  Be7  1  0.013181  0.249999  0.889139  1
  Ir  Ir8  1  0.250018  0.249999  0.126438  1
  Ir  Ir9  1  0.750016  0.750000  0.373559  1
  Rh  Rh10  1  0.750013  0.249999  0.120977  1
  Rh  Rh11  1  0.250012  0.750000  0.379027  1
  Rh  Rh12  1  0.749977  0.249999  0.630000  1
  Rh  Rh13  1  0.249983  0.750000  0.869996  1
  Au  Au14  1  0.249974  0.249999  0.625164  1
  Au  Au15  1  0.749974  0.750000  0.874842  1
