# generated using pymatgen
data_DyY6Er(CdPd)2
_symmetry_space_group_name_H-M   'P 1'
_cell_length_a   9.71291357
_cell_length_b   9.71291385
_cell_length_c   9.68114400
_cell_angle_alpha   60.10814123
_cell_angle_beta   60.10814027
_cell_angle_gamma   60.07790235
_symmetry_Int_Tables_number   1
_chemical_formula_structural   DyY6Er(CdPd)2
_chemical_formula_sum   'Dy2 Y12 Er2 Cd4 Pd4'
_cell_volume   647.25372410
_cell_formula_units_Z   2
loop_
 _symmetry_equiv_pos_site_id
 _symmetry_equiv_pos_as_xyz
  1  'x, y, z'
loop_
 _atom_site_type_symbol
 _atom_site_label
 _atom_site_symmetry_multiplicity
 _atom_site_fract_x
 _atom_site_fract_y
 _atom_site_fract_z
 _atom_site_occupancy
  Dy  Dy0  1  0.356961  0.934953  0.354043  1
  Dy  Dy1  1  0.934953  0.356961  0.354043  1
  Y  Y2  1  0.810637  0.190155  0.190216  1
  Y  Y3  1  0.190155  0.810637  0.808992  1
  Y  Y4  1  0.190155  0.810637  0.190216  1
  Y  Y5  1  0.810637  0.190155  0.808992  1
  Y  Y6  1  0.191506  0.191506  0.808494  1
  Y  Y7  1  0.811421  0.811421  0.188579  1
  Y  Y8  1  0.935215  0.564397  0.564852  1
  Y  Y9  1  0.564397  0.935215  0.935536  1
  Y  Y10  1  0.564397  0.935215  0.564852  1
  Y  Y11  1  0.935215  0.564397  0.935536  1
  Y  Y12  1  0.565262  0.565262  0.934738  1
  Y  Y13  1  0.935872  0.935872  0.564128  1
  Er  Er14  1  0.353696  0.353696  0.351185  1
  Er  Er15  1  0.353696  0.353696  0.941424  1
  Cd  Cd16  1  0.580783  0.580783  0.583931  1
  Cd  Cd17  1  0.580783  0.580783  0.254503  1
  Cd  Cd18  1  0.580201  0.253685  0.583058  1
  Cd  Cd19  1  0.253685  0.580201  0.583058  1
  Pd  Pd20  1  0.145911  0.145911  0.146375  1
  Pd  Pd21  1  0.145911  0.145911  0.561801  1
  Pd  Pd22  1  0.144851  0.563704  0.145723  1
  Pd  Pd23  1  0.563704  0.144851  0.145723  1
