# generated using pymatgen
data_DyY4Tm5In6
_symmetry_space_group_name_H-M   'P 1'
_cell_length_a   9.11513105
_cell_length_b   9.11513053
_cell_length_c   9.11787081
_cell_angle_alpha   96.57621215
_cell_angle_beta   96.30527538
_cell_angle_gamma   140.85784578
_symmetry_Int_Tables_number   1
_chemical_formula_structural   DyY4Tm5In6
_chemical_formula_sum   'Dy1 Y4 Tm5 In6'
_cell_volume   450.59733143
_cell_formula_units_Z   1
loop_
 _symmetry_equiv_pos_site_id
 _symmetry_equiv_pos_as_xyz
  1  'x, y, z'
loop_
 _atom_site_type_symbol
 _atom_site_label
 _atom_site_symmetry_multiplicity
 _atom_site_fract_x
 _atom_site_fract_y
 _atom_site_fract_z
 _atom_site_occupancy
  Dy  Dy0  1  0.080484  0.782068  0.862552  1
  Y  Y1  1  0.717526  0.417339  0.134865  1
  Y  Y2  1  0.282306  0.581480  0.863786  1
  Y  Y3  1  0.581239  0.718007  0.299245  1
  Y  Y4  1  0.217513  0.082231  0.299742  1
  Tm  Tm5  1  0.918405  0.216590  0.134995  1
  Tm  Tm6  1  0.750407  0.250041  0.500389  1
  Tm  Tm7  1  0.250348  0.749981  0.500389  1
  Tm  Tm8  1  0.783285  0.918525  0.701811  1
  Tm  Tm9  1  0.418395  0.283633  0.702029  1
  In  In10  1  0.839146  0.661770  0.500918  1
  In  In11  1  0.339401  0.839049  0.178450  1
  In  In12  1  0.749518  0.750146  0.999182  1
  In  In13  1  0.661533  0.160788  0.822321  1
  In  In14  1  0.161457  0.338689  0.500146  1
  In  In15  1  0.249036  0.249663  0.999182  1
