# generated using pymatgen
data_DyTm(MgIr)2
_symmetry_space_group_name_H-M   'P 1'
_cell_length_a   4.09189000
_cell_length_b   7.04958008
_cell_length_c   8.51892324
_cell_angle_alpha   90.30326980
_cell_angle_beta   90.00000000
_cell_angle_gamma   90.00000000
_symmetry_Int_Tables_number   1
_chemical_formula_structural   DyTm(MgIr)2
_chemical_formula_sum   'Dy2 Tm2 Mg4 Ir4'
_cell_volume   245.73432271
_cell_formula_units_Z   2
loop_
 _symmetry_equiv_pos_site_id
 _symmetry_equiv_pos_as_xyz
  1  'x, y, z'
loop_
 _atom_site_type_symbol
 _atom_site_label
 _atom_site_symmetry_multiplicity
 _atom_site_fract_x
 _atom_site_fract_y
 _atom_site_fract_z
 _atom_site_occupancy
  Dy  Dy0  1  0.750000  0.961514  0.675354  1
  Dy  Dy1  1  0.250000  0.038486  0.324646  1
  Tm  Tm2  1  0.250000  0.539552  0.172854  1
  Tm  Tm3  1  0.750000  0.460448  0.827146  1
  Mg  Mg4  1  0.250000  0.635311  0.560075  1
  Mg  Mg5  1  0.750000  0.364689  0.439925  1
  Mg  Mg6  1  0.750000  0.863566  0.059802  1
  Mg  Mg7  1  0.250000  0.136434  0.940198  1
  Ir  Ir8  1  0.250000  0.748731  0.871160  1
  Ir  Ir9  1  0.750000  0.251269  0.128840  1
  Ir  Ir10  1  0.750000  0.745924  0.368152  1
  Ir  Ir11  1  0.250000  0.254076  0.631848  1
