# generated using pymatgen
data_NdYCr3O12
_symmetry_space_group_name_H-M   'P 1'
_cell_length_a   10.18594085
_cell_length_b   10.18594201
_cell_length_c   10.18594300
_cell_angle_alpha   57.95430740
_cell_angle_beta   57.95430331
_cell_angle_gamma   57.95431088
_symmetry_Int_Tables_number   1
_chemical_formula_structural   NdYCr3O12
_chemical_formula_sum   'Nd2 Y2 Cr6 O24'
_cell_volume   712.21321205
_cell_formula_units_Z   2
loop_
 _symmetry_equiv_pos_site_id
 _symmetry_equiv_pos_as_xyz
  1  'x, y, z'
loop_
 _atom_site_type_symbol
 _atom_site_label
 _atom_site_symmetry_multiplicity
 _atom_site_fract_x
 _atom_site_fract_y
 _atom_site_fract_z
 _atom_site_occupancy
  Nd  Nd0  1  0.640570  0.640570  0.640570  1
  Nd  Nd1  1  0.359430  0.359430  0.359430  1
  Y  Y2  1  0.142579  0.142579  0.142579  1
  Y  Y3  1  0.857421  0.857421  0.857421  1
  Cr  Cr4  1  0.758073  0.029022  0.466285  1
  Cr  Cr5  1  0.970977  0.533716  0.241927  1
  Cr  Cr6  1  0.533716  0.241927  0.970978  1
  Cr  Cr7  1  0.466284  0.758073  0.029023  1
  Cr  Cr8  1  0.029023  0.466284  0.758073  1
  Cr  Cr9  1  0.241927  0.970977  0.533716  1
  O  O10  1  0.920970  0.063577  0.298927  1
  O  O11  1  0.783732  0.995610  0.630585  1
  O  O12  1  0.004390  0.369415  0.216268  1
  O  O13  1  0.701073  0.079030  0.936423  1
  O  O14  1  0.589284  0.193184  0.443494  1
  O  O15  1  0.864885  0.491796  0.737991  1
  O  O16  1  0.508204  0.262009  0.135115  1
  O  O17  1  0.806816  0.556506  0.410716  1
  O  O18  1  0.936423  0.701073  0.079030  1
  O  O19  1  0.556506  0.410716  0.806816  1
  O  O20  1  0.369415  0.216268  0.004390  1
  O  O21  1  0.262009  0.135115  0.508204  1
  O  O22  1  0.737991  0.864885  0.491796  1
  O  O23  1  0.630585  0.783732  0.995610  1
  O  O24  1  0.443494  0.589284  0.193184  1
  O  O25  1  0.063577  0.298927  0.920970  1
  O  O26  1  0.193184  0.443494  0.589284  1
  O  O27  1  0.491796  0.737991  0.864885  1
  O  O28  1  0.135115  0.508204  0.262009  1
  O  O29  1  0.410716  0.806816  0.556506  1
  O  O30  1  0.298927  0.920970  0.063577  1
  O  O31  1  0.995610  0.630585  0.783732  1
  O  O32  1  0.216268  0.004390  0.369415  1
  O  O33  1  0.079030  0.936423  0.701073  1
