# generated using pymatgen
data_Lu6Sn7Pd16Se
_symmetry_space_group_name_H-M   'P 1'
_cell_length_a   9.34555025
_cell_length_b   9.34554952
_cell_length_c   9.34555000
_cell_angle_alpha   59.99999830
_cell_angle_beta   60.00000088
_cell_angle_gamma   59.99999801
_symmetry_Int_Tables_number   1
_chemical_formula_structural   Lu6Sn7Pd16Se
_chemical_formula_sum   'Lu6 Sn7 Pd16 Se1'
_cell_volume   577.16445677
_cell_formula_units_Z   1
loop_
 _symmetry_equiv_pos_site_id
 _symmetry_equiv_pos_as_xyz
  1  'x, y, z'
loop_
 _atom_site_type_symbol
 _atom_site_label
 _atom_site_symmetry_multiplicity
 _atom_site_fract_x
 _atom_site_fract_y
 _atom_site_fract_z
 _atom_site_occupancy
  Lu  Lu0  1  0.718501  0.281499  0.281499  1
  Lu  Lu1  1  0.281499  0.718501  0.718501  1
  Lu  Lu2  1  0.281499  0.718501  0.281499  1
  Lu  Lu3  1  0.718501  0.281499  0.718501  1
  Lu  Lu4  1  0.281499  0.281499  0.718501  1
  Lu  Lu5  1  0.718501  0.718501  0.281499  1
  Sn  Sn6  1  0.000000  0.000000  0.000000  1
  Sn  Sn7  1  0.500000  0.000000  0.000000  1
  Sn  Sn8  1  0.000000  0.500000  0.500000  1
  Sn  Sn9  1  0.000000  0.500000  0.000000  1
  Sn  Sn10  1  0.500000  0.000000  0.500000  1
  Sn  Sn11  1  0.000000  0.000000  0.500000  1
  Sn  Sn12  1  0.500000  0.500000  0.000000  1
  Pd  Pd13  1  0.118931  0.118931  0.118931  1
  Pd  Pd14  1  0.881069  0.881069  0.881069  1
  Pd  Pd15  1  0.118931  0.118931  0.643206  1
  Pd  Pd16  1  0.118931  0.643206  0.118931  1
  Pd  Pd17  1  0.881069  0.881069  0.356794  1
  Pd  Pd18  1  0.881069  0.356794  0.881069  1
  Pd  Pd19  1  0.643206  0.118931  0.118931  1
  Pd  Pd20  1  0.356794  0.881069  0.881069  1
  Pd  Pd21  1  0.334369  0.334369  0.334369  1
  Pd  Pd22  1  0.665631  0.665631  0.665631  1
  Pd  Pd23  1  0.334369  0.334369  0.996893  1
  Pd  Pd24  1  0.334369  0.996893  0.334369  1
  Pd  Pd25  1  0.665631  0.665631  0.003107  1
  Pd  Pd26  1  0.665631  0.003107  0.665631  1
  Pd  Pd27  1  0.996893  0.334369  0.334369  1
  Pd  Pd28  1  0.003107  0.665631  0.665631  1
  Se  Se29  1  0.500000  0.500000  0.500000  1
