# generated using pymatgen
data_La8Hg3PbAu8
_symmetry_space_group_name_H-M   'P 1'
_cell_length_a   8.30963600
_cell_length_b   8.30963600
_cell_length_c   7.83860200
_cell_angle_alpha   90.00000000
_cell_angle_beta   90.00000000
_cell_angle_gamma   90.00000000
_symmetry_Int_Tables_number   1
_chemical_formula_structural   La8Hg3PbAu8
_chemical_formula_sum   'La8 Hg3 Pb1 Au8'
_cell_volume   541.25586358
_cell_formula_units_Z   1
loop_
 _symmetry_equiv_pos_site_id
 _symmetry_equiv_pos_as_xyz
  1  'x, y, z'
loop_
 _atom_site_type_symbol
 _atom_site_label
 _atom_site_symmetry_multiplicity
 _atom_site_fract_x
 _atom_site_fract_y
 _atom_site_fract_z
 _atom_site_occupancy
  La  La0  1  0.182159  0.180281  0.001639  1
  La  La1  1  0.319719  0.682159  0.498361  1
  La  La2  1  0.680281  0.317841  0.498361  1
  La  La3  1  0.817841  0.819719  0.001639  1
  La  La4  1  0.330374  0.673883  0.000617  1
  La  La5  1  0.669626  0.326117  0.000617  1
  La  La6  1  0.826117  0.830374  0.499383  1
  La  La7  1  0.173883  0.169626  0.499383  1
  Hg  Hg8  1  0.000000  0.500000  0.750000  1
  Hg  Hg9  1  0.500000  0.000000  0.250000  1
  Hg  Hg10  1  0.000000  0.500000  0.250000  1
  Pb  Pb11  1  0.500000  0.000000  0.750000  1
  Au  Au12  1  0.121082  0.873778  0.759441  1
  Au  Au13  1  0.878181  0.126010  0.240332  1
  Au  Au14  1  0.373990  0.378181  0.259668  1
  Au  Au15  1  0.626222  0.621082  0.740559  1
  Au  Au16  1  0.626010  0.621819  0.259668  1
  Au  Au17  1  0.878918  0.126222  0.759441  1
  Au  Au18  1  0.373778  0.378918  0.740559  1
  Au  Au19  1  0.121819  0.873990  0.240332  1
