# generated using pymatgen
data_LiTb8InIrPt
_symmetry_space_group_name_H-M   'P 1'
_cell_length_a   9.71197143
_cell_length_b   9.72967909
_cell_length_c   9.69180358
_cell_angle_alpha   60.06025915
_cell_angle_beta   60.14637567
_cell_angle_gamma   60.30366952
_symmetry_Int_Tables_number   1
_chemical_formula_structural   LiTb8InIrPt
_chemical_formula_sum   'Li2 Tb16 In2 Ir2 Pt2'
_cell_volume   650.07190480
_cell_formula_units_Z   2
loop_
 _symmetry_equiv_pos_site_id
 _symmetry_equiv_pos_as_xyz
  1  'x, y, z'
loop_
 _atom_site_type_symbol
 _atom_site_label
 _atom_site_symmetry_multiplicity
 _atom_site_fract_x
 _atom_site_fract_y
 _atom_site_fract_z
 _atom_site_occupancy
  Li  Li0  1  0.325354  0.322473  0.322381  1
  Li  Li1  1  0.028135  0.322626  0.322792  1
  Tb  Tb2  1  0.103187  0.700412  0.099160  1
  Tb  Tb3  1  0.941949  0.941331  0.560041  1
  Tb  Tb4  1  0.942996  0.557411  0.938698  1
  Tb  Tb5  1  0.315487  0.687074  0.310727  1
  Tb  Tb6  1  0.932099  0.563581  0.567847  1
  Tb  Tb7  1  0.314033  0.312700  0.686399  1
  Tb  Tb8  1  0.101451  0.099800  0.096489  1
  Tb  Tb9  1  0.560112  0.561602  0.938114  1
  Tb  Tb10  1  0.099473  0.099388  0.706079  1
  Tb  Tb11  1  0.689005  0.312806  0.686864  1
  Tb  Tb12  1  0.687737  0.686743  0.311239  1
  Tb  Tb13  1  0.689888  0.313361  0.310794  1
  Tb  Tb14  1  0.313750  0.687971  0.687157  1
  Tb  Tb15  1  0.555932  0.939607  0.563988  1
  Tb  Tb16  1  0.694808  0.105207  0.100629  1
  Tb  Tb17  1  0.553066  0.943655  0.943969  1
  In  In18  1  0.329427  0.004386  0.335177  1
  In  In19  1  0.329433  0.335150  0.004249  1
  Ir  Ir20  1  0.323040  0.892956  0.892935  1
  Ir  Ir21  1  0.888420  0.323972  0.895874  1
  Pt  Pt22  1  0.890082  0.893217  0.895879  1
  Pt  Pt23  1  0.891132  0.892574  0.322521  1
