# generated using pymatgen
data_SrThZn5Sn
_symmetry_space_group_name_H-M   'P 1'
_cell_length_a   8.71899200
_cell_length_b   8.71899221
_cell_length_c   9.19345000
_cell_angle_alpha   90.00000000
_cell_angle_beta   90.00000000
_cell_angle_gamma   149.49773509
_symmetry_Int_Tables_number   1
_chemical_formula_structural   SrThZn5Sn
_chemical_formula_sum   'Sr2 Th2 Zn10 Sn2'
_cell_volume   354.73913720
_cell_formula_units_Z   2
loop_
 _symmetry_equiv_pos_site_id
 _symmetry_equiv_pos_as_xyz
  1  'x, y, z'
loop_
 _atom_site_type_symbol
 _atom_site_label
 _atom_site_symmetry_multiplicity
 _atom_site_fract_x
 _atom_site_fract_y
 _atom_site_fract_z
 _atom_site_occupancy
  Sr  Sr0  1  0.000000  0.000000  0.500000  1
  Sr  Sr1  1  0.000000  0.000000  0.000000  1
  Th  Th2  1  0.207900  0.792100  0.250000  1
  Th  Th3  1  0.792100  0.207900  0.750000  1
  Zn  Zn4  1  0.811739  0.188261  0.390615  1
  Zn  Zn5  1  0.188261  0.811739  0.609385  1
  Zn  Zn6  1  0.811739  0.188261  0.109385  1
  Zn  Zn7  1  0.188261  0.811739  0.890615  1
  Zn  Zn8  1  0.661193  0.338807  0.485475  1
  Zn  Zn9  1  0.338807  0.661193  0.514525  1
  Zn  Zn10  1  0.661193  0.338807  0.014525  1
  Zn  Zn11  1  0.338807  0.661193  0.985475  1
  Zn  Zn12  1  0.396196  0.603804  0.250000  1
  Zn  Zn13  1  0.603804  0.396196  0.750000  1
  Sn  Sn14  1  0.562025  0.437975  0.250000  1
  Sn  Sn15  1  0.437975  0.562025  0.750000  1
