# generated using pymatgen
data_Th2FeCo(As2Pd)2
_symmetry_space_group_name_H-M   'P 1'
_cell_length_a   4.29835700
_cell_length_b   4.29835700
_cell_length_c   9.60998900
_cell_angle_alpha   90.00000000
_cell_angle_beta   90.00000000
_cell_angle_gamma   90.00000000
_symmetry_Int_Tables_number   1
_chemical_formula_structural   Th2FeCo(As2Pd)2
_chemical_formula_sum   'Th2 Fe1 Co1 As4 Pd2'
_cell_volume   177.55293533
_cell_formula_units_Z   1
loop_
 _symmetry_equiv_pos_site_id
 _symmetry_equiv_pos_as_xyz
  1  'x, y, z'
loop_
 _atom_site_type_symbol
 _atom_site_label
 _atom_site_symmetry_multiplicity
 _atom_site_fract_x
 _atom_site_fract_y
 _atom_site_fract_z
 _atom_site_occupancy
  Th  Th0  1  0.000000  0.500000  0.262074  1
  Th  Th1  1  0.500000  0.000000  0.740129  1
  Fe  Fe2  1  0.000000  0.500000  0.604455  1
  Co  Co3  1  0.500000  0.000000  0.394196  1
  As  As4  1  0.000000  0.000000  0.499898  1
  As  As5  1  0.500000  0.500000  0.499898  1
  As  As6  1  0.000000  0.500000  0.844296  1
  As  As7  1  0.500000  0.000000  0.153872  1
  Pd  Pd8  1  0.000000  0.000000  0.000592  1
  Pd  Pd9  1  0.500000  0.500000  0.000592  1
