# generated using pymatgen
data_Ca3DyY2(Si3Os)8
_symmetry_space_group_name_H-M   'P 1'
_cell_length_a   10.16850452
_cell_length_b   10.16850156
_cell_length_c   8.17601301
_cell_angle_alpha   90.02021977
_cell_angle_beta   90.01163612
_cell_angle_gamma   132.58530672
_symmetry_Int_Tables_number   1
_chemical_formula_structural   Ca3DyY2(Si3Os)8
_chemical_formula_sum   'Ca3 Dy1 Y2 Si24 Os8'
_cell_volume   622.43355848
_cell_formula_units_Z   1
loop_
 _symmetry_equiv_pos_site_id
 _symmetry_equiv_pos_as_xyz
  1  'x, y, z'
loop_
 _atom_site_type_symbol
 _atom_site_label
 _atom_site_symmetry_multiplicity
 _atom_site_fract_x
 _atom_site_fract_y
 _atom_site_fract_z
 _atom_site_occupancy
  Ca  Ca0  1  0.499486  0.999693  0.750232  1
  Ca  Ca1  1  0.000307  0.500512  0.249768  1
  Ca  Ca2  1  0.999912  0.000088  0.999996  1
  Dy  Dy3  1  0.499536  0.999498  0.249852  1
  Y  Y4  1  0.000520  0.500484  0.750141  1
  Y  Y5  1  0.500019  0.499983  0.500005  1
  Si  Si6  1  0.795165  0.204761  0.499967  1
  Si  Si7  1  0.704439  0.295489  0.000034  1
  Si  Si8  1  0.205425  0.794639  0.499973  1
  Si  Si9  1  0.294929  0.705135  0.000027  1
  Si  Si10  1  0.664294  0.671911  0.166064  1
  Si  Si11  1  0.169490  0.161241  0.331063  1
  Si  Si12  1  0.838762  0.830499  0.668934  1
  Si  Si13  1  0.328079  0.335706  0.833939  1
  Si  Si14  1  0.846690  0.613986  0.992236  1
  Si  Si15  1  0.111306  0.345054  0.506871  1
  Si  Si16  1  0.654929  0.888711  0.493095  1
  Si  Si17  1  0.386031  0.153294  0.007800  1
  Si  Si18  1  0.153550  0.387150  0.005714  1
  Si  Si19  1  0.889611  0.655316  0.495931  1
  Si  Si20  1  0.122332  0.888995  0.729520  1
  Si  Si21  1  0.388935  0.622928  0.771973  1
  Si  Si22  1  0.377084  0.611109  0.228031  1
  Si  Si23  1  0.111047  0.877675  0.270475  1
  Si  Si24  1  0.876034  0.109163  0.270371  1
  Si  Si25  1  0.609405  0.375368  0.228191  1
  Si  Si26  1  0.624581  0.390580  0.771806  1
  Si  Si27  1  0.890823  0.123916  0.729632  1
  Si  Si28  1  0.612827  0.846468  0.994315  1
  Si  Si29  1  0.344703  0.110368  0.504043  1
  Os  Os30  1  0.625822  0.624658  0.872312  1
  Os  Os31  1  0.127688  0.129210  0.624679  1
  Os  Os32  1  0.375357  0.374191  0.127693  1
  Os  Os33  1  0.870804  0.872329  0.375317  1
  Os  Os34  1  0.169883  0.830232  0.000063  1
  Os  Os35  1  0.331266  0.668845  0.499940  1
  Os  Os36  1  0.829111  0.170761  0.000062  1
  Os  Os37  1  0.669821  0.330051  0.499937  1
