# generated using pymatgen
data_Ho6Sc4Si5P
_symmetry_space_group_name_H-M   'P 1'
_cell_length_a   8.21856600
_cell_length_b   8.22680506
_cell_length_c   5.97229600
_cell_angle_alpha   90.00000000
_cell_angle_beta   90.00000000
_cell_angle_gamma   119.96687651
_symmetry_Int_Tables_number   1
_chemical_formula_structural   Ho6Sc4Si5P
_chemical_formula_sum   'Ho6 Sc4 Si5 P1'
_cell_volume   349.81954387
_cell_formula_units_Z   1
loop_
 _symmetry_equiv_pos_site_id
 _symmetry_equiv_pos_as_xyz
  1  'x, y, z'
loop_
 _atom_site_type_symbol
 _atom_site_label
 _atom_site_symmetry_multiplicity
 _atom_site_fract_x
 _atom_site_fract_y
 _atom_site_fract_z
 _atom_site_occupancy
  Ho  Ho0  1  0.000719  0.753791  0.750000  1
  Ho  Ho1  1  0.001017  0.246772  0.250000  1
  Ho  Ho2  1  0.754245  0.753228  0.250000  1
  Ho  Ho3  1  0.750633  0.000000  0.750000  1
  Ho  Ho4  1  0.246929  0.246209  0.750000  1
  Ho  Ho5  1  0.247878  0.000000  0.250000  1
  Sc  Sc6  1  0.333539  0.667380  0.499285  1
  Sc  Sc7  1  0.666159  0.332620  0.000715  1
  Sc  Sc8  1  0.666159  0.332620  0.499285  1
  Sc  Sc9  1  0.333539  0.667380  0.000715  1
  Si  Si10  1  0.398219  0.397291  0.250000  1
  Si  Si11  1  0.000928  0.602709  0.250000  1
  Si  Si12  1  0.000178  0.397391  0.750000  1
  Si  Si13  1  0.602787  0.602609  0.750000  1
  Si  Si14  1  0.604125  0.000000  0.250000  1
  P  P15  1  0.392946  0.000000  0.750000  1
