# generated using pymatgen
data_Dy8Er7Sc5Sn16
_symmetry_space_group_name_H-M   'P 1'
_cell_length_a   7.86812336
_cell_length_b   8.03959931
_cell_length_c   15.22898405
_cell_angle_alpha   90.07108289
_cell_angle_beta   89.77932723
_cell_angle_gamma   90.07592169
_symmetry_Int_Tables_number   1
_chemical_formula_structural   Dy8Er7Sc5Sn16
_chemical_formula_sum   'Dy8 Er7 Sc5 Sn16'
_cell_volume   963.32440418
_cell_formula_units_Z   1
loop_
 _symmetry_equiv_pos_site_id
 _symmetry_equiv_pos_as_xyz
  1  'x, y, z'
loop_
 _atom_site_type_symbol
 _atom_site_label
 _atom_site_symmetry_multiplicity
 _atom_site_fract_x
 _atom_site_fract_y
 _atom_site_fract_z
 _atom_site_occupancy
  Dy  Dy0  1  0.518941  0.320520  0.904910  1
  Dy  Dy1  1  0.021370  0.178798  0.596937  1
  Dy  Dy2  1  0.479880  0.679342  0.404504  1
  Dy  Dy3  1  0.979572  0.820575  0.095020  1
  Dy  Dy4  1  0.481491  0.680143  0.093544  1
  Dy  Dy5  1  0.979698  0.820732  0.404016  1
  Dy  Dy6  1  0.519616  0.320849  0.597217  1
  Dy  Dy7  1  0.018162  0.178273  0.904303  1
  Er  Er8  1  0.862072  0.661551  0.625748  1
  Er  Er9  1  0.637254  0.160696  0.375655  1
  Er  Er10  1  0.140618  0.338510  0.121653  1
  Er  Er11  1  0.637983  0.161097  0.124293  1
  Er  Er12  1  0.137158  0.338489  0.375766  1
  Er  Er13  1  0.363654  0.839219  0.624778  1
  Er  Er14  1  0.863158  0.660351  0.876579  1
  Sc  Sc15  1  0.359697  0.840082  0.873233  1
  Sc  Sc16  1  0.194066  0.503997  0.750930  1
  Sc  Sc17  1  0.692317  0.994861  0.750577  1
  Sc  Sc18  1  0.807531  0.495598  0.250072  1
  Sc  Sc19  1  0.307236  0.003406  0.249577  1
  Sn  Sn20  1  0.300206  0.034108  0.039312  1
  Sn  Sn21  1  0.796987  0.462945  0.457104  1
  Sn  Sn22  1  0.704294  0.963533  0.544031  1
  Sn  Sn23  1  0.206590  0.545218  0.954779  1
  Sn  Sn24  1  0.692222  0.960359  0.955312  1
  Sn  Sn25  1  0.202373  0.537163  0.544346  1
  Sn  Sn26  1  0.296642  0.036887  0.456463  1
  Sn  Sn27  1  0.798650  0.462118  0.043895  1
  Sn  Sn28  1  0.553214  0.621420  0.752950  1
  Sn  Sn29  1  0.057893  0.882060  0.752532  1
  Sn  Sn30  1  0.444869  0.383770  0.249823  1
  Sn  Sn31  1  0.945671  0.117099  0.248783  1
  Sn  Sn32  1  0.329416  0.151301  0.751779  1
  Sn  Sn33  1  0.827968  0.346364  0.750920  1
  Sn  Sn34  1  0.670568  0.845411  0.249515  1
  Sn  Sn35  1  0.170962  0.653153  0.249146  1
