# generated using pymatgen
data_TbNd9(SnSb)4
_symmetry_space_group_name_H-M   'P 1'
_cell_length_a   8.98298471
_cell_length_b   8.98298568
_cell_length_c   8.43260300
_cell_angle_alpha   89.85017460
_cell_angle_beta   89.85017459
_cell_angle_gamma   124.85298515
_symmetry_Int_Tables_number   1
_chemical_formula_structural   TbNd9(SnSb)4
_chemical_formula_sum   'Tb1 Nd9 Sn4 Sb4'
_cell_volume   558.39145311
_cell_formula_units_Z   1
loop_
 _symmetry_equiv_pos_site_id
 _symmetry_equiv_pos_as_xyz
  1  'x, y, z'
loop_
 _atom_site_type_symbol
 _atom_site_label
 _atom_site_symmetry_multiplicity
 _atom_site_fract_x
 _atom_site_fract_y
 _atom_site_fract_z
 _atom_site_occupancy
  Tb  Tb0  1  0.500000  0.500000  0.500000  1
  Nd  Nd1  1  0.031438  0.308133  0.335368  1
  Nd  Nd2  1  0.968562  0.691867  0.664632  1
  Nd  Nd3  1  0.467753  0.193990  0.835332  1
  Nd  Nd4  1  0.806010  0.532247  0.164668  1
  Nd  Nd5  1  0.532247  0.806010  0.164668  1
  Nd  Nd6  1  0.193990  0.467753  0.835332  1
  Nd  Nd7  1  0.691867  0.968562  0.664632  1
  Nd  Nd8  1  0.308133  0.031438  0.335368  1
  Nd  Nd9  1  0.000000  0.000000  0.000000  1
  Sn  Sn10  1  0.369763  0.369763  0.132779  1
  Sn  Sn11  1  0.630237  0.630237  0.867221  1
  Sn  Sn12  1  0.132630  0.132630  0.628870  1
  Sn  Sn13  1  0.867370  0.867370  0.371130  1
  Sb  Sb14  1  0.797359  0.202641  0.000000  1
  Sb  Sb15  1  0.202641  0.797359  0.000000  1
  Sb  Sb16  1  0.698898  0.301102  0.500000  1
  Sb  Sb17  1  0.301102  0.698898  0.500000  1
