# generated using pymatgen
data_BaDyZn3FeO7
_symmetry_space_group_name_H-M   'P 1'
_cell_length_a   6.43319300
_cell_length_b   6.43319977
_cell_length_c   10.47220000
_cell_angle_alpha   90.00000000
_cell_angle_beta   90.00000000
_cell_angle_gamma   120.00006107
_symmetry_Int_Tables_number   1
_chemical_formula_structural   BaDyZn3FeO7
_chemical_formula_sum   'Ba2 Dy2 Zn6 Fe2 O14'
_cell_volume   375.33746007
_cell_formula_units_Z   2
loop_
 _symmetry_equiv_pos_site_id
 _symmetry_equiv_pos_as_xyz
  1  'x, y, z'
loop_
 _atom_site_type_symbol
 _atom_site_label
 _atom_site_symmetry_multiplicity
 _atom_site_fract_x
 _atom_site_fract_y
 _atom_site_fract_z
 _atom_site_occupancy
  Ba  Ba0  1  0.666678  0.333355  0.469489  1
  Ba  Ba1  1  0.333320  0.666644  0.969489  1
  Dy  Dy2  1  0.333333  0.666667  0.316279  1
  Dy  Dy3  1  0.666667  0.333334  0.816279  1
  Zn  Zn4  1  0.828458  0.656703  0.131935  1
  Zn  Zn5  1  0.828243  0.171538  0.131937  1
  Zn  Zn6  1  0.343296  0.171753  0.131935  1
  Zn  Zn7  1  0.171544  0.343298  0.631935  1
  Zn  Zn8  1  0.171758  0.828462  0.631935  1
  Zn  Zn9  1  0.656703  0.828248  0.631935  1
  Fe  Fe10  1  0.000002  0.000001  0.381468  1
  Fe  Fe11  1  0.999998  0.999999  0.881468  1
  O  O12  1  0.015985  0.507864  0.182246  1
  O  O13  1  0.492131  0.508117  0.182246  1
  O  O14  1  0.491876  0.984008  0.182243  1
  O  O15  1  0.999999  0.999998  0.196917  1
  O  O16  1  0.677306  0.837690  0.439435  1
  O  O17  1  0.160390  0.322694  0.439436  1
  O  O18  1  0.162298  0.839603  0.439436  1
  O  O19  1  0.984016  0.492137  0.682246  1
  O  O20  1  0.508124  0.015992  0.682243  1
  O  O21  1  0.507867  0.491882  0.682246  1
  O  O22  1  0.000001  0.000002  0.696917  1
  O  O23  1  0.839611  0.677307  0.939434  1
  O  O24  1  0.322695  0.162311  0.939435  1
  O  O25  1  0.837705  0.160398  0.939434  1
