# generated using pymatgen
data_Nd4InPbAu4
_symmetry_space_group_name_H-M   'P 1'
_cell_length_a   8.21199300
_cell_length_b   8.21199300
_cell_length_c   3.89126000
_cell_angle_alpha   90.00000000
_cell_angle_beta   90.00000000
_cell_angle_gamma   90.00000000
_symmetry_Int_Tables_number   1
_chemical_formula_structural   Nd4InPbAu4
_chemical_formula_sum   'Nd4 In1 Pb1 Au4'
_cell_volume   262.41423534
_cell_formula_units_Z   1
loop_
 _symmetry_equiv_pos_site_id
 _symmetry_equiv_pos_as_xyz
  1  'x, y, z'
loop_
 _atom_site_type_symbol
 _atom_site_label
 _atom_site_symmetry_multiplicity
 _atom_site_fract_x
 _atom_site_fract_y
 _atom_site_fract_z
 _atom_site_occupancy
  Nd  Nd0  1  0.672402  0.172958  0.500000  1
  Nd  Nd1  1  0.327598  0.827042  0.500000  1
  Nd  Nd2  1  0.172958  0.327598  0.500000  1
  Nd  Nd3  1  0.827042  0.672402  0.500000  1
  In  In4  1  0.500000  0.500000  0.000000  1
  Pb  Pb5  1  0.000000  0.000000  0.000000  1
  Au  Au6  1  0.128637  0.621820  0.000000  1
  Au  Au7  1  0.871363  0.378180  0.000000  1
  Au  Au8  1  0.621820  0.871363  0.000000  1
  Au  Au9  1  0.378180  0.128637  0.000000  1
