# generated using pymatgen
data_NdDy6FeBr12
_symmetry_space_group_name_H-M   'P 1'
_cell_length_a   9.27561771
_cell_length_b   9.20751752
_cell_length_c   9.28151004
_cell_angle_alpha   106.66061117
_cell_angle_beta   106.67502701
_cell_angle_gamma   107.17859586
_symmetry_Int_Tables_number   1
_chemical_formula_structural   NdDy6FeBr12
_chemical_formula_sum   'Nd1 Dy6 Fe1 Br12'
_cell_volume   663.04151761
_cell_formula_units_Z   1
loop_
 _symmetry_equiv_pos_site_id
 _symmetry_equiv_pos_as_xyz
  1  'x, y, z'
loop_
 _atom_site_type_symbol
 _atom_site_label
 _atom_site_symmetry_multiplicity
 _atom_site_fract_x
 _atom_site_fract_y
 _atom_site_fract_z
 _atom_site_occupancy
  Nd  Nd0  1  0.096212  0.299978  0.020890  1
  Dy  Dy1  1  0.500116  0.498444  0.501353  1
  Dy  Dy2  1  0.020505  0.095642  0.302887  1
  Dy  Dy3  1  0.304538  0.022536  0.097305  1
  Dy  Dy4  1  0.906246  0.710310  0.978949  1
  Dy  Dy5  1  0.978120  0.900254  0.695472  1
  Dy  Dy6  1  0.694736  0.978525  0.902258  1
  Fe  Fe7  1  0.000651  0.003380  0.999197  1
  Br  Br8  1  0.469553  0.385980  0.173526  1
  Br  Br9  1  0.170104  0.461529  0.393431  1
  Br  Br10  1  0.384504  0.164149  0.460001  1
  Br  Br11  1  0.541342  0.615220  0.833292  1
  Br  Br12  1  0.832498  0.539349  0.617743  1
  Br  Br13  1  0.615005  0.832206  0.539458  1
  Br  Br14  1  0.768481  0.316744  0.926167  1
  Br  Br15  1  0.928242  0.776068  0.316763  1
  Br  Br16  1  0.319885  0.928492  0.778798  1
  Br  Br17  1  0.220870  0.686722  0.071213  1
  Br  Br18  1  0.068919  0.214990  0.670638  1
  Br  Br19  1  0.679474  0.069482  0.220660  1
