# generated using pymatgen
data_La10Pr6Cd4Ru3Pt
_symmetry_space_group_name_H-M   'P 1'
_cell_length_a   10.05500581
_cell_length_b   10.08255474
_cell_length_c   10.08255400
_cell_angle_alpha   60.00000241
_cell_angle_beta   59.90932837
_cell_angle_gamma   59.90932845
_symmetry_Int_Tables_number   1
_chemical_formula_structural   La10Pr6Cd4Ru3Pt
_chemical_formula_sum   'La10 Pr6 Cd4 Ru3 Pt1'
_cell_volume   721.79175773
_cell_formula_units_Z   1
loop_
 _symmetry_equiv_pos_site_id
 _symmetry_equiv_pos_as_xyz
  1  'x, y, z'
loop_
 _atom_site_type_symbol
 _atom_site_label
 _atom_site_symmetry_multiplicity
 _atom_site_fract_x
 _atom_site_fract_y
 _atom_site_fract_z
 _atom_site_occupancy
  La  La0  1  0.343492  0.350120  0.350120  1
  La  La1  1  0.343492  0.350120  0.956268  1
  La  La2  1  0.343492  0.956268  0.350120  1
  La  La3  1  0.961209  0.346264  0.346264  1
  La  La4  1  0.816584  0.190590  0.190590  1
  La  La5  1  0.189484  0.811292  0.811292  1
  La  La6  1  0.189484  0.811292  0.187932  1
  La  La7  1  0.816584  0.190590  0.802237  1
  La  La8  1  0.189484  0.187932  0.811292  1
  La  La9  1  0.816584  0.802237  0.190590  1
  Pr  Pr10  1  0.936492  0.563166  0.563166  1
  Pr  Pr11  1  0.560174  0.937470  0.937470  1
  Pr  Pr12  1  0.560174  0.937470  0.564885  1
  Pr  Pr13  1  0.936492  0.563166  0.937175  1
  Pr  Pr14  1  0.560174  0.564885  0.937470  1
  Pr  Pr15  1  0.936492  0.937175  0.563166  1
  Cd  Cd16  1  0.579822  0.580021  0.580021  1
  Cd  Cd17  1  0.579822  0.580021  0.260136  1
  Cd  Cd18  1  0.579822  0.260136  0.580021  1
  Cd  Cd19  1  0.260421  0.579859  0.579859  1
  Ru  Ru20  1  0.140968  0.137423  0.137423  1
  Ru  Ru21  1  0.140968  0.137423  0.584186  1
  Ru  Ru22  1  0.140968  0.584186  0.137423  1
  Pt  Pt23  1  0.577321  0.140893  0.140893  1
