# generated using pymatgen
data_Cs6HoTe4Cl
_symmetry_space_group_name_H-M   'P 1'
_cell_length_a   12.35871100
_cell_length_b   12.35871152
_cell_length_c   9.11840200
_cell_angle_alpha   90.00000000
_cell_angle_beta   90.00000000
_cell_angle_gamma   120.00000128
_symmetry_Int_Tables_number   1
_chemical_formula_structural   Cs6HoTe4Cl
_chemical_formula_sum   'Cs12 Ho2 Te8 Cl2'
_cell_volume   1206.13447960
_cell_formula_units_Z   2
loop_
 _symmetry_equiv_pos_site_id
 _symmetry_equiv_pos_as_xyz
  1  'x, y, z'
loop_
 _atom_site_type_symbol
 _atom_site_label
 _atom_site_symmetry_multiplicity
 _atom_site_fract_x
 _atom_site_fract_y
 _atom_site_fract_z
 _atom_site_occupancy
  Cs  Cs0  1  0.124151  0.875849  0.511037  1
  Cs  Cs1  1  0.751696  0.875849  0.511037  1
  Cs  Cs2  1  0.942231  0.471115  0.315850  1
  Cs  Cs3  1  0.528885  0.471115  0.315850  1
  Cs  Cs4  1  0.875849  0.751696  0.011037  1
  Cs  Cs5  1  0.248304  0.124151  0.011037  1
  Cs  Cs6  1  0.528885  0.057769  0.315850  1
  Cs  Cs7  1  0.124151  0.248304  0.511037  1
  Cs  Cs8  1  0.875849  0.124151  0.011037  1
  Cs  Cs9  1  0.057769  0.528885  0.815850  1
  Cs  Cs10  1  0.471115  0.942231  0.815850  1
  Cs  Cs11  1  0.471115  0.528885  0.815850  1
  Ho  Ho12  1  0.666667  0.333333  0.715530  1
  Ho  Ho13  1  0.333333  0.666667  0.215530  1
  Te  Te14  1  0.407511  0.203756  0.611286  1
  Te  Te15  1  0.592489  0.796244  0.111286  1
  Te  Te16  1  0.666667  0.333333  0.036504  1
  Te  Te17  1  0.796244  0.592489  0.611286  1
  Te  Te18  1  0.203756  0.407511  0.111286  1
  Te  Te19  1  0.333333  0.666667  0.536504  1
  Te  Te20  1  0.203756  0.796244  0.111286  1
  Te  Te21  1  0.796244  0.203756  0.611286  1
  Cl  Cl22  1  0.000000  0.000000  0.274050  1
  Cl  Cl23  1  0.000000  0.000000  0.774050  1
