# generated using pymatgen
data_Th2HgIrAu
_symmetry_space_group_name_H-M   'P 1'
_cell_length_a   8.02687400
_cell_length_b   8.02687447
_cell_length_c   3.85574300
_cell_angle_alpha   90.00000000
_cell_angle_beta   90.00000000
_cell_angle_gamma   90.11953293
_symmetry_Int_Tables_number   1
_chemical_formula_structural   Th2HgIrAu
_chemical_formula_sum   'Th4 Hg2 Ir2 Au2'
_cell_volume   248.42771832
_cell_formula_units_Z   2
loop_
 _symmetry_equiv_pos_site_id
 _symmetry_equiv_pos_as_xyz
  1  'x, y, z'
loop_
 _atom_site_type_symbol
 _atom_site_label
 _atom_site_symmetry_multiplicity
 _atom_site_fract_x
 _atom_site_fract_y
 _atom_site_fract_z
 _atom_site_occupancy
  Th  Th0  1  0.161425  0.338575  0.000000  1
  Th  Th1  1  0.838575  0.661425  0.000000  1
  Th  Th2  1  0.686082  0.186082  0.000000  1
  Th  Th3  1  0.313918  0.813918  0.000000  1
  Hg  Hg4  1  0.000000  0.000000  0.500000  1
  Hg  Hg5  1  0.500000  0.500000  0.500000  1
  Ir  Ir6  1  0.870445  0.370445  0.500000  1
  Ir  Ir7  1  0.129555  0.629555  0.500000  1
  Au  Au8  1  0.372939  0.127061  0.500000  1
  Au  Au9  1  0.627061  0.872939  0.500000  1
