# generated using pymatgen
data_CaDyCd2(Ru2O7)2
_symmetry_space_group_name_H-M   'P 1'
_cell_length_a   7.27282310
_cell_length_b   7.35071395
_cell_length_c   7.27282235
_cell_angle_alpha   59.36977087
_cell_angle_beta   59.22287191
_cell_angle_gamma   59.36977151
_symmetry_Int_Tables_number   1
_chemical_formula_structural   CaDyCd2(Ru2O7)2
_chemical_formula_sum   'Ca1 Dy1 Cd2 Ru4 O14'
_cell_volume   270.67643521
_cell_formula_units_Z   1
loop_
 _symmetry_equiv_pos_site_id
 _symmetry_equiv_pos_as_xyz
  1  'x, y, z'
loop_
 _atom_site_type_symbol
 _atom_site_label
 _atom_site_symmetry_multiplicity
 _atom_site_fract_x
 _atom_site_fract_y
 _atom_site_fract_z
 _atom_site_occupancy
  Ca  Ca0  1  0.125000  0.625000  0.125000  1
  Dy  Dy1  1  0.125000  0.125000  0.125000  1
  Cd  Cd2  1  0.125000  0.125000  0.625000  1
  Cd  Cd3  1  0.625000  0.125000  0.125000  1
  Ru  Ru4  1  0.625000  0.125000  0.625000  1
  Ru  Ru5  1  0.625000  0.625000  0.125000  1
  Ru  Ru6  1  0.125000  0.625000  0.625000  1
  Ru  Ru7  1  0.625000  0.625000  0.625000  1
  O  O8  1  0.694599  0.693354  0.303655  1
  O  O9  1  0.946345  0.556646  0.555401  1
  O  O10  1  0.544878  0.948126  0.949168  1
  O  O11  1  0.949168  0.948126  0.544878  1
  O  O12  1  0.955218  0.540679  0.955218  1
  O  O13  1  0.558756  0.942426  0.558756  1
  O  O14  1  0.294782  0.709321  0.294782  1
  O  O15  1  0.303655  0.693354  0.694599  1
  O  O16  1  0.705122  0.301874  0.300832  1
  O  O17  1  0.691244  0.307574  0.691244  1
  O  O18  1  0.555401  0.556646  0.946345  1
  O  O19  1  0.300832  0.301874  0.705122  1
  O  O20  1  0.255164  0.237811  0.255164  1
  O  O21  1  0.994836  0.012189  0.994836  1
