# generated using pymatgen
data_Dy4TcB12Rh
_symmetry_space_group_name_H-M   'P 1'
_cell_length_a   3.68738500
_cell_length_b   9.15438451
_cell_length_c   11.54182344
_cell_angle_alpha   90.39878196
_cell_angle_beta   90.00000000
_cell_angle_gamma   90.00000000
_symmetry_Int_Tables_number   1
_chemical_formula_structural   Dy4TcB12Rh
_chemical_formula_sum   'Dy8 Tc2 B24 Rh2'
_cell_volume   389.59335582
_cell_formula_units_Z   2
loop_
 _symmetry_equiv_pos_site_id
 _symmetry_equiv_pos_as_xyz
  1  'x, y, z'
loop_
 _atom_site_type_symbol
 _atom_site_label
 _atom_site_symmetry_multiplicity
 _atom_site_fract_x
 _atom_site_fract_y
 _atom_site_fract_z
 _atom_site_occupancy
  Dy  Dy0  1  0.500000  0.319142  0.410811  1
  Dy  Dy1  1  0.500000  0.680858  0.589189  1
  Dy  Dy2  1  0.500000  0.173186  0.917138  1
  Dy  Dy3  1  0.500000  0.826814  0.082862  1
  Dy  Dy4  1  0.500000  0.441959  0.126902  1
  Dy  Dy5  1  0.500000  0.558041  0.873098  1
  Dy  Dy6  1  0.500000  0.053907  0.628574  1
  Dy  Dy7  1  0.500000  0.946093  0.371426  1
  Tc  Tc8  1  0.500000  0.139234  0.179781  1
  Tc  Tc9  1  0.500000  0.860766  0.820219  1
  B  B10  1  0.000000  0.108776  0.470731  1
  B  B11  1  0.000000  0.891224  0.529269  1
  B  B12  1  0.000000  0.392357  0.970032  1
  B  B13  1  0.000000  0.607643  0.029968  1
  B  B14  1  0.000000  0.132684  0.314563  1
  B  B15  1  0.000000  0.867316  0.685437  1
  B  B16  1  0.000000  0.367141  0.816157  1
  B  B17  1  0.000000  0.632859  0.183843  1
  B  B18  1  0.000000  0.053434  0.067516  1
  B  B19  1  0.000000  0.946566  0.932484  1
  B  B20  1  0.000000  0.445493  0.566191  1
  B  B21  1  0.000000  0.554507  0.433809  1
  B  B22  1  0.000000  0.484084  0.287797  1
  B  B23  1  0.000000  0.515916  0.712203  1
  B  B24  1  0.000000  0.015908  0.787180  1
  B  B25  1  0.000000  0.984092  0.212820  1
  B  B26  1  0.000000  0.247812  0.081145  1
  B  B27  1  0.000000  0.752188  0.918855  1
  B  B28  1  0.000000  0.250993  0.578864  1
  B  B29  1  0.000000  0.749007  0.421136  1
  B  B30  1  0.000000  0.292599  0.234469  1
  B  B31  1  0.000000  0.707401  0.765531  1
  B  B32  1  0.000000  0.208645  0.734529  1
  B  B33  1  0.000000  0.791355  0.265471  1
  Rh  Rh34  1  0.500000  0.362074  0.678411  1
  Rh  Rh35  1  0.500000  0.637926  0.321589  1
