# generated using pymatgen
data_Tb7Sn22Os6Se
_symmetry_space_group_name_H-M   'P 1'
_cell_length_a   9.88033800
_cell_length_b   9.88033739
_cell_length_c   10.05288300
_cell_angle_alpha   90.00000000
_cell_angle_beta   90.00000000
_cell_angle_gamma   120.00000205
_symmetry_Int_Tables_number   1
_chemical_formula_structural   Tb7Sn22Os6Se
_chemical_formula_sum   'Tb7 Sn22 Os6 Se1'
_cell_volume   849.89412568
_cell_formula_units_Z   1
loop_
 _symmetry_equiv_pos_site_id
 _symmetry_equiv_pos_as_xyz
  1  'x, y, z'
loop_
 _atom_site_type_symbol
 _atom_site_label
 _atom_site_symmetry_multiplicity
 _atom_site_fract_x
 _atom_site_fract_y
 _atom_site_fract_z
 _atom_site_occupancy
  Tb  Tb0  1  0.000000  0.000000  0.000000  1
  Tb  Tb1  1  0.484255  0.515745  0.299912  1
  Tb  Tb2  1  0.515745  0.484255  0.700088  1
  Tb  Tb3  1  0.484255  0.968509  0.299912  1
  Tb  Tb4  1  0.515745  0.031491  0.700088  1
  Tb  Tb5  1  0.031491  0.515745  0.299912  1
  Tb  Tb6  1  0.968509  0.484255  0.700088  1
  Sn  Sn7  1  0.349480  0.000000  0.000000  1
  Sn  Sn8  1  0.650520  0.000000  0.000000  1
  Sn  Sn9  1  0.000000  0.349480  0.000000  1
  Sn  Sn10  1  0.000000  0.650520  0.000000  1
  Sn  Sn11  1  0.650520  0.650520  0.000000  1
  Sn  Sn12  1  0.349480  0.349480  0.000000  1
  Sn  Sn13  1  0.333333  0.666667  0.829156  1
  Sn  Sn14  1  0.666667  0.333333  0.170844  1
  Sn  Sn15  1  0.775942  0.224058  0.462243  1
  Sn  Sn16  1  0.224058  0.775942  0.537757  1
  Sn  Sn17  1  0.775942  0.551885  0.462243  1
  Sn  Sn18  1  0.224058  0.448115  0.537757  1
  Sn  Sn19  1  0.448115  0.224058  0.462243  1
  Sn  Sn20  1  0.551885  0.775942  0.537757  1
  Sn  Sn21  1  0.333333  0.666667  0.126138  1
  Sn  Sn22  1  0.666667  0.333333  0.873862  1
  Sn  Sn23  1  0.116066  0.883934  0.283974  1
  Sn  Sn24  1  0.883934  0.116066  0.716026  1
  Sn  Sn25  1  0.116066  0.232132  0.283974  1
  Sn  Sn26  1  0.883934  0.767868  0.716026  1
  Sn  Sn27  1  0.767868  0.883934  0.283974  1
  Sn  Sn28  1  0.232132  0.116066  0.716026  1
  Os  Os29  1  0.831681  0.168319  0.205326  1
  Os  Os30  1  0.168319  0.831681  0.794674  1
  Os  Os31  1  0.831681  0.663361  0.205326  1
  Os  Os32  1  0.168319  0.336639  0.794674  1
  Os  Os33  1  0.336639  0.168319  0.205326  1
  Os  Os34  1  0.663361  0.831681  0.794674  1
  Se  Se35  1  0.000000  0.000000  0.500000  1
