# generated using pymatgen
data_Zr(VI4)3
_symmetry_space_group_name_H-M   'P 1'
_cell_length_a   6.69667910
_cell_length_b   7.73180012
_cell_length_c   13.64730200
_cell_angle_alpha   90.00000000
_cell_angle_beta   90.00000000
_cell_angle_gamma   89.82291556
_symmetry_Int_Tables_number   1
_chemical_formula_structural   Zr(VI4)3
_chemical_formula_sum   'Zr1 V3 I12'
_cell_volume   706.61822427
_cell_formula_units_Z   1
loop_
 _symmetry_equiv_pos_site_id
 _symmetry_equiv_pos_as_xyz
  1  'x, y, z'
loop_
 _atom_site_type_symbol
 _atom_site_label
 _atom_site_symmetry_multiplicity
 _atom_site_fract_x
 _atom_site_fract_y
 _atom_site_fract_z
 _atom_site_occupancy
  Zr  Zr0  1  0.752766  0.248354  0.000000  1
  V  V1  1  0.240091  0.751638  0.500000  1
  V  V2  1  0.760050  0.751766  0.500000  1
  V  V3  1  0.247863  0.248262  0.000000  1
  I  I4  1  0.000556  0.608447  0.641490  1
  I  I5  1  0.999049  0.038298  0.500000  1
  I  I6  1  0.008223  0.099723  0.852753  1
  I  I7  1  0.008223  0.099723  0.147247  1
  I  I8  1  0.499433  0.892303  0.361795  1
  I  I9  1  0.491495  0.394530  0.145799  1
  I  I10  1  0.500994  0.471548  0.500000  1
  I  I11  1  0.499433  0.892303  0.638205  1
  I  I12  1  0.491495  0.394530  0.854201  1
  I  I13  1  0.493987  0.951993  0.000000  1
  I  I14  1  0.005786  0.548133  0.000000  1
  I  I15  1  0.000556  0.608447  0.358510  1
