# generated using pymatgen
data_Zr5Pa(SnRh)6
_symmetry_space_group_name_H-M   'P 1'
_cell_length_a   7.42099532
_cell_length_b   7.38332592
_cell_length_c   7.54074100
_cell_angle_alpha   90.00000000
_cell_angle_beta   90.00000000
_cell_angle_gamma   120.29330827
_symmetry_Int_Tables_number   1
_chemical_formula_structural   Zr5Pa(SnRh)6
_chemical_formula_sum   'Zr5 Pa1 Sn6 Rh6'
_cell_volume   356.75302470
_cell_formula_units_Z   1
loop_
 _symmetry_equiv_pos_site_id
 _symmetry_equiv_pos_as_xyz
  1  'x, y, z'
loop_
 _atom_site_type_symbol
 _atom_site_label
 _atom_site_symmetry_multiplicity
 _atom_site_fract_x
 _atom_site_fract_y
 _atom_site_fract_z
 _atom_site_occupancy
  Zr  Zr0  1  0.386742  0.407324  0.750000  1
  Zr  Zr1  1  0.018230  0.611573  0.750000  1
  Zr  Zr2  1  0.614336  0.022518  0.250000  1
  Zr  Zr3  1  0.407544  0.395184  0.250000  1
  Zr  Zr4  1  0.982297  0.590083  0.250000  1
  Pa  Pa5  1  0.579812  0.978047  0.750000  1
  Sn  Sn6  1  0.258752  0.000477  0.009958  1
  Sn  Sn7  1  0.735973  0.724800  0.498127  1
  Sn  Sn8  1  0.007635  0.274001  0.499008  1
  Sn  Sn9  1  0.007635  0.274001  0.000992  1
  Sn  Sn10  1  0.735973  0.724800  0.001873  1
  Sn  Sn11  1  0.258752  0.000477  0.490042  1
  Rh  Rh12  1  0.665160  0.322458  0.960421  1
  Rh  Rh13  1  0.665160  0.322458  0.539579  1
  Rh  Rh14  1  0.341457  0.674649  0.033954  1
  Rh  Rh15  1  0.341457  0.674649  0.466046  1
  Rh  Rh16  1  0.999073  0.000520  0.750000  1
  Rh  Rh17  1  0.994010  0.001981  0.250000  1
