# generated using pymatgen
data_NdZn3Ga
_symmetry_space_group_name_H-M   'P 1'
_cell_length_a   6.05988818
_cell_length_b   6.05988869
_cell_length_c   5.96704300
_cell_angle_alpha   90.00000000
_cell_angle_beta   90.00000000
_cell_angle_gamma   118.65690438
_symmetry_Int_Tables_number   1
_chemical_formula_structural   NdZn3Ga
_chemical_formula_sum   'Nd2 Zn6 Ga2'
_cell_volume   192.28219665
_cell_formula_units_Z   2
loop_
 _symmetry_equiv_pos_site_id
 _symmetry_equiv_pos_as_xyz
  1  'x, y, z'
loop_
 _atom_site_type_symbol
 _atom_site_label
 _atom_site_symmetry_multiplicity
 _atom_site_fract_x
 _atom_site_fract_y
 _atom_site_fract_z
 _atom_site_occupancy
  Nd  Nd0  1  0.263007  0.736993  0.750000  1
  Nd  Nd1  1  0.736993  0.263007  0.250000  1
  Zn  Zn2  1  0.609550  0.390450  0.750000  1
  Zn  Zn3  1  0.390450  0.609550  0.250000  1
  Zn  Zn4  1  0.777800  0.777800  0.000000  1
  Zn  Zn5  1  0.777800  0.777800  0.500000  1
  Zn  Zn6  1  0.222200  0.222200  0.000000  1
  Zn  Zn7  1  0.222200  0.222200  0.500000  1
  Ga  Ga8  1  0.846263  0.153737  0.750000  1
  Ga  Ga9  1  0.153737  0.846263  0.250000  1
