# generated using pymatgen
data_Mn2SCl12
_symmetry_space_group_name_H-M   'P 1'
_cell_length_a   11.11285400
_cell_length_b   8.60228179
_cell_length_c   9.11632447
_cell_angle_alpha   87.51411395
_cell_angle_beta   90.00000000
_cell_angle_gamma   90.00000000
_symmetry_Int_Tables_number   1
_chemical_formula_structural   Mn2SCl12
_chemical_formula_sum   'Mn4 S2 Cl24'
_cell_volume   870.66313557
_cell_formula_units_Z   2
loop_
 _symmetry_equiv_pos_site_id
 _symmetry_equiv_pos_as_xyz
  1  'x, y, z'
loop_
 _atom_site_type_symbol
 _atom_site_label
 _atom_site_symmetry_multiplicity
 _atom_site_fract_x
 _atom_site_fract_y
 _atom_site_fract_z
 _atom_site_occupancy
  Mn  Mn0  1  0.250000  0.126971  0.639926  1
  Mn  Mn1  1  0.750000  0.625515  0.621704  1
  Mn  Mn2  1  0.750000  0.873029  0.360074  1
  Mn  Mn3  1  0.250000  0.374485  0.378296  1
  S  S4  1  0.250000  0.831183  0.934472  1
  S  S5  1  0.750000  0.168817  0.065528  1
  Cl  Cl6  1  0.895383  0.615127  0.782516  1
  Cl  Cl7  1  0.608583  0.168448  0.924901  1
  Cl  Cl8  1  0.250000  0.620973  0.419929  1
  Cl  Cl9  1  0.104617  0.384873  0.217484  1
  Cl  Cl10  1  0.104627  0.951977  0.677309  1
  Cl  Cl11  1  0.750000  0.379027  0.580071  1
  Cl  Cl12  1  0.389691  0.322209  0.576548  1
  Cl  Cl13  1  0.108583  0.831552  0.075099  1
  Cl  Cl14  1  0.391417  0.831552  0.075099  1
  Cl  Cl15  1  0.250000  0.609769  0.871725  1
  Cl  Cl16  1  0.250000  0.190944  0.874675  1
  Cl  Cl17  1  0.889691  0.677791  0.423452  1
  Cl  Cl18  1  0.395383  0.384873  0.217484  1
  Cl  Cl19  1  0.750000  0.390231  0.128275  1
  Cl  Cl20  1  0.395373  0.951977  0.677309  1
  Cl  Cl21  1  0.110309  0.322209  0.576548  1
  Cl  Cl22  1  0.750000  0.809056  0.125325  1
  Cl  Cl23  1  0.250000  0.093988  0.386139  1
  Cl  Cl24  1  0.604627  0.048023  0.322691  1
  Cl  Cl25  1  0.891417  0.168448  0.924901  1
  Cl  Cl26  1  0.750000  0.906012  0.613861  1
  Cl  Cl27  1  0.610309  0.677791  0.423452  1
  Cl  Cl28  1  0.604617  0.615127  0.782516  1
  Cl  Cl29  1  0.895373  0.048023  0.322691  1
