# generated using pymatgen
data_EuTmCuSe3
_symmetry_space_group_name_H-M   'P 1'
_cell_length_a   6.98158417
_cell_length_b   6.98158392
_cell_length_c   10.49332100
_cell_angle_alpha   90.00000000
_cell_angle_beta   90.00000000
_cell_angle_gamma   146.40235629
_symmetry_Int_Tables_number   1
_chemical_formula_structural   EuTmCuSe3
_chemical_formula_sum   'Eu2 Tm2 Cu2 Se6'
_cell_volume   283.02613402
_cell_formula_units_Z   2
loop_
 _symmetry_equiv_pos_site_id
 _symmetry_equiv_pos_as_xyz
  1  'x, y, z'
loop_
 _atom_site_type_symbol
 _atom_site_label
 _atom_site_symmetry_multiplicity
 _atom_site_fract_x
 _atom_site_fract_y
 _atom_site_fract_z
 _atom_site_occupancy
  Eu  Eu0  1  0.253224  0.746776  0.250000  1
  Eu  Eu1  1  0.746776  0.253224  0.750000  1
  Tm  Tm2  1  0.500000  0.500000  0.000000  1
  Tm  Tm3  1  0.500000  0.500000  0.500000  1
  Cu  Cu4  1  0.971744  0.028256  0.250000  1
  Cu  Cu5  1  0.028256  0.971744  0.750000  1
  Se  Se6  1  0.859082  0.140917  0.065136  1
  Se  Se7  1  0.580770  0.419229  0.250000  1
  Se  Se8  1  0.859082  0.140917  0.434863  1
  Se  Se9  1  0.140917  0.859082  0.565136  1
  Se  Se10  1  0.419229  0.580770  0.750000  1
  Se  Se11  1  0.140917  0.859082  0.934863  1
