# generated using pymatgen
data_Ho4LuIr2Os
_symmetry_space_group_name_H-M   'P 1'
_cell_length_a   10.79067700
_cell_length_b   10.79067700
_cell_length_c   6.37416400
_cell_angle_alpha   90.00000000
_cell_angle_beta   90.00000000
_cell_angle_gamma   90.00000000
_symmetry_Int_Tables_number   1
_chemical_formula_structural   Ho4LuIr2Os
_chemical_formula_sum   'Ho16 Lu4 Ir8 Os4'
_cell_volume   742.19943424
_cell_formula_units_Z   4
loop_
 _symmetry_equiv_pos_site_id
 _symmetry_equiv_pos_as_xyz
  1  'x, y, z'
loop_
 _atom_site_type_symbol
 _atom_site_label
 _atom_site_symmetry_multiplicity
 _atom_site_fract_x
 _atom_site_fract_y
 _atom_site_fract_z
 _atom_site_occupancy
  Ho  Ho0  1  0.292773  0.086267  0.376696  1
  Ho  Ho1  1  0.292773  0.913733  0.876696  1
  Ho  Ho2  1  0.707227  0.086267  0.876696  1
  Ho  Ho3  1  0.707227  0.913733  0.376696  1
  Ho  Ho4  1  0.586267  0.792773  0.876696  1
  Ho  Ho5  1  0.586267  0.207227  0.376696  1
  Ho  Ho6  1  0.413733  0.792773  0.376696  1
  Ho  Ho7  1  0.413733  0.207227  0.876696  1
  Ho  Ho8  1  0.207227  0.413733  0.623304  1
  Ho  Ho9  1  0.207227  0.586267  0.123304  1
  Ho  Ho10  1  0.792773  0.413733  0.123304  1
  Ho  Ho11  1  0.792773  0.586267  0.623304  1
  Ho  Ho12  1  0.913733  0.707227  0.123304  1
  Ho  Ho13  1  0.913733  0.292773  0.623304  1
  Ho  Ho14  1  0.086267  0.707227  0.623304  1
  Ho  Ho15  1  0.086267  0.292773  0.123304  1
  Lu  Lu16  1  0.000000  0.000000  0.500000  1
  Lu  Lu17  1  0.000000  0.000000  0.000000  1
  Lu  Lu18  1  0.500000  0.500000  0.000000  1
  Lu  Lu19  1  0.500000  0.500000  0.500000  1
  Ir  Ir20  1  0.849440  0.150560  0.250000  1
  Ir  Ir21  1  0.849440  0.849440  0.750000  1
  Ir  Ir22  1  0.150560  0.150560  0.750000  1
  Ir  Ir23  1  0.150560  0.849440  0.250000  1
  Ir  Ir24  1  0.650560  0.349440  0.750000  1
  Ir  Ir25  1  0.650560  0.650560  0.250000  1
  Ir  Ir26  1  0.349440  0.349440  0.250000  1
  Ir  Ir27  1  0.349440  0.650560  0.750000  1
  Os  Os28  1  0.500000  0.000000  0.123380  1
  Os  Os29  1  0.500000  0.000000  0.623380  1
  Os  Os30  1  0.000000  0.500000  0.876620  1
  Os  Os31  1  0.000000  0.500000  0.376620  1
