# generated using pymatgen
data_Rb8GeBi4Pb3
_symmetry_space_group_name_H-M   'P 1'
_cell_length_a   6.74616580
_cell_length_b   7.18519300
_cell_length_c   14.31044732
_cell_angle_alpha   90.00000000
_cell_angle_beta   90.44108451
_cell_angle_gamma   90.00000000
_symmetry_Int_Tables_number   1
_chemical_formula_structural   Rb8GeBi4Pb3
_chemical_formula_sum   'Rb8 Ge1 Bi4 Pb3'
_cell_volume   693.64264931
_cell_formula_units_Z   1
loop_
 _symmetry_equiv_pos_site_id
 _symmetry_equiv_pos_as_xyz
  1  'x, y, z'
loop_
 _atom_site_type_symbol
 _atom_site_label
 _atom_site_symmetry_multiplicity
 _atom_site_fract_x
 _atom_site_fract_y
 _atom_site_fract_z
 _atom_site_occupancy
  Rb  Rb0  1  0.747112  0.389529  0.665278  1
  Rb  Rb1  1  0.251287  0.604243  0.337831  1
  Rb  Rb2  1  0.748713  0.604243  0.162169  1
  Rb  Rb3  1  0.254025  0.166880  0.513138  1
  Rb  Rb4  1  0.249119  0.837200  0.005282  1
  Rb  Rb5  1  0.750881  0.837200  0.494718  1
  Rb  Rb6  1  0.745975  0.166880  0.986862  1
  Rb  Rb7  1  0.252888  0.389529  0.834722  1
  Ge  Ge8  1  0.500000  0.886537  0.750000  1
  Bi  Bi9  1  0.247307  0.336789  0.107823  1
  Bi  Bi10  1  0.267115  0.671714  0.614848  1
  Bi  Bi11  1  0.732885  0.671714  0.885152  1
  Bi  Bi12  1  0.752693  0.336789  0.392177  1
  Pb  Pb13  1  0.500000  0.098031  0.250000  1
  Pb  Pb14  1  0.000000  0.099031  0.250000  1
  Pb  Pb15  1  0.000000  0.903690  0.750000  1
