# generated using pymatgen
data_Hf3TaSn2(B2Ru5)2
_symmetry_space_group_name_H-M   'P 1'
_cell_length_a   9.48718798
_cell_length_b   9.48718866
_cell_length_c   3.10410000
_cell_angle_alpha   90.00000000
_cell_angle_beta   90.00000000
_cell_angle_gamma   90.27597118
_symmetry_Int_Tables_number   1
_chemical_formula_structural   Hf3TaSn2(B2Ru5)2
_chemical_formula_sum   'Hf3 Ta1 Sn2 B4 Ru10'
_cell_volume   279.38668779
_cell_formula_units_Z   1
loop_
 _symmetry_equiv_pos_site_id
 _symmetry_equiv_pos_as_xyz
  1  'x, y, z'
loop_
 _atom_site_type_symbol
 _atom_site_label
 _atom_site_symmetry_multiplicity
 _atom_site_fract_x
 _atom_site_fract_y
 _atom_site_fract_z
 _atom_site_occupancy
  Hf  Hf0  1  0.824585  0.675968  0.000000  1
  Hf  Hf1  1  0.175968  0.324585  0.000000  1
  Hf  Hf2  1  0.324716  0.824716  0.000000  1
  Ta  Ta3  1  0.675316  0.175316  0.000000  1
  Sn  Sn4  1  0.499173  0.503021  0.000000  1
  Sn  Sn5  1  0.003021  0.999173  0.000000  1
  B  B6  1  0.623504  0.879881  0.000000  1
  B  B7  1  0.379881  0.123504  0.000000  1
  B  B8  1  0.120622  0.620622  0.000000  1
  B  B9  1  0.876663  0.376663  0.000000  1
  Ru  Ru10  1  0.571550  0.723209  0.500000  1
  Ru  Ru11  1  0.437223  0.278233  0.500000  1
  Ru  Ru12  1  0.069595  0.777171  0.500000  1
  Ru  Ru13  1  0.920993  0.217407  0.500000  1
  Ru  Ru14  1  0.277171  0.569595  0.500000  1
  Ru  Ru15  1  0.717407  0.420993  0.500000  1
  Ru  Ru16  1  0.223209  0.071550  0.500000  1
  Ru  Ru17  1  0.778233  0.937223  0.500000  1
  Ru  Ru18  1  0.503600  0.003600  0.500000  1
  Ru  Ru19  1  0.997571  0.497571  0.500000  1
