# generated using pymatgen
data_Nd8SiAsBr12
_symmetry_space_group_name_H-M   'P 1'
_cell_length_a   4.23181400
_cell_length_b   13.66522257
_cell_length_c   14.51341530
_cell_angle_alpha   90.04825084
_cell_angle_beta   90.00000000
_cell_angle_gamma   90.00000000
_symmetry_Int_Tables_number   1
_chemical_formula_structural   Nd8SiAsBr12
_chemical_formula_sum   'Nd8 Si1 As1 Br12'
_cell_volume   839.29135417
_cell_formula_units_Z   1
loop_
 _symmetry_equiv_pos_site_id
 _symmetry_equiv_pos_as_xyz
  1  'x, y, z'
loop_
 _atom_site_type_symbol
 _atom_site_label
 _atom_site_symmetry_multiplicity
 _atom_site_fract_x
 _atom_site_fract_y
 _atom_site_fract_z
 _atom_site_occupancy
  Nd  Nd0  1  0.500000  0.119076  0.340235  1
  Nd  Nd1  1  0.500000  0.880924  0.659765  1
  Nd  Nd2  1  0.500000  0.619136  0.159588  1
  Nd  Nd3  1  0.500000  0.380864  0.840412  1
  Nd  Nd4  1  0.000000  0.117617  0.578181  1
  Nd  Nd5  1  0.000000  0.882383  0.421819  1
  Nd  Nd6  1  0.000000  0.619917  0.920559  1
  Nd  Nd7  1  0.000000  0.380083  0.079441  1
  Si  Si8  1  0.500000  0.500000  0.000000  1
  As  As9  1  0.500000  0.000000  0.500000  1
  Br  Br10  1  0.500000  0.243214  0.162850  1
  Br  Br11  1  0.500000  0.756786  0.837150  1
  Br  Br12  1  0.500000  0.744580  0.338647  1
  Br  Br13  1  0.500000  0.255420  0.661353  1
  Br  Br14  1  0.000000  0.254635  0.411388  1
  Br  Br15  1  0.000000  0.745365  0.588612  1
  Br  Br16  1  0.000000  0.754378  0.088692  1
  Br  Br17  1  0.000000  0.245622  0.911308  1
  Br  Br18  1  0.000000  0.001724  0.244087  1
  Br  Br19  1  0.000000  0.998276  0.755913  1
  Br  Br20  1  0.000000  0.501981  0.255666  1
  Br  Br21  1  0.000000  0.498019  0.744334  1
