# generated using pymatgen
data_Nd4Dy4Re3B24Os
_symmetry_space_group_name_H-M   'P 1'
_cell_length_a   3.72899200
_cell_length_b   9.26194096
_cell_length_c   11.71112212
_cell_angle_alpha   90.06206005
_cell_angle_beta   90.00000000
_cell_angle_gamma   90.00000000
_symmetry_Int_Tables_number   1
_chemical_formula_structural   Nd4Dy4Re3B24Os
_chemical_formula_sum   'Nd4 Dy4 Re3 B24 Os1'
_cell_volume   404.47502909
_cell_formula_units_Z   1
loop_
 _symmetry_equiv_pos_site_id
 _symmetry_equiv_pos_as_xyz
  1  'x, y, z'
loop_
 _atom_site_type_symbol
 _atom_site_label
 _atom_site_symmetry_multiplicity
 _atom_site_fract_x
 _atom_site_fract_y
 _atom_site_fract_z
 _atom_site_occupancy
  Nd  Nd0  1  0.000000  0.322064  0.414379  1
  Nd  Nd1  1  0.000000  0.677285  0.587346  1
  Nd  Nd2  1  0.000000  0.824161  0.084788  1
  Nd  Nd3  1  0.000000  0.177092  0.913514  1
  Dy  Dy4  1  0.000000  0.942610  0.369176  1
  Dy  Dy5  1  0.000000  0.056629  0.630182  1
  Dy  Dy6  1  0.000000  0.442511  0.130633  1
  Dy  Dy7  1  0.000000  0.557020  0.869989  1
  Re  Re8  1  0.000000  0.361657  0.679269  1
  Re  Re9  1  0.000000  0.138990  0.180669  1
  Re  Re10  1  0.000000  0.860997  0.819906  1
  B  B11  1  0.500000  0.555321  0.430585  1
  B  B12  1  0.500000  0.445322  0.569189  1
  B  B13  1  0.500000  0.054770  0.069015  1
  B  B14  1  0.500000  0.945361  0.930692  1
  B  B15  1  0.500000  0.748823  0.416094  1
  B  B16  1  0.500000  0.250319  0.583461  1
  B  B17  1  0.500000  0.249524  0.083672  1
  B  B18  1  0.500000  0.750922  0.916495  1
  B  B19  1  0.500000  0.789935  0.266621  1
  B  B20  1  0.500000  0.209174  0.733181  1
  B  B21  1  0.500000  0.290643  0.233700  1
  B  B22  1  0.500000  0.708962  0.766819  1
  B  B23  1  0.500000  0.630315  0.187168  1
  B  B24  1  0.500000  0.370107  0.812839  1
  B  B25  1  0.500000  0.130192  0.313640  1
  B  B26  1  0.500000  0.869688  0.686787  1
  B  B27  1  0.500000  0.984654  0.212909  1
  B  B28  1  0.500000  0.015594  0.786593  1
  B  B29  1  0.500000  0.485304  0.287271  1
  B  B30  1  0.500000  0.516077  0.713103  1
  B  B31  1  0.500000  0.598141  0.027717  1
  B  B32  1  0.500000  0.401981  0.973216  1
  B  B33  1  0.500000  0.097529  0.472487  1
  B  B34  1  0.500000  0.901294  0.527036  1
  Os  Os35  1  0.000000  0.639032  0.319856  1
