# generated using pymatgen
data_Y3Tm(SiAu2)8
_symmetry_space_group_name_H-M   'P 1'
_cell_length_a   4.41186400
_cell_length_b   4.41134800
_cell_length_c   26.96748000
_cell_angle_alpha   90.00000000
_cell_angle_beta   90.00000000
_cell_angle_gamma   90.00000000
_symmetry_Int_Tables_number   1
_chemical_formula_structural   Y3Tm(SiAu2)8
_chemical_formula_sum   'Y3 Tm1 Si8 Au16'
_cell_volume   524.84830775
_cell_formula_units_Z   1
loop_
 _symmetry_equiv_pos_site_id
 _symmetry_equiv_pos_as_xyz
  1  'x, y, z'
loop_
 _atom_site_type_symbol
 _atom_site_label
 _atom_site_symmetry_multiplicity
 _atom_site_fract_x
 _atom_site_fract_y
 _atom_site_fract_z
 _atom_site_occupancy
  Y  Y0  1  0.500000  0.000000  0.250432  1
  Y  Y1  1  0.500000  0.500000  0.999947  1
  Y  Y2  1  0.500000  0.500000  0.500058  1
  Tm  Tm3  1  0.000000  0.500000  0.749587  1
  Si  Si4  1  0.000000  0.000000  0.956552  1
  Si  Si5  1  0.000000  0.000000  0.456993  1
  Si  Si6  1  0.500000  0.000000  0.792679  1
  Si  Si7  1  0.500000  0.000000  0.706646  1
  Si  Si8  1  0.000000  0.500000  0.207000  1
  Si  Si9  1  0.000000  0.500000  0.293669  1
  Si  Si10  1  0.000000  0.000000  0.043121  1
  Si  Si11  1  0.000000  0.000000  0.543331  1
  Au  Au12  1  0.500000  0.000000  0.085988  1
  Au  Au13  1  0.500000  0.500000  0.664327  1
  Au  Au14  1  0.500000  0.500000  0.835136  1
  Au  Au15  1  0.000000  0.500000  0.085261  1
  Au  Au16  1  0.500000  0.000000  0.914250  1
  Au  Au17  1  0.000000  0.000000  0.665761  1
  Au  Au18  1  0.000000  0.500000  0.415005  1
  Au  Au19  1  0.500000  0.500000  0.336700  1
  Au  Au20  1  0.500000  0.000000  0.414124  1
  Au  Au21  1  0.000000  0.000000  0.335392  1
  Au  Au22  1  0.000000  0.000000  0.164979  1
  Au  Au23  1  0.500000  0.000000  0.585428  1
  Au  Au24  1  0.000000  0.000000  0.833950  1
  Au  Au25  1  0.500000  0.500000  0.163816  1
  Au  Au26  1  0.000000  0.500000  0.586071  1
  Au  Au27  1  0.000000  0.500000  0.913798  1
