# generated using pymatgen
data_Tm6Fe13P12Pt5
_symmetry_space_group_name_H-M   'P 1'
_cell_length_a   3.74642200
_cell_length_b   10.89261140
_cell_length_c   12.34096505
_cell_angle_alpha   89.87451548
_cell_angle_beta   90.00000000
_cell_angle_gamma   90.00000000
_symmetry_Int_Tables_number   1
_chemical_formula_structural   Tm6Fe13P12Pt5
_chemical_formula_sum   'Tm6 Fe13 P12 Pt5'
_cell_volume   503.61283051
_cell_formula_units_Z   1
loop_
 _symmetry_equiv_pos_site_id
 _symmetry_equiv_pos_as_xyz
  1  'x, y, z'
loop_
 _atom_site_type_symbol
 _atom_site_label
 _atom_site_symmetry_multiplicity
 _atom_site_fract_x
 _atom_site_fract_y
 _atom_site_fract_z
 _atom_site_occupancy
  Tm  Tm0  1  0.000000  0.500563  0.520515  1
  Tm  Tm1  1  0.500000  0.000650  0.485492  1
  Tm  Tm2  1  0.500000  0.820819  0.196439  1
  Tm  Tm3  1  0.500000  0.177805  0.195992  1
  Tm  Tm4  1  0.000000  0.685756  0.799646  1
  Tm  Tm5  1  0.000000  0.319651  0.801606  1
  Fe  Fe6  1  0.500000  0.501764  0.154938  1
  Fe  Fe7  1  0.000000  0.994237  0.844536  1
  Fe  Fe8  1  0.000000  0.501066  0.989332  1
  Fe  Fe9  1  0.500000  0.998855  0.007111  1
  Fe  Fe10  1  0.500000  0.335217  0.995672  1
  Fe  Fe11  1  0.500000  0.668698  0.994084  1
  Fe  Fe12  1  0.000000  0.164779  0.002028  1
  Fe  Fe13  1  0.000000  0.834661  0.999796  1
  Fe  Fe14  1  0.500000  0.293457  0.429220  1
  Fe  Fe15  1  0.500000  0.707139  0.432307  1
  Fe  Fe16  1  0.000000  0.205941  0.572856  1
  Fe  Fe17  1  0.000000  0.796277  0.573410  1
  Fe  Fe18  1  0.500000  0.876019  0.713571  1
  P  P19  1  0.500000  0.502090  0.894935  1
  P  P20  1  0.000000  0.998278  0.103081  1
  P  P21  1  0.500000  0.499656  0.355660  1
  P  P22  1  0.000000  0.979395  0.658390  1
  P  P23  1  0.500000  0.308710  0.608359  1
  P  P24  1  0.500000  0.700633  0.615551  1
  P  P25  1  0.000000  0.187856  0.395549  1
  P  P26  1  0.000000  0.810782  0.395853  1
  P  P27  1  0.500000  0.844756  0.894705  1
  P  P28  1  0.500000  0.159820  0.906144  1
  P  P29  1  0.000000  0.661943  0.090891  1
  P  P30  1  0.000000  0.339540  0.091405  1
  Pt  Pt31  1  0.500000  0.501245  0.702178  1
  Pt  Pt32  1  0.000000  0.999185  0.297573  1
  Pt  Pt33  1  0.500000  0.123042  0.717568  1
  Pt  Pt34  1  0.000000  0.630757  0.282364  1
  Pt  Pt35  1  0.000000  0.368956  0.281241  1
