# generated using pymatgen
data_HfPaCrB6
_symmetry_space_group_name_H-M   'P 1'
_cell_length_a   3.55200900
_cell_length_b   8.95426900
_cell_length_c   11.31992000
_cell_angle_alpha   90.00000000
_cell_angle_beta   90.00000000
_cell_angle_gamma   90.00000000
_symmetry_Int_Tables_number   1
_chemical_formula_structural   HfPaCrB6
_chemical_formula_sum   'Hf4 Pa4 Cr4 B24'
_cell_volume   360.03734649
_cell_formula_units_Z   4
loop_
 _symmetry_equiv_pos_site_id
 _symmetry_equiv_pos_as_xyz
  1  'x, y, z'
loop_
 _atom_site_type_symbol
 _atom_site_label
 _atom_site_symmetry_multiplicity
 _atom_site_fract_x
 _atom_site_fract_y
 _atom_site_fract_z
 _atom_site_occupancy
  Hf  Hf0  1  0.000000  0.444066  0.128413  1
  Hf  Hf1  1  0.000000  0.555934  0.871587  1
  Hf  Hf2  1  0.000000  0.944066  0.371587  1
  Hf  Hf3  1  0.000000  0.055934  0.628413  1
  Pa  Pa4  1  0.000000  0.822800  0.085810  1
  Pa  Pa5  1  0.000000  0.177200  0.914190  1
  Pa  Pa6  1  0.000000  0.322800  0.414190  1
  Pa  Pa7  1  0.000000  0.677200  0.585810  1
  Cr  Cr8  1  0.000000  0.141036  0.181600  1
  Cr  Cr9  1  0.000000  0.858964  0.818400  1
  Cr  Cr10  1  0.000000  0.641036  0.318400  1
  Cr  Cr11  1  0.000000  0.358964  0.681600  1
  B  B12  1  0.500000  0.055199  0.068246  1
  B  B13  1  0.500000  0.944801  0.931754  1
  B  B14  1  0.500000  0.555199  0.431754  1
  B  B15  1  0.500000  0.444801  0.568246  1
  B  B16  1  0.500000  0.251784  0.082661  1
  B  B17  1  0.500000  0.748216  0.917339  1
  B  B18  1  0.500000  0.751784  0.417339  1
  B  B19  1  0.500000  0.248216  0.582661  1
  B  B20  1  0.500000  0.293998  0.235338  1
  B  B21  1  0.500000  0.706002  0.764662  1
  B  B22  1  0.500000  0.793998  0.264662  1
  B  B23  1  0.500000  0.206002  0.735338  1
  B  B24  1  0.500000  0.130297  0.316060  1
  B  B25  1  0.500000  0.869703  0.683940  1
  B  B26  1  0.500000  0.630297  0.183940  1
  B  B27  1  0.500000  0.369703  0.816060  1
  B  B28  1  0.500000  0.483172  0.286271  1
  B  B29  1  0.500000  0.516828  0.713729  1
  B  B30  1  0.500000  0.983172  0.213729  1
  B  B31  1  0.500000  0.016828  0.786271  1
  B  B32  1  0.500000  0.100529  0.472911  1
  B  B33  1  0.500000  0.899471  0.527089  1
  B  B34  1  0.500000  0.600529  0.027089  1
  B  B35  1  0.500000  0.399471  0.972911  1
