# generated using pymatgen
data_Er(Cu2P)2
_symmetry_space_group_name_H-M   'P 1'
_cell_length_a   7.21165000
_cell_length_b   7.21165000
_cell_length_c   3.78934700
_cell_angle_alpha   90.00000000
_cell_angle_beta   90.00000000
_cell_angle_gamma   90.00000000
_symmetry_Int_Tables_number   1
_chemical_formula_structural   Er(Cu2P)2
_chemical_formula_sum   'Er2 Cu8 P4'
_cell_volume   197.07596363
_cell_formula_units_Z   2
loop_
 _symmetry_equiv_pos_site_id
 _symmetry_equiv_pos_as_xyz
  1  'x, y, z'
loop_
 _atom_site_type_symbol
 _atom_site_label
 _atom_site_symmetry_multiplicity
 _atom_site_fract_x
 _atom_site_fract_y
 _atom_site_fract_z
 _atom_site_occupancy
  Er  Er0  1  0.500000  0.500000  0.000000  1
  Er  Er1  1  0.000000  0.000000  0.500000  1
  Cu  Cu2  1  0.584207  0.164996  0.500000  1
  Cu  Cu3  1  0.415793  0.835004  0.500000  1
  Cu  Cu4  1  0.084207  0.335004  0.000000  1
  Cu  Cu5  1  0.915793  0.664996  0.000000  1
  Cu  Cu6  1  0.164996  0.584207  0.500000  1
  Cu  Cu7  1  0.835004  0.415793  0.500000  1
  Cu  Cu8  1  0.335004  0.084207  0.000000  1
  Cu  Cu9  1  0.664996  0.915793  0.000000  1
  P  P10  1  0.713132  0.713132  0.500000  1
  P  P11  1  0.286868  0.286868  0.500000  1
  P  P12  1  0.213132  0.786868  0.000000  1
  P  P13  1  0.786868  0.213132  0.000000  1
