# generated using pymatgen
data_Ca3DySc6(Si5Ir2)4
_symmetry_space_group_name_H-M   'P 1'
_cell_length_a   12.53741454
_cell_length_b   12.53741421
_cell_length_c   4.16366000
_cell_angle_alpha   90.00000000
_cell_angle_beta   90.00000000
_cell_angle_gamma   89.94095121
_symmetry_Int_Tables_number   1
_chemical_formula_structural   Ca3DySc6(Si5Ir2)4
_chemical_formula_sum   'Ca3 Dy1 Sc6 Si20 Ir8'
_cell_volume   654.47187402
_cell_formula_units_Z   1
loop_
 _symmetry_equiv_pos_site_id
 _symmetry_equiv_pos_as_xyz
  1  'x, y, z'
loop_
 _atom_site_type_symbol
 _atom_site_label
 _atom_site_symmetry_multiplicity
 _atom_site_fract_x
 _atom_site_fract_y
 _atom_site_fract_z
 _atom_site_occupancy
  Ca  Ca0  1  0.884907  0.384907  0.500000  1
  Ca  Ca1  1  0.615791  0.884064  0.500000  1
  Ca  Ca2  1  0.384064  0.115791  0.500000  1
  Dy  Dy3  1  0.116258  0.616258  0.500000  1
  Sc  Sc4  1  0.672667  0.172667  0.500000  1
  Sc  Sc5  1  0.326609  0.826609  0.500000  1
  Sc  Sc6  1  0.172499  0.326321  0.500000  1
  Sc  Sc7  1  0.826321  0.672499  0.500000  1
  Sc  Sc8  1  0.000061  0.999942  0.000000  1
  Sc  Sc9  1  0.499942  0.500061  0.000000  1
  Si  Si10  1  0.568477  0.068477  0.000000  1
  Si  Si11  1  0.431349  0.931349  0.000000  1
  Si  Si12  1  0.068267  0.432241  0.000000  1
  Si  Si13  1  0.932241  0.568267  0.000000  1
  Si  Si14  1  0.200441  0.165476  0.000000  1
  Si  Si15  1  0.800368  0.834399  0.000000  1
  Si  Si16  1  0.165505  0.799539  0.000000  1
  Si  Si17  1  0.700619  0.334846  0.000000  1
  Si  Si18  1  0.834846  0.200619  0.000000  1
  Si  Si19  1  0.299539  0.665505  0.000000  1
  Si  Si20  1  0.665476  0.700441  0.000000  1
  Si  Si21  1  0.334399  0.300368  0.000000  1
  Si  Si22  1  0.008931  0.150180  0.500000  1
  Si  Si23  1  0.990661  0.849525  0.500000  1
  Si  Si24  1  0.149008  0.992442  0.500000  1
  Si  Si25  1  0.507842  0.350525  0.500000  1
  Si  Si26  1  0.850525  0.007842  0.500000  1
  Si  Si27  1  0.492442  0.649008  0.500000  1
  Si  Si28  1  0.650180  0.508931  0.500000  1
  Si  Si29  1  0.349525  0.490661  0.500000  1
  Ir  Ir30  1  0.021511  0.242980  0.000000  1
  Ir  Ir31  1  0.979947  0.756102  0.000000  1
  Ir  Ir32  1  0.242136  0.977847  0.000000  1
  Ir  Ir33  1  0.522006  0.257711  0.000000  1
  Ir  Ir34  1  0.757711  0.022006  0.000000  1
  Ir  Ir35  1  0.477847  0.742136  0.000000  1
  Ir  Ir36  1  0.742980  0.521511  0.000000  1
  Ir  Ir37  1  0.256102  0.479947  0.000000  1
