# generated using pymatgen
data_ReTcOs5Ru
_symmetry_space_group_name_H-M   'P 1'
_cell_length_a   5.52231607
_cell_length_b   5.52231703
_cell_length_c   4.35523100
_cell_angle_alpha   90.00000000
_cell_angle_beta   90.00000000
_cell_angle_gamma   120.01800711
_symmetry_Int_Tables_number   1
_chemical_formula_structural   ReTcOs5Ru
_chemical_formula_sum   'Re1 Tc1 Os5 Ru1'
_cell_volume   115.00205205
_cell_formula_units_Z   1
loop_
 _symmetry_equiv_pos_site_id
 _symmetry_equiv_pos_as_xyz
  1  'x, y, z'
loop_
 _atom_site_type_symbol
 _atom_site_label
 _atom_site_symmetry_multiplicity
 _atom_site_fract_x
 _atom_site_fract_y
 _atom_site_fract_z
 _atom_site_occupancy
  Re  Re0  1  0.335589  0.664411  0.750000  1
  Tc  Tc1  1  0.667569  0.332431  0.250000  1
  Os  Os2  1  0.164118  0.330589  0.250000  1
  Os  Os3  1  0.669411  0.835882  0.250000  1
  Os  Os4  1  0.165648  0.834352  0.250000  1
  Os  Os5  1  0.827897  0.662555  0.750000  1
  Os  Os6  1  0.337445  0.172103  0.750000  1
  Ru  Ru7  1  0.832322  0.167678  0.750000  1
