# generated using pymatgen
data_Y13Ho3Cd4Ir3Pd
_symmetry_space_group_name_H-M   'P 1'
_cell_length_a   9.65246696
_cell_length_b   9.66044552
_cell_length_c   9.66044428
_cell_angle_alpha   60.27752779
_cell_angle_beta   60.24321994
_cell_angle_gamma   60.24321800
_symmetry_Int_Tables_number   1
_chemical_formula_structural   Y13Ho3Cd4Ir3Pd
_chemical_formula_sum   'Y13 Ho3 Cd4 Ir3 Pd1'
_cell_volume   640.63949245
_cell_formula_units_Z   1
loop_
 _symmetry_equiv_pos_site_id
 _symmetry_equiv_pos_as_xyz
  1  'x, y, z'
loop_
 _atom_site_type_symbol
 _atom_site_label
 _atom_site_symmetry_multiplicity
 _atom_site_fract_x
 _atom_site_fract_y
 _atom_site_fract_z
 _atom_site_occupancy
  Y  Y0  1  0.947445  0.353042  0.353042  1
  Y  Y1  1  0.805138  0.190398  0.190398  1
  Y  Y2  1  0.190068  0.810121  0.810121  1
  Y  Y3  1  0.190597  0.805186  0.190540  1
  Y  Y4  1  0.810249  0.189768  0.810432  1
  Y  Y5  1  0.190597  0.190540  0.805186  1
  Y  Y6  1  0.810249  0.810432  0.189768  1
  Y  Y7  1  0.937802  0.562925  0.562925  1
  Y  Y8  1  0.564820  0.937189  0.937189  1
  Y  Y9  1  0.562409  0.937973  0.562727  1
  Y  Y10  1  0.937056  0.565264  0.936672  1
  Y  Y11  1  0.562409  0.562727  0.937973  1
  Y  Y12  1  0.937056  0.936672  0.565264  1
  Ho  Ho13  1  0.347617  0.347709  0.347709  1
  Ho  Ho14  1  0.352418  0.352547  0.949512  1
  Ho  Ho15  1  0.352418  0.949512  0.352547  1
  Cd  Cd16  1  0.580879  0.581250  0.581250  1
  Cd  Cd17  1  0.580471  0.580713  0.257218  1
  Cd  Cd18  1  0.580471  0.257218  0.580713  1
  Cd  Cd19  1  0.257308  0.580609  0.580609  1
  Ir  Ir20  1  0.143372  0.141168  0.571883  1
  Ir  Ir21  1  0.143372  0.571883  0.141168  1
  Ir  Ir22  1  0.570824  0.142236  0.142236  1
  Pd  Pd23  1  0.144956  0.142918  0.142918  1
