# generated using pymatgen
data_Hf3Co8MoAs6
_symmetry_space_group_name_H-M   'P 1'
_cell_length_a   12.38738468
_cell_length_b   12.36983411
_cell_length_c   3.75292400
_cell_angle_alpha   90.00000000
_cell_angle_beta   90.00000000
_cell_angle_gamma   119.95315142
_symmetry_Int_Tables_number   1
_chemical_formula_structural   Hf3Co8MoAs6
_chemical_formula_sum   'Hf6 Co16 Mo2 As12'
_cell_volume   498.25163004
_cell_formula_units_Z   2
loop_
 _symmetry_equiv_pos_site_id
 _symmetry_equiv_pos_as_xyz
  1  'x, y, z'
loop_
 _atom_site_type_symbol
 _atom_site_label
 _atom_site_symmetry_multiplicity
 _atom_site_fract_x
 _atom_site_fract_y
 _atom_site_fract_z
 _atom_site_occupancy
  Hf  Hf0  1  0.822061  0.819414  0.500000  1
  Hf  Hf1  1  0.000000  0.173453  0.500000  1
  Hf  Hf2  1  0.334978  0.667861  0.000000  1
  Hf  Hf3  1  0.665022  0.332883  0.000000  1
  Hf  Hf4  1  0.000000  0.558028  0.000000  1
  Hf  Hf5  1  0.177939  0.997354  0.500000  1
  Co  Co6  1  0.625289  0.822755  0.000000  1
  Co  Co7  1  0.374711  0.197466  0.000000  1
  Co  Co8  1  0.000000  0.718908  0.500000  1
  Co  Co9  1  0.280559  0.280544  0.500000  1
  Co  Co10  1  0.873244  0.353131  0.500000  1
  Co  Co11  1  0.719441  0.999985  0.500000  1
  Co  Co12  1  0.818082  0.626589  0.000000  1
  Co  Co13  1  0.181918  0.808507  0.000000  1
  Co  Co14  1  0.358199  0.877443  0.500000  1
  Co  Co15  1  0.126756  0.479886  0.500000  1
  Co  Co16  1  0.641801  0.519244  0.500000  1
  Co  Co17  1  0.000000  0.999959  0.000000  1
  Co  Co18  1  0.515404  0.645754  0.500000  1
  Co  Co19  1  0.484596  0.130349  0.500000  1
  Co  Co20  1  0.196463  0.371220  0.000000  1
  Co  Co21  1  0.803537  0.174757  0.000000  1
  Mo  Mo22  1  0.445750  0.447316  0.000000  1
  Mo  Mo23  1  0.554250  0.001566  0.000000  1
  As  As24  1  0.000000  0.345652  0.000000  1
  As  As25  1  0.823795  0.513592  0.500000  1
  As  As26  1  0.685163  0.168592  0.500000  1
  As  As27  1  0.176905  0.173977  0.000000  1
  As  As28  1  0.642964  0.646589  0.000000  1
  As  As29  1  0.823095  0.997071  0.000000  1
  As  As30  1  0.515979  0.832670  0.500000  1
  As  As31  1  0.176205  0.689795  0.500000  1
  As  As32  1  0.357036  0.003626  0.000000  1
  As  As33  1  0.484021  0.316692  0.500000  1
  As  As34  1  0.000000  0.823945  0.000000  1
  As  As35  1  0.314837  0.483427  0.500000  1
