# generated using pymatgen
data_Ho4MgCo2Bi
_symmetry_space_group_name_H-M   'P 1'
_cell_length_a   8.94442086
_cell_length_b   8.94442171
_cell_length_c   8.94442267
_cell_angle_alpha   131.71922238
_cell_angle_beta   131.71922621
_cell_angle_gamma   70.67284145
_symmetry_Int_Tables_number   1
_chemical_formula_structural   Ho4MgCo2Bi
_chemical_formula_sum   'Ho8 Mg2 Co4 Bi2'
_cell_volume   390.54905587
_cell_formula_units_Z   2
loop_
 _symmetry_equiv_pos_site_id
 _symmetry_equiv_pos_as_xyz
  1  'x, y, z'
loop_
 _atom_site_type_symbol
 _atom_site_label
 _atom_site_symmetry_multiplicity
 _atom_site_fract_x
 _atom_site_fract_y
 _atom_site_fract_z
 _atom_site_occupancy
  Ho  Ho0  1  0.700762  0.556907  0.500000  1
  Ho  Ho1  1  0.443093  0.943093  0.143855  1
  Ho  Ho2  1  0.799238  0.299238  0.856145  1
  Ho  Ho3  1  0.556907  0.056907  0.856145  1
  Ho  Ho4  1  0.056907  0.200762  0.500000  1
  Ho  Ho5  1  0.299238  0.443093  0.500000  1
  Ho  Ho6  1  0.200762  0.700762  0.143855  1
  Ho  Ho7  1  0.943093  0.799238  0.500000  1
  Mg  Mg8  1  0.000000  0.000000  0.000000  1
  Mg  Mg9  1  0.500000  0.500000  0.000000  1
  Co  Co10  1  0.111865  0.611865  0.723730  1
  Co  Co11  1  0.888135  0.388135  0.276270  1
  Co  Co12  1  0.611865  0.888135  0.500000  1
  Co  Co13  1  0.388135  0.111865  0.500000  1
  Bi  Bi14  1  0.250000  0.250000  0.000000  1
  Bi  Bi15  1  0.750000  0.750000  0.000000  1
