# generated using pymatgen
data_CsRb3Sn4(Hg3Se8)2
_symmetry_space_group_name_H-M   'P 1'
_cell_length_a   7.10708660
_cell_length_b   10.82666685
_cell_length_c   14.53785429
_cell_angle_alpha   82.99412312
_cell_angle_beta   90.10700874
_cell_angle_gamma   90.08483053
_symmetry_Int_Tables_number   1
_chemical_formula_structural   CsRb3Sn4(Hg3Se8)2
_chemical_formula_sum   'Cs1 Rb3 Sn4 Hg6 Se16'
_cell_volume   1110.27568006
_cell_formula_units_Z   1
loop_
 _symmetry_equiv_pos_site_id
 _symmetry_equiv_pos_as_xyz
  1  'x, y, z'
loop_
 _atom_site_type_symbol
 _atom_site_label
 _atom_site_symmetry_multiplicity
 _atom_site_fract_x
 _atom_site_fract_y
 _atom_site_fract_z
 _atom_site_occupancy
  Cs  Cs0  1  0.153758  0.723879  0.690132  1
  Rb  Rb1  1  0.852228  0.271302  0.311895  1
  Rb  Rb2  1  0.352942  0.729531  0.186685  1
  Rb  Rb3  1  0.648009  0.268257  0.812822  1
  Sn  Sn4  1  0.689206  0.786307  0.925012  1
  Sn  Sn5  1  0.310759  0.214719  0.076526  1
  Sn  Sn6  1  0.190857  0.213539  0.575942  1
  Sn  Sn7  1  0.809780  0.786566  0.421451  1
  Hg  Hg8  1  0.291987  0.999041  0.377759  1
  Hg  Hg9  1  0.205416  0.000792  0.880962  1
  Hg  Hg10  1  0.707111  0.001415  0.619176  1
  Hg  Hg11  1  0.502342  0.499454  0.498189  1
  Hg  Hg12  1  0.792223  0.001036  0.120913  1
  Hg  Hg13  1  0.995262  0.498651  0.001818  1
  Se  Se14  1  0.327617  0.776167  0.927323  1
  Se  Se15  1  0.199127  0.421449  0.137253  1
  Se  Se16  1  0.190723  0.234238  0.908563  1
  Se  Se17  1  0.170591  0.772829  0.417961  1
  Se  Se18  1  0.790972  0.576301  0.866717  1
  Se  Se19  1  0.829675  0.227432  0.579356  1
  Se  Se20  1  0.698264  0.579446  0.360915  1
  Se  Se21  1  0.812428  0.768349  0.092223  1
  Se  Se22  1  0.332772  0.034774  0.681372  1
  Se  Se23  1  0.307575  0.419174  0.635866  1
  Se  Se24  1  0.308267  0.231334  0.407895  1
  Se  Se25  1  0.669747  0.968893  0.319082  1
  Se  Se26  1  0.672187  0.227144  0.078749  1
  Se  Se27  1  0.687057  0.769473  0.588597  1
  Se  Se28  1  0.170791  0.032543  0.179244  1
  Se  Se29  1  0.830325  0.965964  0.819602  1
