# generated using pymatgen
data_Tb5Dy3(Si3Ir)4
_symmetry_space_group_name_H-M   'P 1'
_cell_length_a   8.17889700
_cell_length_b   8.17889848
_cell_length_c   7.96590800
_cell_angle_alpha   90.00000000
_cell_angle_beta   90.00000000
_cell_angle_gamma   119.99999805
_symmetry_Int_Tables_number   1
_chemical_formula_structural   Tb5Dy3(Si3Ir)4
_chemical_formula_sum   'Tb5 Dy3 Si12 Ir4'
_cell_volume   461.48276202
_cell_formula_units_Z   1
loop_
 _symmetry_equiv_pos_site_id
 _symmetry_equiv_pos_as_xyz
  1  'x, y, z'
loop_
 _atom_site_type_symbol
 _atom_site_label
 _atom_site_symmetry_multiplicity
 _atom_site_fract_x
 _atom_site_fract_y
 _atom_site_fract_z
 _atom_site_occupancy
  Tb  Tb0  1  0.000000  0.000000  0.250000  1
  Tb  Tb1  1  0.000000  0.000000  0.750000  1
  Tb  Tb2  1  0.509342  0.490658  0.250000  1
  Tb  Tb3  1  0.509342  0.018686  0.250000  1
  Tb  Tb4  1  0.981314  0.490658  0.250000  1
  Dy  Dy5  1  0.490637  0.509363  0.750000  1
  Dy  Dy6  1  0.490637  0.981272  0.750000  1
  Dy  Dy7  1  0.018728  0.509363  0.750000  1
  Si  Si8  1  0.166869  0.833131  0.499541  1
  Si  Si9  1  0.166869  0.333740  0.499541  1
  Si  Si10  1  0.666260  0.833131  0.499541  1
  Si  Si11  1  0.833142  0.166858  0.500904  1
  Si  Si12  1  0.833142  0.666283  0.500904  1
  Si  Si13  1  0.333717  0.166858  0.500904  1
  Si  Si14  1  0.833142  0.166858  0.999096  1
  Si  Si15  1  0.833142  0.666283  0.999096  1
  Si  Si16  1  0.333717  0.166858  0.999096  1
  Si  Si17  1  0.166869  0.833131  0.000459  1
  Si  Si18  1  0.166869  0.333740  0.000459  1
  Si  Si19  1  0.666260  0.833131  0.000459  1
  Ir  Ir20  1  0.333333  0.666667  0.467754  1
  Ir  Ir21  1  0.666667  0.333333  0.533531  1
  Ir  Ir22  1  0.666667  0.333333  0.966469  1
  Ir  Ir23  1  0.333333  0.666667  0.032246  1
