# generated using pymatgen
data_TbGd9Si5Ge
_symmetry_space_group_name_H-M   'P 1'
_cell_length_a   8.47791000
_cell_length_b   8.49261725
_cell_length_c   6.34621100
_cell_angle_alpha   90.00000000
_cell_angle_beta   90.00000000
_cell_angle_gamma   119.94273007
_symmetry_Int_Tables_number   1
_chemical_formula_structural   TbGd9Si5Ge
_chemical_formula_sum   'Tb1 Gd9 Si5 Ge1'
_cell_volume   395.93676490
_cell_formula_units_Z   1
loop_
 _symmetry_equiv_pos_site_id
 _symmetry_equiv_pos_as_xyz
  1  'x, y, z'
loop_
 _atom_site_type_symbol
 _atom_site_label
 _atom_site_symmetry_multiplicity
 _atom_site_fract_x
 _atom_site_fract_y
 _atom_site_fract_z
 _atom_site_occupancy
  Tb  Tb0  1  0.755425  0.000000  0.750000  1
  Gd  Gd1  1  0.332604  0.665169  0.998787  1
  Gd  Gd2  1  0.667436  0.334831  0.501213  1
  Gd  Gd3  1  0.667436  0.334831  0.998787  1
  Gd  Gd4  1  0.332604  0.665169  0.501213  1
  Gd  Gd5  1  0.245582  0.000000  0.250000  1
  Gd  Gd6  1  0.246119  0.246657  0.750000  1
  Gd  Gd7  1  0.999463  0.753343  0.750000  1
  Gd  Gd8  1  0.998995  0.246771  0.250000  1
  Gd  Gd9  1  0.752224  0.753229  0.250000  1
  Si  Si10  1  0.606646  0.000000  0.250000  1
  Si  Si11  1  0.607688  0.608090  0.750000  1
  Si  Si12  1  0.999598  0.391910  0.750000  1
  Si  Si13  1  0.999970  0.607097  0.250000  1
  Si  Si14  1  0.392873  0.392903  0.250000  1
  Ge  Ge15  1  0.395335  0.000000  0.750000  1
