# generated using pymatgen
data_ErTh(HgRh)2
_symmetry_space_group_name_H-M   'P 1'
_cell_length_a   3.90050200
_cell_length_b   7.40221502
_cell_length_c   9.18473458
_cell_angle_alpha   92.85926450
_cell_angle_beta   90.00000000
_cell_angle_gamma   90.00000000
_symmetry_Int_Tables_number   1
_chemical_formula_structural   ErTh(HgRh)2
_chemical_formula_sum   'Er2 Th2 Hg4 Rh4'
_cell_volume   264.85477731
_cell_formula_units_Z   2
loop_
 _symmetry_equiv_pos_site_id
 _symmetry_equiv_pos_as_xyz
  1  'x, y, z'
loop_
 _atom_site_type_symbol
 _atom_site_label
 _atom_site_symmetry_multiplicity
 _atom_site_fract_x
 _atom_site_fract_y
 _atom_site_fract_z
 _atom_site_occupancy
  Er  Er0  1  0.750000  0.948973  0.686021  1
  Er  Er1  1  0.250000  0.051027  0.313979  1
  Th  Th2  1  0.250000  0.546140  0.195090  1
  Th  Th3  1  0.750000  0.453860  0.804910  1
  Hg  Hg4  1  0.250000  0.652697  0.555998  1
  Hg  Hg5  1  0.750000  0.347303  0.444002  1
  Hg  Hg6  1  0.750000  0.869345  0.062121  1
  Hg  Hg7  1  0.250000  0.130655  0.937879  1
  Rh  Rh8  1  0.250000  0.717946  0.859956  1
  Rh  Rh9  1  0.750000  0.282054  0.140044  1
  Rh  Rh10  1  0.750000  0.766815  0.350905  1
  Rh  Rh11  1  0.250000  0.233185  0.649095  1
