# generated using pymatgen
data_K10NdTlSn11
_symmetry_space_group_name_H-M   'P 1'
_cell_length_a   10.52183165
_cell_length_b   10.53072370
_cell_length_c   10.56152100
_cell_angle_alpha   109.25568192
_cell_angle_beta   109.68535247
_cell_angle_gamma   109.56696685
_symmetry_Int_Tables_number   1
_chemical_formula_structural   K10NdTlSn11
_chemical_formula_sum   'K10 Nd1 Tl1 Sn11'
_cell_volume   899.79296128
_cell_formula_units_Z   1
loop_
 _symmetry_equiv_pos_site_id
 _symmetry_equiv_pos_as_xyz
  1  'x, y, z'
loop_
 _atom_site_type_symbol
 _atom_site_label
 _atom_site_symmetry_multiplicity
 _atom_site_fract_x
 _atom_site_fract_y
 _atom_site_fract_z
 _atom_site_occupancy
  K  K0  1  0.499485  0.250085  0.749889  1
  K  K1  1  0.749530  0.249927  0.500213  1
  K  K2  1  0.248573  0.748639  0.497846  1
  K  K3  1  0.500515  0.750600  0.250405  1
  K  K4  1  0.600171  0.000128  0.000629  1
  K  K5  1  0.399829  0.399956  0.400457  1
  K  K6  1  0.000000  0.599556  0.001792  1
  K  K7  1  0.000000  0.000310  0.598408  1
  K  K8  1  0.751427  0.500067  0.249273  1
  K  K9  1  0.250470  0.500398  0.750683  1
  Nd  Nd10  1  0.000000  0.000553  0.002337  1
  Tl  Tl11  1  0.000000  0.184447  0.360940  1
  Sn  Sn12  1  0.823026  0.171567  0.821586  1
  Sn  Sn13  1  0.653264  0.650926  0.828419  1
  Sn  Sn14  1  0.345894  0.176883  0.000005  1
  Sn  Sn15  1  0.176974  0.348539  0.998559  1
  Sn  Sn16  1  0.346736  0.997662  0.175155  1
  Sn  Sn17  1  0.654106  0.830989  0.654111  1
  Sn  Sn18  1  0.829221  0.653029  0.652413  1
  Sn  Sn19  1  0.000000  0.343340  0.171665  1
  Sn  Sn20  1  0.822489  0.820540  0.167256  1
  Sn  Sn21  1  0.170779  0.823807  0.823191  1
  Sn  Sn22  1  0.177511  0.998051  0.344767  1
