# generated using pymatgen
data_Na3SnAsPt2
_symmetry_space_group_name_H-M   'P 1'
_cell_length_a   6.09711100
_cell_length_b   7.91364600
_cell_length_c   13.55128100
_cell_angle_alpha   90.00000000
_cell_angle_beta   90.00000000
_cell_angle_gamma   90.00000000
_symmetry_Int_Tables_number   1
_chemical_formula_structural   Na3SnAsPt2
_chemical_formula_sum   'Na12 Sn4 As4 Pt8'
_cell_volume   653.85443167
_cell_formula_units_Z   4
loop_
 _symmetry_equiv_pos_site_id
 _symmetry_equiv_pos_as_xyz
  1  'x, y, z'
loop_
 _atom_site_type_symbol
 _atom_site_label
 _atom_site_symmetry_multiplicity
 _atom_site_fract_x
 _atom_site_fract_y
 _atom_site_fract_z
 _atom_site_occupancy
  Na  Na0  1  0.644073  0.223934  0.250000  1
  Na  Na1  1  0.355927  0.776066  0.750000  1
  Na  Na2  1  0.355927  0.723934  0.250000  1
  Na  Na3  1  0.644073  0.276066  0.750000  1
  Na  Na4  1  0.128911  0.387965  0.102193  1
  Na  Na5  1  0.871089  0.612035  0.897807  1
  Na  Na6  1  0.871089  0.612035  0.602193  1
  Na  Na7  1  0.871089  0.887965  0.397807  1
  Na  Na8  1  0.128911  0.387965  0.397807  1
  Na  Na9  1  0.128911  0.112035  0.602193  1
  Na  Na10  1  0.128911  0.112035  0.897807  1
  Na  Na11  1  0.871089  0.887965  0.102193  1
  Sn  Sn12  1  0.601959  0.250000  0.000000  1
  Sn  Sn13  1  0.398041  0.750000  0.000000  1
  Sn  Sn14  1  0.398041  0.750000  0.500000  1
  Sn  Sn15  1  0.601959  0.250000  0.500000  1
  As  As16  1  0.156349  0.079827  0.250000  1
  As  As17  1  0.843651  0.920173  0.750000  1
  As  As18  1  0.843651  0.579827  0.250000  1
  As  As19  1  0.156349  0.420173  0.750000  1
  Pt  Pt20  1  0.358779  0.030731  0.100374  1
  Pt  Pt21  1  0.641221  0.969269  0.899626  1
  Pt  Pt22  1  0.641221  0.969269  0.600374  1
  Pt  Pt23  1  0.641221  0.530731  0.399626  1
  Pt  Pt24  1  0.358779  0.030731  0.399626  1
  Pt  Pt25  1  0.358779  0.469269  0.600374  1
  Pt  Pt26  1  0.358779  0.469269  0.899626  1
  Pt  Pt27  1  0.641221  0.530731  0.100374  1
