# generated using pymatgen
data_Nd2Si3Hg
_symmetry_space_group_name_H-M   'P 1'
_cell_length_a   4.26328543
_cell_length_b   4.30533244
_cell_length_c   7.85716637
_cell_angle_alpha   74.09907707
_cell_angle_beta   74.25840199
_cell_angle_gamma   89.99999585
_symmetry_Int_Tables_number   1
_chemical_formula_structural   Nd2Si3Hg
_chemical_formula_sum   'Nd2 Si3 Hg1'
_cell_volume   133.06602404
_cell_formula_units_Z   1
loop_
 _symmetry_equiv_pos_site_id
 _symmetry_equiv_pos_as_xyz
  1  'x, y, z'
loop_
 _atom_site_type_symbol
 _atom_site_label
 _atom_site_symmetry_multiplicity
 _atom_site_fract_x
 _atom_site_fract_y
 _atom_site_fract_z
 _atom_site_occupancy
  Nd  Nd0  1  0.867449  0.617449  0.265102  1
  Nd  Nd1  1  0.136144  0.386144  0.727710  1
  Si  Si2  1  0.290159  0.040159  0.419682  1
  Si  Si3  1  0.450674  0.200674  0.098652  1
  Si  Si4  1  0.714536  0.964536  0.570927  1
  Hg  Hg5  1  0.541037  0.791037  0.917928  1
