# generated using pymatgen
data_Y6Er10CdNi4Ag3
_symmetry_space_group_name_H-M   'P 1'
_cell_length_a   9.42139985
_cell_length_b   9.44290104
_cell_length_c   9.44290100
_cell_angle_alpha   59.99999665
_cell_angle_beta   59.92447446
_cell_angle_gamma   59.92447532
_symmetry_Int_Tables_number   1
_chemical_formula_structural   Y6Er10CdNi4Ag3
_chemical_formula_sum   'Y6 Er10 Cd1 Ni4 Ag3'
_cell_volume   593.35496927
_cell_formula_units_Z   1
loop_
 _symmetry_equiv_pos_site_id
 _symmetry_equiv_pos_as_xyz
  1  'x, y, z'
loop_
 _atom_site_type_symbol
 _atom_site_label
 _atom_site_symmetry_multiplicity
 _atom_site_fract_x
 _atom_site_fract_y
 _atom_site_fract_z
 _atom_site_occupancy
  Y  Y0  1  0.185185  0.813317  0.813317  1
  Y  Y1  1  0.814260  0.186293  0.186293  1
  Y  Y2  1  0.814260  0.186293  0.813154  1
  Y  Y3  1  0.185185  0.813317  0.188181  1
  Y  Y4  1  0.814260  0.813154  0.186293  1
  Y  Y5  1  0.185185  0.188181  0.813317  1
  Er  Er6  1  0.599961  0.598454  0.598454  1
  Er  Er7  1  0.599961  0.598454  0.203131  1
  Er  Er8  1  0.599961  0.203131  0.598454  1
  Er  Er9  1  0.197459  0.600847  0.600847  1
  Er  Er10  1  0.061194  0.438234  0.438234  1
  Er  Er11  1  0.437246  0.062428  0.062428  1
  Er  Er12  1  0.437246  0.062428  0.437898  1
  Er  Er13  1  0.061194  0.438234  0.062336  1
  Er  Er14  1  0.437246  0.437898  0.062428  1
  Er  Er15  1  0.061194  0.062336  0.438234  1
  Cd  Cd16  1  0.515687  0.828104  0.828104  1
  Ni  Ni17  1  0.390898  0.393384  0.393384  1
  Ni  Ni18  1  0.390898  0.393384  0.822335  1
  Ni  Ni19  1  0.390898  0.822335  0.393384  1
  Ni  Ni20  1  0.823352  0.392216  0.392216  1
  Ag  Ag21  1  0.832423  0.832067  0.832067  1
  Ag  Ag22  1  0.832423  0.832067  0.503443  1
  Ag  Ag23  1  0.832423  0.503443  0.832067  1
