# generated using pymatgen
data_Er3Zr(WN2)4
_symmetry_space_group_name_H-M   'P 1'
_cell_length_a   3.16120400
_cell_length_b   5.66903000
_cell_length_c   10.50263454
_cell_angle_alpha   90.11782578
_cell_angle_beta   90.00000000
_cell_angle_gamma   90.00000000
_symmetry_Int_Tables_number   1
_chemical_formula_structural   Er3Zr(WN2)4
_chemical_formula_sum   'Er3 Zr1 W4 N8'
_cell_volume   188.21689889
_cell_formula_units_Z   1
loop_
 _symmetry_equiv_pos_site_id
 _symmetry_equiv_pos_as_xyz
  1  'x, y, z'
loop_
 _atom_site_type_symbol
 _atom_site_label
 _atom_site_symmetry_multiplicity
 _atom_site_fract_x
 _atom_site_fract_y
 _atom_site_fract_z
 _atom_site_occupancy
  Er  Er0  1  0.250000  0.582414  0.646380  1
  Er  Er1  1  0.750000  0.917370  0.147025  1
  Er  Er2  1  0.750000  0.419560  0.352805  1
  Zr  Zr3  1  0.250000  0.083293  0.849815  1
  W  W4  1  0.250000  0.428955  0.093826  1
  W  W5  1  0.250000  0.932559  0.404410  1
  W  W6  1  0.750000  0.565571  0.907574  1
  W  W7  1  0.750000  0.069851  0.595393  1
  N  N8  1  0.250000  0.165630  0.246112  1
  N  N9  1  0.250000  0.662662  0.250353  1
  N  N10  1  0.750000  0.845466  0.758203  1
  N  N11  1  0.750000  0.328143  0.752026  1
  N  N12  1  0.250000  0.770650  0.991146  1
  N  N13  1  0.250000  0.264839  0.507166  1
  N  N14  1  0.750000  0.228562  0.001277  1
  N  N15  1  0.750000  0.734475  0.496490  1
