# generated using pymatgen
data_Na2CaCdSb2
_symmetry_space_group_name_H-M   'P 1'
_cell_length_a   4.74253800
_cell_length_b   7.87941500
_cell_length_c   9.20671400
_cell_angle_alpha   90.00000000
_cell_angle_beta   90.00000000
_cell_angle_gamma   90.00000000
_symmetry_Int_Tables_number   1
_chemical_formula_structural   Na2CaCdSb2
_chemical_formula_sum   'Na4 Ca2 Cd2 Sb4'
_cell_volume   344.04040211
_cell_formula_units_Z   2
loop_
 _symmetry_equiv_pos_site_id
 _symmetry_equiv_pos_as_xyz
  1  'x, y, z'
loop_
 _atom_site_type_symbol
 _atom_site_label
 _atom_site_symmetry_multiplicity
 _atom_site_fract_x
 _atom_site_fract_y
 _atom_site_fract_z
 _atom_site_occupancy
  Na  Na0  1  0.500000  0.029800  0.416770  1
  Na  Na1  1  0.000000  0.352495  0.333816  1
  Na  Na2  1  0.500000  0.529800  0.583230  1
  Na  Na3  1  0.000000  0.852495  0.666184  1
  Ca  Ca4  1  0.000000  0.487922  0.946797  1
  Ca  Ca5  1  0.000000  0.987922  0.053203  1
  Cd  Cd6  1  0.500000  0.147714  0.815614  1
  Cd  Cd7  1  0.500000  0.647714  0.184386  1
  Sb  Sb8  1  0.000000  0.256595  0.661648  1
  Sb  Sb9  1  0.500000  0.270995  0.121735  1
  Sb  Sb10  1  0.000000  0.756595  0.338352  1
  Sb  Sb11  1  0.500000  0.770995  0.878265  1
