# generated using pymatgen
data_Sc3(Al3Co)4
_symmetry_space_group_name_H-M   'P 1'
_cell_length_a   8.49981100
_cell_length_b   8.49981053
_cell_length_c   9.12435600
_cell_angle_alpha   90.00000000
_cell_angle_beta   90.00000000
_cell_angle_gamma   119.99999794
_symmetry_Int_Tables_number   1
_chemical_formula_structural   Sc3(Al3Co)4
_chemical_formula_sum   'Sc6 Al24 Co8'
_cell_volume   570.88860719
_cell_formula_units_Z   2
loop_
 _symmetry_equiv_pos_site_id
 _symmetry_equiv_pos_as_xyz
  1  'x, y, z'
loop_
 _atom_site_type_symbol
 _atom_site_label
 _atom_site_symmetry_multiplicity
 _atom_site_fract_x
 _atom_site_fract_y
 _atom_site_fract_z
 _atom_site_occupancy
  Sc  Sc0  1  0.805540  0.194460  0.750000  1
  Sc  Sc1  1  0.194460  0.805540  0.250000  1
  Sc  Sc2  1  0.388919  0.194460  0.750000  1
  Sc  Sc3  1  0.611081  0.805540  0.250000  1
  Sc  Sc4  1  0.805540  0.611081  0.750000  1
  Sc  Sc5  1  0.194460  0.388919  0.250000  1
  Al  Al6  1  0.443009  0.556991  0.750000  1
  Al  Al7  1  0.556991  0.443009  0.250000  1
  Al  Al8  1  0.113984  0.556991  0.750000  1
  Al  Al9  1  0.886016  0.443009  0.250000  1
  Al  Al10  1  0.443009  0.886016  0.750000  1
  Al  Al11  1  0.556991  0.113984  0.250000  1
  Al  Al12  1  0.837284  0.162716  0.424452  1
  Al  Al13  1  0.162716  0.837284  0.575548  1
  Al  Al14  1  0.325432  0.162716  0.424452  1
  Al  Al15  1  0.162716  0.837284  0.924452  1
  Al  Al16  1  0.674568  0.837284  0.575548  1
  Al  Al17  1  0.837284  0.162716  0.075548  1
  Al  Al18  1  0.837284  0.674568  0.424452  1
  Al  Al19  1  0.674568  0.837284  0.924452  1
  Al  Al20  1  0.162716  0.325432  0.575548  1
  Al  Al21  1  0.325432  0.162716  0.075548  1
  Al  Al22  1  0.162716  0.325432  0.924452  1
  Al  Al23  1  0.837284  0.674568  0.075548  1
  Al  Al24  1  0.666667  0.333333  0.968810  1
  Al  Al25  1  0.333333  0.666667  0.031190  1
  Al  Al26  1  0.333333  0.666667  0.468810  1
  Al  Al27  1  0.666667  0.333333  0.531190  1
  Al  Al28  1  0.000000  0.000000  0.750000  1
  Al  Al29  1  0.000000  0.000000  0.250000  1
  Co  Co30  1  0.500000  0.500000  0.000000  1
  Co  Co31  1  0.000000  0.500000  0.000000  1
  Co  Co32  1  0.500000  0.500000  0.500000  1
  Co  Co33  1  0.500000  0.000000  0.000000  1
  Co  Co34  1  0.000000  0.500000  0.500000  1
  Co  Co35  1  0.500000  0.000000  0.500000  1
  Co  Co36  1  0.000000  0.000000  0.000000  1
  Co  Co37  1  0.000000  0.000000  0.500000  1
