# generated using pymatgen
data_Al7Ga5Fe4
_symmetry_space_group_name_H-M   'P 1'
_cell_length_a   6.25009448
_cell_length_b   6.25009448
_cell_length_c   6.48784114
_cell_angle_alpha   90.07927308
_cell_angle_beta   90.07927308
_cell_angle_gamma   90.00072463
_symmetry_Int_Tables_number   1
_chemical_formula_structural   Al7Ga5Fe4
_chemical_formula_sum   'Al7 Ga5 Fe4'
_cell_volume   253.43847146
_cell_formula_units_Z   1
loop_
 _symmetry_equiv_pos_site_id
 _symmetry_equiv_pos_as_xyz
  1  'x, y, z'
loop_
 _atom_site_type_symbol
 _atom_site_label
 _atom_site_symmetry_multiplicity
 _atom_site_fract_x
 _atom_site_fract_y
 _atom_site_fract_z
 _atom_site_occupancy
  Al  Al0  1  0.843502  0.155798  0.763582  1
  Al  Al1  1  0.656145  0.656145  0.736448  1
  Al  Al2  1  0.156475  0.844111  0.236318  1
  Al  Al3  1  0.155798  0.843502  0.763582  1
  Al  Al4  1  0.343519  0.343519  0.263504  1
  Al  Al5  1  0.656204  0.656204  0.263654  1
  Al  Al6  1  0.844111  0.156475  0.236318  1
  Ga  Ga7  1  0.999188  0.499845  0.000343  1
  Ga  Ga8  1  0.500356  0.999788  0.499726  1
  Ga  Ga9  1  0.344550  0.344550  0.737828  1
  Ga  Ga10  1  0.999788  0.500356  0.499726  1
  Ga  Ga11  1  0.499845  0.999188  0.000343  1
  Fe  Fe12  1  0.344721  0.656276  0.499249  1
  Fe  Fe13  1  0.656276  0.344721  0.499249  1
  Fe  Fe14  1  0.844333  0.844333  0.000013  1
  Fe  Fe15  1  0.155190  0.155190  0.000117  1
