# generated using pymatgen
data_HoTm5(ThPb2)4
_symmetry_space_group_name_H-M   'P 1'
_cell_length_a   8.24764000
_cell_length_b   15.59628100
_cell_length_c   8.29197500
_cell_angle_alpha   90.00000000
_cell_angle_beta   90.00000000
_cell_angle_gamma   90.00000000
_symmetry_Int_Tables_number   1
_chemical_formula_structural   HoTm5(ThPb2)4
_chemical_formula_sum   'Ho2 Tm10 Th8 Pb16'
_cell_volume   1066.61756562
_cell_formula_units_Z   2
loop_
 _symmetry_equiv_pos_site_id
 _symmetry_equiv_pos_as_xyz
  1  'x, y, z'
loop_
 _atom_site_type_symbol
 _atom_site_label
 _atom_site_symmetry_multiplicity
 _atom_site_fract_x
 _atom_site_fract_y
 _atom_site_fract_z
 _atom_site_occupancy
  Ho  Ho0  1  0.191222  0.250000  0.499106  1
  Ho  Ho1  1  0.691222  0.250000  0.000894  1
  Tm  Tm2  1  0.640947  0.624537  0.157946  1
  Tm  Tm3  1  0.140947  0.875463  0.342054  1
  Tm  Tm4  1  0.359283  0.124206  0.841877  1
  Tm  Tm5  1  0.859283  0.375794  0.658123  1
  Tm  Tm6  1  0.359283  0.375794  0.841877  1
  Tm  Tm7  1  0.859283  0.124206  0.658123  1
  Tm  Tm8  1  0.640947  0.875463  0.157946  1
  Tm  Tm9  1  0.140947  0.624537  0.342054  1
  Tm  Tm10  1  0.808649  0.750000  0.500598  1
  Tm  Tm11  1  0.308649  0.750000  0.999402  1
  Th  Th12  1  0.477425  0.595055  0.676595  1
  Th  Th13  1  0.977425  0.904945  0.823405  1
  Th  Th14  1  0.522338  0.094849  0.322978  1
  Th  Th15  1  0.022338  0.405151  0.177022  1
  Th  Th16  1  0.522338  0.405151  0.322978  1
  Th  Th17  1  0.022338  0.094849  0.177022  1
  Th  Th18  1  0.477425  0.904945  0.676595  1
  Th  Th19  1  0.977425  0.595055  0.823405  1
  Pb  Pb20  1  0.701668  0.456782  0.958154  1
  Pb  Pb21  1  0.201668  0.043218  0.541846  1
  Pb  Pb22  1  0.298367  0.956166  0.041742  1
  Pb  Pb23  1  0.798367  0.543834  0.458258  1
  Pb  Pb24  1  0.298367  0.543834  0.041742  1
  Pb  Pb25  1  0.798367  0.956166  0.458258  1
  Pb  Pb26  1  0.701668  0.043218  0.958154  1
  Pb  Pb27  1  0.201668  0.456782  0.541846  1
  Pb  Pb28  1  0.446675  0.750000  0.371959  1
  Pb  Pb29  1  0.946675  0.750000  0.128041  1
  Pb  Pb30  1  0.554011  0.250000  0.627761  1
  Pb  Pb31  1  0.054011  0.250000  0.872239  1
  Pb  Pb32  1  0.666843  0.750000  0.849881  1
  Pb  Pb33  1  0.166843  0.750000  0.650119  1
  Pb  Pb34  1  0.332545  0.250000  0.149254  1
  Pb  Pb35  1  0.832545  0.250000  0.350746  1
