# generated using pymatgen
data_Li8Pr8Sn5Bi3
_symmetry_space_group_name_H-M   'P 1'
_cell_length_a   9.66007600
_cell_length_b   9.66007668
_cell_length_c   7.72552700
_cell_angle_alpha   90.00000000
_cell_angle_beta   90.00000000
_cell_angle_gamma   119.99999768
_symmetry_Int_Tables_number   1
_chemical_formula_structural   Li8Pr8Sn5Bi3
_chemical_formula_sum   'Li8 Pr8 Sn5 Bi3'
_cell_volume   624.33815028
_cell_formula_units_Z   1
loop_
 _symmetry_equiv_pos_site_id
 _symmetry_equiv_pos_as_xyz
  1  'x, y, z'
loop_
 _atom_site_type_symbol
 _atom_site_label
 _atom_site_symmetry_multiplicity
 _atom_site_fract_x
 _atom_site_fract_y
 _atom_site_fract_z
 _atom_site_occupancy
  Li  Li0  1  0.832696  0.167304  0.719460  1
  Li  Li1  1  0.832696  0.665390  0.719460  1
  Li  Li2  1  0.334610  0.167304  0.719460  1
  Li  Li3  1  0.168237  0.831763  0.212641  1
  Li  Li4  1  0.168237  0.336474  0.212641  1
  Li  Li5  1  0.663526  0.831763  0.212641  1
  Li  Li6  1  0.666667  0.333333  0.334154  1
  Li  Li7  1  0.333333  0.666667  0.825476  1
  Pr  Pr8  1  0.485738  0.514262  0.510040  1
  Pr  Pr9  1  0.485738  0.971477  0.510040  1
  Pr  Pr10  1  0.028523  0.514262  0.510040  1
  Pr  Pr11  1  0.509391  0.490609  0.000072  1
  Pr  Pr12  1  0.509391  0.018782  0.000072  1
  Pr  Pr13  1  0.981218  0.490609  0.000072  1
  Pr  Pr14  1  0.000000  0.000000  0.506879  1
  Pr  Pr15  1  0.000000  0.000000  0.993147  1
  Sn  Sn16  1  0.166745  0.833255  0.767789  1
  Sn  Sn17  1  0.166745  0.333490  0.767789  1
  Sn  Sn18  1  0.666510  0.833255  0.767789  1
  Sn  Sn19  1  0.666667  0.333333  0.735952  1
  Sn  Sn20  1  0.333333  0.666667  0.235127  1
  Bi  Bi21  1  0.833106  0.166894  0.265757  1
  Bi  Bi22  1  0.833106  0.666211  0.265757  1
  Bi  Bi23  1  0.333789  0.166894  0.265757  1
