# generated using pymatgen
data_Tb3HoSb6Ru2Rh5
_symmetry_space_group_name_H-M   'P 1'
_cell_length_a   7.58937516
_cell_length_b   7.58013557
_cell_length_c   7.58013490
_cell_angle_alpha   109.24444697
_cell_angle_beta   109.59569497
_cell_angle_gamma   109.59570749
_symmetry_Int_Tables_number   1
_chemical_formula_structural   Tb3HoSb6Ru2Rh5
_chemical_formula_sum   'Tb3 Ho1 Sb6 Ru2 Rh5'
_cell_volume   335.59461630
_cell_formula_units_Z   1
loop_
 _symmetry_equiv_pos_site_id
 _symmetry_equiv_pos_as_xyz
  1  'x, y, z'
loop_
 _atom_site_type_symbol
 _atom_site_label
 _atom_site_symmetry_multiplicity
 _atom_site_fract_x
 _atom_site_fract_y
 _atom_site_fract_z
 _atom_site_occupancy
  Tb  Tb0  1  0.001989  0.500984  0.000991  1
  Tb  Tb1  1  0.998011  0.999009  0.499016  1
  Tb  Tb2  1  0.500000  0.501005  0.498995  1
  Ho  Ho3  1  0.500000  0.998795  0.001205  1
  Sb  Sb4  1  0.999418  0.314510  0.314499  1
  Sb  Sb5  1  0.684208  0.999113  0.683836  1
  Sb  Sb6  1  0.684236  0.685736  0.000923  1
  Sb  Sb7  1  0.000582  0.685501  0.685490  1
  Sb  Sb8  1  0.315764  0.999077  0.314264  1
  Sb  Sb9  1  0.315792  0.316164  0.000887  1
  Ru  Ru10  1  0.000000  0.000012  0.999988  1
  Ru  Ru11  1  0.500000  0.750476  0.249524  1
  Rh  Rh12  1  0.750333  0.499178  0.250304  1
  Rh  Rh13  1  0.249667  0.749696  0.500822  1
  Rh  Rh14  1  0.249651  0.500769  0.749607  1
  Rh  Rh15  1  0.500000  0.249585  0.750415  1
  Rh  Rh16  1  0.750349  0.250393  0.499231  1
