# generated using pymatgen
data_NaEu5(GaP2)4
_symmetry_space_group_name_H-M   'P 1'
_cell_length_a   8.13866704
_cell_length_b   8.16753326
_cell_length_c   6.58463551
_cell_angle_alpha   89.69959287
_cell_angle_beta   89.22671777
_cell_angle_gamma   76.01843164
_symmetry_Int_Tables_number   1
_chemical_formula_structural   NaEu5(GaP2)4
_chemical_formula_sum   'Na1 Eu5 Ga4 P8'
_cell_volume   424.69231312
_cell_formula_units_Z   1
loop_
 _symmetry_equiv_pos_site_id
 _symmetry_equiv_pos_as_xyz
  1  'x, y, z'
loop_
 _atom_site_type_symbol
 _atom_site_label
 _atom_site_symmetry_multiplicity
 _atom_site_fract_x
 _atom_site_fract_y
 _atom_site_fract_z
 _atom_site_occupancy
  Na  Na0  1  0.749598  0.496002  0.036905  1
  Eu  Eu1  1  0.506529  0.251307  0.459451  1
  Eu  Eu2  1  0.251673  0.502682  0.966173  1
  Eu  Eu3  1  0.499249  0.745867  0.535288  1
  Eu  Eu4  1  0.100118  0.901414  0.249340  1
  Eu  Eu5  1  0.896938  0.108454  0.755262  1
  Ga  Ga6  1  0.079304  0.324217  0.409264  1
  Ga  Ga7  1  0.674591  0.914765  0.086125  1
  Ga  Ga8  1  0.918048  0.673442  0.592104  1
  Ga  Ga9  1  0.323490  0.079688  0.914611  1
  P  P10  1  0.213167  0.559377  0.474419  1
  P  P11  1  0.437867  0.789590  0.024276  1
  P  P12  1  0.789396  0.439433  0.522200  1
  P  P13  1  0.557295  0.209319  0.974036  1
  P  P14  1  0.065913  0.241876  0.067234  1
  P  P15  1  0.759207  0.931634  0.435138  1
  P  P16  1  0.934944  0.762815  0.932444  1
  P  P17  1  0.242673  0.068117  0.565730  1
