# generated using pymatgen
data_Ho3TmIr7Os
_symmetry_space_group_name_H-M   'P 1'
_cell_length_a   5.35834846
_cell_length_b   5.35839454
_cell_length_c   8.67553055
_cell_angle_alpha   90.00000074
_cell_angle_beta   90.00588034
_cell_angle_gamma   59.99969732
_symmetry_Int_Tables_number   1
_chemical_formula_structural   Ho3TmIr7Os
_chemical_formula_sum   'Ho3 Tm1 Ir7 Os1'
_cell_volume   215.72028618
_cell_formula_units_Z   1
loop_
 _symmetry_equiv_pos_site_id
 _symmetry_equiv_pos_as_xyz
  1  'x, y, z'
loop_
 _atom_site_type_symbol
 _atom_site_label
 _atom_site_symmetry_multiplicity
 _atom_site_fract_x
 _atom_site_fract_y
 _atom_site_fract_z
 _atom_site_occupancy
  Ho  Ho0  1  0.666694  0.666653  0.434185  1
  Ho  Ho1  1  0.666724  0.666638  0.065905  1
  Ho  Ho2  1  0.333312  0.333344  0.933764  1
  Tm  Tm3  1  0.333357  0.333321  0.565818  1
  Ir  Ir4  1  0.999971  0.000015  0.000234  1
  Ir  Ir5  1  0.830510  0.338973  0.748230  1
  Ir  Ir6  1  0.339059  0.830470  0.748411  1
  Ir  Ir7  1  0.830510  0.830517  0.748230  1
  Ir  Ir8  1  0.169569  0.660853  0.251717  1
  Ir  Ir9  1  0.660700  0.169650  0.251589  1
  Ir  Ir10  1  0.169569  0.169577  0.251717  1
  Os  Os11  1  0.000023  0.999988  0.500197  1
