# generated using pymatgen
data_Ho3Pb4F17
_symmetry_space_group_name_H-M   'P 1'
_cell_length_a   9.15156196
_cell_length_b   9.15295237
_cell_length_c   9.20292900
_cell_angle_alpha   72.97386254
_cell_angle_beta   73.21584810
_cell_angle_gamma   73.15224949
_symmetry_Int_Tables_number   1
_chemical_formula_structural   Ho3Pb4F17
_chemical_formula_sum   'Ho6 Pb8 F34'
_cell_volume   687.71499079
_cell_formula_units_Z   2
loop_
 _symmetry_equiv_pos_site_id
 _symmetry_equiv_pos_as_xyz
  1  'x, y, z'
loop_
 _atom_site_type_symbol
 _atom_site_label
 _atom_site_symmetry_multiplicity
 _atom_site_fract_x
 _atom_site_fract_y
 _atom_site_fract_z
 _atom_site_occupancy
  Ho  Ho0  1  0.530324  0.392683  0.837616  1
  Ho  Ho1  1  0.391958  0.839723  0.531225  1
  Ho  Ho2  1  0.815206  0.525858  0.394988  1
  Ho  Ho3  1  0.160414  0.470164  0.607886  1
  Ho  Ho4  1  0.605753  0.184481  0.465934  1
  Ho  Ho5  1  0.475187  0.601672  0.176944  1
  Pb  Pb6  1  0.098252  0.694252  0.967339  1
  Pb  Pb7  1  0.733615  0.739922  0.735964  1
  Pb  Pb8  1  0.953434  0.106729  0.683608  1
  Pb  Pb9  1  0.310125  0.037174  0.900285  1
  Pb  Pb10  1  0.688721  0.959103  0.106565  1
  Pb  Pb11  1  0.035530  0.896556  0.310100  1
  Pb  Pb12  1  0.260191  0.267412  0.264246  1
  Pb  Pb13  1  0.897143  0.313020  0.041636  1
  F  F14  1  0.002076  0.989256  0.009593  1
  F  F15  1  0.860395  0.864760  0.862330  1
  F  F16  1  0.544517  0.820317  0.981205  1
  F  F17  1  0.642189  0.510202  0.955969  1
  F  F18  1  0.980186  0.547883  0.820343  1
  F  F19  1  0.745057  0.209863  0.918343  1
  F  F20  1  0.210313  0.914281  0.745362  1
  F  F21  1  0.506856  0.963904  0.643767  1
  F  F22  1  0.457926  0.651931  0.734652  1
  F  F23  1  0.816162  0.980709  0.549371  1
  F  F24  1  0.741335  0.450265  0.656214  1
  F  F25  1  0.303596  0.413234  0.785258  1
  F  F26  1  0.952287  0.643965  0.511070  1
  F  F27  1  0.592287  0.207446  0.702338  1
  F  F28  1  0.651017  0.743848  0.455362  1
  F  F29  1  0.082755  0.254649  0.789949  1
  F  F30  1  0.214127  0.698545  0.579834  1
  F  F31  1  0.823408  0.277273  0.406115  1
  F  F32  1  0.558560  0.474889  0.446640  1
  F  F33  1  0.911304  0.740718  0.218730  1
  F  F34  1  0.345221  0.264039  0.542952  1
  F  F35  1  0.420640  0.794786  0.298733  1
  F  F36  1  0.038853  0.358434  0.492318  1
  F  F37  1  0.720256  0.591222  0.178504  1
  F  F38  1  0.261009  0.541723  0.348894  1
  F  F39  1  0.177854  0.021844  0.454875  1
  F  F40  1  0.548399  0.337703  0.240813  1
  F  F41  1  0.489934  0.046896  0.358571  1
  F  F42  1  0.786931  0.083729  0.257762  1
  F  F43  1  0.258560  0.784425  0.091636  1
  F  F44  1  0.020420  0.452933  0.181097  1
  F  F45  1  0.354521  0.493623  0.042336  1
  F  F46  1  0.451159  0.180095  0.019840  1
  F  F47  1  0.138043  0.137862  0.136883  1
