# generated using pymatgen
data_Ce2LuIn3FeRu
_symmetry_space_group_name_H-M   'P 1'
_cell_length_a   8.23851609
_cell_length_b   8.23851614
_cell_length_c   4.87055220
_cell_angle_alpha   84.05078705
_cell_angle_beta   84.05078938
_cell_angle_gamma   34.35840329
_symmetry_Int_Tables_number   1
_chemical_formula_structural   Ce2LuIn3FeRu
_chemical_formula_sum   'Ce2 Lu1 In3 Fe1 Ru1'
_cell_volume   185.46739994
_cell_formula_units_Z   1
loop_
 _symmetry_equiv_pos_site_id
 _symmetry_equiv_pos_as_xyz
  1  'x, y, z'
loop_
 _atom_site_type_symbol
 _atom_site_label
 _atom_site_symmetry_multiplicity
 _atom_site_fract_x
 _atom_site_fract_y
 _atom_site_fract_z
 _atom_site_occupancy
  Ce  Ce0  1  0.827946  0.827946  0.551800  1
  Ce  Ce1  1  0.168345  0.168345  0.427512  1
  Lu  Lu2  1  0.998578  0.998578  0.996708  1
  In  In3  1  0.369791  0.369791  0.035950  1
  In  In4  1  0.499575  0.499575  0.498414  1
  In  In5  1  0.631955  0.631955  0.964809  1
  Fe  Fe6  1  0.798270  0.798270  0.140670  1
  Ru  Ru7  1  0.205542  0.205542  0.884138  1
