# generated using pymatgen
data_Er5Tm5(RuRh)2
_symmetry_space_group_name_H-M   'P 1'
_cell_length_a   6.30703720
_cell_length_b   7.22300722
_cell_length_c   8.39421591
_cell_angle_alpha   96.75466172
_cell_angle_beta   112.02788112
_cell_angle_gamma   89.98167687
_symmetry_Int_Tables_number   1
_chemical_formula_structural   Er5Tm5(RuRh)2
_chemical_formula_sum   'Er5 Tm5 Ru2 Rh2'
_cell_volume   351.63087503
_cell_formula_units_Z   1
loop_
 _symmetry_equiv_pos_site_id
 _symmetry_equiv_pos_as_xyz
  1  'x, y, z'
loop_
 _atom_site_type_symbol
 _atom_site_label
 _atom_site_symmetry_multiplicity
 _atom_site_fract_x
 _atom_site_fract_y
 _atom_site_fract_z
 _atom_site_occupancy
  Er  Er0  1  0.791916  0.081931  0.812103  1
  Er  Er1  1  0.979613  0.418055  0.188021  1
  Er  Er2  1  0.210090  0.914931  0.185076  1
  Er  Er3  1  0.024781  0.585008  0.814721  1
  Er  Er4  1  0.207330  0.183641  0.564749  1
  Tm  Tm5  1  0.642476  0.316804  0.434935  1
  Tm  Tm6  1  0.792386  0.813057  0.437167  1
  Tm  Tm7  1  0.355356  0.686553  0.562817  1
  Tm  Tm8  1  0.419027  0.250040  0.000166  1
  Tm  Tm9  1  0.578460  0.750059  0.000004  1
  Ru  Ru10  1  0.397234  0.574942  0.220289  1
  Ru  Ru11  1  0.176993  0.924937  0.779592  1
  Rh  Rh12  1  0.602280  0.424215  0.779209  1
  Rh  Rh13  1  0.822053  0.075828  0.221150  1
