# generated using pymatgen
data_Tm20CoRh10Au
_symmetry_space_group_name_H-M   'P 1'
_cell_length_a   10.74901195
_cell_length_b   10.74729016
_cell_length_c   6.28175800
_cell_angle_alpha   90.10300386
_cell_angle_beta   89.88961413
_cell_angle_gamma   90.13050844
_symmetry_Int_Tables_number   1
_chemical_formula_structural   Tm20CoRh10Au
_chemical_formula_sum   'Tm20 Co1 Rh10 Au1'
_cell_volume   725.68156507
_cell_formula_units_Z   1
loop_
 _symmetry_equiv_pos_site_id
 _symmetry_equiv_pos_as_xyz
  1  'x, y, z'
loop_
 _atom_site_type_symbol
 _atom_site_label
 _atom_site_symmetry_multiplicity
 _atom_site_fract_x
 _atom_site_fract_y
 _atom_site_fract_z
 _atom_site_occupancy
  Tm  Tm0  1  0.291305  0.094974  0.379732  1
  Tm  Tm1  1  0.288937  0.920878  0.876017  1
  Tm  Tm2  1  0.708333  0.090629  0.877550  1
  Tm  Tm3  1  0.709751  0.912166  0.379427  1
  Tm  Tm4  1  0.594089  0.792576  0.881416  1
  Tm  Tm5  1  0.587907  0.206704  0.375707  1
  Tm  Tm6  1  0.414328  0.794419  0.366195  1
  Tm  Tm7  1  0.410144  0.213065  0.882203  1
  Tm  Tm8  1  0.209616  0.404033  0.612625  1
  Tm  Tm9  1  0.207661  0.582640  0.133791  1
  Tm  Tm10  1  0.794588  0.409872  0.123989  1
  Tm  Tm11  1  0.788019  0.587683  0.624197  1
  Tm  Tm12  1  0.909911  0.709122  0.121179  1
  Tm  Tm13  1  0.910768  0.290603  0.622189  1
  Tm  Tm14  1  0.080206  0.709935  0.623695  1
  Tm  Tm15  1  0.092346  0.290504  0.120268  1
  Tm  Tm16  1  0.000475  0.000683  0.498588  1
  Tm  Tm17  1  0.998090  0.000744  0.001313  1
  Tm  Tm18  1  0.501563  0.495085  0.004181  1
  Tm  Tm19  1  0.499999  0.494099  0.496514  1
  Co  Co20  1  0.348750  0.348319  0.251365  1
  Rh  Rh21  1  0.844485  0.154760  0.250232  1
  Rh  Rh22  1  0.846961  0.845948  0.747884  1
  Rh  Rh23  1  0.153676  0.153339  0.751697  1
  Rh  Rh24  1  0.155705  0.843599  0.249392  1
  Rh  Rh25  1  0.657986  0.342848  0.749552  1
  Rh  Rh26  1  0.652520  0.653150  0.248484  1
  Rh  Rh27  1  0.498854  0.001457  0.123209  1
  Rh  Rh28  1  0.499452  0.000454  0.630149  1
  Rh  Rh29  1  0.000683  0.499035  0.869975  1
  Rh  Rh30  1  0.998741  0.500121  0.376811  1
  Au  Au31  1  0.344152  0.656553  0.750475  1
