# generated using pymatgen
data_Y20Ga8NiHg3
_symmetry_space_group_name_H-M   'P 1'
_cell_length_a   7.55670800
_cell_length_b   7.55670800
_cell_length_c   14.77743300
_cell_angle_alpha   90.00000000
_cell_angle_beta   90.00000000
_cell_angle_gamma   90.00000000
_symmetry_Int_Tables_number   1
_chemical_formula_structural   Y20Ga8NiHg3
_chemical_formula_sum   'Y20 Ga8 Ni1 Hg3'
_cell_volume   843.84810754
_cell_formula_units_Z   1
loop_
 _symmetry_equiv_pos_site_id
 _symmetry_equiv_pos_as_xyz
  1  'x, y, z'
loop_
 _atom_site_type_symbol
 _atom_site_label
 _atom_site_symmetry_multiplicity
 _atom_site_fract_x
 _atom_site_fract_y
 _atom_site_fract_z
 _atom_site_occupancy
  Y  Y0  1  0.847169  0.814777  0.898570  1
  Y  Y1  1  0.176831  0.165141  0.607367  1
  Y  Y2  1  0.826168  0.169289  0.392961  1
  Y  Y3  1  0.173832  0.830711  0.392961  1
  Y  Y4  1  0.330711  0.326168  0.392961  1
  Y  Y5  1  0.842133  0.181459  0.101204  1
  Y  Y6  1  0.314777  0.652831  0.898570  1
  Y  Y7  1  0.157867  0.818541  0.101204  1
  Y  Y8  1  0.500000  0.000000  0.768716  1
  Y  Y9  1  0.000000  0.500000  0.252761  1
  Y  Y10  1  0.334859  0.676831  0.607367  1
  Y  Y11  1  0.681459  0.657867  0.101204  1
  Y  Y12  1  0.665141  0.323169  0.607367  1
  Y  Y13  1  0.000000  0.500000  0.741899  1
  Y  Y14  1  0.823169  0.834859  0.607367  1
  Y  Y15  1  0.685223  0.347169  0.898570  1
  Y  Y16  1  0.152831  0.185223  0.898570  1
  Y  Y17  1  0.500000  0.000000  0.236887  1
  Y  Y18  1  0.669289  0.673832  0.392961  1
  Y  Y19  1  0.318541  0.342133  0.101204  1
  Ga  Ga20  1  0.621408  0.378465  0.248998  1
  Ga  Ga21  1  0.378592  0.621535  0.248998  1
  Ga  Ga22  1  0.121535  0.121408  0.248998  1
  Ga  Ga23  1  0.378374  0.378026  0.751045  1
  Ga  Ga24  1  0.121974  0.878374  0.751045  1
  Ga  Ga25  1  0.878465  0.878592  0.248998  1
  Ga  Ga26  1  0.621626  0.621974  0.751045  1
  Ga  Ga27  1  0.878026  0.121626  0.751045  1
  Ni  Ni28  1  0.000000  0.500000  0.000234  1
  Hg  Hg29  1  0.500000  0.000000  0.999150  1
  Hg  Hg30  1  0.500000  0.000000  0.498486  1
  Hg  Hg31  1  0.000000  0.500000  0.501287  1
