# generated using pymatgen
data_NdSm5NiBr10
_symmetry_space_group_name_H-M   'P 1'
_cell_length_a   7.50392892
_cell_length_b   9.37879172
_cell_length_c   9.44877425
_cell_angle_alpha   107.91822629
_cell_angle_beta   96.55482239
_cell_angle_gamma   105.53489406
_symmetry_Int_Tables_number   1
_chemical_formula_structural   NdSm5NiBr10
_chemical_formula_sum   'Nd1 Sm5 Ni1 Br10'
_cell_volume   595.43796329
_cell_formula_units_Z   1
loop_
 _symmetry_equiv_pos_site_id
 _symmetry_equiv_pos_as_xyz
  1  'x, y, z'
loop_
 _atom_site_type_symbol
 _atom_site_label
 _atom_site_symmetry_multiplicity
 _atom_site_fract_x
 _atom_site_fract_y
 _atom_site_fract_z
 _atom_site_occupancy
  Nd  Nd0  1  0.127719  0.047909  0.754015  1
  Sm  Sm1  1  0.872941  0.952389  0.242464  1
  Sm  Sm2  1  0.968479  0.295746  0.093746  1
  Sm  Sm3  1  0.031781  0.705021  0.908484  1
  Sm  Sm4  1  0.355383  0.132092  0.175306  1
  Sm  Sm5  1  0.645005  0.867820  0.823740  1
  Ni  Ni6  1  0.999945  0.000441  0.000316  1
  Br  Br7  1  0.550405  0.179509  0.917228  1
  Br  Br8  1  0.452837  0.821694  0.084054  1
  Br  Br9  1  0.349059  0.450890  0.269923  1
  Br  Br10  1  0.651700  0.549062  0.731345  1
  Br  Br11  1  0.248097  0.080355  0.449649  1
  Br  Br12  1  0.747123  0.917791  0.544748  1
  Br  Br13  1  0.780472  0.252048  0.343493  1
  Br  Br14  1  0.220249  0.743345  0.657787  1
  Br  Br15  1  0.084534  0.371805  0.829881  1
  Br  Br16  1  0.914271  0.632081  0.173821  1
