# generated using pymatgen
data_Tm2LuSc3MnBi2
_symmetry_space_group_name_H-M   'P 1'
_cell_length_a   7.90384227
_cell_length_b   7.90384076
_cell_length_c   4.20130700
_cell_angle_alpha   90.00000000
_cell_angle_beta   90.00000000
_cell_angle_gamma   120.02970907
_symmetry_Int_Tables_number   1
_chemical_formula_structural   Tm2LuSc3MnBi2
_chemical_formula_sum   'Tm2 Lu1 Sc3 Mn1 Bi2'
_cell_volume   227.22776871
_cell_formula_units_Z   1
loop_
 _symmetry_equiv_pos_site_id
 _symmetry_equiv_pos_as_xyz
  1  'x, y, z'
loop_
 _atom_site_type_symbol
 _atom_site_label
 _atom_site_symmetry_multiplicity
 _atom_site_fract_x
 _atom_site_fract_y
 _atom_site_fract_z
 _atom_site_occupancy
  Tm  Tm0  1  0.615390  0.999937  0.000000  1
  Tm  Tm1  1  0.999937  0.615390  0.000000  1
  Lu  Lu2  1  0.384181  0.384181  0.000000  1
  Sc  Sc3  1  0.224976  0.000248  0.500000  1
  Sc  Sc4  1  0.000248  0.224976  0.500000  1
  Sc  Sc5  1  0.775090  0.775090  0.500000  1
  Mn  Mn6  1  0.000358  0.000358  0.000000  1
  Bi  Bi7  1  0.333367  0.666453  0.500000  1
  Bi  Bi8  1  0.666453  0.333367  0.500000  1
