# generated using pymatgen
data_DyHo3(Ga3Co)6
_symmetry_space_group_name_H-M   'P 1'
_cell_length_a   7.36488472
_cell_length_b   7.36391026
_cell_length_c   9.41186800
_cell_angle_alpha   90.00000000
_cell_angle_beta   90.00000000
_cell_angle_gamma   119.84501822
_symmetry_Int_Tables_number   1
_chemical_formula_structural   DyHo3(Ga3Co)6
_chemical_formula_sum   'Dy1 Ho3 Ga18 Co6'
_cell_volume   442.74842123
_cell_formula_units_Z   1
loop_
 _symmetry_equiv_pos_site_id
 _symmetry_equiv_pos_as_xyz
  1  'x, y, z'
loop_
 _atom_site_type_symbol
 _atom_site_label
 _atom_site_symmetry_multiplicity
 _atom_site_fract_x
 _atom_site_fract_y
 _atom_site_fract_z
 _atom_site_occupancy
  Dy  Dy0  1  0.668397  0.996932  0.750000  1
  Ho  Ho1  1  0.331570  0.003097  0.250000  1
  Ho  Ho2  1  0.003084  0.331610  0.250000  1
  Ho  Ho3  1  0.996940  0.668432  0.750000  1
  Ga  Ga4  1  0.333921  0.333903  0.057845  1
  Ga  Ga5  1  0.000132  0.665922  0.072004  1
  Ga  Ga6  1  0.665950  0.000148  0.072111  1
  Ga  Ga7  1  0.663948  0.449555  0.250000  1
  Ga  Ga8  1  0.449533  0.663925  0.250000  1
  Ga  Ga9  1  0.878968  0.878968  0.250000  1
  Ga  Ga10  1  0.000132  0.665922  0.427996  1
  Ga  Ga11  1  0.665950  0.000148  0.427889  1
  Ga  Ga12  1  0.333921  0.333903  0.442155  1
  Ga  Ga13  1  0.666099  0.665959  0.557692  1
  Ga  Ga14  1  0.333921  0.999896  0.571930  1
  Ga  Ga15  1  0.999994  0.334214  0.571927  1
  Ga  Ga16  1  0.121178  0.121043  0.750000  1
  Ga  Ga17  1  0.550439  0.336149  0.750000  1
  Ga  Ga18  1  0.335922  0.550319  0.750000  1
  Ga  Ga19  1  0.333921  0.999896  0.928070  1
  Ga  Ga20  1  0.999994  0.334214  0.928073  1
  Ga  Ga21  1  0.666099  0.665959  0.942308  1
  Co  Co22  1  0.000029  0.999972  0.000001  1
  Co  Co23  1  0.671067  0.328910  0.999993  1
  Co  Co24  1  0.328893  0.671057  0.999993  1
  Co  Co25  1  0.000029  0.999972  0.499999  1
  Co  Co26  1  0.671067  0.328910  0.500007  1
  Co  Co27  1  0.328893  0.671057  0.500007  1
