# generated using pymatgen
data_KCdTe4H11
_symmetry_space_group_name_H-M   'P 1'
_cell_length_a   5.91435625
_cell_length_b   8.08733606
_cell_length_c   10.66185904
_cell_angle_alpha   100.33733585
_cell_angle_beta   92.55332604
_cell_angle_gamma   64.82034896
_symmetry_Int_Tables_number   1
_chemical_formula_structural   KCdTe4H11
_chemical_formula_sum   'K1 Cd1 Te4 H11'
_cell_volume   453.73230948
_cell_formula_units_Z   1
loop_
 _symmetry_equiv_pos_site_id
 _symmetry_equiv_pos_as_xyz
  1  'x, y, z'
loop_
 _atom_site_type_symbol
 _atom_site_label
 _atom_site_symmetry_multiplicity
 _atom_site_fract_x
 _atom_site_fract_y
 _atom_site_fract_z
 _atom_site_occupancy
  K  K0  1  0.939130  0.582622  0.244783  1
  Cd  Cd1  1  0.061359  0.026843  0.485793  1
  Te  Te2  1  0.256460  0.245935  0.633681  1
  Te  Te3  1  0.882160  0.796597  0.566945  1
  Te  Te4  1  0.068447  0.011770  0.214207  1
  Te  Te5  1  0.510468  0.108694  0.219417  1
  H  H6  1  0.524637  0.551611  0.693782  1
  H  H7  1  0.422967  0.692644  0.900111  1
  H  H8  1  0.663651  0.522109  0.689987  1
  H  H9  1  0.176216  0.625126  0.552073  1
  H  H10  1  0.272424  0.126745  0.750206  1
  H  H11  1  0.606545  0.541365  0.422130  1
  H  H12  1  0.590994  0.467773  0.372515  1
  H  H13  1  0.711340  0.348550  0.940659  1
  H  H14  1  0.350709  0.746681  0.961575  1
  H  H15  1  0.789044  0.276058  0.979410  1
  H  H16  1  0.501482  0.134460  0.381097  1
