# generated using pymatgen
data_Zr9Pa8Nb3Ge16
_symmetry_space_group_name_H-M   'P 1'
_cell_length_a   7.20056801
_cell_length_b   7.32363811
_cell_length_c   14.00775500
_cell_angle_alpha   90.00000000
_cell_angle_beta   90.00000000
_cell_angle_gamma   90.01258558
_symmetry_Int_Tables_number   1
_chemical_formula_structural   Zr9Pa8Nb3Ge16
_chemical_formula_sum   'Zr9 Pa8 Nb3 Ge16'
_cell_volume   738.68989694
_cell_formula_units_Z   1
loop_
 _symmetry_equiv_pos_site_id
 _symmetry_equiv_pos_as_xyz
  1  'x, y, z'
loop_
 _atom_site_type_symbol
 _atom_site_label
 _atom_site_symmetry_multiplicity
 _atom_site_fract_x
 _atom_site_fract_y
 _atom_site_fract_z
 _atom_site_occupancy
  Zr  Zr0  1  0.846736  0.666769  0.123413  1
  Zr  Zr1  1  0.343086  0.831486  0.376686  1
  Zr  Zr2  1  0.654540  0.167819  0.874988  1
  Zr  Zr3  1  0.154308  0.332075  0.624617  1
  Zr  Zr4  1  0.154308  0.332075  0.875383  1
  Zr  Zr5  1  0.654540  0.167819  0.625012  1
  Zr  Zr6  1  0.343086  0.831486  0.123314  1
  Zr  Zr7  1  0.846736  0.666769  0.376587  1
  Zr  Zr8  1  0.674418  0.005052  0.250000  1
  Pa  Pa9  1  0.007014  0.176564  0.094966  1
  Pa  Pa10  1  0.506326  0.325835  0.405147  1
  Pa  Pa11  1  0.493047  0.675175  0.903961  1
  Pa  Pa12  1  0.993748  0.824301  0.596019  1
  Pa  Pa13  1  0.993748  0.824301  0.903981  1
  Pa  Pa14  1  0.493047  0.675175  0.596039  1
  Pa  Pa15  1  0.506326  0.325835  0.094853  1
  Pa  Pa16  1  0.007014  0.176564  0.405034  1
  Nb  Nb17  1  0.173193  0.496024  0.250000  1
  Nb  Nb18  1  0.826987  0.503602  0.750000  1
  Nb  Nb19  1  0.326762  0.996113  0.750000  1
  Ge  Ge20  1  0.809886  0.363753  0.250000  1
  Ge  Ge21  1  0.307056  0.140542  0.250000  1
  Ge  Ge22  1  0.690846  0.860592  0.750000  1
  Ge  Ge23  1  0.191019  0.638990  0.750000  1
  Ge  Ge24  1  0.045907  0.876758  0.250000  1
  Ge  Ge25  1  0.541928  0.619750  0.250000  1
  Ge  Ge26  1  0.456897  0.379010  0.750000  1
  Ge  Ge27  1  0.957308  0.120688  0.750000  1
  Ge  Ge28  1  0.816170  0.460211  0.956530  1
  Ge  Ge29  1  0.316661  0.039647  0.543354  1
  Ge  Ge30  1  0.683591  0.960056  0.041534  1
  Ge  Ge31  1  0.183670  0.539626  0.457543  1
  Ge  Ge32  1  0.183670  0.539626  0.042457  1
  Ge  Ge33  1  0.683591  0.960056  0.458466  1
  Ge  Ge34  1  0.316661  0.039647  0.956646  1
  Ge  Ge35  1  0.816170  0.460211  0.543470  1
