# generated using pymatgen
data_Hf3Ti3(Zn3N)2
_symmetry_space_group_name_H-M   'P 1'
_cell_length_a   8.33396130
_cell_length_b   8.33396091
_cell_length_c   8.33396100
_cell_angle_alpha   59.99999566
_cell_angle_beta   59.99999723
_cell_angle_gamma   59.99999200
_symmetry_Int_Tables_number   1
_chemical_formula_structural   Hf3Ti3(Zn3N)2
_chemical_formula_sum   'Hf6 Ti6 Zn12 N4'
_cell_volume   409.29774775
_cell_formula_units_Z   2
loop_
 _symmetry_equiv_pos_site_id
 _symmetry_equiv_pos_as_xyz
  1  'x, y, z'
loop_
 _atom_site_type_symbol
 _atom_site_label
 _atom_site_symmetry_multiplicity
 _atom_site_fract_x
 _atom_site_fract_y
 _atom_site_fract_z
 _atom_site_occupancy
  Hf  Hf0  1  0.438191  0.061809  0.061809  1
  Hf  Hf1  1  0.061809  0.438191  0.061809  1
  Hf  Hf2  1  0.438191  0.438191  0.061809  1
  Hf  Hf3  1  0.061809  0.438191  0.438191  1
  Hf  Hf4  1  0.438191  0.061809  0.438191  1
  Hf  Hf5  1  0.061809  0.061809  0.438191  1
  Ti  Ti6  1  0.824640  0.175360  0.175360  1
  Ti  Ti7  1  0.175360  0.824640  0.175360  1
  Ti  Ti8  1  0.824640  0.824640  0.175360  1
  Ti  Ti9  1  0.175360  0.824640  0.824640  1
  Ti  Ti10  1  0.824640  0.175360  0.824640  1
  Ti  Ti11  1  0.175360  0.175360  0.824640  1
  Zn  Zn12  1  0.418023  0.418023  0.745929  1
  Zn  Zn13  1  0.418023  0.418023  0.418023  1
  Zn  Zn14  1  0.745929  0.418023  0.418023  1
  Zn  Zn15  1  0.418023  0.745929  0.418023  1
  Zn  Zn16  1  0.835361  0.835361  0.493919  1
  Zn  Zn17  1  0.835361  0.835361  0.835361  1
  Zn  Zn18  1  0.493919  0.835361  0.835361  1
  Zn  Zn19  1  0.835361  0.493919  0.835361  1
  Zn  Zn20  1  0.625955  0.625955  0.122134  1
  Zn  Zn21  1  0.625955  0.625955  0.625955  1
  Zn  Zn22  1  0.122134  0.625955  0.625955  1
  Zn  Zn23  1  0.625955  0.122134  0.625955  1
  N  N24  1  0.122314  0.122314  0.633058  1
  N  N25  1  0.122314  0.122314  0.122314  1
  N  N26  1  0.633058  0.122314  0.122314  1
  N  N27  1  0.122314  0.633058  0.122314  1
