# generated using pymatgen
data_KBa2Tc2(P3Rh2)2
_symmetry_space_group_name_H-M   'P 1'
_cell_length_a   8.96922950
_cell_length_b   9.00779885
_cell_length_c   9.00779784
_cell_angle_alpha   154.09229070
_cell_angle_beta   90.48476642
_cell_angle_gamma   95.30586659
_symmetry_Int_Tables_number   1
_chemical_formula_structural   KBa2Tc2(P3Rh2)2
_chemical_formula_sum   'K1 Ba2 Tc2 P6 Rh4'
_cell_volume   309.51184656
_cell_formula_units_Z   1
loop_
 _symmetry_equiv_pos_site_id
 _symmetry_equiv_pos_as_xyz
  1  'x, y, z'
loop_
 _atom_site_type_symbol
 _atom_site_label
 _atom_site_symmetry_multiplicity
 _atom_site_fract_x
 _atom_site_fract_y
 _atom_site_fract_z
 _atom_site_occupancy
  K  K0  1  0.331524  0.331885  0.999640  1
  Ba  Ba1  1  0.663815  0.663250  0.000565  1
  Ba  Ba2  1  0.005766  0.005137  0.000629  1
  Tc  Tc3  1  0.582980  0.834400  0.748579  1
  Tc  Tc4  1  0.248419  0.498849  0.749569  1
  P  P5  1  0.319486  0.665322  0.654163  1
  P  P6  1  0.680562  0.334615  0.345947  1
  P  P7  1  0.989630  0.335650  0.653979  1
  P  P8  1  0.346717  0.000304  0.346413  1
  P  P9  1  0.011893  0.666557  0.345337  1
  P  P10  1  0.651102  0.997621  0.653482  1
  Rh  Rh11  1  0.753926  0.504148  0.249778  1
  Rh  Rh12  1  0.078663  0.829095  0.249568  1
  Rh  Rh13  1  0.417693  0.166611  0.251082  1
  Rh  Rh14  1  0.917823  0.166554  0.751271  1
