# generated using pymatgen
data_Pr2ZnCd4Cu17
_symmetry_space_group_name_H-M   'P 1'
_cell_length_a   5.09829400
_cell_length_b   5.09829563
_cell_length_c   16.08041000
_cell_angle_alpha   90.00000000
_cell_angle_beta   90.00000000
_cell_angle_gamma   119.99998944
_symmetry_Int_Tables_number   1
_chemical_formula_structural   Pr2ZnCd4Cu17
_chemical_formula_sum   'Pr2 Zn1 Cd4 Cu17'
_cell_volume   361.97425787
_cell_formula_units_Z   1
loop_
 _symmetry_equiv_pos_site_id
 _symmetry_equiv_pos_as_xyz
  1  'x, y, z'
loop_
 _atom_site_type_symbol
 _atom_site_label
 _atom_site_symmetry_multiplicity
 _atom_site_fract_x
 _atom_site_fract_y
 _atom_site_fract_z
 _atom_site_occupancy
  Pr  Pr0  1  0.666667  0.333333  0.251215  1
  Pr  Pr1  1  0.333333  0.666667  0.748785  1
  Zn  Zn2  1  0.000000  0.000000  0.000000  1
  Cd  Cd3  1  0.666667  0.333333  0.465394  1
  Cd  Cd4  1  0.333333  0.666667  0.963898  1
  Cd  Cd5  1  0.666667  0.333333  0.036102  1
  Cd  Cd6  1  0.333333  0.666667  0.534606  1
  Cu  Cu7  1  0.333333  0.666667  0.250782  1
  Cu  Cu8  1  0.666667  0.333333  0.749218  1
  Cu  Cu9  1  0.167717  0.832283  0.376852  1
  Cu  Cu10  1  0.167717  0.335433  0.376852  1
  Cu  Cu11  1  0.000000  0.000000  0.749727  1
  Cu  Cu12  1  0.000000  0.000000  0.250273  1
  Cu  Cu13  1  0.000000  0.000000  0.500000  1
  Cu  Cu14  1  0.168593  0.337186  0.124152  1
  Cu  Cu15  1  0.832283  0.167717  0.623148  1
  Cu  Cu16  1  0.335433  0.167717  0.623148  1
  Cu  Cu17  1  0.662814  0.831407  0.124152  1
  Cu  Cu18  1  0.168593  0.831407  0.124152  1
  Cu  Cu19  1  0.831407  0.662814  0.875848  1
  Cu  Cu20  1  0.831407  0.168593  0.875848  1
  Cu  Cu21  1  0.832283  0.664567  0.623148  1
  Cu  Cu22  1  0.337186  0.168593  0.875848  1
  Cu  Cu23  1  0.664567  0.832283  0.376852  1
