# generated using pymatgen
data_CdS27
_symmetry_space_group_name_H-M   'P 1'
_cell_length_a   14.65135438
_cell_length_b   14.65135479
_cell_length_c   14.65135617
_cell_angle_alpha   117.82374765
_cell_angle_beta   117.82374724
_cell_angle_gamma   117.82374816
_symmetry_Int_Tables_number   1
_chemical_formula_structural   CdS27
_chemical_formula_sum   'Cd1 S27'
_cell_volume   1189.54292970
_cell_formula_units_Z   1
loop_
 _symmetry_equiv_pos_site_id
 _symmetry_equiv_pos_as_xyz
  1  'x, y, z'
loop_
 _atom_site_type_symbol
 _atom_site_label
 _atom_site_symmetry_multiplicity
 _atom_site_fract_x
 _atom_site_fract_y
 _atom_site_fract_z
 _atom_site_occupancy
  Cd  Cd0  1  0.448141  0.448141  0.448141  1
  S  S1  1  0.043635  0.645450  0.645450  1
  S  S2  1  0.645450  0.645450  0.043635  1
  S  S3  1  0.645450  0.043635  0.645450  1
  S  S4  1  0.218564  0.834028  0.700128  1
  S  S5  1  0.834028  0.700128  0.218564  1
  S  S6  1  0.700128  0.218564  0.834028  1
  S  S7  1  0.834028  0.218564  0.700128  1
  S  S8  1  0.218564  0.700128  0.834028  1
  S  S9  1  0.700128  0.834028  0.218564  1
  S  S10  1  0.121494  0.654884  0.465518  1
  S  S11  1  0.654884  0.465518  0.121494  1
  S  S12  1  0.465518  0.121494  0.654884  1
  S  S13  1  0.654884  0.121494  0.465518  1
  S  S14  1  0.121494  0.465518  0.654884  1
  S  S15  1  0.465518  0.654884  0.121494  1
  S  S16  1  0.332384  0.717790  0.583883  1
  S  S17  1  0.717790  0.583883  0.332384  1
  S  S18  1  0.583883  0.332384  0.717790  1
  S  S19  1  0.717790  0.332384  0.583883  1
  S  S20  1  0.332384  0.583883  0.717790  1
  S  S21  1  0.583883  0.717790  0.332384  1
  S  S22  1  0.207630  0.481593  0.481593  1
  S  S23  1  0.481593  0.481593  0.207630  1
  S  S24  1  0.481593  0.207630  0.481593  1
  S  S25  1  0.000436  0.917914  0.917914  1
  S  S26  1  0.917914  0.917914  0.000436  1
  S  S27  1  0.917914  0.000436  0.917914  1
