# generated using pymatgen
data_SmEuReC2
_symmetry_space_group_name_H-M   'P 1'
_cell_length_a   5.36296400
_cell_length_b   6.67337200
_cell_length_c   10.33973600
_cell_angle_alpha   90.00000000
_cell_angle_beta   90.00000000
_cell_angle_gamma   90.00000000
_symmetry_Int_Tables_number   1
_chemical_formula_structural   SmEuReC2
_chemical_formula_sum   'Sm4 Eu4 Re4 C8'
_cell_volume   370.04936793
_cell_formula_units_Z   4
loop_
 _symmetry_equiv_pos_site_id
 _symmetry_equiv_pos_as_xyz
  1  'x, y, z'
loop_
 _atom_site_type_symbol
 _atom_site_label
 _atom_site_symmetry_multiplicity
 _atom_site_fract_x
 _atom_site_fract_y
 _atom_site_fract_z
 _atom_site_occupancy
  Sm  Sm0  1  0.750000  0.811896  0.050827  1
  Sm  Sm1  1  0.250000  0.188104  0.949173  1
  Sm  Sm2  1  0.750000  0.311896  0.449173  1
  Sm  Sm3  1  0.250000  0.688104  0.550827  1
  Eu  Eu4  1  0.750000  0.465224  0.779298  1
  Eu  Eu5  1  0.250000  0.034776  0.279298  1
  Eu  Eu6  1  0.750000  0.965224  0.720702  1
  Eu  Eu7  1  0.250000  0.534776  0.220702  1
  Re  Re8  1  0.750000  0.769966  0.355430  1
  Re  Re9  1  0.250000  0.730034  0.855430  1
  Re  Re10  1  0.250000  0.230034  0.644570  1
  Re  Re11  1  0.750000  0.269966  0.144570  1
  C  C12  1  0.250000  0.964438  0.740777  1
  C  C13  1  0.750000  0.535562  0.240777  1
  C  C14  1  0.250000  0.464438  0.759223  1
  C  C15  1  0.750000  0.035562  0.259223  1
  C  C16  1  0.250000  0.312575  0.467856  1
  C  C17  1  0.750000  0.187425  0.967856  1
  C  C18  1  0.250000  0.812575  0.032144  1
  C  C19  1  0.750000  0.687425  0.532144  1
