# generated using pymatgen
data_PrY2Ga8Ag3
_symmetry_space_group_name_H-M   'P 1'
_cell_length_a   4.36702122
_cell_length_b   8.45091862
_cell_length_c   8.45091898
_cell_angle_alpha   68.97024629
_cell_angle_beta   75.02630615
_cell_angle_gamma   75.02631156
_symmetry_Int_Tables_number   1
_chemical_formula_structural   PrY2Ga8Ag3
_chemical_formula_sum   'Pr1 Y2 Ga8 Ag3'
_cell_volume   276.43932661
_cell_formula_units_Z   1
loop_
 _symmetry_equiv_pos_site_id
 _symmetry_equiv_pos_as_xyz
  1  'x, y, z'
loop_
 _atom_site_type_symbol
 _atom_site_label
 _atom_site_symmetry_multiplicity
 _atom_site_fract_x
 _atom_site_fract_y
 _atom_site_fract_z
 _atom_site_occupancy
  Pr  Pr0  1  0.000000  0.000000  0.000000  1
  Y  Y1  1  0.301147  0.698853  0.698853  1
  Y  Y2  1  0.698853  0.301147  0.301147  1
  Ga  Ga3  1  0.338825  0.293780  0.028569  1
  Ga  Ga4  1  0.661175  0.706220  0.971431  1
  Ga  Ga5  1  0.338825  0.028569  0.293780  1
  Ga  Ga6  1  0.661175  0.971431  0.706220  1
  Ga  Ga7  1  0.145082  0.571619  0.138217  1
  Ga  Ga8  1  0.854918  0.428381  0.861783  1
  Ga  Ga9  1  0.145082  0.138217  0.571619  1
  Ga  Ga10  1  0.854918  0.861783  0.428381  1
  Ag  Ag11  1  0.500000  0.303969  0.696031  1
  Ag  Ag12  1  0.500000  0.696031  0.303969  1
  Ag  Ag13  1  0.000000  0.500000  0.500000  1
