# generated using pymatgen
data_Tm3Lu7(GaSb2)2
_symmetry_space_group_name_H-M   'P 1'
_cell_length_a   8.66319846
_cell_length_b   8.67945185
_cell_length_c   6.28095300
_cell_angle_alpha   90.00000000
_cell_angle_beta   90.00000000
_cell_angle_gamma   119.97522890
_symmetry_Int_Tables_number   1
_chemical_formula_structural   Tm3Lu7(GaSb2)2
_chemical_formula_sum   'Tm3 Lu7 Ga2 Sb4'
_cell_volume   409.10528209
_cell_formula_units_Z   1
loop_
 _symmetry_equiv_pos_site_id
 _symmetry_equiv_pos_as_xyz
  1  'x, y, z'
loop_
 _atom_site_type_symbol
 _atom_site_label
 _atom_site_symmetry_multiplicity
 _atom_site_fract_x
 _atom_site_fract_y
 _atom_site_fract_z
 _atom_site_occupancy
  Tm  Tm0  1  0.755088  0.768921  0.250000  1
  Tm  Tm1  1  0.244925  0.231243  0.750000  1
  Tm  Tm2  1  0.013843  0.768639  0.750000  1
  Lu  Lu3  1  0.342947  0.685874  0.000028  1
  Lu  Lu4  1  0.657157  0.314137  0.499950  1
  Lu  Lu5  1  0.657157  0.314137  0.000050  1
  Lu  Lu6  1  0.342947  0.685874  0.499972  1
  Lu  Lu7  1  0.244874  0.000021  0.250000  1
  Lu  Lu8  1  0.755171  0.000104  0.750000  1
  Lu  Lu9  1  0.985895  0.230956  0.250000  1
  Ga  Ga10  1  0.603348  0.000282  0.250000  1
  Ga  Ga11  1  0.397082  0.999995  0.750000  1
  Sb  Sb12  1  0.993860  0.605450  0.250000  1
  Sb  Sb13  1  0.387738  0.394249  0.250000  1
  Sb  Sb14  1  0.611820  0.605660  0.750000  1
  Sb  Sb15  1  0.006147  0.394458  0.750000  1
