# generated using pymatgen
data_Tb8Tc3RuC8
_symmetry_space_group_name_H-M   'P 1'
_cell_length_a   5.13929200
_cell_length_b   6.57425690
_cell_length_c   9.89798632
_cell_angle_alpha   90.11853296
_cell_angle_beta   90.00000000
_cell_angle_gamma   90.00000000
_symmetry_Int_Tables_number   1
_chemical_formula_structural   Tb8Tc3RuC8
_chemical_formula_sum   'Tb8 Tc3 Ru1 C8'
_cell_volume   334.42280426
_cell_formula_units_Z   1
loop_
 _symmetry_equiv_pos_site_id
 _symmetry_equiv_pos_as_xyz
  1  'x, y, z'
loop_
 _atom_site_type_symbol
 _atom_site_label
 _atom_site_symmetry_multiplicity
 _atom_site_fract_x
 _atom_site_fract_y
 _atom_site_fract_z
 _atom_site_occupancy
  Tb  Tb0  1  0.750000  0.820167  0.056103  1
  Tb  Tb1  1  0.250000  0.679803  0.556303  1
  Tb  Tb2  1  0.750000  0.320462  0.443891  1
  Tb  Tb3  1  0.250000  0.176475  0.944916  1
  Tb  Tb4  1  0.750000  0.469984  0.786989  1
  Tb  Tb5  1  0.250000  0.029583  0.283638  1
  Tb  Tb6  1  0.750000  0.968260  0.714698  1
  Tb  Tb7  1  0.250000  0.530365  0.214847  1
  Tc  Tc8  1  0.750000  0.278391  0.135089  1
  Tc  Tc9  1  0.250000  0.221045  0.636182  1
  Tc  Tc10  1  0.750000  0.778761  0.365002  1
  Ru  Ru11  1  0.250000  0.721166  0.864163  1
  C  C12  1  0.750000  0.180205  0.950909  1
  C  C13  1  0.250000  0.823061  0.047443  1
  C  C14  1  0.750000  0.680147  0.548457  1
  C  C15  1  0.250000  0.321141  0.453009  1
  C  C16  1  0.750000  0.045329  0.258410  1
  C  C17  1  0.250000  0.454928  0.757124  1
  C  C18  1  0.750000  0.545121  0.241347  1
  C  C19  1  0.250000  0.955610  0.741479  1
