# generated using pymatgen
data_DyHo3Al16(GeIr3)2
_symmetry_space_group_name_H-M   'P 1'
_cell_length_a   7.55193812
_cell_length_b   7.55188905
_cell_length_c   9.43188800
_cell_angle_alpha   90.00000000
_cell_angle_beta   90.00000000
_cell_angle_gamma   119.73441143
_symmetry_Int_Tables_number   1
_chemical_formula_structural   DyHo3Al16(GeIr3)2
_chemical_formula_sum   'Dy1 Ho3 Al16 Ge2 Ir6'
_cell_volume   467.08869825
_cell_formula_units_Z   1
loop_
 _symmetry_equiv_pos_site_id
 _symmetry_equiv_pos_as_xyz
  1  'x, y, z'
loop_
 _atom_site_type_symbol
 _atom_site_label
 _atom_site_symmetry_multiplicity
 _atom_site_fract_x
 _atom_site_fract_y
 _atom_site_fract_z
 _atom_site_occupancy
  Dy  Dy0  1  0.324546  0.004563  0.250000  1
  Ho  Ho1  1  0.995456  0.675498  0.750000  1
  Ho  Ho2  1  0.004534  0.324517  0.250000  1
  Ho  Ho3  1  0.675511  0.995463  0.750000  1
  Al  Al4  1  0.000397  0.337283  0.574048  1
  Al  Al5  1  0.999503  0.662610  0.426014  1
  Al  Al6  1  0.999503  0.662610  0.073986  1
  Al  Al7  1  0.337286  0.000398  0.925864  1
  Al  Al8  1  0.000397  0.337283  0.925952  1
  Al  Al9  1  0.662811  0.999595  0.073995  1
  Al  Al10  1  0.662811  0.999595  0.426005  1
  Al  Al11  1  0.337286  0.000398  0.574136  1
  Al  Al12  1  0.335568  0.335663  0.058765  1
  Al  Al13  1  0.664435  0.664438  0.941152  1
  Al  Al14  1  0.664435  0.664438  0.558848  1
  Al  Al15  1  0.335568  0.335663  0.441235  1
  Al  Al16  1  0.335954  0.552768  0.750000  1
  Al  Al17  1  0.664142  0.447356  0.250000  1
  Al  Al18  1  0.552773  0.335967  0.750000  1
  Al  Al19  1  0.447269  0.663983  0.250000  1
  Ge  Ge20  1  0.134030  0.134043  0.750000  1
  Ge  Ge21  1  0.865864  0.865921  0.250000  1
  Ir  Ir22  1  0.671145  0.328936  0.500049  1
  Ir  Ir23  1  0.328892  0.671051  0.500047  1
  Ir  Ir24  1  0.328892  0.671051  0.999953  1
  Ir  Ir25  1  0.671145  0.328936  0.999951  1
  Ir  Ir26  1  0.999924  0.999987  0.500061  1
  Ir  Ir27  1  0.999924  0.999987  0.999939  1
