# generated using pymatgen
data_TbY2Ho5(ReB6)4
_symmetry_space_group_name_H-M   'P 1'
_cell_length_a   3.67827000
_cell_length_b   9.16354101
_cell_length_c   11.54721400
_cell_angle_alpha   89.99949964
_cell_angle_beta   90.00000000
_cell_angle_gamma   90.00000000
_symmetry_Int_Tables_number   1
_chemical_formula_structural   TbY2Ho5(ReB6)4
_chemical_formula_sum   'Tb1 Y2 Ho5 Re4 B24'
_cell_volume   389.21014090
_cell_formula_units_Z   1
loop_
 _symmetry_equiv_pos_site_id
 _symmetry_equiv_pos_as_xyz
  1  'x, y, z'
loop_
 _atom_site_type_symbol
 _atom_site_label
 _atom_site_symmetry_multiplicity
 _atom_site_fract_x
 _atom_site_fract_y
 _atom_site_fract_z
 _atom_site_occupancy
  Tb  Tb0  1  0.000000  0.323209  0.413983  1
  Y  Y1  1  0.000000  0.676763  0.586108  1
  Y  Y2  1  0.000000  0.823209  0.085879  1
  Ho  Ho3  1  0.000000  0.176506  0.913981  1
  Ho  Ho4  1  0.000000  0.942959  0.369945  1
  Ho  Ho5  1  0.000000  0.057104  0.630076  1
  Ho  Ho6  1  0.000000  0.442882  0.129748  1
  Ho  Ho7  1  0.000000  0.557066  0.870157  1
  Re  Re8  1  0.000000  0.638805  0.320574  1
  Re  Re9  1  0.000000  0.361038  0.679743  1
  Re  Re10  1  0.000000  0.138689  0.179022  1
  Re  Re11  1  0.000000  0.861533  0.820753  1
  B  B12  1  0.500000  0.553334  0.432640  1
  B  B13  1  0.500000  0.446482  0.567573  1
  B  B14  1  0.500000  0.053581  0.066912  1
  B  B15  1  0.500000  0.947083  0.932680  1
  B  B16  1  0.500000  0.749227  0.418179  1
  B  B17  1  0.500000  0.250850  0.582151  1
  B  B18  1  0.500000  0.249126  0.081260  1
  B  B19  1  0.500000  0.751008  0.918182  1
  B  B20  1  0.500000  0.791906  0.265448  1
  B  B21  1  0.500000  0.207962  0.734928  1
  B  B22  1  0.500000  0.291772  0.234160  1
  B  B23  1  0.500000  0.708232  0.765642  1
  B  B24  1  0.500000  0.630447  0.185514  1
  B  B25  1  0.500000  0.369159  0.814803  1
  B  B26  1  0.500000  0.130504  0.314178  1
  B  B27  1  0.500000  0.869684  0.685762  1
  B  B28  1  0.500000  0.982301  0.211893  1
  B  B29  1  0.500000  0.018197  0.788165  1
  B  B30  1  0.500000  0.482246  0.287779  1
  B  B31  1  0.500000  0.517673  0.712312  1
  B  B32  1  0.500000  0.599463  0.027797  1
  B  B33  1  0.500000  0.400014  0.972035  1
  B  B34  1  0.500000  0.099281  0.472234  1
  B  B35  1  0.500000  0.900706  0.527802  1
