# generated using pymatgen
data_Tm2Nb4C5
_symmetry_space_group_name_H-M   'P 1'
_cell_length_a   5.69860282
_cell_length_b   5.69860318
_cell_length_c   5.59994313
_cell_angle_alpha   81.63087389
_cell_angle_beta   81.63086731
_cell_angle_gamma   121.20688955
_symmetry_Int_Tables_number   1
_chemical_formula_structural   Tm2Nb4C5
_chemical_formula_sum   'Tm2 Nb4 C5'
_cell_volume   148.54382018
_cell_formula_units_Z   1
loop_
 _symmetry_equiv_pos_site_id
 _symmetry_equiv_pos_as_xyz
  1  'x, y, z'
loop_
 _atom_site_type_symbol
 _atom_site_label
 _atom_site_symmetry_multiplicity
 _atom_site_fract_x
 _atom_site_fract_y
 _atom_site_fract_z
 _atom_site_occupancy
  Tm  Tm0  1  0.758576  0.758576  0.755310  1
  Tm  Tm1  1  0.241424  0.241424  0.244690  1
  Nb  Nb2  1  0.099791  0.451682  0.741255  1
  Nb  Nb3  1  0.548318  0.900209  0.258745  1
  Nb  Nb4  1  0.900209  0.548318  0.258745  1
  Nb  Nb5  1  0.451682  0.099791  0.741255  1
  C  C6  1  0.500000  0.500000  0.500000  1
  C  C7  1  0.677743  0.322257  0.000000  1
  C  C8  1  0.322257  0.677743  0.000000  1
  C  C9  1  0.822021  0.177979  0.500000  1
  C  C10  1  0.177979  0.822021  0.500000  1
