# generated using pymatgen
data_PaNbPd5Pt
_symmetry_space_group_name_H-M   'P 1'
_cell_length_a   5.66002885
_cell_length_b   5.66002768
_cell_length_c   4.87606100
_cell_angle_alpha   90.00000000
_cell_angle_beta   90.00000000
_cell_angle_gamma   120.22012094
_symmetry_Int_Tables_number   1
_chemical_formula_structural   PaNbPd5Pt
_chemical_formula_sum   'Pa1 Nb1 Pd5 Pt1'
_cell_volume   134.97998637
_cell_formula_units_Z   1
loop_
 _symmetry_equiv_pos_site_id
 _symmetry_equiv_pos_as_xyz
  1  'x, y, z'
loop_
 _atom_site_type_symbol
 _atom_site_label
 _atom_site_symmetry_multiplicity
 _atom_site_fract_x
 _atom_site_fract_y
 _atom_site_fract_z
 _atom_site_occupancy
  Pa  Pa0  1  0.668475  0.331525  0.250000  1
  Nb  Nb1  1  0.332356  0.667644  0.750000  1
  Pd  Pd2  1  0.326311  0.164599  0.750000  1
  Pd  Pd3  1  0.835401  0.673689  0.750000  1
  Pd  Pd4  1  0.169777  0.830223  0.250000  1
  Pd  Pd5  1  0.661338  0.827835  0.250000  1
  Pd  Pd6  1  0.172165  0.338662  0.250000  1
  Pt  Pt7  1  0.834178  0.165822  0.750000  1
