# generated using pymatgen
data_Ho5Co18Re(SiP5)2
_symmetry_space_group_name_H-M   'P 1'
_cell_length_a   12.05603323
_cell_length_b   12.05655335
_cell_length_c   3.70296100
_cell_angle_alpha   90.00000000
_cell_angle_beta   90.00000000
_cell_angle_gamma   119.73323351
_symmetry_Int_Tables_number   1
_chemical_formula_structural   Ho5Co18Re(SiP5)2
_chemical_formula_sum   'Ho5 Co18 Re1 Si2 P10'
_cell_volume   467.37830261
_cell_formula_units_Z   1
loop_
 _symmetry_equiv_pos_site_id
 _symmetry_equiv_pos_as_xyz
  1  'x, y, z'
loop_
 _atom_site_type_symbol
 _atom_site_label
 _atom_site_symmetry_multiplicity
 _atom_site_fract_x
 _atom_site_fract_y
 _atom_site_fract_z
 _atom_site_occupancy
  Ho  Ho0  1  0.664042  0.334486  0.000000  1
  Ho  Ho1  1  0.334789  0.666494  0.000000  1
  Ho  Ho2  1  0.815755  0.814760  0.500000  1
  Ho  Ho3  1  0.186915  0.000452  0.500000  1
  Ho  Ho4  1  0.999760  0.186686  0.500000  1
  Co  Co5  1  0.880161  0.355796  0.500000  1
  Co  Co6  1  0.640776  0.518295  0.500000  1
  Co  Co7  1  0.477332  0.125662  0.500000  1
  Co  Co8  1  0.358771  0.875833  0.500000  1
  Co  Co9  1  0.516603  0.642691  0.500000  1
  Co  Co10  1  0.129053  0.485845  0.500000  1
  Co  Co11  1  0.554905  0.003697  0.000000  1
  Co  Co12  1  0.997481  0.552278  0.000000  1
  Co  Co13  1  0.804380  0.177725  0.000000  1
  Co  Co14  1  0.822771  0.627030  0.000000  1
  Co  Co15  1  0.372567  0.196553  0.000000  1
  Co  Co16  1  0.179548  0.800218  0.000000  1
  Co  Co17  1  0.621313  0.821441  0.000000  1
  Co  Co18  1  0.196601  0.374785  0.000000  1
  Co  Co19  1  0.280663  0.281242  0.500000  1
  Co  Co20  1  0.715588  0.995370  0.500000  1
  Co  Co21  1  0.004827  0.720434  0.500000  1
  Co  Co22  1  0.997677  0.997715  0.000000  1
  Re  Re23  1  0.444718  0.445508  0.000000  1
  Si  Si24  1  0.682870  0.162449  0.500000  1
  Si  Si25  1  0.839655  0.521260  0.500000  1
  P  P26  1  0.478629  0.314372  0.500000  1
  P  P27  1  0.167237  0.686714  0.500000  1
  P  P28  1  0.520243  0.835258  0.500000  1
  P  P29  1  0.313682  0.479219  0.500000  1
  P  P30  1  0.176642  0.177525  0.000000  1
  P  P31  1  0.817850  0.999157  0.000000  1
  P  P32  1  0.001297  0.818799  0.000000  1
  P  P33  1  0.637466  0.637030  0.000000  1
  P  P34  1  0.368282  0.999143  0.000000  1
  P  P35  1  0.999149  0.368075  0.000000  1
