# generated using pymatgen
data_DySn6Ru3Rh
_symmetry_space_group_name_H-M   'P 1'
_cell_length_a   6.97895233
_cell_length_b   6.96193901
_cell_length_c   6.95582502
_cell_angle_alpha   120.27834023
_cell_angle_beta   120.35889894
_cell_angle_gamma   89.57037301
_symmetry_Int_Tables_number   1
_chemical_formula_structural   DySn6Ru3Rh
_chemical_formula_sum   'Dy1 Sn6 Ru3 Rh1'
_cell_volume   237.56230904
_cell_formula_units_Z   1
loop_
 _symmetry_equiv_pos_site_id
 _symmetry_equiv_pos_as_xyz
  1  'x, y, z'
loop_
 _atom_site_type_symbol
 _atom_site_label
 _atom_site_symmetry_multiplicity
 _atom_site_fract_x
 _atom_site_fract_y
 _atom_site_fract_z
 _atom_site_occupancy
  Dy  Dy0  1  0.996783  0.004038  0.000000  1
  Sn  Sn1  1  0.877226  0.534053  0.000000  1
  Sn  Sn2  1  0.536647  0.879472  0.000000  1
  Sn  Sn3  1  0.121048  0.114834  0.649476  1
  Sn  Sn4  1  0.002433  0.501070  0.497710  1
  Sn  Sn5  1  0.471572  0.465359  0.350524  1
  Sn  Sn6  1  0.504723  0.003359  0.502290  1
  Ru  Ru7  1  0.400530  0.402027  0.651775  1
  Ru  Ru8  1  0.597056  0.247280  0.000000  1
  Ru  Ru9  1  0.748754  0.750252  0.348225  1
  Rh  Rh10  1  0.243228  0.598257  0.000000  1
