# generated using pymatgen
data_SrLa9(Sn3H)2
_symmetry_space_group_name_H-M   'P 1'
_cell_length_a   9.47276440
_cell_length_b   9.46794175
_cell_length_c   9.46726241
_cell_angle_alpha   126.19361847
_cell_angle_beta   126.19953628
_cell_angle_gamma   79.54931367
_symmetry_Int_Tables_number   1
_chemical_formula_structural   SrLa9(Sn3H)2
_chemical_formula_sum   'Sr1 La9 Sn6 H2'
_cell_volume   534.39346580
_cell_formula_units_Z   1
loop_
 _symmetry_equiv_pos_site_id
 _symmetry_equiv_pos_as_xyz
  1  'x, y, z'
loop_
 _atom_site_type_symbol
 _atom_site_label
 _atom_site_symmetry_multiplicity
 _atom_site_fract_x
 _atom_site_fract_y
 _atom_site_fract_z
 _atom_site_occupancy
  Sr  Sr0  1  0.500000  0.500000  0.000000  1
  La  La1  1  0.000000  0.000000  0.000000  1
  La  La2  1  0.513240  0.014329  0.833322  1
  La  La3  1  0.180965  0.680076  0.166695  1
  La  La4  1  0.014277  0.180867  0.500956  1
  La  La5  1  0.680056  0.513296  0.498950  1
  La  La6  1  0.486760  0.985671  0.166678  1
  La  La7  1  0.819035  0.319924  0.833305  1
  La  La8  1  0.985723  0.819133  0.499044  1
  La  La9  1  0.319944  0.486704  0.501050  1
  Sn  Sn10  1  0.247234  0.247575  0.000678  1
  Sn  Sn11  1  0.752766  0.752425  0.999322  1
  Sn  Sn12  1  0.875512  0.367822  0.243303  1
  Sn  Sn13  1  0.124488  0.632178  0.756697  1
  Sn  Sn14  1  0.367812  0.124513  0.492308  1
  Sn  Sn15  1  0.632188  0.875487  0.507692  1
  H  H16  1  0.249994  0.749998  0.499989  1
  H  H17  1  0.750006  0.250002  0.500011  1
