# generated using pymatgen
data_Bi4OsRh3O14
_symmetry_space_group_name_H-M   'P 1'
_cell_length_a   7.37107356
_cell_length_b   7.37107350
_cell_length_c   7.37107401
_cell_angle_alpha   60.06901106
_cell_angle_beta   60.06901537
_cell_angle_gamma   60.06901219
_symmetry_Int_Tables_number   1
_chemical_formula_structural   Bi4OsRh3O14
_chemical_formula_sum   'Bi4 Os1 Rh3 O14'
_cell_volume   283.63248625
_cell_formula_units_Z   1
loop_
 _symmetry_equiv_pos_site_id
 _symmetry_equiv_pos_as_xyz
  1  'x, y, z'
loop_
 _atom_site_type_symbol
 _atom_site_label
 _atom_site_symmetry_multiplicity
 _atom_site_fract_x
 _atom_site_fract_y
 _atom_site_fract_z
 _atom_site_occupancy
  Bi  Bi0  1  0.125000  0.625000  0.125000  1
  Bi  Bi1  1  0.125000  0.125000  0.625000  1
  Bi  Bi2  1  0.625000  0.125000  0.125000  1
  Bi  Bi3  1  0.125000  0.125000  0.125000  1
  Os  Os4  1  0.625000  0.625000  0.625000  1
  Rh  Rh5  1  0.625000  0.625000  0.125000  1
  Rh  Rh6  1  0.625000  0.125000  0.625000  1
  Rh  Rh7  1  0.125000  0.625000  0.625000  1
  O  O8  1  0.303624  0.701989  0.701989  1
  O  O9  1  0.290332  0.705161  0.290332  1
  O  O10  1  0.548011  0.946376  0.548011  1
  O  O11  1  0.290332  0.290332  0.705161  1
  O  O12  1  0.251194  0.251194  0.251194  1
  O  O13  1  0.701989  0.701989  0.303624  1
  O  O14  1  0.959668  0.959668  0.544839  1
  O  O15  1  0.705161  0.290332  0.290332  1
  O  O16  1  0.946376  0.548011  0.548011  1
  O  O17  1  0.998806  0.998806  0.998806  1
  O  O18  1  0.544839  0.959668  0.959668  1
  O  O19  1  0.959668  0.544839  0.959668  1
  O  O20  1  0.701989  0.303624  0.701989  1
  O  O21  1  0.548011  0.548011  0.946376  1
