# generated using pymatgen
data_Dy4Fe12Ni5(P4W)3
_symmetry_space_group_name_H-M   'P 1'
_cell_length_a   3.70900200
_cell_length_b   10.29865508
_cell_length_c   12.04478691
_cell_angle_alpha   90.58798614
_cell_angle_beta   90.00000000
_cell_angle_gamma   90.00000000
_symmetry_Int_Tables_number   1
_chemical_formula_structural   Dy4Fe12Ni5(P4W)3
_chemical_formula_sum   'Dy4 Fe12 Ni5 P12 W3'
_cell_volume   460.05931970
_cell_formula_units_Z   1
loop_
 _symmetry_equiv_pos_site_id
 _symmetry_equiv_pos_as_xyz
  1  'x, y, z'
loop_
 _atom_site_type_symbol
 _atom_site_label
 _atom_site_symmetry_multiplicity
 _atom_site_fract_x
 _atom_site_fract_y
 _atom_site_fract_z
 _atom_site_occupancy
  Dy  Dy0  1  0.250000  0.580541  0.706584  1
  Dy  Dy1  1  0.250000  0.917354  0.209167  1
  Dy  Dy2  1  0.750000  0.418957  0.290669  1
  Dy  Dy3  1  0.750000  0.078896  0.794179  1
  Fe  Fe4  1  0.250000  0.217606  0.171269  1
  Fe  Fe5  1  0.250000  0.276684  0.669608  1
  Fe  Fe6  1  0.750000  0.780846  0.828065  1
  Fe  Fe7  1  0.750000  0.721107  0.329237  1
  Fe  Fe8  1  0.250000  0.879446  0.698779  1
  Fe  Fe9  1  0.250000  0.617220  0.198060  1
  Fe  Fe10  1  0.750000  0.121107  0.305040  1
  Fe  Fe11  1  0.750000  0.379521  0.797477  1
  Fe  Fe12  1  0.250000  0.462862  0.933554  1
  Fe  Fe13  1  0.250000  0.041783  0.437584  1
  Fe  Fe14  1  0.750000  0.535497  0.062797  1
  Fe  Fe15  1  0.750000  0.968499  0.565982  1
  Ni  Ni16  1  0.750000  0.206928  0.513501  1
  Ni  Ni17  1  0.250000  0.407446  0.484462  1
  Ni  Ni18  1  0.250000  0.091186  0.985267  1
  Ni  Ni19  1  0.750000  0.594505  0.515168  1
  Ni  Ni20  1  0.750000  0.907955  0.016935  1
  P  P21  1  0.250000  0.421367  0.113047  1
  P  P22  1  0.250000  0.074055  0.616112  1
  P  P23  1  0.750000  0.577017  0.884234  1
  P  P24  1  0.750000  0.926450  0.387689  1
  P  P25  1  0.250000  0.272317  0.854484  1
  P  P26  1  0.250000  0.230217  0.356797  1
  P  P27  1  0.750000  0.725896  0.144044  1
  P  P28  1  0.750000  0.776004  0.642892  1
  P  P29  1  0.250000  0.599751  0.383710  1
  P  P30  1  0.250000  0.898680  0.884754  1
  P  P31  1  0.750000  0.395091  0.610699  1
  P  P32  1  0.750000  0.101132  0.118556  1
  W  W33  1  0.250000  0.702429  0.992066  1
  W  W34  1  0.250000  0.797814  0.490137  1
  W  W35  1  0.750000  0.295837  0.007395  1
