# generated using pymatgen
data_Ba5CaSn8AsI
_symmetry_space_group_name_H-M   'P 1'
_cell_length_a   9.18467815
_cell_length_b   9.18465008
_cell_length_c   9.24216834
_cell_angle_alpha   119.79536161
_cell_angle_beta   119.79431507
_cell_angle_gamma   90.00004590
_symmetry_Int_Tables_number   1
_chemical_formula_structural   Ba5CaSn8AsI
_chemical_formula_sum   'Ba5 Ca1 Sn8 As1 I1'
_cell_volume   554.69810571
_cell_formula_units_Z   1
loop_
 _symmetry_equiv_pos_site_id
 _symmetry_equiv_pos_as_xyz
  1  'x, y, z'
loop_
 _atom_site_type_symbol
 _atom_site_label
 _atom_site_symmetry_multiplicity
 _atom_site_fract_x
 _atom_site_fract_y
 _atom_site_fract_z
 _atom_site_occupancy
  Ba  Ba0  1  0.735262  0.735263  0.470523  1
  Ba  Ba1  1  0.649009  0.176184  0.998056  1
  Ba  Ba2  1  0.349045  0.821876  0.998058  1
  Ba  Ba3  1  0.821873  0.649009  0.998051  1
  Ba  Ba4  1  0.176186  0.349052  0.998061  1
  Ca  Ca5  1  0.268664  0.268669  0.537340  1
  Sn  Sn6  1  0.331989  0.838561  0.386773  1
  Sn  Sn7  1  0.661995  0.165111  0.612444  1
  Sn  Sn8  1  0.054771  0.548191  0.386744  1
  Sn  Sn9  1  0.548210  0.331989  0.386772  1
  Sn  Sn10  1  0.165105  0.950448  0.612439  1
  Sn  Sn11  1  0.950449  0.447329  0.612437  1
  Sn  Sn12  1  0.447332  0.661994  0.612444  1
  Sn  Sn13  1  0.838564  0.054775  0.386762  1
  As  As14  1  0.487803  0.487803  0.975605  1
  I  I15  1  0.013745  0.013746  0.027488  1
