# generated using pymatgen
data_Pa4MnSn2Rh3
_symmetry_space_group_name_H-M   'P 1'
_cell_length_a   7.60311665
_cell_length_b   7.60311665
_cell_length_c   3.58892800
_cell_angle_alpha   90.00000000
_cell_angle_beta   90.00000000
_cell_angle_gamma   90.65616320
_symmetry_Int_Tables_number   1
_chemical_formula_structural   Pa4MnSn2Rh3
_chemical_formula_sum   'Pa4 Mn1 Sn2 Rh3'
_cell_volume   207.45292972
_cell_formula_units_Z   1
loop_
 _symmetry_equiv_pos_site_id
 _symmetry_equiv_pos_as_xyz
  1  'x, y, z'
loop_
 _atom_site_type_symbol
 _atom_site_label
 _atom_site_symmetry_multiplicity
 _atom_site_fract_x
 _atom_site_fract_y
 _atom_site_fract_z
 _atom_site_occupancy
  Pa  Pa0  1  0.341534  0.170780  0.500000  1
  Pa  Pa1  1  0.670780  0.841534  0.500000  1
  Pa  Pa2  1  0.164899  0.664899  0.500000  1
  Pa  Pa3  1  0.812082  0.312082  0.500000  1
  Mn  Mn4  1  0.642790  0.142790  0.000000  1
  Sn  Sn5  1  0.999873  0.000726  0.000000  1
  Sn  Sn6  1  0.500726  0.499873  0.000000  1
  Rh  Rh7  1  0.866043  0.632861  0.000000  1
  Rh  Rh8  1  0.368410  0.868410  0.000000  1
  Rh  Rh9  1  0.132861  0.366043  0.000000  1
