# generated using pymatgen
data_Li4Tb7Y(ScSi2)8
_symmetry_space_group_name_H-M   'P 1'
_cell_length_a   6.91493507
_cell_length_b   7.41849820
_cell_length_c   14.10261226
_cell_angle_alpha   89.97877248
_cell_angle_beta   89.99387237
_cell_angle_gamma   90.01567758
_symmetry_Int_Tables_number   1
_chemical_formula_structural   Li4Tb7Y(ScSi2)8
_chemical_formula_sum   'Li4 Tb7 Y1 Sc8 Si16'
_cell_volume   723.44183476
_cell_formula_units_Z   1
loop_
 _symmetry_equiv_pos_site_id
 _symmetry_equiv_pos_as_xyz
  1  'x, y, z'
loop_
 _atom_site_type_symbol
 _atom_site_label
 _atom_site_symmetry_multiplicity
 _atom_site_fract_x
 _atom_site_fract_y
 _atom_site_fract_z
 _atom_site_occupancy
  Li  Li0  1  0.159096  0.504452  0.750000  1
  Li  Li1  1  0.840926  0.495496  0.249979  1
  Li  Li2  1  0.340856  0.004499  0.249974  1
  Li  Li3  1  0.659103  0.995542  0.749998  1
  Tb  Tb4  1  0.985951  0.818513  0.900464  1
  Tb  Tb5  1  0.485931  0.681490  0.900440  1
  Tb  Tb6  1  0.985992  0.818489  0.599565  1
  Tb  Tb7  1  0.514007  0.318436  0.099600  1
  Tb  Tb8  1  0.014087  0.181558  0.400472  1
  Tb  Tb9  1  0.514034  0.318462  0.400416  1
  Tb  Tb10  1  0.485955  0.681533  0.599573  1
  Y  Y11  1  0.014034  0.181551  0.099588  1
  Sc  Sc12  1  0.330376  0.179430  0.626314  1
  Sc  Sc13  1  0.669624  0.820574  0.373653  1
  Sc  Sc14  1  0.169614  0.679435  0.373661  1
  Sc  Sc15  1  0.669685  0.820613  0.126340  1
  Sc  Sc16  1  0.830382  0.320574  0.626302  1
  Sc  Sc17  1  0.330330  0.179434  0.873687  1
  Sc  Sc18  1  0.830412  0.320567  0.873699  1
  Sc  Sc19  1  0.169588  0.679490  0.126350  1
  Si  Si20  1  0.032140  0.105712  0.750019  1
  Si  Si21  1  0.967881  0.894347  0.249927  1
  Si  Si22  1  0.467828  0.605686  0.249962  1
  Si  Si23  1  0.532158  0.394245  0.750006  1
  Si  Si24  1  0.282230  0.883409  0.750005  1
  Si  Si25  1  0.717900  0.116764  0.249900  1
  Si  Si26  1  0.217753  0.383356  0.250007  1
  Si  Si27  1  0.782194  0.616616  0.750011  1
  Si  Si28  1  0.157481  0.462961  0.535198  1
  Si  Si29  1  0.842506  0.537045  0.464777  1
  Si  Si30  1  0.342505  0.962913  0.464786  1
  Si  Si31  1  0.842505  0.536945  0.035255  1
  Si  Si32  1  0.657491  0.037043  0.535194  1
  Si  Si33  1  0.157464  0.462785  0.964832  1
  Si  Si34  1  0.657601  0.037050  0.964783  1
  Si  Si35  1  0.342379  0.962985  0.035262  1
