# generated using pymatgen
data_Nb3AlPtC
_symmetry_space_group_name_H-M   'P 1'
_cell_length_a   7.11117500
_cell_length_b   7.11117500
_cell_length_c   7.11117500
_cell_angle_alpha   90.00000000
_cell_angle_beta   90.00000000
_cell_angle_gamma   90.00000000
_symmetry_Int_Tables_number   1
_chemical_formula_structural   Nb3AlPtC
_chemical_formula_sum   'Nb12 Al4 Pt4 C4'
_cell_volume   359.60365660
_cell_formula_units_Z   4
loop_
 _symmetry_equiv_pos_site_id
 _symmetry_equiv_pos_as_xyz
  1  'x, y, z'
loop_
 _atom_site_type_symbol
 _atom_site_label
 _atom_site_symmetry_multiplicity
 _atom_site_fract_x
 _atom_site_fract_y
 _atom_site_fract_z
 _atom_site_occupancy
  Nb  Nb0  1  0.791968  0.954356  0.379807  1
  Nb  Nb1  1  0.708032  0.045644  0.879807  1
  Nb  Nb2  1  0.208032  0.454356  0.120193  1
  Nb  Nb3  1  0.291968  0.545644  0.620193  1
  Nb  Nb4  1  0.954356  0.379807  0.791968  1
  Nb  Nb5  1  0.045644  0.879807  0.708032  1
  Nb  Nb6  1  0.454356  0.120193  0.208032  1
  Nb  Nb7  1  0.545644  0.620193  0.291968  1
  Nb  Nb8  1  0.379807  0.791968  0.954356  1
  Nb  Nb9  1  0.879807  0.708032  0.045644  1
  Nb  Nb10  1  0.120193  0.208032  0.454356  1
  Nb  Nb11  1  0.620193  0.291968  0.545644  1
  Al  Al12  1  0.570466  0.429534  0.929534  1
  Al  Al13  1  0.429534  0.929534  0.570466  1
  Al  Al14  1  0.929534  0.570466  0.429534  1
  Al  Al15  1  0.070466  0.070466  0.070466  1
  Pt  Pt16  1  0.177237  0.822763  0.322763  1
  Pt  Pt17  1  0.322763  0.177237  0.822763  1
  Pt  Pt18  1  0.822763  0.322763  0.177237  1
  Pt  Pt19  1  0.677237  0.677237  0.677237  1
  C  C20  1  0.873091  0.126909  0.626909  1
  C  C21  1  0.626909  0.873091  0.126909  1
  C  C22  1  0.126909  0.626909  0.873091  1
  C  C23  1  0.373091  0.373091  0.373091  1
