# generated using pymatgen
data_La12Ir3OsCl12
_symmetry_space_group_name_H-M   'P 1'
_cell_length_a   10.48936290
_cell_length_b   10.48936317
_cell_length_c   10.48936200
_cell_angle_alpha   109.61659344
_cell_angle_beta   109.61659397
_cell_angle_gamma   109.61660360
_symmetry_Int_Tables_number   1
_chemical_formula_structural   La12Ir3OsCl12
_chemical_formula_sum   'La12 Ir3 Os1 Cl12'
_cell_volume   883.62023209
_cell_formula_units_Z   1
loop_
 _symmetry_equiv_pos_site_id
 _symmetry_equiv_pos_as_xyz
  1  'x, y, z'
loop_
 _atom_site_type_symbol
 _atom_site_label
 _atom_site_symmetry_multiplicity
 _atom_site_fract_x
 _atom_site_fract_y
 _atom_site_fract_z
 _atom_site_occupancy
  La  La0  1  0.475456  0.485602  0.240077  1
  La  La1  1  0.750000  0.236426  0.263574  1
  La  La2  1  0.750000  0.012289  0.487711  1
  La  La3  1  0.240077  0.475456  0.485602  1
  La  La4  1  0.263574  0.750000  0.236426  1
  La  La5  1  0.024544  0.259923  0.014398  1
  La  La6  1  0.014398  0.024544  0.259923  1
  La  La7  1  0.487711  0.750000  0.012289  1
  La  La8  1  0.485602  0.240077  0.475456  1
  La  La9  1  0.012289  0.487711  0.750000  1
  La  La10  1  0.259923  0.014398  0.024544  1
  La  La11  1  0.236426  0.263574  0.750000  1
  Ir  Ir12  1  0.500506  0.999494  0.250000  1
  Ir  Ir13  1  0.999494  0.250000  0.500506  1
  Ir  Ir14  1  0.250000  0.500506  0.999494  1
  Os  Os15  1  0.250000  0.250000  0.250000  1
  Cl  Cl16  1  0.250000  0.748058  0.751942  1
  Cl  Cl17  1  0.497998  0.499383  0.749489  1
  Cl  Cl18  1  0.002002  0.750511  0.000617  1
  Cl  Cl19  1  0.751942  0.250000  0.748058  1
  Cl  Cl20  1  0.000617  0.002002  0.750511  1
  Cl  Cl21  1  0.250000  0.001880  0.498120  1
  Cl  Cl22  1  0.749489  0.497998  0.499383  1
  Cl  Cl23  1  0.498120  0.250000  0.001880  1
  Cl  Cl24  1  0.748058  0.751942  0.250000  1
  Cl  Cl25  1  0.750511  0.000617  0.002002  1
  Cl  Cl26  1  0.001880  0.498120  0.250000  1
  Cl  Cl27  1  0.499383  0.749489  0.497998  1
