# generated using pymatgen
data_Nd6As19Rh30
_symmetry_space_group_name_H-M   'P 1'
_cell_length_a   16.33283700
_cell_length_b   16.33283696
_cell_length_c   3.97178400
_cell_angle_alpha   90.00000000
_cell_angle_beta   90.00000000
_cell_angle_gamma   119.99999806
_symmetry_Int_Tables_number   1
_chemical_formula_structural   Nd6As19Rh30
_chemical_formula_sum   'Nd6 As19 Rh30'
_cell_volume   917.57065706
_cell_formula_units_Z   1
loop_
 _symmetry_equiv_pos_site_id
 _symmetry_equiv_pos_as_xyz
  1  'x, y, z'
loop_
 _atom_site_type_symbol
 _atom_site_label
 _atom_site_symmetry_multiplicity
 _atom_site_fract_x
 _atom_site_fract_y
 _atom_site_fract_z
 _atom_site_occupancy
  Nd  Nd0  1  0.096635  0.703623  0.248968  1
  Nd  Nd1  1  0.606972  0.903415  0.248941  1
  Nd  Nd2  1  0.296395  0.392985  0.248985  1
  Nd  Nd3  1  0.903459  0.296347  0.749103  1
  Nd  Nd4  1  0.392835  0.096542  0.749109  1
  Nd  Nd5  1  0.703632  0.607145  0.749056  1
  As  As6  1  0.767560  0.317125  0.249245  1
  As  As7  1  0.549546  0.232453  0.249230  1
  As  As8  1  0.682880  0.450432  0.249251  1
  As  As9  1  0.232455  0.682788  0.749209  1
  As  As10  1  0.450300  0.767554  0.749214  1
  As  As11  1  0.317222  0.549692  0.749235  1
  As  As12  1  0.255839  0.117637  0.247250  1
  As  As13  1  0.861955  0.744263  0.247268  1
  As  As14  1  0.882295  0.138071  0.247285  1
  As  As15  1  0.744142  0.881623  0.749829  1
  As  As16  1  0.137462  0.255864  0.749784  1
  As  As17  1  0.118429  0.862510  0.749843  1
  As  As18  1  0.371347  0.937686  0.248323  1
  As  As19  1  0.566299  0.628633  0.248280  1
  As  As20  1  0.062324  0.433716  0.248325  1
  As  As21  1  0.628946  0.062648  0.749858  1
  As  As22  1  0.433652  0.371005  0.749869  1
  As  As23  1  0.937342  0.566283  0.749844  1
  As  As24  1  0.999989  0.999971  0.449899  1
  Rh  Rh25  1  0.925649  0.460751  0.248765  1
  Rh  Rh26  1  0.535140  0.074304  0.248789  1
  Rh  Rh27  1  0.539299  0.464962  0.248733  1
  Rh  Rh28  1  0.073898  0.539147  0.749237  1
  Rh  Rh29  1  0.465298  0.926057  0.749487  1
  Rh  Rh30  1  0.460879  0.534837  0.749398  1
  Rh  Rh31  1  0.025872  0.872233  0.248457  1
  Rh  Rh32  1  0.846198  0.973859  0.248347  1
  Rh  Rh33  1  0.127552  0.153749  0.248613  1
  Rh  Rh34  1  0.974544  0.123802  0.746570  1
  Rh  Rh35  1  0.149223  0.025543  0.746719  1
  Rh  Rh36  1  0.876453  0.850899  0.746295  1
  Rh  Rh37  1  0.414515  0.262041  0.250476  1
  Rh  Rh38  1  0.847585  0.585480  0.250632  1
  Rh  Rh39  1  0.737948  0.152401  0.250596  1
  Rh  Rh40  1  0.584976  0.737785  0.747573  1
  Rh  Rh41  1  0.152764  0.414967  0.747637  1
  Rh  Rh42  1  0.262069  0.847150  0.747663  1
  Rh  Rh43  1  0.224687  0.571446  0.249854  1
  Rh  Rh44  1  0.346809  0.775330  0.249795  1
  Rh  Rh45  1  0.428617  0.653310  0.249812  1
  Rh  Rh46  1  0.774838  0.429590  0.749230  1
  Rh  Rh47  1  0.654709  0.225217  0.749201  1
  Rh  Rh48  1  0.570550  0.345359  0.749253  1
  Rh  Rh49  1  0.229876  0.954432  0.246106  1
  Rh  Rh50  1  0.724530  0.770063  0.246201  1
  Rh  Rh51  1  0.045712  0.275290  0.246245  1
  Rh  Rh52  1  0.770849  0.046459  0.751171  1
  Rh  Rh53  1  0.275516  0.229104  0.751109  1
  Rh  Rh54  1  0.953526  0.724427  0.750924  1
