# generated using pymatgen
data_Ti6Al5GaFe12
_symmetry_space_group_name_H-M   'P 1'
_cell_length_a   4.11687400
_cell_length_b   5.81355800
_cell_length_c   12.35845200
_cell_angle_alpha   90.00000000
_cell_angle_beta   90.00018088
_cell_angle_gamma   90.00000000
_symmetry_Int_Tables_number   1
_chemical_formula_structural   Ti6Al5GaFe12
_chemical_formula_sum   'Ti6 Al5 Ga1 Fe12'
_cell_volume   295.78330687
_cell_formula_units_Z   1
loop_
 _symmetry_equiv_pos_site_id
 _symmetry_equiv_pos_as_xyz
  1  'x, y, z'
loop_
 _atom_site_type_symbol
 _atom_site_label
 _atom_site_symmetry_multiplicity
 _atom_site_fract_x
 _atom_site_fract_y
 _atom_site_fract_z
 _atom_site_occupancy
  Ti  Ti0  1  0.000000  0.500000  0.000000  1
  Ti  Ti1  1  0.500002  0.000000  0.166830  1
  Ti  Ti2  1  0.000001  0.500000  0.333778  1
  Ti  Ti3  1  0.499999  0.000000  0.500000  1
  Ti  Ti4  1  0.999999  0.500000  0.666222  1
  Ti  Ti5  1  0.499998  0.000000  0.833170  1
  Al  Al6  1  0.500000  0.500000  0.167771  1
  Al  Al7  1  0.000001  0.000000  0.333452  1
  Al  Al8  1  0.499999  0.500000  0.500000  1
  Al  Al9  1  0.999999  0.000000  0.666548  1
  Al  Al10  1  0.499998  0.500000  0.832229  1
  Ga  Ga11  1  0.000000  0.000000  0.000000  1
  Fe  Fe12  1  0.500001  0.253332  0.000000  1
  Fe  Fe13  1  0.500001  0.746669  0.000000  1
  Fe  Fe14  1  0.000002  0.250821  0.166855  1
  Fe  Fe15  1  0.000002  0.749178  0.166855  1
  Fe  Fe16  1  0.500001  0.249513  0.333222  1
  Fe  Fe17  1  0.500001  0.750486  0.333222  1
  Fe  Fe18  1  0.000000  0.249925  0.500000  1
  Fe  Fe19  1  0.000000  0.750074  0.500000  1
  Fe  Fe20  1  0.499999  0.249513  0.666778  1
  Fe  Fe21  1  0.499999  0.750486  0.666778  1
  Fe  Fe22  1  0.999998  0.250821  0.833146  1
  Fe  Fe23  1  0.999998  0.749178  0.833146  1
