# generated using pymatgen
data_Sc3In3HgRh
_symmetry_space_group_name_H-M   'P 1'
_cell_length_a   7.56877400
_cell_length_b   7.56877438
_cell_length_c   3.51180600
_cell_angle_alpha   90.00000000
_cell_angle_beta   90.00000000
_cell_angle_gamma   119.99999833
_symmetry_Int_Tables_number   1
_chemical_formula_structural   Sc3In3HgRh
_chemical_formula_sum   'Sc3 In3 Hg1 Rh1'
_cell_volume   174.22571384
_cell_formula_units_Z   1
loop_
 _symmetry_equiv_pos_site_id
 _symmetry_equiv_pos_as_xyz
  1  'x, y, z'
loop_
 _atom_site_type_symbol
 _atom_site_label
 _atom_site_symmetry_multiplicity
 _atom_site_fract_x
 _atom_site_fract_y
 _atom_site_fract_z
 _atom_site_occupancy
  Sc  Sc0  1  0.567242  0.972711  0.499999  1
  Sc  Sc1  1  0.405468  0.432757  0.499999  1
  Sc  Sc2  1  0.027289  0.594531  0.499999  1
  In  In3  1  0.230505  0.994645  0.000000  1
  In  In4  1  0.005355  0.235859  0.000000  1
  In  In5  1  0.764140  0.769495  0.000000  1
  Hg  Hg6  1  0.666666  0.333334  0.000000  1
  Rh  Rh7  1  0.333334  0.666667  0.000000  1
