# generated using pymatgen
data_NaNd3(As3Rh4)2
_symmetry_space_group_name_H-M   'P 1'
_cell_length_a   4.10262100
_cell_length_b   11.67110100
_cell_length_c   13.35274200
_cell_angle_alpha   90.00000000
_cell_angle_beta   90.00000000
_cell_angle_gamma   90.00000000
_symmetry_Int_Tables_number   1
_chemical_formula_structural   NaNd3(As3Rh4)2
_chemical_formula_sum   'Na2 Nd6 As12 Rh16'
_cell_volume   639.35738187
_cell_formula_units_Z   2
loop_
 _symmetry_equiv_pos_site_id
 _symmetry_equiv_pos_as_xyz
  1  'x, y, z'
loop_
 _atom_site_type_symbol
 _atom_site_label
 _atom_site_symmetry_multiplicity
 _atom_site_fract_x
 _atom_site_fract_y
 _atom_site_fract_z
 _atom_site_occupancy
  Na  Na0  1  0.500000  0.500000  0.154166  1
  Na  Na1  1  0.000000  0.000000  0.845834  1
  Nd  Nd2  1  0.000000  0.500000  0.519286  1
  Nd  Nd3  1  0.500000  0.000000  0.480714  1
  Nd  Nd4  1  0.500000  0.819833  0.206039  1
  Nd  Nd5  1  0.500000  0.180167  0.206039  1
  Nd  Nd6  1  0.000000  0.680167  0.793961  1
  Nd  Nd7  1  0.000000  0.319833  0.793961  1
  As  As8  1  0.500000  0.500000  0.882846  1
  As  As9  1  0.000000  0.000000  0.117154  1
  As  As10  1  0.500000  0.500000  0.351262  1
  As  As11  1  0.000000  0.000000  0.648738  1
  As  As12  1  0.500000  0.312910  0.616472  1
  As  As13  1  0.500000  0.687090  0.616472  1
  As  As14  1  0.000000  0.187090  0.383528  1
  As  As15  1  0.000000  0.812910  0.383528  1
  As  As16  1  0.500000  0.841285  0.890814  1
  As  As17  1  0.500000  0.158715  0.890814  1
  As  As18  1  0.000000  0.658715  0.109186  1
  As  As19  1  0.000000  0.341285  0.109186  1
  Rh  Rh20  1  0.500000  0.500000  0.702425  1
  Rh  Rh21  1  0.000000  0.000000  0.297575  1
  Rh  Rh22  1  0.000000  0.500000  0.984102  1
  Rh  Rh23  1  0.500000  0.000000  0.015898  1
  Rh  Rh24  1  0.500000  0.331587  0.997085  1
  Rh  Rh25  1  0.500000  0.668413  0.997085  1
  Rh  Rh26  1  0.000000  0.168413  0.002915  1
  Rh  Rh27  1  0.000000  0.831587  0.002915  1
  Rh  Rh28  1  0.500000  0.292975  0.431590  1
  Rh  Rh29  1  0.500000  0.707025  0.431590  1
  Rh  Rh30  1  0.000000  0.207025  0.568410  1
  Rh  Rh31  1  0.000000  0.792975  0.568410  1
  Rh  Rh32  1  0.500000  0.875702  0.702459  1
  Rh  Rh33  1  0.500000  0.124298  0.702459  1
  Rh  Rh34  1  0.000000  0.624298  0.297541  1
  Rh  Rh35  1  0.000000  0.375702  0.297541  1
