# generated using pymatgen
data_Sm4VRe(B8Mo)2
_symmetry_space_group_name_H-M   'P 1'
_cell_length_a   3.64032400
_cell_length_b   6.06349145
_cell_length_c   11.72399795
_cell_angle_alpha   89.89368025
_cell_angle_beta   90.00000000
_cell_angle_gamma   90.00000000
_symmetry_Int_Tables_number   1
_chemical_formula_structural   Sm4VRe(B8Mo)2
_chemical_formula_sum   'Sm4 V1 Re1 B16 Mo2'
_cell_volume   258.78422220
_cell_formula_units_Z   1
loop_
 _symmetry_equiv_pos_site_id
 _symmetry_equiv_pos_as_xyz
  1  'x, y, z'
loop_
 _atom_site_type_symbol
 _atom_site_label
 _atom_site_symmetry_multiplicity
 _atom_site_fract_x
 _atom_site_fract_y
 _atom_site_fract_z
 _atom_site_occupancy
  Sm  Sm0  1  0.500000  0.374804  0.148819  1
  Sm  Sm1  1  0.500000  0.624483  0.851058  1
  Sm  Sm2  1  0.500000  0.126012  0.652413  1
  Sm  Sm3  1  0.500000  0.874547  0.348729  1
  V  V4  1  0.500000  0.127069  0.918776  1
  Re  Re5  1  0.500000  0.873901  0.082053  1
  B  B6  1  0.000000  0.112030  0.046220  1
  B  B7  1  0.000000  0.887504  0.953631  1
  B  B8  1  0.000000  0.386323  0.546739  1
  B  B9  1  0.000000  0.612889  0.453121  1
  B  B10  1  0.000000  0.134719  0.467878  1
  B  B11  1  0.000000  0.865163  0.532326  1
  B  B12  1  0.000000  0.362024  0.967681  1
  B  B13  1  0.000000  0.638048  0.032214  1
  B  B14  1  0.000000  0.023370  0.190140  1
  B  B15  1  0.000000  0.976620  0.809566  1
  B  B16  1  0.000000  0.474447  0.692950  1
  B  B17  1  0.000000  0.525591  0.307085  1
  B  B18  1  0.000000  0.215772  0.313653  1
  B  B19  1  0.000000  0.784016  0.686333  1
  B  B20  1  0.000000  0.281607  0.816378  1
  B  B21  1  0.000000  0.718682  0.183215  1
  Mo  Mo22  1  0.500000  0.372038  0.415787  1
  Mo  Mo23  1  0.500000  0.628342  0.583234  1
