# generated using pymatgen
data_Yb4PaZnIr4
_symmetry_space_group_name_H-M   'P 1'
_cell_length_a   5.77209068
_cell_length_b   5.77209152
_cell_length_c   7.87760194
_cell_angle_alpha   101.01034845
_cell_angle_beta   101.01034771
_cell_angle_gamma   59.49141440
_symmetry_Int_Tables_number   1
_chemical_formula_structural   Yb4PaZnIr4
_chemical_formula_sum   'Yb4 Pa1 Zn1 Ir4'
_cell_volume   220.58329252
_cell_formula_units_Z   1
loop_
 _symmetry_equiv_pos_site_id
 _symmetry_equiv_pos_as_xyz
  1  'x, y, z'
loop_
 _atom_site_type_symbol
 _atom_site_label
 _atom_site_symmetry_multiplicity
 _atom_site_fract_x
 _atom_site_fract_y
 _atom_site_fract_z
 _atom_site_occupancy
  Yb  Yb0  1  0.015722  0.286717  0.160393  1
  Yb  Yb1  1  0.713283  0.984278  0.339607  1
  Yb  Yb2  1  0.282530  0.012193  0.630761  1
  Yb  Yb3  1  0.987808  0.717470  0.869240  1
  Pa  Pa4  1  0.617290  0.382710  0.750000  1
  Zn  Zn5  1  0.400926  0.599074  0.249999  1
  Ir  Ir6  1  0.488751  0.779891  0.001732  1
  Ir  Ir7  1  0.220109  0.511249  0.498269  1
  Ir  Ir8  1  0.775337  0.501755  0.514189  1
  Ir  Ir9  1  0.498245  0.224662  0.985811  1
