# generated using pymatgen
data_Mg4InSnPd10
_symmetry_space_group_name_H-M   'P 1'
_cell_length_a   4.23078700
_cell_length_b   5.59713875
_cell_length_c   11.01829843
_cell_angle_alpha   90.09046556
_cell_angle_beta   90.00000000
_cell_angle_gamma   90.00000000
_symmetry_Int_Tables_number   1
_chemical_formula_structural   Mg4InSnPd10
_chemical_formula_sum   'Mg4 In1 Sn1 Pd10'
_cell_volume   260.91630740
_cell_formula_units_Z   1
loop_
 _symmetry_equiv_pos_site_id
 _symmetry_equiv_pos_as_xyz
  1  'x, y, z'
loop_
 _atom_site_type_symbol
 _atom_site_label
 _atom_site_symmetry_multiplicity
 _atom_site_fract_x
 _atom_site_fract_y
 _atom_site_fract_z
 _atom_site_occupancy
  Mg  Mg0  1  0.500000  0.172479  0.141297  1
  Mg  Mg1  1  0.500000  0.827521  0.858703  1
  Mg  Mg2  1  0.500000  0.325920  0.640286  1
  Mg  Mg3  1  0.500000  0.674080  0.359714  1
  In  In4  1  0.000000  0.000000  0.500000  1
  Sn  Sn5  1  0.000000  0.500000  0.000000  1
  Pd  Pd6  1  0.500000  0.195808  0.385100  1
  Pd  Pd7  1  0.500000  0.804192  0.614900  1
  Pd  Pd8  1  0.500000  0.306065  0.887346  1
  Pd  Pd9  1  0.500000  0.693935  0.112654  1
  Pd  Pd10  1  0.000000  0.424534  0.244777  1
  Pd  Pd11  1  0.000000  0.575466  0.755223  1
  Pd  Pd12  1  0.000000  0.076386  0.746054  1
  Pd  Pd13  1  0.000000  0.923614  0.253946  1
  Pd  Pd14  1  0.000000  0.000000  0.000000  1
  Pd  Pd15  1  0.000000  0.500000  0.500000  1
