# generated using pymatgen
data_PmCrO4
_symmetry_space_group_name_H-M   'P 1'
_cell_length_a   6.12655237
_cell_length_b   6.12655150
_cell_length_c   6.12655199
_cell_angle_alpha   105.89447467
_cell_angle_beta   116.88924073
_cell_angle_gamma   105.89447035
_symmetry_Int_Tables_number   1
_chemical_formula_structural   PmCrO4
_chemical_formula_sum   'Pm2 Cr2 O8'
_cell_volume   174.76893216
_cell_formula_units_Z   2
loop_
 _symmetry_equiv_pos_site_id
 _symmetry_equiv_pos_as_xyz
  1  'x, y, z'
loop_
 _atom_site_type_symbol
 _atom_site_label
 _atom_site_symmetry_multiplicity
 _atom_site_fract_x
 _atom_site_fract_y
 _atom_site_fract_z
 _atom_site_occupancy
  Pm  Pm0  1  0.875000  0.250001  0.125000  1
  Pm  Pm1  1  0.125000  0.750000  0.875000  1
  Cr  Cr2  1  0.625000  0.750000  0.374999  1
  Cr  Cr3  1  0.375000  0.250000  0.624999  1
  O  O4  1  0.274040  0.568373  0.205667  1
  O  O5  1  0.637294  0.931626  0.205667  1
  O  O6  1  0.205667  0.068373  0.274040  1
  O  O7  1  0.794334  0.568374  0.362707  1
  O  O8  1  0.205667  0.431626  0.637293  1
  O  O9  1  0.794334  0.931626  0.725960  1
  O  O10  1  0.362707  0.068373  0.794333  1
  O  O11  1  0.725960  0.431626  0.794333  1
