# generated using pymatgen
data_Ce5Y11Cd2(HgRu2)2
_symmetry_space_group_name_H-M   'P 1'
_cell_length_a   9.54403853
_cell_length_b   9.66325247
_cell_length_c   9.66325297
_cell_angle_alpha   60.18139288
_cell_angle_beta   60.40726953
_cell_angle_gamma   60.40726918
_symmetry_Int_Tables_number   1
_chemical_formula_structural   Ce5Y11Cd2(HgRu2)2
_chemical_formula_sum   'Ce5 Y11 Cd2 Hg2 Ru4'
_cell_volume   634.90557361
_cell_formula_units_Z   1
loop_
 _symmetry_equiv_pos_site_id
 _symmetry_equiv_pos_as_xyz
  1  'x, y, z'
loop_
 _atom_site_type_symbol
 _atom_site_label
 _atom_site_symmetry_multiplicity
 _atom_site_fract_x
 _atom_site_fract_y
 _atom_site_fract_z
 _atom_site_occupancy
  Ce  Ce0  1  0.812905  0.187095  0.187095  1
  Ce  Ce1  1  0.346084  0.346525  0.961308  1
  Ce  Ce2  1  0.346084  0.961308  0.346525  1
  Ce  Ce3  1  0.957657  0.349409  0.349409  1
  Ce  Ce4  1  0.343527  0.349409  0.349409  1
  Y  Y5  1  0.561187  0.560539  0.939018  1
  Y  Y6  1  0.939256  0.560539  0.939018  1
  Y  Y7  1  0.564037  0.935963  0.935963  1
  Y  Y8  1  0.939256  0.939018  0.560539  1
  Y  Y9  1  0.561187  0.939018  0.560539  1
  Y  Y10  1  0.934899  0.565101  0.565101  1
  Y  Y11  1  0.192634  0.188351  0.807663  1
  Y  Y12  1  0.811351  0.188351  0.807663  1
  Y  Y13  1  0.188038  0.811962  0.811961  1
  Y  Y14  1  0.811351  0.807664  0.188351  1
  Y  Y15  1  0.192633  0.807663  0.188350  1
  Cd  Cd16  1  0.258444  0.580556  0.580556  1
  Cd  Cd17  1  0.580442  0.580556  0.580556  1
  Hg  Hg18  1  0.582943  0.588664  0.245448  1
  Hg  Hg19  1  0.582943  0.245448  0.588664  1
  Ru  Ru20  1  0.149236  0.141744  0.559783  1
  Ru  Ru21  1  0.149236  0.559783  0.141744  1
  Ru  Ru22  1  0.581233  0.152667  0.152667  1
  Ru  Ru23  1  0.113435  0.152667  0.152667  1
