# generated using pymatgen
data_Yb2ErAl3Ge2Pt
_symmetry_space_group_name_H-M   'P 1'
_cell_length_a   6.97173062
_cell_length_b   6.97172967
_cell_length_c   4.27397400
_cell_angle_alpha   90.00000000
_cell_angle_beta   90.00000000
_cell_angle_gamma   120.31669171
_symmetry_Int_Tables_number   1
_chemical_formula_structural   Yb2ErAl3Ge2Pt
_chemical_formula_sum   'Yb2 Er1 Al3 Ge2 Pt1'
_cell_volume   179.32831246
_cell_formula_units_Z   1
loop_
 _symmetry_equiv_pos_site_id
 _symmetry_equiv_pos_as_xyz
  1  'x, y, z'
loop_
 _atom_site_type_symbol
 _atom_site_label
 _atom_site_symmetry_multiplicity
 _atom_site_fract_x
 _atom_site_fract_y
 _atom_site_fract_z
 _atom_site_occupancy
  Yb  Yb0  1  0.421343  0.000616  0.000000  1
  Yb  Yb1  1  0.000616  0.421342  0.000000  1
  Er  Er2  1  0.581172  0.581172  0.000000  1
  Al  Al3  1  0.766545  0.998043  0.499999  1
  Al  Al4  1  0.233274  0.233274  0.499999  1
  Al  Al5  1  0.998043  0.766544  0.499999  1
  Ge  Ge6  1  0.665950  0.337577  0.499999  1
  Ge  Ge7  1  0.337578  0.665950  0.499999  1
  Pt  Pt8  1  0.995480  0.995480  0.000000  1
