# generated using pymatgen
data_Cs4Ga2O5
_symmetry_space_group_name_H-M   'P 1'
_cell_length_a   9.88670882
_cell_length_b   9.88670875
_cell_length_c   7.81727376
_cell_angle_alpha   83.35575231
_cell_angle_beta   83.35575351
_cell_angle_gamma   134.90407235
_symmetry_Int_Tables_number   1
_chemical_formula_structural   Cs4Ga2O5
_chemical_formula_sum   'Cs8 Ga4 O10'
_cell_volume   515.98895603
_cell_formula_units_Z   2
loop_
 _symmetry_equiv_pos_site_id
 _symmetry_equiv_pos_as_xyz
  1  'x, y, z'
loop_
 _atom_site_type_symbol
 _atom_site_label
 _atom_site_symmetry_multiplicity
 _atom_site_fract_x
 _atom_site_fract_y
 _atom_site_fract_z
 _atom_site_occupancy
  Cs  Cs0  1  0.468679  0.531321  0.250000  1
  Cs  Cs1  1  0.531321  0.468679  0.750000  1
  Cs  Cs2  1  0.016955  0.983045  0.250000  1
  Cs  Cs3  1  0.983045  0.016955  0.750000  1
  Cs  Cs4  1  0.832448  0.474849  0.385316  1
  Cs  Cs5  1  0.525151  0.167552  0.114684  1
  Cs  Cs6  1  0.167552  0.525151  0.614684  1
  Cs  Cs7  1  0.474849  0.832448  0.885316  1
  Ga  Ga8  1  0.991390  0.308806  0.098233  1
  Ga  Ga9  1  0.691194  0.008610  0.401767  1
  Ga  Ga10  1  0.008610  0.691194  0.901767  1
  Ga  Ga11  1  0.308806  0.991390  0.598233  1
  O  O12  1  0.959982  0.271990  0.353973  1
  O  O13  1  0.728010  0.040018  0.146027  1
  O  O14  1  0.040018  0.728010  0.646027  1
  O  O15  1  0.271990  0.959982  0.853973  1
  O  O16  1  0.000000  0.500000  0.000000  1
  O  O17  1  0.500000  0.000000  0.500000  1
  O  O18  1  0.804122  0.639804  0.031985  1
  O  O19  1  0.360196  0.195878  0.468015  1
  O  O20  1  0.195878  0.360196  0.968015  1
  O  O21  1  0.639804  0.804122  0.531985  1
