# generated using pymatgen
data_Li2Mg2ZrNi9As7
_symmetry_space_group_name_H-M   'P 1'
_cell_length_a   9.51311735
_cell_length_b   9.48908754
_cell_length_c   3.82963400
_cell_angle_alpha   90.00000000
_cell_angle_beta   90.00000000
_cell_angle_gamma   119.88906971
_symmetry_Int_Tables_number   1
_chemical_formula_structural   Li2Mg2ZrNi9As7
_chemical_formula_sum   'Li2 Mg2 Zr1 Ni9 As7'
_cell_volume   299.72266283
_cell_formula_units_Z   1
loop_
 _symmetry_equiv_pos_site_id
 _symmetry_equiv_pos_as_xyz
  1  'x, y, z'
loop_
 _atom_site_type_symbol
 _atom_site_label
 _atom_site_symmetry_multiplicity
 _atom_site_fract_x
 _atom_site_fract_y
 _atom_site_fract_z
 _atom_site_occupancy
  Li  Li0  1  0.780048  0.222809  0.500000  1
  Li  Li1  1  0.996895  0.003719  0.500000  1
  Mg  Mg2  1  0.775335  0.555459  0.500000  1
  Mg  Mg3  1  0.446455  0.218456  0.500000  1
  Zr  Zr4  1  0.328935  0.665270  0.000000  1
  Ni  Ni5  1  0.273753  0.380365  0.500000  1
  Ni  Ni6  1  0.624595  0.897669  0.500000  1
  Ni  Ni7  1  0.104183  0.722661  0.500000  1
  Ni  Ni8  1  0.496882  0.455336  0.000000  1
  Ni  Ni9  1  0.543603  0.037205  0.000000  1
  Ni  Ni10  1  0.961387  0.505709  0.000000  1
  Ni  Ni11  1  0.720275  0.759863  0.000000  1
  Ni  Ni12  1  0.246150  0.964670  0.000000  1
  Ni  Ni13  1  0.037969  0.281440  0.000000  1
  As  As14  1  0.975741  0.768004  0.000000  1
  As  As15  1  0.235467  0.209662  0.000000  1
  As  As16  1  0.790159  0.032112  0.000000  1
  As  As17  1  0.671106  0.329305  0.000000  1
  As  As18  1  0.533609  0.621778  0.500000  1
  As  As19  1  0.379663  0.910889  0.500000  1
  As  As20  1  0.077787  0.457619  0.500000  1
