# generated using pymatgen
data_Ti2TlInPt12
_symmetry_space_group_name_H-M   'P 1'
_cell_length_a   5.61023200
_cell_length_b   5.61023220
_cell_length_c   7.94795400
_cell_angle_alpha   90.00000000
_cell_angle_beta   90.00000000
_cell_angle_gamma   89.98460942
_symmetry_Int_Tables_number   1
_chemical_formula_structural   Ti2TlInPt12
_chemical_formula_sum   'Ti2 Tl1 In1 Pt12'
_cell_volume   250.15949235
_cell_formula_units_Z   1
loop_
 _symmetry_equiv_pos_site_id
 _symmetry_equiv_pos_as_xyz
  1  'x, y, z'
loop_
 _atom_site_type_symbol
 _atom_site_label
 _atom_site_symmetry_multiplicity
 _atom_site_fract_x
 _atom_site_fract_y
 _atom_site_fract_z
 _atom_site_occupancy
  Ti  Ti0  1  0.500000  0.000000  0.250091  1
  Ti  Ti1  1  0.000000  0.500000  0.249927  1
  Tl  Tl2  1  0.000000  0.500000  0.750041  1
  In  In3  1  0.500000  0.000000  0.750059  1
  Pt  Pt4  1  0.249587  0.250413  0.013587  1
  Pt  Pt5  1  0.747165  0.247165  0.013536  1
  Pt  Pt6  1  0.252835  0.752835  0.013536  1
  Pt  Pt7  1  0.750413  0.749587  0.013587  1
  Pt  Pt8  1  0.000000  0.000000  0.250036  1
  Pt  Pt9  1  0.500000  0.500000  0.250036  1
  Pt  Pt10  1  0.749337  0.249337  0.486431  1
  Pt  Pt11  1  0.251788  0.248212  0.486410  1
  Pt  Pt12  1  0.748212  0.751788  0.486410  1
  Pt  Pt13  1  0.250663  0.750663  0.486431  1
  Pt  Pt14  1  0.000000  0.000000  0.749942  1
  Pt  Pt15  1  0.500000  0.500000  0.749942  1
