# generated using pymatgen
data_Tb13CeDy2(CdRu)4
_symmetry_space_group_name_H-M   'P 1'
_cell_length_a   9.70269939
_cell_length_b   9.70269889
_cell_length_c   9.70394901
_cell_angle_alpha   59.37427828
_cell_angle_beta   59.37428141
_cell_angle_gamma   59.37414553
_symmetry_Int_Tables_number   1
_chemical_formula_structural   Tb13CeDy2(CdRu)4
_chemical_formula_sum   'Tb13 Ce1 Dy2 Cd4 Ru4'
_cell_volume   636.77906889
_cell_formula_units_Z   1
loop_
 _symmetry_equiv_pos_site_id
 _symmetry_equiv_pos_as_xyz
  1  'x, y, z'
loop_
 _atom_site_type_symbol
 _atom_site_label
 _atom_site_symmetry_multiplicity
 _atom_site_fract_x
 _atom_site_fract_y
 _atom_site_fract_z
 _atom_site_occupancy
  Tb  Tb0  1  0.562238  0.562238  0.938247  1
  Tb  Tb1  1  0.938730  0.561067  0.938801  1
  Tb  Tb2  1  0.561067  0.938730  0.938801  1
  Tb  Tb3  1  0.938870  0.938870  0.560943  1
  Tb  Tb4  1  0.562197  0.938309  0.562139  1
  Tb  Tb5  1  0.938309  0.562197  0.562139  1
  Tb  Tb6  1  0.189283  0.189283  0.811873  1
  Tb  Tb7  1  0.810892  0.188611  0.810748  1
  Tb  Tb8  1  0.188610  0.810893  0.810748  1
  Tb  Tb9  1  0.810735  0.810736  0.188701  1
  Tb  Tb10  1  0.189362  0.811899  0.189352  1
  Tb  Tb11  1  0.811899  0.189363  0.189353  1
  Tb  Tb12  1  0.346335  0.346335  0.957639  1
  Ce  Ce13  1  0.341954  0.341954  0.342070  1
  Dy  Dy14  1  0.346245  0.957975  0.346251  1
  Dy  Dy15  1  0.957975  0.346245  0.346251  1
  Cd  Cd16  1  0.579805  0.579805  0.258479  1
  Cd  Cd17  1  0.579856  0.258420  0.579702  1
  Cd  Cd18  1  0.258420  0.579856  0.579702  1
  Cd  Cd19  1  0.579868  0.579868  0.579668  1
  Ru  Ru20  1  0.146651  0.146651  0.574858  1
  Ru  Ru21  1  0.146458  0.575057  0.146919  1
  Ru  Ru22  1  0.575057  0.146458  0.146919  1
  Ru  Ru23  1  0.139178  0.139178  0.139697  1
