# generated using pymatgen
data_Ac4LaPb3Cl
_symmetry_space_group_name_H-M   'P 1'
_cell_length_a   9.99362700
_cell_length_b   9.99362687
_cell_length_c   7.12323200
_cell_angle_alpha   90.00000000
_cell_angle_beta   90.00000000
_cell_angle_gamma   119.99999711
_symmetry_Int_Tables_number   1
_chemical_formula_structural   Ac4LaPb3Cl
_chemical_formula_sum   'Ac8 La2 Pb6 Cl2'
_cell_volume   616.10395959
_cell_formula_units_Z   2
loop_
 _symmetry_equiv_pos_site_id
 _symmetry_equiv_pos_as_xyz
  1  'x, y, z'
loop_
 _atom_site_type_symbol
 _atom_site_label
 _atom_site_symmetry_multiplicity
 _atom_site_fract_x
 _atom_site_fract_y
 _atom_site_fract_z
 _atom_site_occupancy
  Ac  Ac0  1  0.262512  0.000000  0.752283  1
  Ac  Ac1  1  0.737488  0.000000  0.247717  1
  Ac  Ac2  1  0.000000  0.262512  0.752283  1
  Ac  Ac3  1  0.000000  0.737488  0.247717  1
  Ac  Ac4  1  0.737488  0.737488  0.752283  1
  Ac  Ac5  1  0.262512  0.262512  0.247717  1
  Ac  Ac6  1  0.333333  0.666667  0.500000  1
  Ac  Ac7  1  0.666667  0.333333  0.500000  1
  La  La8  1  0.666667  0.333333  0.000000  1
  La  La9  1  0.333333  0.666667  0.000000  1
  Pb  Pb10  1  0.610794  0.000000  0.758156  1
  Pb  Pb11  1  0.389206  0.000000  0.241844  1
  Pb  Pb12  1  0.000000  0.610794  0.758156  1
  Pb  Pb13  1  0.000000  0.389206  0.241844  1
  Pb  Pb14  1  0.389206  0.389206  0.758156  1
  Pb  Pb15  1  0.610794  0.610794  0.241844  1
  Cl  Cl16  1  0.000000  0.000000  0.500000  1
  Cl  Cl17  1  0.000000  0.000000  0.000000  1
