# generated using pymatgen
data_Dy2AlB2Ir4Ru
_symmetry_space_group_name_H-M   'P 1'
_cell_length_a   9.65404500
_cell_length_b   9.65404500
_cell_length_c   3.08462900
_cell_angle_alpha   90.00000000
_cell_angle_beta   90.00000000
_cell_angle_gamma   90.00000000
_symmetry_Int_Tables_number   1
_chemical_formula_structural   Dy2AlB2Ir4Ru
_chemical_formula_sum   'Dy4 Al2 B4 Ir8 Ru2'
_cell_volume   287.48922688
_cell_formula_units_Z   2
loop_
 _symmetry_equiv_pos_site_id
 _symmetry_equiv_pos_as_xyz
  1  'x, y, z'
loop_
 _atom_site_type_symbol
 _atom_site_label
 _atom_site_symmetry_multiplicity
 _atom_site_fract_x
 _atom_site_fract_y
 _atom_site_fract_z
 _atom_site_occupancy
  Dy  Dy0  1  0.175187  0.675187  0.000000  1
  Dy  Dy1  1  0.324813  0.175187  0.000000  1
  Dy  Dy2  1  0.675187  0.824813  0.000000  1
  Dy  Dy3  1  0.824813  0.324813  0.000000  1
  Al  Al4  1  0.000000  0.000000  0.000000  1
  Al  Al5  1  0.500000  0.500000  0.000000  1
  B  B6  1  0.120916  0.379084  0.000000  1
  B  B7  1  0.379084  0.879084  0.000000  1
  B  B8  1  0.620916  0.120916  0.000000  1
  B  B9  1  0.879084  0.620916  0.000000  1
  Ir  Ir10  1  0.068851  0.217578  0.500000  1
  Ir  Ir11  1  0.217578  0.931149  0.500000  1
  Ir  Ir12  1  0.282422  0.431149  0.500000  1
  Ir  Ir13  1  0.431149  0.717578  0.500000  1
  Ir  Ir14  1  0.568851  0.282422  0.500000  1
  Ir  Ir15  1  0.717578  0.568851  0.500000  1
  Ir  Ir16  1  0.782422  0.068851  0.500000  1
  Ir  Ir17  1  0.931149  0.782422  0.500000  1
  Ru  Ru18  1  0.000000  0.500000  0.500000  1
  Ru  Ru19  1  0.500000  0.000000  0.500000  1
