# generated using pymatgen
data_Ac4Mg2As5
_symmetry_space_group_name_H-M   'P 1'
_cell_length_a   4.51275500
_cell_length_b   4.51275384
_cell_length_c   18.60618600
_cell_angle_alpha   90.00000000
_cell_angle_beta   90.00000000
_cell_angle_gamma   119.99998650
_symmetry_Int_Tables_number   1
_chemical_formula_structural   Ac4Mg2As5
_chemical_formula_sum   'Ac4 Mg2 As5'
_cell_volume   328.14927542
_cell_formula_units_Z   1
loop_
 _symmetry_equiv_pos_site_id
 _symmetry_equiv_pos_as_xyz
  1  'x, y, z'
loop_
 _atom_site_type_symbol
 _atom_site_label
 _atom_site_symmetry_multiplicity
 _atom_site_fract_x
 _atom_site_fract_y
 _atom_site_fract_z
 _atom_site_occupancy
  Ac  Ac0  1  0.666667  0.333333  0.901150  1
  Ac  Ac1  1  0.333333  0.666667  0.098850  1
  Ac  Ac2  1  0.000000  0.000000  0.704886  1
  Ac  Ac3  1  0.000000  0.000000  0.295114  1
  Mg  Mg4  1  0.666667  0.333333  0.447607  1
  Mg  Mg5  1  0.333333  0.666667  0.552393  1
  As  As6  1  0.666667  0.333333  0.594209  1
  As  As7  1  0.333333  0.666667  0.405791  1
  As  As8  1  0.666667  0.333333  0.200486  1
  As  As9  1  0.333333  0.666667  0.799514  1
  As  As10  1  0.000000  0.000000  0.000000  1
