# generated using pymatgen
data_Er12Ni3BiRu2
_symmetry_space_group_name_H-M   'P 1'
_cell_length_a   8.32898990
_cell_length_b   8.32898905
_cell_length_c   8.32898819
_cell_angle_alpha   110.17232604
_cell_angle_beta   112.03863404
_cell_angle_gamma   106.25563473
_symmetry_Int_Tables_number   1
_chemical_formula_structural   Er12Ni3BiRu2
_chemical_formula_sum   'Er12 Ni3 Bi1 Ru2'
_cell_volume   443.62169708
_cell_formula_units_Z   1
loop_
 _symmetry_equiv_pos_site_id
 _symmetry_equiv_pos_as_xyz
  1  'x, y, z'
loop_
 _atom_site_type_symbol
 _atom_site_label
 _atom_site_symmetry_multiplicity
 _atom_site_fract_x
 _atom_site_fract_y
 _atom_site_fract_z
 _atom_site_occupancy
  Er  Er0  1  0.276526  0.181166  0.457693  1
  Er  Er1  1  0.719979  0.823295  0.543273  1
  Er  Er2  1  0.280021  0.823295  0.103316  1
  Er  Er3  1  0.723474  0.181166  0.904641  1
  Er  Er4  1  0.633119  0.318801  0.310701  1
  Er  Er5  1  0.366881  0.677580  0.685682  1
  Er  Er6  1  0.008102  0.318801  0.685682  1
  Er  Er7  1  0.991898  0.677580  0.310701  1
  Er  Er8  1  0.221869  0.410351  0.188483  1
  Er  Er9  1  0.782188  0.590128  0.807939  1
  Er  Er10  1  0.217812  0.025751  0.807939  1
  Er  Er11  1  0.778131  0.966614  0.188483  1
  Ni  Ni12  1  0.000000  0.652360  0.652360  1
  Ni  Ni13  1  0.381864  0.883590  0.501727  1
  Ni  Ni14  1  0.618136  0.119863  0.501727  1
  Bi  Bi15  1  0.500000  0.500289  0.000289  1
  Ru  Ru16  1  0.000000  0.349383  0.349383  1
  Ru  Ru17  1  0.000000  0.999984  0.999984  1
