# generated using pymatgen
data_Gd3Lu(TcB4)4
_symmetry_space_group_name_H-M   'P 1'
_cell_length_a   3.60184800
_cell_length_b   5.97340656
_cell_length_c   11.56183620
_cell_angle_alpha   89.90311131
_cell_angle_beta   90.00000000
_cell_angle_gamma   90.00000000
_symmetry_Int_Tables_number   1
_chemical_formula_structural   Gd3Lu(TcB4)4
_chemical_formula_sum   'Gd3 Lu1 Tc4 B16'
_cell_volume   248.75604725
_cell_formula_units_Z   1
loop_
 _symmetry_equiv_pos_site_id
 _symmetry_equiv_pos_as_xyz
  1  'x, y, z'
loop_
 _atom_site_type_symbol
 _atom_site_label
 _atom_site_symmetry_multiplicity
 _atom_site_fract_x
 _atom_site_fract_y
 _atom_site_fract_z
 _atom_site_occupancy
  Gd  Gd0  1  0.000000  0.627453  0.349642  1
  Gd  Gd1  1  0.000000  0.372936  0.650982  1
  Gd  Gd2  1  0.000000  0.127250  0.150130  1
  Lu  Lu3  1  0.000000  0.873071  0.849909  1
  Tc  Tc4  1  0.000000  0.634046  0.085753  1
  Tc  Tc5  1  0.000000  0.366322  0.911957  1
  Tc  Tc6  1  0.000000  0.132546  0.413313  1
  Tc  Tc7  1  0.000000  0.867022  0.589219  1
  B  B8  1  0.500000  0.786614  0.183964  1
  B  B9  1  0.500000  0.211162  0.815260  1
  B  B10  1  0.500000  0.286409  0.315200  1
  B  B11  1  0.500000  0.713455  0.686308  1
  B  B12  1  0.500000  0.864538  0.030056  1
  B  B13  1  0.500000  0.135497  0.967332  1
  B  B14  1  0.500000  0.363537  0.468887  1
  B  B15  1  0.500000  0.636478  0.532389  1
  B  B16  1  0.500000  0.886752  0.453644  1
  B  B17  1  0.500000  0.112281  0.547816  1
  B  B18  1  0.500000  0.387654  0.045803  1
  B  B19  1  0.500000  0.615248  0.951496  1
  B  B20  1  0.500000  0.976746  0.308221  1
  B  B21  1  0.500000  0.021794  0.693815  1
  B  B22  1  0.500000  0.476979  0.191126  1
  B  B23  1  0.500000  0.524214  0.807778  1
