# generated using pymatgen
data_La4IrAu3
_symmetry_space_group_name_H-M   'P 1'
_cell_length_a   4.76513800
_cell_length_b   5.98518866
_cell_length_c   7.57416900
_cell_angle_alpha   91.66937422
_cell_angle_beta   90.00000000
_cell_angle_gamma   90.00000000
_symmetry_Int_Tables_number   1
_chemical_formula_structural   La4IrAu3
_chemical_formula_sum   'La4 Ir1 Au3'
_cell_volume   215.92550969
_cell_formula_units_Z   1
loop_
 _symmetry_equiv_pos_site_id
 _symmetry_equiv_pos_as_xyz
  1  'x, y, z'
loop_
 _atom_site_type_symbol
 _atom_site_label
 _atom_site_symmetry_multiplicity
 _atom_site_fract_x
 _atom_site_fract_y
 _atom_site_fract_z
 _atom_site_occupancy
  La  La0  1  0.250000  0.633532  0.177243  1
  La  La1  1  0.750000  0.343158  0.829745  1
  La  La2  1  0.750000  0.145139  0.297386  1
  La  La3  1  0.250000  0.862448  0.693809  1
  Ir  Ir4  1  0.250000  0.171431  0.041589  1
  Au  Au5  1  0.750000  0.841889  0.956801  1
  Au  Au6  1  0.750000  0.652304  0.462042  1
  Au  Au7  1  0.250000  0.350100  0.541386  1
