# generated using pymatgen
data_Sr4Ta2MnNiO12
_symmetry_space_group_name_H-M   'P 1'
_cell_length_a   5.63386503
_cell_length_b   5.63176824
_cell_length_c   9.77691844
_cell_angle_alpha   73.35270888
_cell_angle_beta   90.00037211
_cell_angle_gamma   59.99115715
_symmetry_Int_Tables_number   1
_chemical_formula_structural   Sr4Ta2MnNiO12
_chemical_formula_sum   'Sr4 Ta2 Mn1 Ni1 O12'
_cell_volume   253.49797549
_cell_formula_units_Z   1
loop_
 _symmetry_equiv_pos_site_id
 _symmetry_equiv_pos_as_xyz
  1  'x, y, z'
loop_
 _atom_site_type_symbol
 _atom_site_label
 _atom_site_symmetry_multiplicity
 _atom_site_fract_x
 _atom_site_fract_y
 _atom_site_fract_z
 _atom_site_occupancy
  Sr  Sr0  1  0.375466  0.249263  0.122206  1
  Sr  Sr1  1  0.874573  0.250713  0.627218  1
  Sr  Sr2  1  0.124705  0.750706  0.377645  1
  Sr  Sr3  1  0.625335  0.749271  0.872817  1
  Ta  Ta4  1  0.000699  0.998495  0.998530  1
  Ta  Ta5  1  0.499168  0.001485  0.501547  1
  Mn  Mn6  1  0.750151  0.499876  0.249974  1
  Ni  Ni7  1  0.249458  0.500275  0.750159  1
  O  O8  1  0.627813  0.254712  0.368055  1
  O  O9  1  0.127282  0.237532  0.879647  1
  O  O10  1  0.627620  0.744079  0.371570  1
  O  O11  1  0.129193  0.740374  0.885897  1
  O  O12  1  0.117454  0.255414  0.368166  1
  O  O13  1  0.635010  0.238202  0.879871  1
  O  O14  1  0.872423  0.745241  0.131995  1
  O  O15  1  0.372576  0.762394  0.620256  1
  O  O16  1  0.872594  0.255932  0.128374  1
  O  O17  1  0.370690  0.259730  0.614159  1
  O  O18  1  0.382717  0.744625  0.131766  1
  O  O19  1  0.865074  0.761682  0.620147  1
