# generated using pymatgen
data_Re5TcPtRh
_symmetry_space_group_name_H-M   'P 1'
_cell_length_a   5.58317400
_cell_length_b   5.58317425
_cell_length_c   4.41506100
_cell_angle_alpha   90.00000000
_cell_angle_beta   90.00000000
_cell_angle_gamma   119.99748022
_symmetry_Int_Tables_number   1
_chemical_formula_structural   Re5TcPtRh
_chemical_formula_sum   'Re5 Tc1 Pt1 Rh1'
_cell_volume   119.19024478
_cell_formula_units_Z   1
loop_
 _symmetry_equiv_pos_site_id
 _symmetry_equiv_pos_as_xyz
  1  'x, y, z'
loop_
 _atom_site_type_symbol
 _atom_site_label
 _atom_site_symmetry_multiplicity
 _atom_site_fract_x
 _atom_site_fract_y
 _atom_site_fract_z
 _atom_site_occupancy
  Re  Re0  1  0.160247  0.318263  0.250000  1
  Re  Re1  1  0.681737  0.839753  0.250000  1
  Re  Re2  1  0.840713  0.679862  0.750000  1
  Re  Re3  1  0.320138  0.159287  0.750000  1
  Re  Re4  1  0.839803  0.160197  0.750000  1
  Tc  Tc5  1  0.158839  0.841161  0.250000  1
  Pt  Pt6  1  0.332717  0.667283  0.750000  1
  Rh  Rh7  1  0.665808  0.334192  0.250000  1
