# generated using pymatgen
data_Tb4Al18RuRh3Au2
_symmetry_space_group_name_H-M   'P 1'
_cell_length_a   7.63549617
_cell_length_b   7.63549463
_cell_length_c   9.48854973
_cell_angle_alpha   90.02274396
_cell_angle_beta   90.02274202
_cell_angle_gamma   119.42350782
_symmetry_Int_Tables_number   1
_chemical_formula_structural   Tb4Al18RuRh3Au2
_chemical_formula_sum   'Tb4 Al18 Ru1 Rh3 Au2'
_cell_volume   481.83511139
_cell_formula_units_Z   1
loop_
 _symmetry_equiv_pos_site_id
 _symmetry_equiv_pos_as_xyz
  1  'x, y, z'
loop_
 _atom_site_type_symbol
 _atom_site_label
 _atom_site_symmetry_multiplicity
 _atom_site_fract_x
 _atom_site_fract_y
 _atom_site_fract_z
 _atom_site_occupancy
  Tb  Tb0  1  0.995534  0.677398  0.249601  1
  Tb  Tb1  1  0.003740  0.322376  0.750383  1
  Tb  Tb2  1  0.677624  0.996260  0.249617  1
  Tb  Tb3  1  0.322602  0.004466  0.750399  1
  Al  Al4  1  0.143824  0.144491  0.249893  1
  Al  Al5  1  0.855509  0.856176  0.750107  1
  Al  Al6  1  0.999374  0.345861  0.076703  1
  Al  Al7  1  0.997277  0.651941  0.923425  1
  Al  Al8  1  0.999342  0.654820  0.577723  1
  Al  Al9  1  0.345180  0.000658  0.422277  1
  Al  Al10  1  0.001137  0.345749  0.422496  1
  Al  Al11  1  0.654251  0.998863  0.577504  1
  Al  Al12  1  0.654139  0.000626  0.923297  1
  Al  Al13  1  0.348059  0.002723  0.076575  1
  Al  Al14  1  0.341918  0.342140  0.556756  1
  Al  Al15  1  0.657860  0.658082  0.443244  1
  Al  Al16  1  0.658239  0.655681  0.055453  1
  Al  Al17  1  0.344319  0.341761  0.944547  1
  Al  Al18  1  0.338002  0.553889  0.249773  1
  Al  Al19  1  0.661417  0.445532  0.751412  1
  Al  Al20  1  0.554468  0.338583  0.248588  1
  Al  Al21  1  0.446111  0.661998  0.750227  1
  Ru  Ru22  1  0.671846  0.328154  0.000000  1
  Rh  Rh23  1  0.328464  0.671536  0.000000  1
  Rh  Rh24  1  0.328152  0.671848  0.500000  1
  Rh  Rh25  1  0.671580  0.328420  0.500000  1
  Au  Au26  1  0.000113  0.999887  0.000000  1
  Au  Au27  1  0.999919  0.000081  0.500000  1
