# generated using pymatgen
data_Lu8AlHgPd23
_symmetry_space_group_name_H-M   'P 1'
_cell_length_a   8.12080600
_cell_length_b   8.20929500
_cell_length_c   8.20929500
_cell_angle_alpha   90.00000000
_cell_angle_beta   90.00000000
_cell_angle_gamma   90.00000000
_symmetry_Int_Tables_number   1
_chemical_formula_structural   Lu8AlHgPd23
_chemical_formula_sum   'Lu8 Al1 Hg1 Pd23'
_cell_volume   547.28161648
_cell_formula_units_Z   1
loop_
 _symmetry_equiv_pos_site_id
 _symmetry_equiv_pos_as_xyz
  1  'x, y, z'
loop_
 _atom_site_type_symbol
 _atom_site_label
 _atom_site_symmetry_multiplicity
 _atom_site_fract_x
 _atom_site_fract_y
 _atom_site_fract_z
 _atom_site_occupancy
  Lu  Lu0  1  0.251912  0.243274  0.243274  1
  Lu  Lu1  1  0.747476  0.747405  0.747405  1
  Lu  Lu2  1  0.747476  0.747405  0.252595  1
  Lu  Lu3  1  0.747476  0.252595  0.747405  1
  Lu  Lu4  1  0.251912  0.243274  0.756726  1
  Lu  Lu5  1  0.251912  0.756726  0.243274  1
  Lu  Lu6  1  0.251912  0.756726  0.756726  1
  Lu  Lu7  1  0.747476  0.252595  0.252595  1
  Al  Al8  1  0.999218  0.000000  0.000000  1
  Hg  Hg9  1  0.255166  0.500000  0.500000  1
  Pd  Pd10  1  0.258151  0.500000  0.000000  1
  Pd  Pd11  1  0.741073  0.500000  0.000000  1
  Pd  Pd12  1  0.001826  0.257375  0.500000  1
  Pd  Pd13  1  0.501370  0.260153  0.000000  1
  Pd  Pd14  1  0.001826  0.742625  0.500000  1
  Pd  Pd15  1  0.501370  0.739847  0.000000  1
  Pd  Pd16  1  0.501370  0.000000  0.260153  1
  Pd  Pd17  1  0.258151  0.000000  0.500000  1
  Pd  Pd18  1  0.501370  0.000000  0.739847  1
  Pd  Pd19  1  0.741073  0.000000  0.500000  1
  Pd  Pd20  1  0.001826  0.500000  0.257375  1
  Pd  Pd21  1  0.001826  0.500000  0.742625  1
  Pd  Pd22  1  0.747086  0.500000  0.500000  1
  Pd  Pd23  1  0.498481  0.250812  0.500000  1
  Pd  Pd24  1  0.498481  0.749188  0.500000  1
  Pd  Pd25  1  0.498481  0.500000  0.250812  1
  Pd  Pd26  1  0.498481  0.500000  0.749188  1
  Pd  Pd27  1  0.290224  0.000000  0.000000  1
  Pd  Pd28  1  0.711340  0.000000  0.000000  1
  Pd  Pd29  1  0.998564  0.286350  0.000000  1
  Pd  Pd30  1  0.998564  0.713650  0.000000  1
  Pd  Pd31  1  0.998564  0.000000  0.286350  1
  Pd  Pd32  1  0.998564  0.000000  0.713650  1
