# generated using pymatgen
data_LiLa2Ge3Rh4
_symmetry_space_group_name_H-M   'P 1'
_cell_length_a   4.19946400
_cell_length_b   4.19946400
_cell_length_c   10.63870600
_cell_angle_alpha   90.00000000
_cell_angle_beta   90.00000000
_cell_angle_gamma   90.00000000
_symmetry_Int_Tables_number   1
_chemical_formula_structural   LiLa2Ge3Rh4
_chemical_formula_sum   'Li1 La2 Ge3 Rh4'
_cell_volume   187.61887719
_cell_formula_units_Z   1
loop_
 _symmetry_equiv_pos_site_id
 _symmetry_equiv_pos_as_xyz
  1  'x, y, z'
loop_
 _atom_site_type_symbol
 _atom_site_label
 _atom_site_symmetry_multiplicity
 _atom_site_fract_x
 _atom_site_fract_y
 _atom_site_fract_z
 _atom_site_occupancy
  Li  Li0  1  0.000000  0.000000  0.500000  1
  La  La1  1  0.000000  0.500000  0.254280  1
  La  La2  1  0.500000  0.000000  0.745720  1
  Ge  Ge3  1  0.500000  0.500000  0.500000  1
  Ge  Ge4  1  0.000000  0.500000  0.873876  1
  Ge  Ge5  1  0.500000  0.000000  0.126124  1
  Rh  Rh6  1  0.000000  0.000000  0.000000  1
  Rh  Rh7  1  0.500000  0.500000  0.000000  1
  Rh  Rh8  1  0.000000  0.500000  0.637784  1
  Rh  Rh9  1  0.500000  0.000000  0.362216  1
