# generated using pymatgen
data_SmGd6(CCl5)2
_symmetry_space_group_name_H-M   'P 1'
_cell_length_a   10.39064562
_cell_length_b   10.39064621
_cell_length_c   12.98420600
_cell_angle_alpha   80.18448627
_cell_angle_beta   80.18448570
_cell_angle_gamma   20.97352354
_symmetry_Int_Tables_number   1
_chemical_formula_structural   SmGd6(CCl5)2
_chemical_formula_sum   'Sm1 Gd6 C2 Cl10'
_cell_volume   494.17342065
_cell_formula_units_Z   1
loop_
 _symmetry_equiv_pos_site_id
 _symmetry_equiv_pos_as_xyz
  1  'x, y, z'
loop_
 _atom_site_type_symbol
 _atom_site_label
 _atom_site_symmetry_multiplicity
 _atom_site_fract_x
 _atom_site_fract_y
 _atom_site_fract_z
 _atom_site_occupancy
  Sm  Sm0  1  0.000000  0.000000  0.000000  1
  Gd  Gd1  1  0.819312  0.819312  0.507415  1
  Gd  Gd2  1  0.180688  0.180688  0.492585  1
  Gd  Gd3  1  0.697518  0.697518  0.726800  1
  Gd  Gd4  1  0.302482  0.302482  0.273200  1
  Gd  Gd5  1  0.346761  0.346761  0.732711  1
  Gd  Gd6  1  0.653239  0.653239  0.267289  1
  C  C7  1  0.260610  0.260610  0.629691  1
  C  C8  1  0.739390  0.739390  0.370309  1
  Cl  Cl9  1  0.449162  0.449162  0.876312  1
  Cl  Cl10  1  0.550838  0.550838  0.123688  1
  Cl  Cl11  1  0.784930  0.784930  0.870646  1
  Cl  Cl12  1  0.215070  0.215070  0.129354  1
  Cl  Cl13  1  0.121166  0.121166  0.867441  1
  Cl  Cl14  1  0.073207  0.073207  0.376288  1
  Cl  Cl15  1  0.926793  0.926793  0.623712  1
  Cl  Cl16  1  0.402750  0.402750  0.385205  1
  Cl  Cl17  1  0.597250  0.597250  0.614795  1
  Cl  Cl18  1  0.878834  0.878834  0.132559  1
