# generated using pymatgen
data_Dy8V5Si16Mo7
_symmetry_space_group_name_H-M   'P 1'
_cell_length_a   6.72017241
_cell_length_b   6.91424037
_cell_length_c   12.97311600
_cell_angle_alpha   89.99842446
_cell_angle_beta   89.98535684
_cell_angle_gamma   90.08457864
_symmetry_Int_Tables_number   1
_chemical_formula_structural   Dy8V5Si16Mo7
_chemical_formula_sum   'Dy8 V5 Si16 Mo7'
_cell_volume   602.79369752
_cell_formula_units_Z   1
loop_
 _symmetry_equiv_pos_site_id
 _symmetry_equiv_pos_as_xyz
  1  'x, y, z'
loop_
 _atom_site_type_symbol
 _atom_site_label
 _atom_site_symmetry_multiplicity
 _atom_site_fract_x
 _atom_site_fract_y
 _atom_site_fract_z
 _atom_site_occupancy
  Dy  Dy0  1  0.499533  0.330422  0.095223  1
  Dy  Dy1  1  0.000065  0.168917  0.405918  1
  Dy  Dy2  1  0.501497  0.669436  0.593888  1
  Dy  Dy3  1  0.000611  0.830648  0.905594  1
  Dy  Dy4  1  0.502821  0.665810  0.905253  1
  Dy  Dy5  1  0.003063  0.834105  0.593838  1
  Dy  Dy6  1  0.498044  0.332812  0.405635  1
  Dy  Dy7  1  0.998611  0.167055  0.095468  1
  V  V8  1  0.835762  0.332704  0.626521  1
  V  V9  1  0.334737  0.166176  0.873882  1
  V  V10  1  0.164851  0.668435  0.125992  1
  V  V11  1  0.666892  0.832341  0.373691  1
  V  V12  1  0.165050  0.667704  0.374381  1
  Si  Si13  1  0.662532  0.045781  0.543843  1
  Si  Si14  1  0.163250  0.454730  0.956127  1
  Si  Si15  1  0.336671  0.953893  0.043179  1
  Si  Si16  1  0.839339  0.546951  0.456089  1
  Si  Si17  1  0.341128  0.951127  0.454009  1
  Si  Si18  1  0.842983  0.544573  0.045106  1
  Si  Si19  1  0.657145  0.044241  0.954629  1
  Si  Si20  1  0.158135  0.458202  0.543639  1
  Si  Si21  1  0.536272  0.366025  0.748809  1
  Si  Si22  1  0.036458  0.133714  0.750521  1
  Si  Si23  1  0.460416  0.633726  0.251148  1
  Si  Si24  1  0.964417  0.865370  0.251716  1
  Si  Si25  1  0.802430  0.623893  0.747974  1
  Si  Si26  1  0.302564  0.876015  0.751324  1
  Si  Si27  1  0.197604  0.380417  0.250089  1
  Si  Si28  1  0.697330  0.122643  0.251952  1
  Mo  Mo29  1  0.667369  0.832798  0.124546  1
  Mo  Mo30  1  0.831664  0.334517  0.876385  1
  Mo  Mo31  1  0.330832  0.165308  0.623289  1
  Mo  Mo32  1  0.664871  0.006764  0.749740  1
  Mo  Mo33  1  0.164587  0.493519  0.749526  1
  Mo  Mo34  1  0.334140  0.990964  0.250116  1
  Mo  Mo35  1  0.836330  0.508258  0.250958  1
