# generated using pymatgen
data_PrSm4Mn2O12
_symmetry_space_group_name_H-M   'P 1'
_cell_length_a   6.98950310
_cell_length_b   6.98950273
_cell_length_c   7.49147514
_cell_angle_alpha   74.52772517
_cell_angle_beta   74.52772467
_cell_angle_gamma   49.70749769
_symmetry_Int_Tables_number   1
_chemical_formula_structural   PrSm4Mn2O12
_chemical_formula_sum   'Pr1 Sm4 Mn2 O12'
_cell_volume   266.81676723
_cell_formula_units_Z   1
loop_
 _symmetry_equiv_pos_site_id
 _symmetry_equiv_pos_as_xyz
  1  'x, y, z'
loop_
 _atom_site_type_symbol
 _atom_site_label
 _atom_site_symmetry_multiplicity
 _atom_site_fract_x
 _atom_site_fract_y
 _atom_site_fract_z
 _atom_site_occupancy
  Pr  Pr0  1  0.000000  0.000000  0.500000  1
  Sm  Sm1  1  0.307103  0.307103  0.354909  1
  Sm  Sm2  1  0.692897  0.692897  0.645091  1
  Sm  Sm3  1  0.693944  0.693944  0.162491  1
  Sm  Sm4  1  0.306056  0.306056  0.837509  1
  Mn  Mn5  1  0.754041  0.245959  0.000000  1
  Mn  Mn6  1  0.245959  0.754041  0.000000  1
  O  O7  1  0.095536  0.591700  0.578768  1
  O  O8  1  0.999213  0.999213  0.171121  1
  O  O9  1  0.408300  0.904464  0.421232  1
  O  O10  1  0.500306  0.500306  0.173975  1
  O  O11  1  0.100825  0.582896  0.077638  1
  O  O12  1  0.904464  0.408300  0.421232  1
  O  O13  1  0.000787  0.000787  0.828879  1
  O  O14  1  0.591700  0.095535  0.578768  1
  O  O15  1  0.499694  0.499694  0.826025  1
  O  O16  1  0.582896  0.100825  0.077638  1
  O  O17  1  0.417104  0.899175  0.922362  1
  O  O18  1  0.899175  0.417104  0.922362  1
