# generated using pymatgen
data_Tb4PdPt3
_symmetry_space_group_name_H-M   'P 1'
_cell_length_a   4.52093800
_cell_length_b   5.63081200
_cell_length_c   7.10519973
_cell_angle_alpha   89.73126630
_cell_angle_beta   90.00000000
_cell_angle_gamma   90.00000000
_symmetry_Int_Tables_number   1
_chemical_formula_structural   Tb4PdPt3
_chemical_formula_sum   'Tb4 Pd1 Pt3'
_cell_volume   180.87189655
_cell_formula_units_Z   1
loop_
 _symmetry_equiv_pos_site_id
 _symmetry_equiv_pos_as_xyz
  1  'x, y, z'
loop_
 _atom_site_type_symbol
 _atom_site_label
 _atom_site_symmetry_multiplicity
 _atom_site_fract_x
 _atom_site_fract_y
 _atom_site_fract_z
 _atom_site_occupancy
  Tb  Tb0  1  0.000000  0.643541  0.316451  1
  Tb  Tb1  1  0.000000  0.855270  0.817844  1
  Tb  Tb2  1  0.500000  0.360726  0.685939  1
  Tb  Tb3  1  0.500000  0.140458  0.178378  1
  Pd  Pd4  1  0.000000  0.154615  0.457423  1
  Pt  Pt5  1  0.000000  0.340635  0.955441  1
  Pt  Pt6  1  0.500000  0.849988  0.542415  1
  Pt  Pt7  1  0.500000  0.654768  0.046109  1
