# generated using pymatgen
data_Sc4Ga20OsRu5
_symmetry_space_group_name_H-M   'P 1'
_cell_length_a   8.86437800
_cell_length_b   8.86437800
_cell_length_c   6.19214300
_cell_angle_alpha   90.00000000
_cell_angle_beta   90.00000000
_cell_angle_gamma   90.00000000
_symmetry_Int_Tables_number   1
_chemical_formula_structural   Sc4Ga20OsRu5
_chemical_formula_sum   'Sc4 Ga20 Os1 Ru5'
_cell_volume   486.56124239
_cell_formula_units_Z   1
loop_
 _symmetry_equiv_pos_site_id
 _symmetry_equiv_pos_as_xyz
  1  'x, y, z'
loop_
 _atom_site_type_symbol
 _atom_site_label
 _atom_site_symmetry_multiplicity
 _atom_site_fract_x
 _atom_site_fract_y
 _atom_site_fract_z
 _atom_site_occupancy
  Sc  Sc0  1  0.681929  0.184021  0.000000  1
  Sc  Sc1  1  0.318071  0.815979  0.000000  1
  Sc  Sc2  1  0.815979  0.681929  0.000000  1
  Sc  Sc3  1  0.184021  0.318071  0.000000  1
  Ga  Ga4  1  0.937825  0.207755  0.286449  1
  Ga  Ga5  1  0.708176  0.437593  0.288020  1
  Ga  Ga6  1  0.500000  0.000000  0.273003  1
  Ga  Ga7  1  0.562407  0.708176  0.711980  1
  Ga  Ga8  1  0.291824  0.562407  0.711980  1
  Ga  Ga9  1  0.792245  0.937825  0.286449  1
  Ga  Ga10  1  0.937825  0.207755  0.713551  1
  Ga  Ga11  1  0.291824  0.562407  0.288020  1
  Ga  Ga12  1  0.062175  0.792245  0.286449  1
  Ga  Ga13  1  0.708176  0.437593  0.711980  1
  Ga  Ga14  1  0.437593  0.291824  0.711980  1
  Ga  Ga15  1  0.062175  0.792245  0.713551  1
  Ga  Ga16  1  0.207755  0.062175  0.713551  1
  Ga  Ga17  1  0.792245  0.937825  0.713551  1
  Ga  Ga18  1  0.207755  0.062175  0.286449  1
  Ga  Ga19  1  0.000000  0.500000  0.726997  1
  Ga  Ga20  1  0.000000  0.500000  0.273003  1
  Ga  Ga21  1  0.562407  0.708176  0.288020  1
  Ga  Ga22  1  0.437593  0.291824  0.288020  1
  Ga  Ga23  1  0.500000  0.000000  0.726997  1
  Os  Os24  1  0.500000  0.500000  0.000000  1
  Ru  Ru25  1  0.677283  0.177263  0.500000  1
  Ru  Ru26  1  0.822737  0.677283  0.500000  1
  Ru  Ru27  1  0.177263  0.322717  0.500000  1
  Ru  Ru28  1  0.000000  0.000000  0.000000  1
  Ru  Ru29  1  0.322717  0.822737  0.500000  1
