# generated using pymatgen
data_Ho4MnFeRu6
_symmetry_space_group_name_H-M   'P 1'
_cell_length_a   5.35842218
_cell_length_b   5.16358398
_cell_length_c   8.84187200
_cell_angle_alpha   90.00000000
_cell_angle_beta   90.00000000
_cell_angle_gamma   121.25918702
_symmetry_Int_Tables_number   1
_chemical_formula_structural   Ho4MnFeRu6
_chemical_formula_sum   'Ho4 Mn1 Fe1 Ru6'
_cell_volume   209.12766069
_cell_formula_units_Z   1
loop_
 _symmetry_equiv_pos_site_id
 _symmetry_equiv_pos_as_xyz
  1  'x, y, z'
loop_
 _atom_site_type_symbol
 _atom_site_label
 _atom_site_symmetry_multiplicity
 _atom_site_fract_x
 _atom_site_fract_y
 _atom_site_fract_z
 _atom_site_occupancy
  Ho  Ho0  1  0.669523  0.338854  0.566435  1
  Ho  Ho1  1  0.329678  0.659459  0.435425  1
  Ho  Ho2  1  0.329678  0.659459  0.064575  1
  Ho  Ho3  1  0.669523  0.338854  0.933565  1
  Mn  Mn4  1  0.841580  0.683631  0.250000  1
  Fe  Fe5  1  0.159246  0.318056  0.750000  1
  Ru  Ru6  1  0.000460  0.000583  0.500055  1
  Ru  Ru7  1  0.000460  0.000583  0.999945  1
  Ru  Ru8  1  0.176748  0.826127  0.750000  1
  Ru  Ru9  1  0.649562  0.826761  0.750000  1
  Ru  Ru10  1  0.821680  0.173726  0.250000  1
  Ru  Ru11  1  0.351861  0.173908  0.250000  1
