# generated using pymatgen
data_Mn8Co3Ni(W6C)2
_symmetry_space_group_name_H-M   'P 1'
_cell_length_a   7.76783573
_cell_length_b   7.76783603
_cell_length_c   7.76783677
_cell_angle_alpha   59.77600302
_cell_angle_beta   59.77600335
_cell_angle_gamma   59.77599996
_symmetry_Int_Tables_number   1
_chemical_formula_structural   Mn8Co3Ni(W6C)2
_chemical_formula_sum   'Mn8 Co3 Ni1 W12 C2'
_cell_volume   329.73940335
_cell_formula_units_Z   1
loop_
 _symmetry_equiv_pos_site_id
 _symmetry_equiv_pos_as_xyz
  1  'x, y, z'
loop_
 _atom_site_type_symbol
 _atom_site_label
 _atom_site_symmetry_multiplicity
 _atom_site_fract_x
 _atom_site_fract_y
 _atom_site_fract_z
 _atom_site_occupancy
  Mn  Mn0  1  0.424660  0.424660  0.424660  1
  Mn  Mn1  1  0.829228  0.829228  0.517242  1
  Mn  Mn2  1  0.829228  0.517242  0.829228  1
  Mn  Mn3  1  0.517242  0.829228  0.829228  1
  Mn  Mn4  1  0.619275  0.619275  0.125523  1
  Mn  Mn5  1  0.619275  0.125523  0.619275  1
  Mn  Mn6  1  0.125523  0.619275  0.619275  1
  Mn  Mn7  1  0.625984  0.625984  0.625984  1
  Co  Co8  1  0.420075  0.420075  0.742366  1
  Co  Co9  1  0.420075  0.742366  0.420075  1
  Co  Co10  1  0.742366  0.420075  0.420075  1
  Ni  Ni11  1  0.833183  0.833183  0.833183  1
  W  W12  1  0.053095  0.053095  0.447146  1
  W  W13  1  0.446321  0.052919  0.446321  1
  W  W14  1  0.052919  0.446321  0.446321  1
  W  W15  1  0.446321  0.446321  0.052919  1
  W  W16  1  0.053095  0.447146  0.053095  1
  W  W17  1  0.447146  0.053095  0.053095  1
  W  W18  1  0.195897  0.195897  0.803646  1
  W  W19  1  0.801942  0.197200  0.801942  1
  W  W20  1  0.197200  0.801942  0.801942  1
  W  W21  1  0.801942  0.801942  0.197200  1
  W  W22  1  0.195897  0.803646  0.195897  1
  W  W23  1  0.803646  0.195897  0.195897  1
  C  C24  1  0.249608  0.249608  0.249608  1
  C  C25  1  0.998861  0.998861  0.998861  1
