# generated using pymatgen
data_Ti10Ga3Si2Pt
_symmetry_space_group_name_H-M   'P 1'
_cell_length_a   4.94044034
_cell_length_b   7.54121453
_cell_length_c   7.66410482
_cell_angle_alpha   83.93960189
_cell_angle_beta   71.19730737
_cell_angle_gamma   70.87910311
_symmetry_Int_Tables_number   1
_chemical_formula_structural   Ti10Ga3Si2Pt
_chemical_formula_sum   'Ti10 Ga3 Si2 Pt1'
_cell_volume   255.39005950
_cell_formula_units_Z   1
loop_
 _symmetry_equiv_pos_site_id
 _symmetry_equiv_pos_as_xyz
  1  'x, y, z'
loop_
 _atom_site_type_symbol
 _atom_site_label
 _atom_site_symmetry_multiplicity
 _atom_site_fract_x
 _atom_site_fract_y
 _atom_site_fract_z
 _atom_site_occupancy
  Ti  Ti0  1  0.253393  0.493720  0.500000  1
  Ti  Ti1  1  0.752886  0.493720  0.500000  1
  Ti  Ti2  1  0.075701  0.141319  0.707280  1
  Ti  Ti3  1  0.920960  0.868264  0.289816  1
  Ti  Ti4  1  0.785256  0.292085  0.137403  1
  Ti  Ti5  1  0.422658  0.292085  0.862597  1
  Ti  Ti6  1  0.218758  0.704806  0.857679  1
  Ti  Ti7  1  0.576437  0.704806  0.142321  1
  Ti  Ti8  1  0.710775  0.868264  0.710184  1
  Ti  Ti9  1  0.282981  0.141319  0.292720  1
  Ga  Ga10  1  0.162669  0.502378  0.172283  1
  Ga  Ga11  1  0.834953  0.502378  0.827717  1
  Ga  Ga12  1  0.334904  0.830193  0.500000  1
  Si  Si13  1  0.250332  0.999337  0.000000  1
  Si  Si14  1  0.750332  0.999337  0.000000  1
  Pt  Pt15  1  0.667006  0.165987  0.500000  1
