# generated using pymatgen
data_Lu(FeRe2)4
_symmetry_space_group_name_H-M   'P 1'
_cell_length_a   6.73539237
_cell_length_b   6.73539268
_cell_length_c   6.73539279
_cell_angle_alpha   97.26834814
_cell_angle_beta   97.26835989
_cell_angle_gamma   138.32829981
_symmetry_Int_Tables_number   1
_chemical_formula_structural   Lu(FeRe2)4
_chemical_formula_sum   'Lu1 Fe4 Re8'
_cell_volume   189.86600061
_cell_formula_units_Z   1
loop_
 _symmetry_equiv_pos_site_id
 _symmetry_equiv_pos_as_xyz
  1  'x, y, z'
loop_
 _atom_site_type_symbol
 _atom_site_label
 _atom_site_symmetry_multiplicity
 _atom_site_fract_x
 _atom_site_fract_y
 _atom_site_fract_z
 _atom_site_occupancy
  Lu  Lu0  1  0.000000  0.000000  0.000000  1
  Fe  Fe1  1  0.500000  0.000000  0.000000  1
  Fe  Fe2  1  0.500000  0.500000  0.500000  1
  Fe  Fe3  1  0.000000  0.000000  0.500000  1
  Fe  Fe4  1  0.000000  0.500000  0.000000  1
  Re  Re5  1  0.000000  0.356647  0.356647  1
  Re  Re6  1  0.286081  0.500000  0.786081  1
  Re  Re7  1  0.500000  0.286081  0.786081  1
  Re  Re8  1  0.500000  0.713919  0.213919  1
  Re  Re9  1  0.713919  0.500000  0.213919  1
  Re  Re10  1  0.000000  0.643353  0.643353  1
  Re  Re11  1  0.356647  0.000000  0.356647  1
  Re  Re12  1  0.643353  0.000000  0.643353  1
