# generated using pymatgen
data_Cs3Er(GeO3)3
_symmetry_space_group_name_H-M   'P 1'
_cell_length_a   7.11673544
_cell_length_b   7.15389844
_cell_length_c   7.16788600
_cell_angle_alpha   108.90251160
_cell_angle_beta   106.72475713
_cell_angle_gamma   107.64892473
_symmetry_Int_Tables_number   1
_chemical_formula_structural   Cs3Er(GeO3)3
_chemical_formula_sum   'Cs3 Er1 Ge3 O9'
_cell_volume   297.32322671
_cell_formula_units_Z   1
loop_
 _symmetry_equiv_pos_site_id
 _symmetry_equiv_pos_as_xyz
  1  'x, y, z'
loop_
 _atom_site_type_symbol
 _atom_site_label
 _atom_site_symmetry_multiplicity
 _atom_site_fract_x
 _atom_site_fract_y
 _atom_site_fract_z
 _atom_site_occupancy
  Cs  Cs0  1  0.744632  0.879693  0.224201  1
  Cs  Cs1  1  0.580463  0.812140  0.647296  1
  Cs  Cs2  1  0.327145  0.177560  0.668286  1
  Er  Er3  1  0.062313  0.374019  0.101742  1
  Ge  Ge4  1  0.188011  0.898730  0.076401  1
  Ge  Ge5  1  0.594288  0.340808  0.236001  1
  Ge  Ge6  1  0.031032  0.492218  0.633761  1
  O  O7  1  0.711792  0.262084  0.058264  1
  O  O8  1  0.417840  0.455869  0.161351  1
  O  O9  1  0.115917  0.725976  0.194950  1
  O  O10  1  0.458841  0.108528  0.277098  1
  O  O11  1  0.141748  0.417991  0.448737  1
  O  O12  1  0.798618  0.537275  0.509677  1
  O  O13  1  0.968357  0.310282  0.746457  1
  O  O14  1  0.235359  0.764709  0.843960  1
  O  O15  1  0.017251  0.020665  0.008320  1
