# generated using pymatgen
data_TlSeO4
_symmetry_space_group_name_H-M   'P 1'
_cell_length_a   5.25554115
_cell_length_b   8.75227928
_cell_length_c   9.73720666
_cell_angle_alpha   91.48438767
_cell_angle_beta   90.02705383
_cell_angle_gamma   89.97734313
_symmetry_Int_Tables_number   1
_chemical_formula_structural   TlSeO4
_chemical_formula_sum   'Tl4 Se4 O16'
_cell_volume   447.74129432
_cell_formula_units_Z   4
loop_
 _symmetry_equiv_pos_site_id
 _symmetry_equiv_pos_as_xyz
  1  'x, y, z'
loop_
 _atom_site_type_symbol
 _atom_site_label
 _atom_site_symmetry_multiplicity
 _atom_site_fract_x
 _atom_site_fract_y
 _atom_site_fract_z
 _atom_site_occupancy
  Tl  Tl0  1  0.000000  0.500000  0.000000  1
  Tl  Tl1  1  0.500000  0.500000  0.500000  1
  Tl  Tl2  1  0.500000  0.000000  0.500000  1
  Tl  Tl3  1  0.000000  0.000000  0.000000  1
  Se  Se4  1  0.016303  0.792214  0.313621  1
  Se  Se5  1  0.483686  0.792259  0.813605  1
  Se  Se6  1  0.983697  0.207786  0.686378  1
  Se  Se7  1  0.516314  0.207740  0.186395  1
  O  O8  1  0.828577  0.184249  0.145955  1
  O  O9  1  0.171423  0.815751  0.854045  1
  O  O10  1  0.328628  0.815832  0.353918  1
  O  O11  1  0.671372  0.184169  0.646082  1
  O  O12  1  0.984775  0.793638  0.138970  1
  O  O13  1  0.514515  0.793590  0.638922  1
  O  O14  1  0.485485  0.206410  0.361078  1
  O  O15  1  0.015226  0.206362  0.861030  1
  O  O16  1  0.922780  0.622802  0.362439  1
  O  O17  1  0.862544  0.945958  0.378882  1
  O  O18  1  0.362516  0.053944  0.121339  1
  O  O19  1  0.137455  0.054042  0.621118  1
  O  O20  1  0.577664  0.622874  0.862386  1
  O  O21  1  0.422336  0.377126  0.137614  1
  O  O22  1  0.077220  0.377199  0.637561  1
  O  O23  1  0.637483  0.946056  0.878661  1
