# generated using pymatgen
data_Sc20(GaBi3)3
_symmetry_space_group_name_H-M   'P 1'
_cell_length_a   11.25161708
_cell_length_b   8.88719900
_cell_length_c   7.68306905
_cell_angle_alpha   90.00000000
_cell_angle_beta   89.98645838
_cell_angle_gamma   90.00000000
_symmetry_Int_Tables_number   1
_chemical_formula_structural   Sc20(GaBi3)3
_chemical_formula_sum   'Sc20 Ga3 Bi9'
_cell_volume   768.27123484
_cell_formula_units_Z   1
loop_
 _symmetry_equiv_pos_site_id
 _symmetry_equiv_pos_as_xyz
  1  'x, y, z'
loop_
 _atom_site_type_symbol
 _atom_site_label
 _atom_site_symmetry_multiplicity
 _atom_site_fract_x
 _atom_site_fract_y
 _atom_site_fract_z
 _atom_site_occupancy
  Sc  Sc0  1  0.780863  0.749999  0.177755  1
  Sc  Sc1  1  0.733059  0.249999  0.686489  1
  Sc  Sc2  1  0.280812  0.749999  0.325162  1
  Sc  Sc3  1  0.215226  0.249999  0.827979  1
  Sc  Sc4  1  0.057187  0.442340  0.180495  1
  Sc  Sc5  1  0.439695  0.572994  0.684004  1
  Sc  Sc6  1  0.561948  0.048623  0.307895  1
  Sc  Sc7  1  0.942343  0.941911  0.818699  1
  Sc  Sc8  1  0.057187  0.057660  0.180495  1
  Sc  Sc9  1  0.995365  0.749999  0.466551  1
  Sc  Sc10  1  0.505659  0.249999  0.982984  1
  Sc  Sc11  1  0.495769  0.749999  0.034182  1
  Sc  Sc12  1  0.004636  0.249999  0.531430  1
  Sc  Sc13  1  0.707795  0.749999  0.651475  1
  Sc  Sc14  1  0.791497  0.249999  0.151490  1
  Sc  Sc15  1  0.207356  0.749999  0.849198  1
  Sc  Sc16  1  0.283390  0.249999  0.335364  1
  Sc  Sc17  1  0.942343  0.558088  0.818699  1
  Sc  Sc18  1  0.561948  0.451377  0.307895  1
  Sc  Sc19  1  0.439695  0.927005  0.684004  1
  Ga  Ga20  1  0.526969  0.749999  0.402608  1
  Ga  Ga21  1  0.971177  0.249999  0.901346  1
  Ga  Ga22  1  0.026417  0.749999  0.097954  1
  Bi  Bi23  1  0.322799  0.492000  0.061059  1
  Bi  Bi24  1  0.176161  0.509382  0.561127  1
  Bi  Bi25  1  0.823140  0.009610  0.438826  1
  Bi  Bi26  1  0.677267  0.989572  0.937805  1
  Bi  Bi27  1  0.677267  0.510429  0.937805  1
  Bi  Bi28  1  0.823140  0.490390  0.438826  1
  Bi  Bi29  1  0.176161  0.990619  0.561127  1
  Bi  Bi30  1  0.322799  0.008000  0.061059  1
  Bi  Bi31  1  0.472928  0.249999  0.598212  1
