# generated using pymatgen
data_Ba2Zr6MnCl17
_symmetry_space_group_name_H-M   'P 1'
_cell_length_a   9.89162865
_cell_length_b   9.89162826
_cell_length_c   9.89162937
_cell_angle_alpha   105.31092037
_cell_angle_beta   105.31092636
_cell_angle_gamma   118.15679187
_symmetry_Int_Tables_number   1
_chemical_formula_structural   Ba2Zr6MnCl17
_chemical_formula_sum   'Ba2 Zr6 Mn1 Cl17'
_cell_volume   732.02594269
_cell_formula_units_Z   1
loop_
 _symmetry_equiv_pos_site_id
 _symmetry_equiv_pos_as_xyz
  1  'x, y, z'
loop_
 _atom_site_type_symbol
 _atom_site_label
 _atom_site_symmetry_multiplicity
 _atom_site_fract_x
 _atom_site_fract_y
 _atom_site_fract_z
 _atom_site_occupancy
  Ba  Ba0  1  0.250000  0.750000  0.500000  1
  Ba  Ba1  1  0.750000  0.250000  0.500000  1
  Zr  Zr2  1  0.240246  0.240246  0.000000  1
  Zr  Zr3  1  0.759754  0.759754  0.000000  1
  Zr  Zr4  1  0.189131  0.070417  0.259549  1
  Zr  Zr5  1  0.929583  0.189131  0.118714  1
  Zr  Zr6  1  0.810869  0.929583  0.740451  1
  Zr  Zr7  1  0.070417  0.810869  0.881286  1
  Mn  Mn8  1  0.000000  0.000000  0.000000  1
  Cl  Cl9  1  0.871640  0.722314  0.593954  1
  Cl  Cl10  1  0.277686  0.871640  0.149325  1
  Cl  Cl11  1  0.128003  0.590381  0.718384  1
  Cl  Cl12  1  0.540572  0.672345  0.720450  1
  Cl  Cl13  1  0.871997  0.409619  0.281616  1
  Cl  Cl14  1  0.459428  0.327655  0.279550  1
  Cl  Cl15  1  0.820121  0.540572  0.868228  1
  Cl  Cl16  1  0.409619  0.128003  0.537622  1
  Cl  Cl17  1  0.590381  0.871997  0.462378  1
  Cl  Cl18  1  0.128360  0.277686  0.406046  1
  Cl  Cl19  1  0.327655  0.048106  0.868228  1
  Cl  Cl20  1  0.951894  0.820121  0.279550  1
  Cl  Cl21  1  0.722314  0.128360  0.850675  1
  Cl  Cl22  1  0.500000  0.500000  0.000000  1
  Cl  Cl23  1  0.179879  0.459428  0.131772  1
  Cl  Cl24  1  0.048106  0.179879  0.720450  1
  Cl  Cl25  1  0.672345  0.951894  0.131772  1
