# generated using pymatgen
data_Ca6SbIO12
_symmetry_space_group_name_H-M   'P 1'
_cell_length_a   5.89772735
_cell_length_b   5.63844912
_cell_length_c   9.89577819
_cell_angle_alpha   55.33920058
_cell_angle_beta   90.18460684
_cell_angle_gamma   89.97711668
_symmetry_Int_Tables_number   1
_chemical_formula_structural   Ca6SbIO12
_chemical_formula_sum   'Ca6 Sb1 I1 O12'
_cell_volume   270.67239478
_cell_formula_units_Z   1
loop_
 _symmetry_equiv_pos_site_id
 _symmetry_equiv_pos_as_xyz
  1  'x, y, z'
loop_
 _atom_site_type_symbol
 _atom_site_label
 _atom_site_symmetry_multiplicity
 _atom_site_fract_x
 _atom_site_fract_y
 _atom_site_fract_z
 _atom_site_occupancy
  Ca  Ca0  1  0.050817  0.719988  0.772854  1
  Ca  Ca1  1  0.949183  0.280012  0.227146  1
  Ca  Ca2  1  0.560968  0.260250  0.762194  1
  Ca  Ca3  1  0.439032  0.739750  0.237806  1
  Ca  Ca4  1  0.500000  0.500000  0.000000  1
  Ca  Ca5  1  0.000000  0.500000  0.500000  1
  Sb  Sb6  1  0.000000  0.000000  0.000000  1
  I  I7  1  0.500000  0.000000  0.500000  1
  O  O8  1  0.444034  0.906241  0.715610  1
  O  O9  1  0.555966  0.093759  0.284390  1
  O  O10  1  0.941957  0.123116  0.766570  1
  O  O11  1  0.058043  0.876884  0.233430  1
  O  O12  1  0.765984  0.760891  0.576396  1
  O  O13  1  0.234016  0.239109  0.423604  1
  O  O14  1  0.284099  0.242286  0.933211  1
  O  O15  1  0.715901  0.757714  0.066789  1
  O  O16  1  0.325881  0.671750  0.555907  1
  O  O17  1  0.674119  0.328250  0.444093  1
  O  O18  1  0.818450  0.338790  0.954371  1
  O  O19  1  0.181550  0.661210  0.045629  1
