# generated using pymatgen
data_Dy4CdPt4Au
_symmetry_space_group_name_H-M   'P 1'
_cell_length_a   7.66739100
_cell_length_b   7.66739100
_cell_length_c   3.71675700
_cell_angle_alpha   90.00000000
_cell_angle_beta   90.00000000
_cell_angle_gamma   90.00000000
_symmetry_Int_Tables_number   1
_chemical_formula_structural   Dy4CdPt4Au
_chemical_formula_sum   'Dy4 Cd1 Pt4 Au1'
_cell_volume   218.50399891
_cell_formula_units_Z   1
loop_
 _symmetry_equiv_pos_site_id
 _symmetry_equiv_pos_as_xyz
  1  'x, y, z'
loop_
 _atom_site_type_symbol
 _atom_site_label
 _atom_site_symmetry_multiplicity
 _atom_site_fract_x
 _atom_site_fract_y
 _atom_site_fract_z
 _atom_site_occupancy
  Dy  Dy0  1  0.311630  0.849818  0.500000  1
  Dy  Dy1  1  0.849818  0.688370  0.500000  1
  Dy  Dy2  1  0.150182  0.311630  0.500000  1
  Dy  Dy3  1  0.688370  0.150182  0.500000  1
  Cd  Cd4  1  0.500000  0.500000  0.000000  1
  Pt  Pt5  1  0.381431  0.144311  0.000000  1
  Pt  Pt6  1  0.855689  0.381431  0.000000  1
  Pt  Pt7  1  0.144311  0.618569  0.000000  1
  Pt  Pt8  1  0.618569  0.855689  0.000000  1
  Au  Au9  1  0.000000  0.000000  0.000000  1
