# generated using pymatgen
data_YbSc3Zn2(B2Rh5)2
_symmetry_space_group_name_H-M   'P 1'
_cell_length_a   9.47957092
_cell_length_b   3.03814400
_cell_length_c   9.47957092
_cell_angle_alpha   90.00000000
_cell_angle_beta   89.43329986
_cell_angle_gamma   90.00000000
_symmetry_Int_Tables_number   1
_chemical_formula_structural   YbSc3Zn2(B2Rh5)2
_chemical_formula_sum   'Yb1 Sc3 Zn2 B4 Rh10'
_cell_volume   273.00114666
_cell_formula_units_Z   1
loop_
 _symmetry_equiv_pos_site_id
 _symmetry_equiv_pos_as_xyz
  1  'x, y, z'
loop_
 _atom_site_type_symbol
 _atom_site_label
 _atom_site_symmetry_multiplicity
 _atom_site_fract_x
 _atom_site_fract_y
 _atom_site_fract_z
 _atom_site_occupancy
  Yb  Yb0  1  0.675908  0.000000  0.175907  1
  Sc  Sc1  1  0.175745  0.000000  0.324324  1
  Sc  Sc2  1  0.824325  0.000000  0.675746  1
  Sc  Sc3  1  0.324032  0.000000  0.824033  1
  Zn  Zn4  1  0.996307  0.000000  0.001260  1
  Zn  Zn5  1  0.501260  0.000000  0.496307  1
  B  B6  1  0.370897  0.000000  0.124257  1
  B  B7  1  0.876443  0.000000  0.376442  1
  B  B8  1  0.128409  0.000000  0.628409  1
  B  B9  1  0.624257  0.000000  0.870898  1
  Rh  Rh10  1  0.495723  0.500001  0.995723  1
  Rh  Rh11  1  0.215328  0.500001  0.068837  1
  Rh  Rh12  1  0.938923  0.500001  0.222988  1
  Rh  Rh13  1  0.420334  0.500001  0.282187  1
  Rh  Rh14  1  0.722989  0.500001  0.438923  1
  Rh  Rh15  1  0.003109  0.500001  0.503109  1
  Rh  Rh16  1  0.283750  0.500001  0.571239  1
  Rh  Rh17  1  0.568837  0.500001  0.715329  1
  Rh  Rh18  1  0.071239  0.500001  0.783750  1
  Rh  Rh19  1  0.782187  0.500001  0.920334  1
