# generated using pymatgen
data_Ta4Be6SiGe
_symmetry_space_group_name_H-M   'P 1'
_cell_length_a   4.67654800
_cell_length_b   4.67654855
_cell_length_c   7.79845000
_cell_angle_alpha   90.00000000
_cell_angle_beta   90.00000000
_cell_angle_gamma   119.99999614
_symmetry_Int_Tables_number   1
_chemical_formula_structural   Ta4Be6SiGe
_chemical_formula_sum   'Ta4 Be6 Si1 Ge1'
_cell_volume   147.70315899
_cell_formula_units_Z   1
loop_
 _symmetry_equiv_pos_site_id
 _symmetry_equiv_pos_as_xyz
  1  'x, y, z'
loop_
 _atom_site_type_symbol
 _atom_site_label
 _atom_site_symmetry_multiplicity
 _atom_site_fract_x
 _atom_site_fract_y
 _atom_site_fract_z
 _atom_site_occupancy
  Ta  Ta0  1  0.333333  0.666667  0.433641  1
  Ta  Ta1  1  0.666667  0.333333  0.566359  1
  Ta  Ta2  1  0.666667  0.333333  0.933044  1
  Ta  Ta3  1  0.333333  0.666667  0.066956  1
  Be  Be4  1  0.823124  0.176876  0.253671  1
  Be  Be5  1  0.823124  0.646249  0.253671  1
  Be  Be6  1  0.353751  0.176876  0.253671  1
  Be  Be7  1  0.176876  0.823124  0.746329  1
  Be  Be8  1  0.176876  0.353751  0.746329  1
  Be  Be9  1  0.646249  0.823124  0.746329  1
  Si  Si10  1  0.000000  0.000000  0.500000  1
  Ge  Ge11  1  0.000000  0.000000  0.000000  1
