# generated using pymatgen
data_Lu7Th(Ta3Si4)4
_symmetry_space_group_name_H-M   'P 1'
_cell_length_a   6.99714105
_cell_length_b   6.99853106
_cell_length_c   12.89790000
_cell_angle_alpha   89.94571313
_cell_angle_beta   90.00708301
_cell_angle_gamma   89.97060781
_symmetry_Int_Tables_number   1
_chemical_formula_structural   Lu7Th(Ta3Si4)4
_chemical_formula_sum   'Lu7 Th1 Ta12 Si16'
_cell_volume   631.60603840
_cell_formula_units_Z   1
loop_
 _symmetry_equiv_pos_site_id
 _symmetry_equiv_pos_as_xyz
  1  'x, y, z'
loop_
 _atom_site_type_symbol
 _atom_site_label
 _atom_site_symmetry_multiplicity
 _atom_site_fract_x
 _atom_site_fract_y
 _atom_site_fract_z
 _atom_site_occupancy
  Lu  Lu0  1  0.340889  0.001737  0.469212  1
  Lu  Lu1  1  0.497748  0.841443  0.717804  1
  Lu  Lu2  1  0.499706  0.159789  0.220946  1
  Lu  Lu3  1  0.840769  0.499356  0.281681  1
  Lu  Lu4  1  0.159212  0.499736  0.780107  1
  Lu  Lu5  1  0.657330  0.998587  0.967560  1
  Lu  Lu6  1  0.001739  0.341864  0.531076  1
  Th  Th7  1  0.994703  0.660625  0.031854  1
  Ta  Ta8  1  0.328283  0.329671  0.999928  1
  Ta  Ta9  1  0.171366  0.830352  0.251261  1
  Ta  Ta10  1  0.828812  0.170515  0.748372  1
  Ta  Ta11  1  0.671732  0.671700  0.500187  1
  Ta  Ta12  1  0.154526  0.002047  0.872033  1
  Ta  Ta13  1  0.494644  0.653401  0.124894  1
  Ta  Ta14  1  0.506206  0.348144  0.623566  1
  Ta  Ta15  1  0.654184  0.490682  0.874105  1
  Ta  Ta16  1  0.348723  0.505911  0.377333  1
  Ta  Ta17  1  0.847333  0.994649  0.375427  1
  Ta  Ta18  1  0.006611  0.153263  0.127034  1
  Ta  Ta19  1  0.993956  0.848105  0.624981  1
  Si  Si20  1  0.204537  0.135675  0.679550  1
  Si  Si21  1  0.371457  0.703670  0.928154  1
  Si  Si22  1  0.636378  0.296217  0.430854  1
  Si  Si23  1  0.699364  0.359247  0.069171  1
  Si  Si24  1  0.296324  0.636300  0.569611  1
  Si  Si25  1  0.790048  0.871744  0.185407  1
  Si  Si26  1  0.135493  0.204208  0.320900  1
  Si  Si27  1  0.862774  0.796869  0.815709  1
  Si  Si28  1  0.300978  0.959982  0.064410  1
  Si  Si29  1  0.542045  0.798128  0.315720  1
  Si  Si30  1  0.454149  0.203337  0.813018  1
  Si  Si31  1  0.797097  0.544598  0.684953  1
  Si  Si32  1  0.207779  0.452398  0.189859  1
  Si  Si33  1  0.702605  0.044976  0.564082  1
  Si  Si34  1  0.955737  0.287528  0.933231  1
  Si  Si35  1  0.044761  0.703549  0.436009  1
