# generated using pymatgen
data_Rb3EuV2O8
_symmetry_space_group_name_H-M   'P 1'
_cell_length_a   6.17097900
_cell_length_b   6.17097825
_cell_length_c   8.06599100
_cell_angle_alpha   90.00000000
_cell_angle_beta   90.00000000
_cell_angle_gamma   119.99999867
_symmetry_Int_Tables_number   1
_chemical_formula_structural   Rb3EuV2O8
_chemical_formula_sum   'Rb3 Eu1 V2 O8'
_cell_volume   266.00907600
_cell_formula_units_Z   1
loop_
 _symmetry_equiv_pos_site_id
 _symmetry_equiv_pos_as_xyz
  1  'x, y, z'
loop_
 _atom_site_type_symbol
 _atom_site_label
 _atom_site_symmetry_multiplicity
 _atom_site_fract_x
 _atom_site_fract_y
 _atom_site_fract_z
 _atom_site_occupancy
  Rb  Rb0  1  0.333333  0.666667  0.701530  1
  Rb  Rb1  1  0.666667  0.333333  0.298470  1
  Rb  Rb2  1  0.000000  0.000000  0.000000  1
  Eu  Eu3  1  0.000000  0.000000  0.500000  1
  V  V4  1  0.333333  0.666667  0.255671  1
  V  V5  1  0.666667  0.333333  0.744329  1
  O  O6  1  0.333333  0.666667  0.046326  1
  O  O7  1  0.666667  0.333333  0.953674  1
  O  O8  1  0.177398  0.822602  0.329540  1
  O  O9  1  0.822602  0.177398  0.670460  1
  O  O10  1  0.177398  0.354797  0.329540  1
  O  O11  1  0.822602  0.645203  0.670460  1
  O  O12  1  0.645203  0.822602  0.329540  1
  O  O13  1  0.354797  0.177398  0.670460  1
