# generated using pymatgen
data_Dy4HoGaSiB8
_symmetry_space_group_name_H-M   'P 1'
_cell_length_a   7.24306500
_cell_length_b   7.24306534
_cell_length_c   8.13723200
_cell_angle_alpha   90.00000000
_cell_angle_beta   90.00000000
_cell_angle_gamma   89.66325885
_symmetry_Int_Tables_number   1
_chemical_formula_structural   Dy4HoGaSiB8
_chemical_formula_sum   'Dy8 Ho2 Ga2 Si2 B16'
_cell_volume   426.88803555
_cell_formula_units_Z   2
loop_
 _symmetry_equiv_pos_site_id
 _symmetry_equiv_pos_as_xyz
  1  'x, y, z'
loop_
 _atom_site_type_symbol
 _atom_site_label
 _atom_site_symmetry_multiplicity
 _atom_site_fract_x
 _atom_site_fract_y
 _atom_site_fract_z
 _atom_site_occupancy
  Dy  Dy0  1  0.679373  0.179373  0.223696  1
  Dy  Dy1  1  0.320627  0.820627  0.776304  1
  Dy  Dy2  1  0.320627  0.820627  0.223696  1
  Dy  Dy3  1  0.815627  0.684373  0.219152  1
  Dy  Dy4  1  0.815627  0.684373  0.780848  1
  Dy  Dy5  1  0.679373  0.179373  0.776304  1
  Dy  Dy6  1  0.184373  0.315627  0.780848  1
  Dy  Dy7  1  0.184373  0.315627  0.219152  1
  Ho  Ho8  1  0.000000  0.000000  0.500000  1
  Ho  Ho9  1  0.500000  0.500000  0.500000  1
  Ga  Ga10  1  0.117447  0.617447  0.500000  1
  Ga  Ga11  1  0.882553  0.382553  0.500000  1
  Si  Si12  1  0.384098  0.115902  0.500000  1
  Si  Si13  1  0.615902  0.884098  0.500000  1
  B  B14  1  0.171568  0.039251  0.000000  1
  B  B15  1  0.828432  0.960749  0.000000  1
  B  B16  1  0.959519  0.171895  0.000000  1
  B  B17  1  0.328105  0.540481  0.000000  1
  B  B18  1  0.040481  0.828105  0.000000  1
  B  B19  1  0.671895  0.459519  0.000000  1
  B  B20  1  0.539251  0.671568  0.000000  1
  B  B21  1  0.460749  0.328432  0.000000  1
  B  B22  1  0.090646  0.590646  0.000000  1
  B  B23  1  0.909354  0.409354  0.000000  1
  B  B24  1  0.408529  0.091471  0.000000  1
  B  B25  1  0.591471  0.908529  0.000000  1
  B  B26  1  0.000000  0.000000  0.162137  1
  B  B27  1  0.000000  0.000000  0.837863  1
  B  B28  1  0.500000  0.500000  0.837863  1
  B  B29  1  0.500000  0.500000  0.162137  1
