# generated using pymatgen
data_Gd5DyYVO12
_symmetry_space_group_name_H-M   'P 1'
_cell_length_a   6.71074279
_cell_length_b   6.71932334
_cell_length_c   6.71162807
_cell_angle_alpha   93.42471432
_cell_angle_beta   93.54770180
_cell_angle_gamma   93.50350365
_symmetry_Int_Tables_number   1
_chemical_formula_structural   Gd5DyYVO12
_chemical_formula_sum   'Gd5 Dy1 Y1 V1 O12'
_cell_volume   300.88044053
_cell_formula_units_Z   1
loop_
 _symmetry_equiv_pos_site_id
 _symmetry_equiv_pos_as_xyz
  1  'x, y, z'
loop_
 _atom_site_type_symbol
 _atom_site_label
 _atom_site_symmetry_multiplicity
 _atom_site_fract_x
 _atom_site_fract_y
 _atom_site_fract_z
 _atom_site_occupancy
  Gd  Gd0  1  0.435549  0.738473  0.923675  1
  Gd  Gd1  1  0.075713  0.565845  0.261490  1
  Gd  Gd2  1  0.923240  0.434017  0.737496  1
  Gd  Gd3  1  0.564895  0.260847  0.077035  1
  Gd  Gd4  1  0.262067  0.075677  0.564018  1
  Dy  Dy5  1  0.738904  0.923976  0.435402  1
  Y  Y6  1  0.998887  0.999390  0.999394  1
  V  V7  1  0.500946  0.500859  0.499623  1
  O  O8  1  0.063701  0.909399  0.317858  1
  O  O9  1  0.682465  0.932369  0.095123  1
  O  O10  1  0.464945  0.799951  0.586809  1
  O  O11  1  0.091166  0.682630  0.933194  1
  O  O12  1  0.797260  0.591413  0.461482  1
  O  O13  1  0.412623  0.538064  0.203206  1
  O  O14  1  0.587250  0.461609  0.796619  1
  O  O15  1  0.202837  0.412396  0.538515  1
  O  O16  1  0.909008  0.317065  0.065920  1
  O  O17  1  0.541431  0.200525  0.412988  1
  O  O18  1  0.316668  0.066526  0.908952  1
  O  O19  1  0.930446  0.088971  0.681201  1
