# generated using pymatgen
data_Al2Cd(SiO4)2
_symmetry_space_group_name_H-M   'P 1'
_cell_length_a   5.13520600
_cell_length_b   5.13524164
_cell_length_c   14.71304400
_cell_angle_alpha   89.99998415
_cell_angle_beta   90.00000000
_cell_angle_gamma   60.00022956
_symmetry_Int_Tables_number   1
_chemical_formula_structural   Al2Cd(SiO4)2
_chemical_formula_sum   'Al4 Cd2 Si4 O16'
_cell_volume   336.01055827
_cell_formula_units_Z   2
loop_
 _symmetry_equiv_pos_site_id
 _symmetry_equiv_pos_as_xyz
  1  'x, y, z'
loop_
 _atom_site_type_symbol
 _atom_site_label
 _atom_site_symmetry_multiplicity
 _atom_site_fract_x
 _atom_site_fract_y
 _atom_site_fract_z
 _atom_site_occupancy
  Al  Al0  1  0.666650  0.666668  0.639925  1
  Al  Al1  1  0.333350  0.333332  0.360075  1
  Al  Al2  1  0.666682  0.666668  0.139925  1
  Al  Al3  1  0.333318  0.333332  0.860075  1
  Cd  Cd4  1  0.000000  0.000000  0.500000  1
  Cd  Cd5  1  0.000000  0.000000  0.000000  1
  Si  Si6  1  0.333316  0.333331  0.635061  1
  Si  Si7  1  0.666684  0.666669  0.364939  1
  Si  Si8  1  0.333353  0.333331  0.135061  1
  Si  Si9  1  0.666647  0.666669  0.864939  1
  O  O10  1  0.370967  0.013810  0.595746  1
  O  O11  1  0.013796  0.615206  0.595748  1
  O  O12  1  0.615191  0.370979  0.595749  1
  O  O13  1  0.629033  0.986190  0.404254  1
  O  O14  1  0.986204  0.384794  0.404252  1
  O  O15  1  0.384809  0.629021  0.404251  1
  O  O16  1  0.615223  0.013810  0.095746  1
  O  O17  1  0.013829  0.370979  0.095749  1
  O  O18  1  0.371000  0.615206  0.095748  1
  O  O19  1  0.384777  0.986190  0.904254  1
  O  O20  1  0.986171  0.629021  0.904251  1
  O  O21  1  0.629000  0.384794  0.904252  1
  O  O22  1  0.666633  0.666676  0.756473  1
  O  O23  1  0.333309  0.333324  0.743527  1
  O  O24  1  0.333367  0.333324  0.243527  1
  O  O25  1  0.666691  0.666676  0.256473  1
