# generated using pymatgen
data_La5TbZn4IrPd12
_symmetry_space_group_name_H-M   'P 1'
_cell_length_a   8.42507063
_cell_length_b   8.42507098
_cell_length_c   8.42507155
_cell_angle_alpha   109.60970571
_cell_angle_beta   109.60970790
_cell_angle_gamma   109.19460953
_symmetry_Int_Tables_number   1
_chemical_formula_structural   La5TbZn4IrPd12
_chemical_formula_sum   'La5 Tb1 Zn4 Ir1 Pd12'
_cell_volume   460.35323298
_cell_formula_units_Z   1
loop_
 _symmetry_equiv_pos_site_id
 _symmetry_equiv_pos_as_xyz
  1  'x, y, z'
loop_
 _atom_site_type_symbol
 _atom_site_label
 _atom_site_symmetry_multiplicity
 _atom_site_fract_x
 _atom_site_fract_y
 _atom_site_fract_z
 _atom_site_occupancy
  La  La0  1  0.296043  0.999153  0.296891  1
  La  La1  1  0.999153  0.296043  0.296891  1
  La  La2  1  0.299743  0.299743  0.000000  1
  La  La3  1  0.702262  0.999153  0.703109  1
  La  La4  1  0.999153  0.702262  0.703109  1
  Tb  Tb5  1  0.698286  0.698286  0.000000  1
  Zn  Zn6  1  0.999242  0.999242  0.497385  1
  Zn  Zn7  1  0.999242  0.501857  0.000000  1
  Zn  Zn8  1  0.501857  0.999242  0.000000  1
  Zn  Zn9  1  0.501857  0.501857  0.502615  1
  Ir  Ir10  1  0.994508  0.994508  0.000000  1
  Pd  Pd11  1  0.335593  0.335593  0.668399  1
  Pd  Pd12  1  0.668794  0.998338  0.329543  1
  Pd  Pd13  1  0.998338  0.668794  0.329543  1
  Pd  Pd14  1  0.667195  0.335593  0.000000  1
  Pd  Pd15  1  0.331975  0.664057  0.332081  1
  Pd  Pd16  1  0.999894  0.331975  0.667919  1
  Pd  Pd17  1  0.335593  0.667195  0.000000  1
  Pd  Pd18  1  0.331975  0.999894  0.667919  1
  Pd  Pd19  1  0.664057  0.331975  0.332081  1
  Pd  Pd20  1  0.667195  0.667195  0.331601  1
  Pd  Pd21  1  0.668794  0.339250  0.670457  1
  Pd  Pd22  1  0.339250  0.668794  0.670457  1
