# generated using pymatgen
data_Mg4ZnFe(B2Rh5)2
_symmetry_space_group_name_H-M   'P 1'
_cell_length_a   2.93737600
_cell_length_b   9.42600600
_cell_length_c   9.42600600
_cell_angle_alpha   90.00000000
_cell_angle_beta   90.00000000
_cell_angle_gamma   90.00000000
_symmetry_Int_Tables_number   1
_chemical_formula_structural   Mg4ZnFe(B2Rh5)2
_chemical_formula_sum   'Mg4 Zn1 Fe1 B4 Rh10'
_cell_volume   260.98465067
_cell_formula_units_Z   1
loop_
 _symmetry_equiv_pos_site_id
 _symmetry_equiv_pos_as_xyz
  1  'x, y, z'
loop_
 _atom_site_type_symbol
 _atom_site_label
 _atom_site_symmetry_multiplicity
 _atom_site_fract_x
 _atom_site_fract_y
 _atom_site_fract_z
 _atom_site_occupancy
  Mg  Mg0  1  0.000000  0.324889  0.177140  1
  Mg  Mg1  1  0.000000  0.822860  0.324889  1
  Mg  Mg2  1  0.000000  0.177140  0.675110  1
  Mg  Mg3  1  0.000000  0.675110  0.822860  1
  Zn  Zn4  1  0.000000  0.000000  0.000000  1
  Fe  Fe5  1  0.000000  0.500000  0.500000  1
  B  B6  1  0.000000  0.627890  0.124086  1
  B  B7  1  0.000000  0.124086  0.372110  1
  B  B8  1  0.000000  0.875913  0.627890  1
  B  B9  1  0.000000  0.372110  0.875913  1
  Rh  Rh10  1  0.499998  0.500000  0.000000  1
  Rh  Rh11  1  0.499998  0.783658  0.072048  1
  Rh  Rh12  1  0.499998  0.072048  0.216342  1
  Rh  Rh13  1  0.499998  0.570445  0.284981  1
  Rh  Rh14  1  0.499998  0.284981  0.429556  1
  Rh  Rh15  1  0.499998  0.000000  0.500000  1
  Rh  Rh16  1  0.499998  0.715018  0.570445  1
  Rh  Rh17  1  0.499998  0.429556  0.715018  1
  Rh  Rh18  1  0.499998  0.927952  0.783658  1
  Rh  Rh19  1  0.499998  0.216342  0.927952  1
