# generated using pymatgen
data_Np2SbN2
_symmetry_space_group_name_H-M   'P 1'
_cell_length_a   6.89485808
_cell_length_b   6.89485784
_cell_length_c   6.89485726
_cell_angle_alpha   147.64960531
_cell_angle_beta   147.64960489
_cell_angle_gamma   46.40288953
_symmetry_Int_Tables_number   1
_chemical_formula_structural   Np2SbN2
_chemical_formula_sum   'Np2 Sb1 N2'
_cell_volume   93.51820429
_cell_formula_units_Z   1
loop_
 _symmetry_equiv_pos_site_id
 _symmetry_equiv_pos_as_xyz
  1  'x, y, z'
loop_
 _atom_site_type_symbol
 _atom_site_label
 _atom_site_symmetry_multiplicity
 _atom_site_fract_x
 _atom_site_fract_y
 _atom_site_fract_z
 _atom_site_occupancy
  Np  Np0  1  0.339063  0.339063  0.000000  1
  Np  Np1  1  0.660937  0.660937  0.000000  1
  Sb  Sb2  1  0.000000  0.000000  0.000000  1
  N  N3  1  0.750000  0.250000  0.500000  1
  N  N4  1  0.250000  0.750000  0.500000  1
