# generated using pymatgen
data_Nd4Th2FeCo17P12
_symmetry_space_group_name_H-M   'P 1'
_cell_length_a   3.78250200
_cell_length_b   10.66088400
_cell_length_c   12.37877300
_cell_angle_alpha   90.00000000
_cell_angle_beta   90.00000000
_cell_angle_gamma   90.00000000
_symmetry_Int_Tables_number   1
_chemical_formula_structural   Nd4Th2FeCo17P12
_chemical_formula_sum   'Nd4 Th2 Fe1 Co17 P12'
_cell_volume   499.17173179
_cell_formula_units_Z   1
loop_
 _symmetry_equiv_pos_site_id
 _symmetry_equiv_pos_as_xyz
  1  'x, y, z'
loop_
 _atom_site_type_symbol
 _atom_site_label
 _atom_site_symmetry_multiplicity
 _atom_site_fract_x
 _atom_site_fract_y
 _atom_site_fract_z
 _atom_site_occupancy
  Nd  Nd0  1  0.500000  0.815793  0.205064  1
  Nd  Nd1  1  0.500000  0.184207  0.205064  1
  Nd  Nd2  1  0.000000  0.684539  0.795304  1
  Nd  Nd3  1  0.000000  0.315461  0.795304  1
  Th  Th4  1  0.000000  0.500000  0.523076  1
  Th  Th5  1  0.500000  0.000000  0.476483  1
  Fe  Fe6  1  0.500000  0.500000  0.154051  1
  Co  Co7  1  0.000000  0.000000  0.843860  1
  Co  Co8  1  0.500000  0.500000  0.699694  1
  Co  Co9  1  0.000000  0.000000  0.300403  1
  Co  Co10  1  0.000000  0.500000  0.985754  1
  Co  Co11  1  0.500000  0.000000  0.014212  1
  Co  Co12  1  0.500000  0.333590  0.995766  1
  Co  Co13  1  0.500000  0.666410  0.995766  1
  Co  Co14  1  0.000000  0.165927  0.004621  1
  Co  Co15  1  0.000000  0.834073  0.004621  1
  Co  Co16  1  0.500000  0.299307  0.430589  1
  Co  Co17  1  0.500000  0.700693  0.430589  1
  Co  Co18  1  0.000000  0.200706  0.569696  1
  Co  Co19  1  0.000000  0.799294  0.569696  1
  Co  Co20  1  0.500000  0.882262  0.711624  1
  Co  Co21  1  0.500000  0.117738  0.711624  1
  Co  Co22  1  0.000000  0.618597  0.288565  1
  Co  Co23  1  0.000000  0.381403  0.288565  1
  P  P24  1  0.500000  0.500000  0.884279  1
  P  P25  1  0.000000  0.000000  0.115718  1
  P  P26  1  0.500000  0.500000  0.336632  1
  P  P27  1  0.000000  0.000000  0.662332  1
  P  P28  1  0.500000  0.304439  0.614800  1
  P  P29  1  0.500000  0.695561  0.614800  1
  P  P30  1  0.000000  0.195992  0.385287  1
  P  P31  1  0.000000  0.804008  0.385287  1
  P  P32  1  0.500000  0.848718  0.896853  1
  P  P33  1  0.500000  0.151282  0.896853  1
  P  P34  1  0.000000  0.651016  0.103585  1
  P  P35  1  0.000000  0.348984  0.103585  1
