# generated using pymatgen
data_Ag7Pt(SO4)6
_symmetry_space_group_name_H-M   'P 1'
_cell_length_a   8.64019276
_cell_length_b   8.64019394
_cell_length_c   8.64019311
_cell_angle_alpha   107.67594661
_cell_angle_beta   107.67594501
_cell_angle_gamma   107.67596055
_symmetry_Int_Tables_number   1
_chemical_formula_structural   Ag7Pt(SO4)6
_chemical_formula_sum   'Ag7 Pt1 S6 O24'
_cell_volume   526.95658982
_cell_formula_units_Z   1
loop_
 _symmetry_equiv_pos_site_id
 _symmetry_equiv_pos_as_xyz
  1  'x, y, z'
loop_
 _atom_site_type_symbol
 _atom_site_label
 _atom_site_symmetry_multiplicity
 _atom_site_fract_x
 _atom_site_fract_y
 _atom_site_fract_z
 _atom_site_occupancy
  Ag  Ag0  1  0.500000  0.500000  0.500000  1
  Ag  Ag1  1  0.840225  0.342502  0.684506  1
  Ag  Ag2  1  0.342502  0.684506  0.840225  1
  Ag  Ag3  1  0.684506  0.840225  0.342502  1
  Ag  Ag4  1  0.159775  0.657498  0.315494  1
  Ag  Ag5  1  0.657498  0.315494  0.159775  1
  Ag  Ag6  1  0.315494  0.159775  0.657498  1
  Pt  Pt7  1  0.000000  0.000000  0.000000  1
  S  S8  1  0.972209  0.759039  0.607798  1
  S  S9  1  0.759039  0.607798  0.972209  1
  S  S10  1  0.607798  0.972209  0.759039  1
  S  S11  1  0.027791  0.240961  0.392202  1
  S  S12  1  0.240961  0.392202  0.027791  1
  S  S13  1  0.392202  0.027791  0.240961  1
  O  O14  1  0.476642  0.914265  0.171642  1
  O  O15  1  0.914265  0.171642  0.476642  1
  O  O16  1  0.171642  0.476642  0.914265  1
  O  O17  1  0.523358  0.085735  0.828358  1
  O  O18  1  0.085735  0.828358  0.523358  1
  O  O19  1  0.828358  0.523358  0.085735  1
  O  O20  1  0.313839  0.973951  0.356090  1
  O  O21  1  0.973951  0.356090  0.313839  1
  O  O22  1  0.356090  0.313839  0.973951  1
  O  O23  1  0.686161  0.026049  0.643910  1
  O  O24  1  0.026049  0.643910  0.686161  1
  O  O25  1  0.643910  0.686161  0.026049  1
  O  O26  1  0.750861  0.996423  0.934017  1
  O  O27  1  0.996423  0.934017  0.750861  1
  O  O28  1  0.659459  0.472777  0.777147  1
  O  O29  1  0.777147  0.659459  0.472777  1
  O  O30  1  0.472777  0.777147  0.659459  1
  O  O31  1  0.340541  0.527223  0.222853  1
  O  O32  1  0.222853  0.340541  0.527223  1
  O  O33  1  0.527223  0.222853  0.340541  1
  O  O34  1  0.065983  0.249139  0.003577  1
  O  O35  1  0.003577  0.065983  0.249139  1
  O  O36  1  0.249139  0.003577  0.065983  1
  O  O37  1  0.934017  0.750861  0.996423  1
