# generated using pymatgen
data_Na4LaUSe6
_symmetry_space_group_name_H-M   'P 1'
_cell_length_a   7.41950320
_cell_length_b   7.41950372
_cell_length_c   7.37609596
_cell_angle_alpha   80.23837592
_cell_angle_beta   80.23838274
_cell_angle_gamma   119.96180280
_symmetry_Int_Tables_number   1
_chemical_formula_structural   Na4LaUSe6
_chemical_formula_sum   'Na4 La1 U1 Se6'
_cell_volume   330.96421023
_cell_formula_units_Z   1
loop_
 _symmetry_equiv_pos_site_id
 _symmetry_equiv_pos_as_xyz
  1  'x, y, z'
loop_
 _atom_site_type_symbol
 _atom_site_label
 _atom_site_symmetry_multiplicity
 _atom_site_fract_x
 _atom_site_fract_y
 _atom_site_fract_z
 _atom_site_occupancy
  Na  Na0  1  0.999962  0.000038  0.000000  1
  Na  Na1  1  0.500143  0.499857  0.500000  1
  Na  Na2  1  0.838435  0.161565  0.500000  1
  Na  Na3  1  0.160838  0.839162  0.500000  1
  La  La4  1  0.667205  0.332795  0.000000  1
  U  U5  1  0.332912  0.667088  0.000000  1
  Se  Se6  1  0.264623  0.285418  0.232708  1
  Se  Se7  1  0.419831  0.056366  0.767845  1
  Se  Se8  1  0.099602  0.441768  0.771377  1
  Se  Se9  1  0.714582  0.735377  0.767292  1
  Se  Se10  1  0.558232  0.900398  0.228623  1
  Se  Se11  1  0.943634  0.580169  0.232155  1
