# generated using pymatgen
data_La3Nd(SiTc2)8
_symmetry_space_group_name_H-M   'P 1'
_cell_length_a   4.19083200
_cell_length_b   7.29000682
_cell_length_c   15.59668912
_cell_angle_alpha   89.86886828
_cell_angle_beta   90.00000000
_cell_angle_gamma   90.00000000
_symmetry_Int_Tables_number   1
_chemical_formula_structural   La3Nd(SiTc2)8
_chemical_formula_sum   'La3 Nd1 Si8 Tc16'
_cell_volume   476.49622471
_cell_formula_units_Z   1
loop_
 _symmetry_equiv_pos_site_id
 _symmetry_equiv_pos_as_xyz
  1  'x, y, z'
loop_
 _atom_site_type_symbol
 _atom_site_label
 _atom_site_symmetry_multiplicity
 _atom_site_fract_x
 _atom_site_fract_y
 _atom_site_fract_z
 _atom_site_occupancy
  La  La0  1  0.000000  0.582180  0.116555  1
  La  La1  1  0.000000  0.417841  0.882317  1
  La  La2  1  0.500000  0.081647  0.384168  1
  Nd  Nd3  1  0.500000  0.917454  0.616236  1
  Si  Si4  1  0.000000  0.817626  0.474531  1
  Si  Si5  1  0.000000  0.178802  0.527282  1
  Si  Si6  1  0.500000  0.318284  0.026604  1
  Si  Si7  1  0.500000  0.682428  0.972653  1
  Si  Si8  1  0.000000  0.299374  0.274652  1
  Si  Si9  1  0.000000  0.704442  0.724635  1
  Si  Si10  1  0.500000  0.799027  0.226419  1
  Si  Si11  1  0.500000  0.200636  0.771755  1
  Tc  Tc12  1  0.000000  0.133697  0.053328  1
  Tc  Tc13  1  0.000000  0.867021  0.946158  1
  Tc  Tc14  1  0.500000  0.633342  0.448083  1
  Tc  Tc15  1  0.500000  0.361610  0.554184  1
  Tc  Tc16  1  0.000000  0.730649  0.319659  1
  Tc  Tc17  1  0.000000  0.267661  0.680222  1
  Tc  Tc18  1  0.500000  0.230460  0.181377  1
  Tc  Tc19  1  0.500000  0.771388  0.818021  1
  Tc  Tc20  1  0.000000  0.435710  0.420479  1
  Tc  Tc21  1  0.000000  0.563065  0.581736  1
  Tc  Tc22  1  0.500000  0.937677  0.080509  1
  Tc  Tc23  1  0.500000  0.063533  0.919065  1
  Tc  Tc24  1  0.000000  0.995939  0.207303  1
  Tc  Tc25  1  0.000000  0.004468  0.792269  1
  Tc  Tc26  1  0.500000  0.495572  0.293973  1
  Tc  Tc27  1  0.500000  0.508466  0.705826  1
