# generated using pymatgen
data_Tb8Hf8Zr4Si15Ge
_symmetry_space_group_name_H-M   'P 1'
_cell_length_a   7.31785365
_cell_length_b   7.32496317
_cell_length_c   13.45833296
_cell_angle_alpha   89.92503630
_cell_angle_beta   89.98723902
_cell_angle_gamma   89.95343238
_symmetry_Int_Tables_number   1
_chemical_formula_structural   Tb8Hf8Zr4Si15Ge
_chemical_formula_sum   'Tb8 Hf8 Zr4 Si15 Ge1'
_cell_volume   721.40626248
_cell_formula_units_Z   1
loop_
 _symmetry_equiv_pos_site_id
 _symmetry_equiv_pos_as_xyz
  1  'x, y, z'
loop_
 _atom_site_type_symbol
 _atom_site_label
 _atom_site_symmetry_multiplicity
 _atom_site_fract_x
 _atom_site_fract_y
 _atom_site_fract_z
 _atom_site_occupancy
  Tb  Tb0  1  0.995250  0.344323  0.214303  1
  Tb  Tb1  1  0.003497  0.655882  0.714892  1
  Tb  Tb2  1  0.154769  0.497766  0.465571  1
  Tb  Tb3  1  0.503645  0.843965  0.035073  1
  Tb  Tb4  1  0.844228  0.503585  0.964804  1
  Tb  Tb5  1  0.496965  0.155327  0.535846  1
  Tb  Tb6  1  0.344055  0.996512  0.785238  1
  Tb  Tb7  1  0.656764  0.002438  0.284916  1
  Hf  Hf8  1  0.147775  0.993420  0.374574  1
  Hf  Hf9  1  0.850966  0.004689  0.874563  1
  Hf  Hf10  1  0.504670  0.649043  0.624561  1
  Hf  Hf11  1  0.350868  0.495275  0.875476  1
  Hf  Hf12  1  0.495586  0.351007  0.123323  1
  Hf  Hf13  1  0.651482  0.506603  0.376000  1
  Hf  Hf14  1  0.995219  0.149123  0.625529  1
  Hf  Hf15  1  0.004460  0.850721  0.125361  1
  Zr  Zr16  1  0.174657  0.174789  0.999949  1
  Zr  Zr17  1  0.825291  0.825394  0.500134  1
  Zr  Zr18  1  0.325267  0.677031  0.249506  1
  Zr  Zr19  1  0.674709  0.325328  0.749965  1
  Si  Si20  1  0.636720  0.706354  0.817091  1
  Si  Si21  1  0.206187  0.863310  0.567087  1
  Si  Si22  1  0.136682  0.793870  0.932878  1
  Si  Si23  1  0.793778  0.136734  0.067057  1
  Si  Si24  1  0.863285  0.206059  0.432873  1
  Si  Si25  1  0.293831  0.363295  0.682906  1
  Si  Si26  1  0.706018  0.636569  0.182873  1
  Si  Si27  1  0.294609  0.046857  0.184825  1
  Si  Si28  1  0.705026  0.950149  0.686581  1
  Si  Si29  1  0.450278  0.794960  0.436471  1
  Si  Si30  1  0.205003  0.549588  0.063561  1
  Si  Si31  1  0.549773  0.204910  0.936405  1
  Si  Si32  1  0.794943  0.450209  0.563557  1
  Si  Si33  1  0.049757  0.294990  0.813484  1
  Si  Si34  1  0.950356  0.704708  0.313421  1
  Ge  Ge35  1  0.363632  0.295216  0.319345  1
