# generated using pymatgen
data_Y2HoEr7(In2Pd)4
_symmetry_space_group_name_H-M   'P 1'
_cell_length_a   3.60838400
_cell_length_b   8.13008605
_cell_length_c   18.19186611
_cell_angle_alpha   89.98714776
_cell_angle_beta   90.00000000
_cell_angle_gamma   90.00000000
_symmetry_Int_Tables_number   1
_chemical_formula_structural   Y2HoEr7(In2Pd)4
_chemical_formula_sum   'Y2 Ho1 Er7 In8 Pd4'
_cell_volume   533.68516521
_cell_formula_units_Z   1
loop_
 _symmetry_equiv_pos_site_id
 _symmetry_equiv_pos_as_xyz
  1  'x, y, z'
loop_
 _atom_site_type_symbol
 _atom_site_label
 _atom_site_symmetry_multiplicity
 _atom_site_fract_x
 _atom_site_fract_y
 _atom_site_fract_z
 _atom_site_occupancy
  Y  Y0  1  0.000000  0.500010  0.500000  1
  Y  Y1  1  0.000000  0.000004  0.000000  1
  Ho  Ho2  1  0.000000  0.739100  0.281086  1
  Er  Er3  1  0.000000  0.260892  0.718940  1
  Er  Er4  1  0.000000  0.760887  0.781069  1
  Er  Er5  1  0.000000  0.239103  0.218942  1
  Er  Er6  1  0.000000  0.617029  0.083818  1
  Er  Er7  1  0.000000  0.382960  0.916155  1
  Er  Er8  1  0.000000  0.882977  0.583839  1
  Er  Er9  1  0.000000  0.117018  0.416169  1
  In  In10  1  0.500000  0.707531  0.932574  1
  In  In11  1  0.500000  0.292452  0.067426  1
  In  In12  1  0.500000  0.792481  0.432611  1
  In  In13  1  0.500000  0.207536  0.567429  1
  In  In14  1  0.500000  0.581958  0.650545  1
  In  In15  1  0.500000  0.417986  0.349469  1
  In  In16  1  0.500000  0.918077  0.150511  1
  In  In17  1  0.500000  0.081960  0.849458  1
  Pd  Pd18  1  0.500000  0.523295  0.195991  1
  Pd  Pd19  1  0.500000  0.476559  0.803952  1
  Pd  Pd20  1  0.500000  0.976562  0.696050  1
  Pd  Pd21  1  0.500000  0.023621  0.303968  1
