# generated using pymatgen
data_Zr3Zn3Cu2Ir
_symmetry_space_group_name_H-M   'P 1'
_cell_length_a   7.11748200
_cell_length_b   7.11748231
_cell_length_c   3.46670700
_cell_angle_alpha   90.00000000
_cell_angle_beta   90.00000000
_cell_angle_gamma   119.99999982
_symmetry_Int_Tables_number   1
_chemical_formula_structural   Zr3Zn3Cu2Ir
_chemical_formula_sum   'Zr3 Zn3 Cu2 Ir1'
_cell_volume   152.08995928
_cell_formula_units_Z   1
loop_
 _symmetry_equiv_pos_site_id
 _symmetry_equiv_pos_as_xyz
  1  'x, y, z'
loop_
 _atom_site_type_symbol
 _atom_site_label
 _atom_site_symmetry_multiplicity
 _atom_site_fract_x
 _atom_site_fract_y
 _atom_site_fract_z
 _atom_site_occupancy
  Zr  Zr0  1  0.401300  0.991532  0.500000  1
  Zr  Zr1  1  0.008468  0.409767  0.500000  1
  Zr  Zr2  1  0.590232  0.598700  0.500000  1
  Zn  Zn3  1  0.745888  0.009798  0.000000  1
  Zn  Zn4  1  0.263911  0.254112  0.000000  1
  Zn  Zn5  1  0.990202  0.736090  0.000000  1
  Cu  Cu6  1  0.666667  0.333333  0.000000  1
  Cu  Cu7  1  0.000000  0.000000  0.500000  1
  Ir  Ir8  1  0.333333  0.666666  0.000000  1
