# generated using pymatgen
data_Nd8Ho3Lu9Si16
_symmetry_space_group_name_H-M   'P 1'
_cell_length_a   7.71806480
_cell_length_b   7.71925152
_cell_length_c   14.21274500
_cell_angle_alpha   90.03585787
_cell_angle_beta   90.03910007
_cell_angle_gamma   90.00175692
_symmetry_Int_Tables_number   1
_chemical_formula_structural   Nd8Ho3Lu9Si16
_chemical_formula_sum   'Nd8 Ho3 Lu9 Si16'
_cell_volume   846.76205819
_cell_formula_units_Z   1
loop_
 _symmetry_equiv_pos_site_id
 _symmetry_equiv_pos_as_xyz
  1  'x, y, z'
loop_
 _atom_site_type_symbol
 _atom_site_label
 _atom_site_symmetry_multiplicity
 _atom_site_fract_x
 _atom_site_fract_y
 _atom_site_fract_z
 _atom_site_occupancy
  Nd  Nd0  1  0.643445  0.992716  0.459146  1
  Nd  Nd1  1  0.357094  0.007449  0.959347  1
  Nd  Nd2  1  0.992728  0.643358  0.540482  1
  Nd  Nd3  1  0.492871  0.856788  0.209329  1
  Nd  Nd4  1  0.507464  0.143357  0.709170  1
  Nd  Nd5  1  0.856892  0.492665  0.790907  1
  Nd  Nd6  1  0.143184  0.507289  0.290906  1
  Nd  Nd7  1  0.007102  0.356484  0.040743  1
  Ho  Ho8  1  0.492677  0.360158  0.124700  1
  Ho  Ho9  1  0.992964  0.140190  0.625431  1
  Ho  Ho10  1  0.860129  0.006908  0.874154  1
  Lu  Lu11  1  0.139929  0.993218  0.374492  1
  Lu  Lu12  1  0.506568  0.640115  0.623915  1
  Lu  Lu13  1  0.359840  0.493378  0.875961  1
  Lu  Lu14  1  0.640016  0.506765  0.375435  1
  Lu  Lu15  1  0.006680  0.859623  0.125904  1
  Lu  Lu16  1  0.318484  0.318402  0.499970  1
  Lu  Lu17  1  0.182900  0.817271  0.749881  1
  Lu  Lu18  1  0.818448  0.181457  0.250151  1
  Lu  Lu19  1  0.682011  0.682254  0.000025  1
  Si  Si20  1  0.290397  0.937320  0.561671  1
  Si  Si21  1  0.710776  0.060853  0.062843  1
  Si  Si22  1  0.937803  0.290087  0.436776  1
  Si  Si23  1  0.437700  0.209957  0.313302  1
  Si  Si24  1  0.560411  0.788062  0.811766  1
  Si  Si25  1  0.212057  0.439438  0.688111  1
  Si  Si26  1  0.790087  0.562859  0.188204  1
  Si  Si27  1  0.062528  0.709984  0.938258  1
  Si  Si28  1  0.795176  0.847038  0.687622  1
  Si  Si29  1  0.201831  0.149342  0.188876  1
  Si  Si30  1  0.849718  0.796195  0.312046  1
  Si  Si31  1  0.349644  0.703692  0.438013  1
  Si  Si32  1  0.650188  0.297764  0.937904  1
  Si  Si33  1  0.701901  0.350610  0.561062  1
  Si  Si34  1  0.295267  0.652066  0.061302  1
  Si  Si35  1  0.153090  0.204890  0.812193  1
