# generated using pymatgen
data_La6In7Pb3
_symmetry_space_group_name_H-M   'P 1'
_cell_length_a   6.77466700
_cell_length_b   6.78034883
_cell_length_c   10.59489600
_cell_angle_alpha   90.00000000
_cell_angle_beta   90.00000000
_cell_angle_gamma   102.76328562
_symmetry_Int_Tables_number   1
_chemical_formula_structural   La6In7Pb3
_chemical_formula_sum   'La6 In7 Pb3'
_cell_volume   474.64723828
_cell_formula_units_Z   1
loop_
 _symmetry_equiv_pos_site_id
 _symmetry_equiv_pos_as_xyz
  1  'x, y, z'
loop_
 _atom_site_type_symbol
 _atom_site_label
 _atom_site_symmetry_multiplicity
 _atom_site_fract_x
 _atom_site_fract_y
 _atom_site_fract_z
 _atom_site_occupancy
  La  La0  1  0.635582  0.635684  0.250000  1
  La  La1  1  0.362699  0.364553  0.750000  1
  La  La2  1  0.204806  0.794879  0.501129  1
  La  La3  1  0.204806  0.794879  0.998871  1
  La  La4  1  0.797076  0.205284  0.499861  1
  La  La5  1  0.797076  0.205284  0.000139  1
  In  In6  1  0.018739  0.021592  0.250000  1
  In  In7  1  0.977612  0.978564  0.750000  1
  In  In8  1  0.312088  0.305098  0.052430  1
  In  In9  1  0.691415  0.694979  0.952861  1
  In  In10  1  0.312088  0.305098  0.447570  1
  In  In11  1  0.691415  0.694979  0.547139  1
  In  In12  1  0.496051  0.072264  0.250000  1
  Pb  Pb13  1  0.922553  0.501248  0.750000  1
  Pb  Pb14  1  0.500656  0.926109  0.750000  1
  Pb  Pb15  1  0.075342  0.499510  0.250000  1
