# generated using pymatgen
data_Na2TcTe6Mo5
_symmetry_space_group_name_H-M   'P 1'
_cell_length_a   9.34936849
_cell_length_b   9.37933318
_cell_length_c   4.59901500
_cell_angle_alpha   90.00000000
_cell_angle_beta   90.00000000
_cell_angle_gamma   119.29406208
_symmetry_Int_Tables_number   1
_chemical_formula_structural   Na2TcTe6Mo5
_chemical_formula_sum   'Na2 Tc1 Te6 Mo5'
_cell_volume   351.71857574
_cell_formula_units_Z   1
loop_
 _symmetry_equiv_pos_site_id
 _symmetry_equiv_pos_as_xyz
  1  'x, y, z'
loop_
 _atom_site_type_symbol
 _atom_site_label
 _atom_site_symmetry_multiplicity
 _atom_site_fract_x
 _atom_site_fract_y
 _atom_site_fract_z
 _atom_site_occupancy
  Na  Na0  1  0.334298  0.664412  0.250000  1
  Na  Na1  1  0.666147  0.334739  0.750000  1
  Tc  Tc2  1  0.141938  0.184851  0.250000  1
  Te  Te3  1  0.378878  0.087693  0.250000  1
  Te  Te4  1  0.918237  0.296470  0.250000  1
  Te  Te5  1  0.700526  0.613875  0.250000  1
  Te  Te6  1  0.298842  0.382091  0.750000  1
  Te  Te7  1  0.085998  0.701671  0.750000  1
  Te  Te8  1  0.617365  0.918415  0.750000  1
  Mo  Mo9  1  0.039859  0.859760  0.250000  1
  Mo  Mo10  1  0.819058  0.957122  0.250000  1
  Mo  Mo11  1  0.178288  0.041495  0.750000  1
  Mo  Mo12  1  0.960006  0.138267  0.750000  1
  Mo  Mo13  1  0.860560  0.819139  0.750000  1
