# generated using pymatgen
data_Y4Th2Co18Si11P
_symmetry_space_group_name_H-M   'P 1'
_cell_length_a   3.77806200
_cell_length_b   10.75999565
_cell_length_c   12.36888117
_cell_angle_alpha   89.93434237
_cell_angle_beta   90.00000000
_cell_angle_gamma   90.00000000
_symmetry_Int_Tables_number   1
_chemical_formula_structural   Y4Th2Co18Si11P
_chemical_formula_sum   'Y4 Th2 Co18 Si11 P1'
_cell_volume   502.81856977
_cell_formula_units_Z   1
loop_
 _symmetry_equiv_pos_site_id
 _symmetry_equiv_pos_as_xyz
  1  'x, y, z'
loop_
 _atom_site_type_symbol
 _atom_site_label
 _atom_site_symmetry_multiplicity
 _atom_site_fract_x
 _atom_site_fract_y
 _atom_site_fract_z
 _atom_site_occupancy
  Y  Y0  1  0.500000  0.813589  0.203392  1
  Y  Y1  1  0.500000  0.186965  0.202223  1
  Y  Y2  1  0.000000  0.685485  0.798753  1
  Y  Y3  1  0.000000  0.313637  0.796157  1
  Th  Th4  1  0.000000  0.500980  0.525018  1
  Th  Th5  1  0.500000  0.001124  0.473010  1
  Co  Co6  1  0.500000  0.503003  0.147279  1
  Co  Co7  1  0.000000  0.001116  0.853051  1
  Co  Co8  1  0.500000  0.499173  0.696103  1
  Co  Co9  1  0.000000  0.001004  0.305885  1
  Co  Co10  1  0.000000  0.494650  0.984465  1
  Co  Co11  1  0.500000  0.000673  0.021204  1
  Co  Co12  1  0.500000  0.331141  0.996969  1
  Co  Co13  1  0.500000  0.667178  0.992200  1
  Co  Co14  1  0.000000  0.168695  0.008456  1
  Co  Co15  1  0.000000  0.832253  0.007873  1
  Co  Co16  1  0.500000  0.304705  0.427272  1
  Co  Co17  1  0.500000  0.696838  0.429514  1
  Co  Co18  1  0.000000  0.197609  0.569709  1
  Co  Co19  1  0.000000  0.803366  0.571508  1
  Co  Co20  1  0.500000  0.883899  0.713369  1
  Co  Co21  1  0.500000  0.117015  0.712595  1
  Co  Co22  1  0.000000  0.616708  0.286632  1
  Co  Co23  1  0.000000  0.383736  0.278843  1
  Si  Si24  1  0.500000  0.498478  0.882662  1
  Si  Si25  1  0.000000  0.999589  0.119908  1
  Si  Si26  1  0.500000  0.500087  0.332046  1
  Si  Si27  1  0.000000  0.000119  0.667336  1
  Si  Si28  1  0.500000  0.300990  0.616132  1
  Si  Si29  1  0.500000  0.699367  0.618207  1
  Si  Si30  1  0.000000  0.201910  0.381120  1
  Si  Si31  1  0.000000  0.800437  0.383176  1
  Si  Si32  1  0.500000  0.854180  0.898068  1
  Si  Si33  1  0.500000  0.146538  0.897430  1
  Si  Si34  1  0.000000  0.647300  0.102164  1
  P  P35  1  0.000000  0.346463  0.100272  1
