# generated using pymatgen
data_HfMn(NbS2)6
_symmetry_space_group_name_H-M   'P 1'
_cell_length_a   5.82778400
_cell_length_b   5.82778314
_cell_length_c   12.75120200
_cell_angle_alpha   90.00000000
_cell_angle_beta   90.00000000
_cell_angle_gamma   120.00000488
_symmetry_Int_Tables_number   1
_chemical_formula_structural   HfMn(NbS2)6
_chemical_formula_sum   'Hf1 Mn1 Nb6 S12'
_cell_volume   375.04947827
_cell_formula_units_Z   1
loop_
 _symmetry_equiv_pos_site_id
 _symmetry_equiv_pos_as_xyz
  1  'x, y, z'
loop_
 _atom_site_type_symbol
 _atom_site_label
 _atom_site_symmetry_multiplicity
 _atom_site_fract_x
 _atom_site_fract_y
 _atom_site_fract_z
 _atom_site_occupancy
  Hf  Hf0  1  0.666667  0.333333  0.750000  1
  Mn  Mn1  1  0.333333  0.666667  0.250000  1
  Nb  Nb2  1  0.333333  0.666667  0.499489  1
  Nb  Nb3  1  0.666667  0.333333  0.001908  1
  Nb  Nb4  1  0.666667  0.333333  0.498092  1
  Nb  Nb5  1  0.333333  0.666667  0.000511  1
  Nb  Nb6  1  0.000000  0.000000  0.498740  1
  Nb  Nb7  1  0.000000  0.000000  0.001260  1
  S  S8  1  0.332293  0.330594  0.125131  1
  S  S9  1  0.669406  0.001699  0.125131  1
  S  S10  1  0.998301  0.667707  0.125131  1
  S  S11  1  0.002606  0.332858  0.624088  1
  S  S12  1  0.667142  0.997394  0.875912  1
  S  S13  1  0.667142  0.669748  0.624088  1
  S  S14  1  0.330252  0.997394  0.624088  1
  S  S15  1  0.669406  0.667707  0.374869  1
  S  S16  1  0.332293  0.001699  0.374869  1
  S  S17  1  0.330252  0.332858  0.875912  1
  S  S18  1  0.002606  0.669748  0.875912  1
  S  S19  1  0.998301  0.330594  0.374869  1
