# generated using pymatgen
data_Pa10Si16Ge
_symmetry_space_group_name_H-M   'P 1'
_cell_length_a   10.84902585
_cell_length_b   10.83930075
_cell_length_c   10.84902622
_cell_angle_alpha   144.80454796
_cell_angle_beta   133.78365797
_cell_angle_gamma   59.41263466
_symmetry_Int_Tables_number   1
_chemical_formula_structural   Pa10Si16Ge
_chemical_formula_sum   'Pa10 Si16 Ge1'
_cell_volume   525.94424096
_cell_formula_units_Z   1
loop_
 _symmetry_equiv_pos_site_id
 _symmetry_equiv_pos_as_xyz
  1  'x, y, z'
loop_
 _atom_site_type_symbol
 _atom_site_label
 _atom_site_symmetry_multiplicity
 _atom_site_fract_x
 _atom_site_fract_y
 _atom_site_fract_z
 _atom_site_occupancy
  Pa  Pa0  1  0.755353  0.757492  0.513433  1
  Pa  Pa1  1  0.448648  0.962585  0.014919  1
  Pa  Pa2  1  0.849170  0.371465  0.020502  1
  Pa  Pa3  1  0.947666  0.962585  0.513936  1
  Pa  Pa4  1  0.150232  0.169866  0.521648  1
  Pa  Pa5  1  0.350963  0.371465  0.522293  1
  Pa  Pa6  1  0.244060  0.757492  0.002140  1
  Pa  Pa7  1  0.547859  0.562062  0.505430  1
  Pa  Pa8  1  0.056631  0.562062  0.014203  1
  Pa  Pa9  1  0.648218  0.169866  0.019633  1
  Si  Si10  1  0.200914  0.559139  0.358223  1
  Si  Si11  1  0.001582  0.072907  0.071325  1
  Si  Si12  1  0.697775  0.286931  0.589157  1
  Si  Si13  1  0.799006  0.162950  0.363944  1
  Si  Si14  1  0.894612  0.505814  0.611202  1
  Si  Si15  1  0.422733  0.890379  0.467647  1
  Si  Si16  1  0.105382  0.718832  0.613450  1
  Si  Si17  1  0.300487  0.895198  0.594711  1
  Si  Si18  1  0.574534  0.046119  0.471585  1
  Si  Si19  1  0.000074  0.427081  0.427007  1
  Si  Si20  1  0.875456  0.851985  0.976530  1
  Si  Si21  1  0.401565  0.500435  0.098870  1
  Si  Si22  1  0.129640  0.114895  0.985255  1
  Si  Si23  1  0.280414  0.241424  0.961012  1
  Si  Si24  1  0.499731  0.356370  0.856639  1
  Si  Si25  1  0.596195  0.699891  0.103696  1
  Ge  Ge26  1  0.721100  0.684209  0.963109  1
