# generated using pymatgen
data_Tc3(SeS)2
_symmetry_space_group_name_H-M   'P 1'
_cell_length_a   6.48799918
_cell_length_b   6.54969869
_cell_length_c   6.57005694
_cell_angle_alpha   93.16457804
_cell_angle_beta   92.78718790
_cell_angle_gamma   93.80856084
_symmetry_Int_Tables_number   1
_chemical_formula_structural   Tc3(SeS)2
_chemical_formula_sum   'Tc6 Se4 S4'
_cell_volume   277.76607971
_cell_formula_units_Z   2
loop_
 _symmetry_equiv_pos_site_id
 _symmetry_equiv_pos_as_xyz
  1  'x, y, z'
loop_
 _atom_site_type_symbol
 _atom_site_label
 _atom_site_symmetry_multiplicity
 _atom_site_fract_x
 _atom_site_fract_y
 _atom_site_fract_z
 _atom_site_occupancy
  Tc  Tc0  1  0.587413  0.453423  0.767332  1
  Tc  Tc1  1  0.448525  0.769524  0.585474  1
  Tc  Tc2  1  0.773216  0.592008  0.448164  1
  Tc  Tc3  1  0.410936  0.551193  0.228191  1
  Tc  Tc4  1  0.550143  0.229361  0.412075  1
  Tc  Tc5  1  0.225638  0.414338  0.550350  1
  Se  Se6  1  0.745398  0.368465  0.121288  1
  Se  Se7  1  0.361132  0.123292  0.743513  1
  Se  Se8  1  0.791435  0.794346  0.786022  1
  Se  Se9  1  0.208203  0.209234  0.212993  1
  S  S10  1  0.866078  0.283072  0.618940  1
  S  S11  1  0.278364  0.620078  0.869118  1
  S  S12  1  0.621204  0.870903  0.280745  1
  S  S13  1  0.132316  0.720764  0.375795  1
