# generated using pymatgen
data_TmSc(BrO3)6
_symmetry_space_group_name_H-M   'P 1'
_cell_length_a   9.56893300
_cell_length_b   9.56893256
_cell_length_c   5.72812800
_cell_angle_alpha   90.00000000
_cell_angle_beta   90.00000000
_cell_angle_gamma   119.99998424
_symmetry_Int_Tables_number   1
_chemical_formula_structural   TmSc(BrO3)6
_chemical_formula_sum   'Tm1 Sc1 Br6 O18'
_cell_volume   454.22436062
_cell_formula_units_Z   1
loop_
 _symmetry_equiv_pos_site_id
 _symmetry_equiv_pos_as_xyz
  1  'x, y, z'
loop_
 _atom_site_type_symbol
 _atom_site_label
 _atom_site_symmetry_multiplicity
 _atom_site_fract_x
 _atom_site_fract_y
 _atom_site_fract_z
 _atom_site_occupancy
  Tm  Tm0  1  0.333333  0.666667  0.194181  1
  Sc  Sc1  1  0.666667  0.333333  0.697461  1
  Br  Br2  1  0.686059  0.026675  0.368066  1
  Br  Br3  1  0.321718  0.986128  0.859255  1
  Br  Br4  1  0.013872  0.335588  0.859255  1
  Br  Br5  1  0.340614  0.313941  0.368066  1
  Br  Br6  1  0.973325  0.659386  0.368066  1
  Br  Br7  1  0.664412  0.678282  0.859255  1
  O  O8  1  0.777499  0.822093  0.042276  1
  O  O9  1  0.943678  0.775088  0.547341  1
  O  O10  1  0.831410  0.056322  0.547341  1
  O  O11  1  0.177907  0.955406  0.042276  1
  O  O12  1  0.044594  0.222501  0.042276  1
  O  O13  1  0.224912  0.168590  0.547341  1
  O  O14  1  0.709834  0.528537  0.916507  1
  O  O15  1  0.168698  0.707305  0.421712  1
  O  O16  1  0.533754  0.404984  0.479389  1
  O  O17  1  0.118754  0.528703  0.967373  1
  O  O18  1  0.409949  0.881246  0.967373  1
  O  O19  1  0.595016  0.128769  0.479389  1
  O  O20  1  0.871231  0.466246  0.479389  1
  O  O21  1  0.471297  0.590051  0.967373  1
  O  O22  1  0.292695  0.461393  0.421712  1
  O  O23  1  0.818703  0.290166  0.916507  1
  O  O24  1  0.471463  0.181297  0.916507  1
  O  O25  1  0.538607  0.831302  0.421712  1
