# generated using pymatgen
data_Ca2GdPaN4
_symmetry_space_group_name_H-M   'P 1'
_cell_length_a   6.18780504
_cell_length_b   6.18815252
_cell_length_c   4.92589100
_cell_angle_alpha   66.55224445
_cell_angle_beta   66.54919948
_cell_angle_gamma   46.90901742
_symmetry_Int_Tables_number   1
_chemical_formula_structural   Ca2GdPaN4
_chemical_formula_sum   'Ca2 Gd1 Pa1 N4'
_cell_volume   124.10813627
_cell_formula_units_Z   1
loop_
 _symmetry_equiv_pos_site_id
 _symmetry_equiv_pos_as_xyz
  1  'x, y, z'
loop_
 _atom_site_type_symbol
 _atom_site_label
 _atom_site_symmetry_multiplicity
 _atom_site_fract_x
 _atom_site_fract_y
 _atom_site_fract_z
 _atom_site_occupancy
  Ca  Ca0  1  0.247273  0.252727  0.252727  1
  Ca  Ca1  1  0.497323  0.502677  0.502677  1
  Gd  Gd2  1  0.747271  0.752729  0.752729  1
  Pa  Pa3  1  0.997810  0.002190  0.002190  1
  N  N4  1  0.987225  0.992878  0.515210  1
  N  N5  1  0.212631  0.218387  0.787268  1
  N  N6  1  0.504687  0.515210  0.992878  1
  N  N7  1  0.781715  0.787268  0.218387  1
