# generated using pymatgen
data_NdTm3Hg2
_symmetry_space_group_name_H-M   'P 1'
_cell_length_a   5.06607000
_cell_length_b   7.14739719
_cell_length_c   9.21282788
_cell_angle_alpha   89.74846619
_cell_angle_beta   90.00000000
_cell_angle_gamma   90.00000000
_symmetry_Int_Tables_number   1
_chemical_formula_structural   NdTm3Hg2
_chemical_formula_sum   'Nd2 Tm6 Hg4'
_cell_volume   333.58604634
_cell_formula_units_Z   2
loop_
 _symmetry_equiv_pos_site_id
 _symmetry_equiv_pos_as_xyz
  1  'x, y, z'
loop_
 _atom_site_type_symbol
 _atom_site_label
 _atom_site_symmetry_multiplicity
 _atom_site_fract_x
 _atom_site_fract_y
 _atom_site_fract_z
 _atom_site_occupancy
  Nd  Nd0  1  0.750000  0.015019  0.692914  1
  Nd  Nd1  1  0.250000  0.984981  0.307086  1
  Tm  Tm2  1  0.750000  0.661028  0.423039  1
  Tm  Tm3  1  0.250000  0.338972  0.576961  1
  Tm  Tm4  1  0.750000  0.169319  0.073269  1
  Tm  Tm5  1  0.250000  0.830681  0.926731  1
  Tm  Tm6  1  0.750000  0.515502  0.809317  1
  Tm  Tm7  1  0.250000  0.484498  0.190683  1
  Hg  Hg8  1  0.750000  0.246839  0.395162  1
  Hg  Hg9  1  0.250000  0.753161  0.604838  1
  Hg  Hg10  1  0.750000  0.738440  0.099387  1
  Hg  Hg11  1  0.250000  0.261560  0.900613  1
