# generated using pymatgen
data_Ho5Lu3Mn2(B12Ru)2
_symmetry_space_group_name_H-M   'P 1'
_cell_length_a   3.57771700
_cell_length_b   9.05391220
_cell_length_c   11.43843607
_cell_angle_alpha   89.99412315
_cell_angle_beta   90.00000000
_cell_angle_gamma   90.00000000
_symmetry_Int_Tables_number   1
_chemical_formula_structural   Ho5Lu3Mn2(B12Ru)2
_chemical_formula_sum   'Ho5 Lu3 Mn2 B24 Ru2'
_cell_volume   370.51765784
_cell_formula_units_Z   1
loop_
 _symmetry_equiv_pos_site_id
 _symmetry_equiv_pos_as_xyz
  1  'x, y, z'
loop_
 _atom_site_type_symbol
 _atom_site_label
 _atom_site_symmetry_multiplicity
 _atom_site_fract_x
 _atom_site_fract_y
 _atom_site_fract_z
 _atom_site_occupancy
  Ho  Ho0  1  0.000000  0.326408  0.416320  1
  Ho  Ho1  1  0.000000  0.673508  0.584184  1
  Ho  Ho2  1  0.000000  0.819922  0.087181  1
  Ho  Ho3  1  0.000000  0.180082  0.912317  1
  Ho  Ho4  1  0.000000  0.940121  0.371084  1
  Lu  Lu5  1  0.000000  0.060125  0.629741  1
  Lu  Lu6  1  0.000000  0.445339  0.130979  1
  Lu  Lu7  1  0.000000  0.554684  0.868832  1
  Mn  Mn8  1  0.000000  0.636804  0.319687  1
  Mn  Mn9  1  0.000000  0.361769  0.680448  1
  B  B10  1  0.500000  0.553596  0.432103  1
  B  B11  1  0.500000  0.445607  0.568150  1
  B  B12  1  0.500000  0.054054  0.066807  1
  B  B13  1  0.500000  0.946186  0.932733  1
  B  B14  1  0.500000  0.745730  0.417650  1
  B  B15  1  0.500000  0.252842  0.582585  1
  B  B16  1  0.500000  0.250670  0.081114  1
  B  B17  1  0.500000  0.749678  0.918661  1
  B  B18  1  0.500000  0.788595  0.265749  1
  B  B19  1  0.500000  0.210195  0.733957  1
  B  B20  1  0.500000  0.293000  0.234960  1
  B  B21  1  0.500000  0.707539  0.764892  1
  B  B22  1  0.500000  0.630127  0.186065  1
  B  B23  1  0.500000  0.369496  0.813655  1
  B  B24  1  0.500000  0.131644  0.314926  1
  B  B25  1  0.500000  0.869540  0.684821  1
  B  B26  1  0.500000  0.982411  0.212138  1
  B  B27  1  0.500000  0.018345  0.786932  1
  B  B28  1  0.500000  0.484476  0.288137  1
  B  B29  1  0.500000  0.515313  0.711793  1
  B  B30  1  0.500000  0.601487  0.028004  1
  B  B31  1  0.500000  0.398491  0.971795  1
  B  B32  1  0.500000  0.103935  0.472720  1
  B  B33  1  0.500000  0.897263  0.529543  1
  Ru  Ru34  1  0.000000  0.139606  0.178796  1
  Ru  Ru35  1  0.000000  0.861415  0.820540  1
