# generated using pymatgen
data_Nd2Tc5(PRh)7
_symmetry_space_group_name_H-M   'P 1'
_cell_length_a   3.96144200
_cell_length_b   9.52355699
_cell_length_c   9.54545202
_cell_angle_alpha   119.68104722
_cell_angle_beta   89.99995861
_cell_angle_gamma   90.00200936
_symmetry_Int_Tables_number   1
_chemical_formula_structural   Nd2Tc5(PRh)7
_chemical_formula_sum   'Nd2 Tc5 P7 Rh7'
_cell_volume   312.87184112
_cell_formula_units_Z   1
loop_
 _symmetry_equiv_pos_site_id
 _symmetry_equiv_pos_as_xyz
  1  'x, y, z'
loop_
 _atom_site_type_symbol
 _atom_site_label
 _atom_site_symmetry_multiplicity
 _atom_site_fract_x
 _atom_site_fract_y
 _atom_site_fract_z
 _atom_site_occupancy
  Nd  Nd0  1  0.262052  0.668151  0.333158  1
  Nd  Nd1  1  0.762037  0.333419  0.666409  1
  Tc  Tc2  1  0.761897  0.093421  0.872271  1
  Tc  Tc3  1  0.761887  0.125811  0.217493  1
  Tc  Tc4  1  0.761900  0.782083  0.906785  1
  Tc  Tc5  1  0.261899  0.886587  0.158521  1
  Tc  Tc6  1  0.261912  0.842348  0.728220  1
  P  P7  1  0.261761  0.996733  0.997794  1
  P  P8  1  0.761875  0.885044  0.602339  1
  P  P9  1  0.761890  0.399409  0.287795  1
  P  P10  1  0.761853  0.718465  0.116826  1
  P  P11  1  0.261943  0.112981  0.408695  1
  P  P12  1  0.261925  0.590426  0.703938  1
  P  P13  1  0.261877  0.294987  0.884209  1
  Rh  Rh14  1  0.261866  0.270660  0.111892  1
  Rh  Rh15  1  0.761917  0.609186  0.559631  1
  Rh  Rh16  1  0.761866  0.440095  0.052987  1
  Rh  Rh17  1  0.761927  0.949570  0.391446  1
  Rh  Rh18  1  0.261914  0.367701  0.432842  1
  Rh  Rh19  1  0.261863  0.564900  0.933999  1
  Rh  Rh20  1  0.261938  0.068022  0.632753  1
