# generated using pymatgen
data_Tb8Er12Si15Os
_symmetry_space_group_name_H-M   'P 1'
_cell_length_a   7.33776103
_cell_length_b   7.72395975
_cell_length_c   14.50026900
_cell_angle_alpha   90.00000000
_cell_angle_beta   90.00000000
_cell_angle_gamma   90.09193603
_symmetry_Int_Tables_number   1
_chemical_formula_structural   Tb8Er12Si15Os
_chemical_formula_sum   'Tb8 Er12 Si15 Os1'
_cell_volume   821.82446591
_cell_formula_units_Z   1
loop_
 _symmetry_equiv_pos_site_id
 _symmetry_equiv_pos_as_xyz
  1  'x, y, z'
loop_
 _atom_site_type_symbol
 _atom_site_label
 _atom_site_symmetry_multiplicity
 _atom_site_fract_x
 _atom_site_fract_y
 _atom_site_fract_z
 _atom_site_occupancy
  Tb  Tb0  1  0.019933  0.184069  0.097134  1
  Tb  Tb1  1  0.983556  0.827467  0.903551  1
  Tb  Tb2  1  0.481053  0.679677  0.904198  1
  Tb  Tb3  1  0.983556  0.827467  0.596449  1
  Tb  Tb4  1  0.518896  0.319383  0.096604  1
  Tb  Tb5  1  0.019933  0.184069  0.402866  1
  Tb  Tb6  1  0.518896  0.319383  0.403396  1
  Tb  Tb7  1  0.481053  0.679677  0.595802  1
  Er  Er8  1  0.152205  0.509941  0.750000  1
  Er  Er9  1  0.842522  0.488028  0.250000  1
  Er  Er10  1  0.343283  0.014448  0.250000  1
  Er  Er11  1  0.664606  0.987936  0.750000  1
  Er  Er12  1  0.312544  0.174075  0.626644  1
  Er  Er13  1  0.678103  0.823860  0.375498  1
  Er  Er14  1  0.176608  0.680391  0.375761  1
  Er  Er15  1  0.678103  0.823860  0.124502  1
  Er  Er16  1  0.833912  0.313693  0.626142  1
  Er  Er17  1  0.312544  0.174075  0.873356  1
  Er  Er18  1  0.833912  0.313693  0.873858  1
  Er  Er19  1  0.176608  0.680391  0.124239  1
  Si  Si20  1  0.972428  0.893706  0.250000  1
  Si  Si21  1  0.473707  0.608442  0.250000  1
  Si  Si22  1  0.526204  0.396067  0.750000  1
  Si  Si23  1  0.276419  0.865799  0.750000  1
  Si  Si24  1  0.722253  0.130660  0.250000  1
  Si  Si25  1  0.224308  0.371728  0.250000  1
  Si  Si26  1  0.766697  0.623124  0.750000  1
  Si  Si27  1  0.155521  0.473025  0.537635  1
  Si  Si28  1  0.848378  0.531892  0.461981  1
  Si  Si29  1  0.347909  0.969786  0.460724  1
  Si  Si30  1  0.848378  0.531892  0.038019  1
  Si  Si31  1  0.648257  0.030149  0.538154  1
  Si  Si32  1  0.155521  0.473025  0.962365  1
  Si  Si33  1  0.648257  0.030149  0.961846  1
  Si  Si34  1  0.347909  0.969786  0.039276  1
  Os  Os35  1  0.026023  0.095185  0.750000  1
