# generated using pymatgen
data_LaZnSiGePd
_symmetry_space_group_name_H-M   'P 1'
_cell_length_a   6.08183562
_cell_length_b   6.08183530
_cell_length_c   6.08183502
_cell_angle_alpha   139.48187306
_cell_angle_beta   138.94587251
_cell_angle_gamma   59.04999591
_symmetry_Int_Tables_number   1
_chemical_formula_structural   LaZnSiGePd
_chemical_formula_sum   'La1 Zn1 Si1 Ge1 Pd1'
_cell_volume   95.06840890
_cell_formula_units_Z   1
loop_
 _symmetry_equiv_pos_site_id
 _symmetry_equiv_pos_as_xyz
  1  'x, y, z'
loop_
 _atom_site_type_symbol
 _atom_site_label
 _atom_site_symmetry_multiplicity
 _atom_site_fract_x
 _atom_site_fract_y
 _atom_site_fract_z
 _atom_site_occupancy
  La  La0  1  0.000859  0.000859  0.000000  1
  Zn  Zn1  1  0.247251  0.747251  0.500000  1
  Si  Si2  1  0.620247  0.620247  0.000000  1
  Ge  Ge3  1  0.386532  0.386532  0.000000  1
  Pd  Pd4  1  0.745110  0.245110  0.500000  1
