# generated using pymatgen
data_Tb7Y2Ho(In2Pt)4
_symmetry_space_group_name_H-M   'P 1'
_cell_length_a   3.63447000
_cell_length_b   8.19712145
_cell_length_c   18.33190024
_cell_angle_alpha   90.06813562
_cell_angle_beta   90.00000000
_cell_angle_gamma   90.00000000
_symmetry_Int_Tables_number   1
_chemical_formula_structural   Tb7Y2Ho(In2Pt)4
_chemical_formula_sum   'Tb7 Y2 Ho1 In8 Pt4'
_cell_volume   546.14710539
_cell_formula_units_Z   1
loop_
 _symmetry_equiv_pos_site_id
 _symmetry_equiv_pos_as_xyz
  1  'x, y, z'
loop_
 _atom_site_type_symbol
 _atom_site_label
 _atom_site_symmetry_multiplicity
 _atom_site_fract_x
 _atom_site_fract_y
 _atom_site_fract_z
 _atom_site_occupancy
  Tb  Tb0  1  0.000000  0.116860  0.414748  1
  Tb  Tb1  1  0.000000  0.882999  0.585161  1
  Tb  Tb2  1  0.000000  0.382978  0.914840  1
  Tb  Tb3  1  0.000000  0.617058  0.085280  1
  Tb  Tb4  1  0.000000  0.243006  0.220023  1
  Tb  Tb5  1  0.000000  0.756997  0.779974  1
  Tb  Tb6  1  0.000000  0.257036  0.720029  1
  Y  Y7  1  0.000000  0.999993  0.000025  1
  Y  Y8  1  0.000000  0.499980  0.499989  1
  Ho  Ho9  1  0.000000  0.743219  0.279811  1
  In  In10  1  0.500000  0.424161  0.350795  1
  In  In11  1  0.500000  0.576170  0.649131  1
  In  In12  1  0.500000  0.076167  0.850883  1
  In  In13  1  0.500000  0.923624  0.149290  1
  In  In14  1  0.500000  0.292575  0.066772  1
  In  In15  1  0.500000  0.707530  0.933234  1
  In  In16  1  0.500000  0.207537  0.566792  1
  In  In17  1  0.500000  0.792333  0.432996  1
  Pt  Pt18  1  0.500000  0.023418  0.303203  1
  Pt  Pt19  1  0.500000  0.975472  0.696698  1
  Pt  Pt20  1  0.500000  0.475488  0.803300  1
  Pt  Pt21  1  0.500000  0.525399  0.197025  1
