# generated using pymatgen
data_Y3ErTi(ReN4)3
_symmetry_space_group_name_H-M   'P 1'
_cell_length_a   7.33470243
_cell_length_b   7.41786693
_cell_length_c   6.28018760
_cell_angle_alpha   72.72318259
_cell_angle_beta   73.97075919
_cell_angle_gamma   82.20296911
_symmetry_Int_Tables_number   1
_chemical_formula_structural   Y3ErTi(ReN4)3
_chemical_formula_sum   'Y3 Er1 Ti1 Re3 N12'
_cell_volume   313.05302887
_cell_formula_units_Z   1
loop_
 _symmetry_equiv_pos_site_id
 _symmetry_equiv_pos_as_xyz
  1  'x, y, z'
loop_
 _atom_site_type_symbol
 _atom_site_label
 _atom_site_symmetry_multiplicity
 _atom_site_fract_x
 _atom_site_fract_y
 _atom_site_fract_z
 _atom_site_occupancy
  Y  Y0  1  0.091293  0.904667  0.261682  1
  Y  Y1  1  0.707104  0.277937  0.242144  1
  Y  Y2  1  0.301336  0.719562  0.738443  1
  Er  Er3  1  0.905892  0.084846  0.766948  1
  Ti  Ti4  1  0.619606  0.801085  0.273928  1
  Re  Re5  1  0.200557  0.377584  0.216737  1
  Re  Re6  1  0.379007  0.205683  0.720039  1
  Re  Re7  1  0.794221  0.617764  0.782992  1
  N  N8  1  0.658354  0.621838  0.072668  1
  N  N9  1  0.370836  0.878882  0.353843  1
  N  N10  1  0.360703  0.332024  0.420475  1
  N  N11  1  0.125703  0.621284  0.161277  1
  N  N12  1  0.003373  0.224012  0.338815  1
  N  N13  1  0.791296  0.000133  0.146148  1
  N  N14  1  0.224721  0.008825  0.841218  1
  N  N15  1  0.626000  0.131765  0.661375  1
  N  N16  1  0.333819  0.366427  0.916473  1
  N  N17  1  0.884062  0.376490  0.827654  1
  N  N18  1  0.633844  0.665412  0.589394  1
  N  N19  1  0.988272  0.783779  0.667750  1
