# generated using pymatgen
data_ScU(BiRh)2
_symmetry_space_group_name_H-M   'P 1'
_cell_length_a   4.63462900
_cell_length_b   6.59890500
_cell_length_c   9.29234300
_cell_angle_alpha   90.00000000
_cell_angle_beta   90.00000000
_cell_angle_gamma   90.00000000
_symmetry_Int_Tables_number   1
_chemical_formula_structural   ScU(BiRh)2
_chemical_formula_sum   'Sc2 U2 Bi4 Rh4'
_cell_volume   284.19215360
_cell_formula_units_Z   2
loop_
 _symmetry_equiv_pos_site_id
 _symmetry_equiv_pos_as_xyz
  1  'x, y, z'
loop_
 _atom_site_type_symbol
 _atom_site_label
 _atom_site_symmetry_multiplicity
 _atom_site_fract_x
 _atom_site_fract_y
 _atom_site_fract_z
 _atom_site_occupancy
  Sc  Sc0  1  0.000000  0.010221  0.374946  1
  Sc  Sc1  1  0.500001  0.510223  0.625055  1
  U  U2  1  0.500001  0.487838  0.125407  1
  U  U3  1  0.000000  0.987837  0.874595  1
  Bi  Bi4  1  0.500001  0.988757  0.136468  1
  Bi  Bi5  1  0.000000  0.508293  0.386217  1
  Bi  Bi6  1  0.500001  0.008294  0.613784  1
  Bi  Bi7  1  0.000000  0.488757  0.863534  1
  Rh  Rh8  1  0.000000  0.740066  0.119567  1
  Rh  Rh9  1  0.500001  0.264824  0.366572  1
  Rh  Rh10  1  0.000000  0.764824  0.633429  1
  Rh  Rh11  1  0.500001  0.240066  0.880434  1
