# generated using pymatgen
data_CeDy10ThCo4
_symmetry_space_group_name_H-M   'P 1'
_cell_length_a   6.25820437
_cell_length_b   6.87686009
_cell_length_c   9.50230200
_cell_angle_alpha   90.00000000
_cell_angle_beta   90.00000000
_cell_angle_gamma   92.53806121
_symmetry_Int_Tables_number   1
_chemical_formula_structural   CeDy10ThCo4
_chemical_formula_sum   'Ce1 Dy10 Th1 Co4'
_cell_volume   408.54746322
_cell_formula_units_Z   1
loop_
 _symmetry_equiv_pos_site_id
 _symmetry_equiv_pos_as_xyz
  1  'x, y, z'
loop_
 _atom_site_type_symbol
 _atom_site_label
 _atom_site_symmetry_multiplicity
 _atom_site_fract_x
 _atom_site_fract_y
 _atom_site_fract_z
 _atom_site_occupancy
  Ce  Ce0  1  0.847379  0.558911  0.250000  1
  Dy  Dy1  1  0.675388  0.325790  0.933695  1
  Dy  Dy2  1  0.358919  0.957090  0.750000  1
  Dy  Dy3  1  0.640349  0.046347  0.250000  1
  Dy  Dy4  1  0.173072  0.172172  0.428540  1
  Dy  Dy5  1  0.827399  0.827347  0.569872  1
  Dy  Dy6  1  0.173072  0.172172  0.071460  1
  Dy  Dy7  1  0.827399  0.827347  0.930128  1
  Dy  Dy8  1  0.675388  0.325790  0.566305  1
  Dy  Dy9  1  0.324939  0.673585  0.066178  1
  Dy  Dy10  1  0.324939  0.673585  0.433822  1
  Th  Th11  1  0.155605  0.448965  0.750000  1
  Co  Co12  1  0.535869  0.609538  0.750000  1
  Co  Co13  1  0.953056  0.130031  0.750000  1
  Co  Co14  1  0.028032  0.854446  0.250000  1
  Co  Co15  1  0.479197  0.396882  0.250000  1
