# generated using pymatgen
data_LuZrSc2(SiMo)4
_symmetry_space_group_name_H-M   'P 1'
_cell_length_a   3.56029400
_cell_length_b   7.07169388
_cell_length_c   8.25927089
_cell_angle_alpha   90.16825951
_cell_angle_beta   90.00000000
_cell_angle_gamma   90.00000000
_symmetry_Int_Tables_number   1
_chemical_formula_structural   LuZrSc2(SiMo)4
_chemical_formula_sum   'Lu1 Zr1 Sc2 Si4 Mo4'
_cell_volume   207.94532082
_cell_formula_units_Z   1
loop_
 _symmetry_equiv_pos_site_id
 _symmetry_equiv_pos_as_xyz
  1  'x, y, z'
loop_
 _atom_site_type_symbol
 _atom_site_label
 _atom_site_symmetry_multiplicity
 _atom_site_fract_x
 _atom_site_fract_y
 _atom_site_fract_z
 _atom_site_occupancy
  Lu  Lu0  1  0.750000  0.955948  0.664667  1
  Zr  Zr1  1  0.750000  0.456685  0.834530  1
  Sc  Sc2  1  0.250000  0.043771  0.331009  1
  Sc  Sc3  1  0.250000  0.541867  0.165745  1
  Si  Si4  1  0.250000  0.262104  0.637052  1
  Si  Si5  1  0.250000  0.754777  0.867557  1
  Si  Si6  1  0.750000  0.740266  0.359190  1
  Si  Si7  1  0.750000  0.242964  0.138448  1
  Mo  Mo8  1  0.250000  0.129360  0.942182  1
  Mo  Mo9  1  0.250000  0.625674  0.557568  1
  Mo  Mo10  1  0.750000  0.873111  0.061081  1
  Mo  Mo11  1  0.750000  0.373473  0.440971  1
