# generated using pymatgen
data_Hf4Al6TcOs
_symmetry_space_group_name_H-M   'P 1'
_cell_length_a   5.23860200
_cell_length_b   5.23860114
_cell_length_c   8.62057100
_cell_angle_alpha   90.00000000
_cell_angle_beta   90.00000000
_cell_angle_gamma   119.99999278
_symmetry_Int_Tables_number   1
_chemical_formula_structural   Hf4Al6TcOs
_chemical_formula_sum   'Hf4 Al6 Tc1 Os1'
_cell_volume   204.87899455
_cell_formula_units_Z   1
loop_
 _symmetry_equiv_pos_site_id
 _symmetry_equiv_pos_as_xyz
  1  'x, y, z'
loop_
 _atom_site_type_symbol
 _atom_site_label
 _atom_site_symmetry_multiplicity
 _atom_site_fract_x
 _atom_site_fract_y
 _atom_site_fract_z
 _atom_site_occupancy
  Hf  Hf0  1  0.666666  0.333332  0.055816  1
  Hf  Hf1  1  0.666666  0.333332  0.447276  1
  Hf  Hf2  1  0.333333  0.666667  0.552725  1
  Hf  Hf3  1  0.333333  0.666667  0.944184  1
  Al  Al4  1  0.166356  0.332712  0.251168  1
  Al  Al5  1  0.166356  0.833643  0.251168  1
  Al  Al6  1  0.667287  0.833643  0.251168  1
  Al  Al7  1  0.332712  0.166356  0.748832  1
  Al  Al8  1  0.833643  0.166356  0.748832  1
  Al  Al9  1  0.833643  0.667287  0.748832  1
  Tc  Tc10  1  0.000000  0.000000  0.000000  1
  Os  Os11  1  0.000000  0.000000  0.500000  1
