# generated using pymatgen
data_Tm7Lu5(GaCo2)2
_symmetry_space_group_name_H-M   'P 1'
_cell_length_a   8.13568792
_cell_length_b   8.12591015
_cell_length_c   8.12639333
_cell_angle_alpha   111.90319373
_cell_angle_beta   109.80764414
_cell_angle_gamma   106.71072720
_symmetry_Int_Tables_number   1
_chemical_formula_structural   Tm7Lu5(GaCo2)2
_chemical_formula_sum   'Tm7 Lu5 Ga2 Co4'
_cell_volume   412.88108295
_cell_formula_units_Z   1
loop_
 _symmetry_equiv_pos_site_id
 _symmetry_equiv_pos_as_xyz
  1  'x, y, z'
loop_
 _atom_site_type_symbol
 _atom_site_label
 _atom_site_symmetry_multiplicity
 _atom_site_fract_x
 _atom_site_fract_y
 _atom_site_fract_z
 _atom_site_occupancy
  Tm  Tm0  1  0.674217  0.484414  0.811788  1
  Tm  Tm1  1  0.563478  0.260806  0.302118  1
  Tm  Tm2  1  0.435784  0.739489  0.696928  1
  Tm  Tm3  1  0.181910  0.779929  0.962293  1
  Tm  Tm4  1  0.818761  0.780941  0.598146  1
  Tm  Tm5  1  0.180515  0.218925  0.401013  1
  Tm  Tm6  1  0.818866  0.219978  0.038343  1
  Lu  Lu7  1  0.958684  0.260462  0.697718  1
  Lu  Lu8  1  0.042479  0.739851  0.303250  1
  Lu  Lu9  1  0.674104  0.861569  0.188991  1
  Lu  Lu10  1  0.325768  0.514542  0.187092  1
  Lu  Lu11  1  0.325489  0.138380  0.811339  1
  Ga  Ga12  1  0.999786  0.499854  0.500078  1
  Ga  Ga13  1  0.499796  0.999484  0.499642  1
  Co  Co14  1  0.114588  0.116423  0.997754  1
  Co  Co15  1  0.886106  0.884167  0.002359  1
  Co  Co16  1  0.661904  0.500955  0.162141  1
  Co  Co17  1  0.337766  0.499830  0.839008  1
