# generated using pymatgen
data_Ta5TiC5
_symmetry_space_group_name_H-M   'P 1'
_cell_length_a   5.45661981
_cell_length_b   5.44500976
_cell_length_c   5.45424625
_cell_angle_alpha   99.72866423
_cell_angle_beta   99.69192985
_cell_angle_gamma   119.85089011
_symmetry_Int_Tables_number   1
_chemical_formula_structural   Ta5TiC5
_chemical_formula_sum   'Ta5 Ti1 C5'
_cell_volume   132.35212086
_cell_formula_units_Z   1
loop_
 _symmetry_equiv_pos_site_id
 _symmetry_equiv_pos_as_xyz
  1  'x, y, z'
loop_
 _atom_site_type_symbol
 _atom_site_label
 _atom_site_symmetry_multiplicity
 _atom_site_fract_x
 _atom_site_fract_y
 _atom_site_fract_z
 _atom_site_occupancy
  Ta  Ta0  1  0.083050  0.436003  0.251782  1
  Ta  Ta1  1  0.735004  0.735429  0.263459  1
  Ta  Ta2  1  0.264436  0.261938  0.735395  1
  Ta  Ta3  1  0.916695  0.565089  0.747866  1
  Ta  Ta4  1  0.566851  0.918598  0.749752  1
  Ti  Ti5  1  0.438876  0.083605  0.253982  1
  C  C6  1  0.663340  0.332005  0.002695  1
  C  C7  1  0.334049  0.670078  0.001981  1
  C  C8  1  0.830375  0.167467  0.498251  1
  C  C9  1  0.497910  0.495131  0.497044  1
  C  C10  1  0.169422  0.834663  0.497792  1
