# generated using pymatgen
data_Zr6In4GeI18
_symmetry_space_group_name_H-M   'P 1'
_cell_length_a   11.12886551
_cell_length_b   11.35220156
_cell_length_c   11.41489707
_cell_angle_alpha   118.51158043
_cell_angle_beta   100.06175615
_cell_angle_gamma   103.76218668
_symmetry_Int_Tables_number   1
_chemical_formula_structural   Zr6In4GeI18
_chemical_formula_sum   'Zr6 In4 Ge1 I18'
_cell_volume   1158.51724965
_cell_formula_units_Z   1
loop_
 _symmetry_equiv_pos_site_id
 _symmetry_equiv_pos_as_xyz
  1  'x, y, z'
loop_
 _atom_site_type_symbol
 _atom_site_label
 _atom_site_symmetry_multiplicity
 _atom_site_fract_x
 _atom_site_fract_y
 _atom_site_fract_z
 _atom_site_occupancy
  Zr  Zr0  1  0.153693  0.056831  0.234727  1
  Zr  Zr1  1  0.846307  0.943169  0.765273  1
  Zr  Zr2  1  0.860223  0.130075  0.136900  1
  Zr  Zr3  1  0.139777  0.869925  0.863100  1
  Zr  Zr4  1  0.147945  0.242841  0.045397  1
  Zr  Zr5  1  0.852055  0.757159  0.954603  1
  In  In6  1  0.644086  0.538760  0.224553  1
  In  In7  1  0.355914  0.461240  0.775447  1
  In  In8  1  0.679295  0.224472  0.562040  1
  In  In9  1  0.320705  0.775528  0.437960  1
  Ge  Ge10  1  0.000000  0.000000  0.000000  1
  I  I11  1  0.008672  0.417026  0.200554  1
  I  I12  1  0.991328  0.582974  0.799446  1
  I  I13  1  0.334466  0.337653  0.315707  1
  I  I14  1  0.665534  0.662347  0.684293  1
  I  I15  1  0.333004  0.529696  0.102180  1
  I  I16  1  0.666996  0.470304  0.897820  1
  I  I17  1  0.005479  0.792453  0.213538  1
  I  I18  1  0.994521  0.207547  0.786462  1
  I  I19  1  0.696602  0.283264  0.298569  1
  I  I20  1  0.303398  0.716736  0.701431  1
  I  I21  1  0.322113  0.128375  0.900826  1
  I  I22  1  0.677887  0.871625  0.099174  1
  I  I23  1  0.016135  0.207995  0.416324  1
  I  I24  1  0.983865  0.792005  0.583676  1
  I  I25  1  0.326601  0.920249  0.110706  1
  I  I26  1  0.673399  0.079751  0.889294  1
  I  I27  1  0.344882  0.124624  0.512470  1
  I  I28  1  0.655118  0.875376  0.487530  1
