# generated using pymatgen
data_Eu5(VN3)2
_symmetry_space_group_name_H-M   'P 1'
_cell_length_a   6.02691245
_cell_length_b   6.43555577
_cell_length_c   13.41113760
_cell_angle_alpha   89.99999920
_cell_angle_beta   99.80774924
_cell_angle_gamma   122.26944102
_symmetry_Int_Tables_number   1
_chemical_formula_structural   Eu5(VN3)2
_chemical_formula_sum   'Eu10 V4 N12'
_cell_volume   430.81148883
_cell_formula_units_Z   2
loop_
 _symmetry_equiv_pos_site_id
 _symmetry_equiv_pos_as_xyz
  1  'x, y, z'
loop_
 _atom_site_type_symbol
 _atom_site_label
 _atom_site_symmetry_multiplicity
 _atom_site_fract_x
 _atom_site_fract_y
 _atom_site_fract_z
 _atom_site_occupancy
  Eu  Eu0  1  0.147057  0.814865  0.998301  1
  Eu  Eu1  1  0.852943  0.667808  0.501699  1
  Eu  Eu2  1  0.852943  0.185135  0.001699  1
  Eu  Eu3  1  0.147057  0.332192  0.498301  1
  Eu  Eu4  1  0.315545  0.066332  0.718689  1
  Eu  Eu5  1  0.684455  0.750786  0.781311  1
  Eu  Eu6  1  0.684455  0.933668  0.281311  1
  Eu  Eu7  1  0.315545  0.249214  0.218689  1
  Eu  Eu8  1  0.000000  0.385254  0.750000  1
  Eu  Eu9  1  0.000000  0.614746  0.250000  1
  V  V10  1  0.554878  0.913943  0.574887  1
  V  V11  1  0.445122  0.359065  0.925113  1
  V  V12  1  0.445122  0.086057  0.425113  1
  V  V13  1  0.554878  0.640935  0.074887  1
  N  N14  1  0.894372  0.998721  0.629557  1
  N  N15  1  0.105628  0.104349  0.870443  1
  N  N16  1  0.105628  0.001279  0.370443  1
  N  N17  1  0.894372  0.895651  0.129557  1
  N  N18  1  0.296389  0.693396  0.642923  1
  N  N19  1  0.703611  0.397007  0.857077  1
  N  N20  1  0.703611  0.306604  0.357077  1
  N  N21  1  0.296389  0.602993  0.142923  1
  N  N22  1  0.542983  0.214399  0.566913  1
  N  N23  1  0.457017  0.671417  0.933087  1
  N  N24  1  0.457017  0.785601  0.433087  1
  N  N25  1  0.542983  0.328583  0.066913  1
