# generated using pymatgen
data_Tm3Lu3FeBiSb
_symmetry_space_group_name_H-M   'P 1'
_cell_length_a   8.12063400
_cell_length_b   8.12063507
_cell_length_c   4.12013100
_cell_angle_alpha   90.00000000
_cell_angle_beta   90.00000000
_cell_angle_gamma   120.00000378
_symmetry_Int_Tables_number   1
_chemical_formula_structural   Tm3Lu3FeBiSb
_chemical_formula_sum   'Tm3 Lu3 Fe1 Bi1 Sb1'
_cell_volume   235.29980727
_cell_formula_units_Z   1
loop_
 _symmetry_equiv_pos_site_id
 _symmetry_equiv_pos_as_xyz
  1  'x, y, z'
loop_
 _atom_site_type_symbol
 _atom_site_label
 _atom_site_symmetry_multiplicity
 _atom_site_fract_x
 _atom_site_fract_y
 _atom_site_fract_z
 _atom_site_occupancy
  Tm  Tm0  1  0.609411  0.995321  0.000000  1
  Tm  Tm1  1  0.004679  0.614089  0.000000  1
  Tm  Tm2  1  0.385911  0.390589  0.000000  1
  Lu  Lu3  1  0.230426  0.998070  0.500000  1
  Lu  Lu4  1  0.001930  0.232357  0.500000  1
  Lu  Lu5  1  0.767643  0.769574  0.500000  1
  Fe  Fe6  1  0.000000  0.000000  0.000000  1
  Bi  Bi7  1  0.666667  0.333333  0.500000  1
  Sb  Sb8  1  0.333333  0.666667  0.500000  1
