# generated using pymatgen
data_ReTc(TeS)2
_symmetry_space_group_name_H-M   'P 1'
_cell_length_a   7.23432145
_cell_length_b   7.20478058
_cell_length_c   7.20478011
_cell_angle_alpha   59.73971824
_cell_angle_beta   59.86427370
_cell_angle_gamma   59.86426839
_symmetry_Int_Tables_number   1
_chemical_formula_structural   ReTc(TeS)2
_chemical_formula_sum   'Re2 Tc2 Te4 S4'
_cell_volume   264.46742962
_cell_formula_units_Z   2
loop_
 _symmetry_equiv_pos_site_id
 _symmetry_equiv_pos_as_xyz
  1  'x, y, z'
loop_
 _atom_site_type_symbol
 _atom_site_label
 _atom_site_symmetry_multiplicity
 _atom_site_fract_x
 _atom_site_fract_y
 _atom_site_fract_z
 _atom_site_occupancy
  Re  Re0  1  0.152892  0.151987  0.542229  1
  Re  Re1  1  0.152892  0.542229  0.151987  1
  Tc  Tc2  1  0.152847  0.151916  0.151916  1
  Tc  Tc3  1  0.543322  0.151916  0.151916  1
  Te  Te4  1  0.878814  0.363627  0.878745  1
  Te  Te5  1  0.878814  0.878745  0.363627  1
  Te  Te6  1  0.365732  0.878412  0.878412  1
  Te  Te7  1  0.877444  0.878412  0.878412  1
  S  S8  1  0.376723  0.378652  0.378652  1
  S  S9  1  0.865974  0.378652  0.378652  1
  S  S10  1  0.377274  0.380204  0.865250  1
  S  S11  1  0.377274  0.865250  0.380204  1
