# generated using pymatgen
data_YbEr4RuPt2
_symmetry_space_group_name_H-M   'P 1'
_cell_length_a   10.98271300
_cell_length_b   10.98271300
_cell_length_c   6.24916100
_cell_angle_alpha   90.00000000
_cell_angle_beta   90.00000000
_cell_angle_gamma   90.00000000
_symmetry_Int_Tables_number   1
_chemical_formula_structural   YbEr4RuPt2
_chemical_formula_sum   'Yb4 Er16 Ru4 Pt8'
_cell_volume   753.77370509
_cell_formula_units_Z   4
loop_
 _symmetry_equiv_pos_site_id
 _symmetry_equiv_pos_as_xyz
  1  'x, y, z'
loop_
 _atom_site_type_symbol
 _atom_site_label
 _atom_site_symmetry_multiplicity
 _atom_site_fract_x
 _atom_site_fract_y
 _atom_site_fract_z
 _atom_site_occupancy
  Yb  Yb0  1  0.000000  0.000000  0.500000  1
  Yb  Yb1  1  0.000000  0.000000  0.000000  1
  Yb  Yb2  1  0.500000  0.500000  0.000000  1
  Yb  Yb3  1  0.500000  0.500000  0.500000  1
  Er  Er4  1  0.296628  0.085702  0.373419  1
  Er  Er5  1  0.296628  0.914298  0.873419  1
  Er  Er6  1  0.703372  0.085702  0.873419  1
  Er  Er7  1  0.703372  0.914298  0.373419  1
  Er  Er8  1  0.585702  0.796628  0.873419  1
  Er  Er9  1  0.585702  0.203372  0.373419  1
  Er  Er10  1  0.414298  0.796628  0.373419  1
  Er  Er11  1  0.414298  0.203372  0.873419  1
  Er  Er12  1  0.203372  0.414298  0.626581  1
  Er  Er13  1  0.203372  0.585702  0.126581  1
  Er  Er14  1  0.796628  0.414298  0.126581  1
  Er  Er15  1  0.796628  0.585702  0.626581  1
  Er  Er16  1  0.914298  0.703372  0.126581  1
  Er  Er17  1  0.914298  0.296628  0.626581  1
  Er  Er18  1  0.085702  0.703372  0.626581  1
  Er  Er19  1  0.085702  0.296628  0.126581  1
  Ru  Ru20  1  0.500000  0.000000  0.121214  1
  Ru  Ru21  1  0.500000  0.000000  0.621214  1
  Ru  Ru22  1  0.000000  0.500000  0.878786  1
  Ru  Ru23  1  0.000000  0.500000  0.378786  1
  Pt  Pt24  1  0.843053  0.156947  0.250000  1
  Pt  Pt25  1  0.843053  0.843053  0.750000  1
  Pt  Pt26  1  0.156947  0.156947  0.750000  1
  Pt  Pt27  1  0.156947  0.843053  0.250000  1
  Pt  Pt28  1  0.656947  0.343053  0.750000  1
  Pt  Pt29  1  0.656947  0.656947  0.250000  1
  Pt  Pt30  1  0.343053  0.343053  0.250000  1
  Pt  Pt31  1  0.343053  0.656947  0.750000  1
