# generated using pymatgen
data_Ca3Zn8Pt
_symmetry_space_group_name_H-M   'P 1'
_cell_length_a   9.46678731
_cell_length_b   9.46678710
_cell_length_c   9.46678669
_cell_angle_alpha   33.12232515
_cell_angle_beta   33.12232445
_cell_angle_gamma   33.12232947
_symmetry_Int_Tables_number   1
_chemical_formula_structural   Ca3Zn8Pt
_chemical_formula_sum   'Ca3 Zn8 Pt1'
_cell_volume   225.48018597
_cell_formula_units_Z   1
loop_
 _symmetry_equiv_pos_site_id
 _symmetry_equiv_pos_as_xyz
  1  'x, y, z'
loop_
 _atom_site_type_symbol
 _atom_site_label
 _atom_site_symmetry_multiplicity
 _atom_site_fract_x
 _atom_site_fract_y
 _atom_site_fract_z
 _atom_site_occupancy
  Ca  Ca0  1  0.855920  0.855920  0.855920  1
  Ca  Ca1  1  0.144080  0.144080  0.144080  1
  Ca  Ca2  1  0.000000  0.000000  0.000000  1
  Zn  Zn3  1  0.416301  0.416301  0.917242  1
  Zn  Zn4  1  0.917242  0.416301  0.416301  1
  Zn  Zn5  1  0.416301  0.917242  0.416301  1
  Zn  Zn6  1  0.332819  0.332819  0.332819  1
  Zn  Zn7  1  0.667181  0.667181  0.667181  1
  Zn  Zn8  1  0.082758  0.583699  0.583699  1
  Zn  Zn9  1  0.583699  0.583699  0.082758  1
  Zn  Zn10  1  0.583699  0.082758  0.583699  1
  Pt  Pt11  1  0.500000  0.500000  0.500000  1
