# generated using pymatgen
data_Pr3In3CuHgPt
_symmetry_space_group_name_H-M   'P 1'
_cell_length_a   7.97370400
_cell_length_b   7.97370444
_cell_length_c   4.03546400
_cell_angle_alpha   90.00000000
_cell_angle_beta   90.00000000
_cell_angle_gamma   120.00002307
_symmetry_Int_Tables_number   1
_chemical_formula_structural   Pr3In3CuHgPt
_chemical_formula_sum   'Pr3 In3 Cu1 Hg1 Pt1'
_cell_volume   222.20010069
_cell_formula_units_Z   1
loop_
 _symmetry_equiv_pos_site_id
 _symmetry_equiv_pos_as_xyz
  1  'x, y, z'
loop_
 _atom_site_type_symbol
 _atom_site_label
 _atom_site_symmetry_multiplicity
 _atom_site_fract_x
 _atom_site_fract_y
 _atom_site_fract_z
 _atom_site_occupancy
  Pr  Pr0  1  0.418229  0.398097  0.500000  1
  Pr  Pr1  1  0.601903  0.020131  0.500000  1
  Pr  Pr2  1  0.979869  0.581771  0.500000  1
  In  In3  1  0.760274  0.758702  0.000000  1
  In  In4  1  0.241298  0.001573  0.000000  1
  In  In5  1  0.998427  0.239726  0.000000  1
  Cu  Cu6  1  0.000000  0.000000  0.500000  1
  Hg  Hg7  1  0.333333  0.666667  0.000000  1
  Pt  Pt8  1  0.666667  0.333333  0.000000  1
