# generated using pymatgen
data_Er7(TmPt6)3
_symmetry_space_group_name_H-M   'P 1'
_cell_length_a   9.71512909
_cell_length_b   9.71830209
_cell_length_c   5.75451600
_cell_angle_alpha   90.00000000
_cell_angle_beta   90.00000000
_cell_angle_gamma   90.01518969
_symmetry_Int_Tables_number   1
_chemical_formula_structural   Er7(TmPt6)3
_chemical_formula_sum   'Er7 Tm3 Pt18'
_cell_volume   543.31007274
_cell_formula_units_Z   1
loop_
 _symmetry_equiv_pos_site_id
 _symmetry_equiv_pos_as_xyz
  1  'x, y, z'
loop_
 _atom_site_type_symbol
 _atom_site_label
 _atom_site_symmetry_multiplicity
 _atom_site_fract_x
 _atom_site_fract_y
 _atom_site_fract_z
 _atom_site_occupancy
  Er  Er0  1  0.452324  0.809050  0.000000  1
  Er  Er1  1  0.547651  0.190968  0.000000  1
  Er  Er2  1  0.190956  0.547612  0.000000  1
  Er  Er3  1  0.809079  0.452306  0.000000  1
  Er  Er4  1  0.308974  0.047691  0.500000  1
  Er  Er5  1  0.690993  0.952391  0.500000  1
  Er  Er6  1  0.952384  0.690951  0.500000  1
  Tm  Tm7  1  0.499995  0.499996  0.500000  1
  Tm  Tm8  1  0.047640  0.308978  0.500000  1
  Tm  Tm9  1  0.999997  0.000031  0.000000  1
  Pt  Pt10  1  0.191627  0.808357  0.250895  1
  Pt  Pt11  1  0.808534  0.191686  0.748961  1
  Pt  Pt12  1  0.808534  0.191686  0.251039  1
  Pt  Pt13  1  0.191627  0.808357  0.749105  1
  Pt  Pt14  1  0.441347  0.782149  0.500000  1
  Pt  Pt15  1  0.558649  0.217852  0.500000  1
  Pt  Pt16  1  0.217740  0.558464  0.500000  1
  Pt  Pt17  1  0.782337  0.441310  0.500000  1
  Pt  Pt18  1  0.308170  0.308380  0.249233  1
  Pt  Pt19  1  0.691637  0.691618  0.750895  1
  Pt  Pt20  1  0.691637  0.691618  0.249105  1
  Pt  Pt21  1  0.308170  0.308380  0.750767  1
  Pt  Pt22  1  0.282170  0.058652  0.000000  1
  Pt  Pt23  1  0.717846  0.941358  0.000000  1
  Pt  Pt24  1  0.941361  0.717850  0.000000  1
  Pt  Pt25  1  0.058635  0.282168  0.000000  1
  Pt  Pt26  1  0.000021  0.000140  0.500000  1
  Pt  Pt27  1  0.499964  0.499999  0.000000  1
