# generated using pymatgen
data_Er4Tm12Cd4Ni3Os
_symmetry_space_group_name_H-M   'P 1'
_cell_length_a   9.48519807
_cell_length_b   9.48085762
_cell_length_c   9.48085917
_cell_angle_alpha   59.44505327
_cell_angle_beta   59.46141394
_cell_angle_gamma   59.46141782
_symmetry_Int_Tables_number   1
_chemical_formula_structural   Er4Tm12Cd4Ni3Os
_chemical_formula_sum   'Er4 Tm12 Cd4 Ni3 Os1'
_cell_volume   595.41291868
_cell_formula_units_Z   1
loop_
 _symmetry_equiv_pos_site_id
 _symmetry_equiv_pos_as_xyz
  1  'x, y, z'
loop_
 _atom_site_type_symbol
 _atom_site_label
 _atom_site_symmetry_multiplicity
 _atom_site_fract_x
 _atom_site_fract_y
 _atom_site_fract_z
 _atom_site_occupancy
  Er  Er0  1  0.566398  0.935077  0.566401  1
  Er  Er1  1  0.939540  0.557365  0.939402  1
  Er  Er2  1  0.566398  0.566401  0.935077  1
  Er  Er3  1  0.939540  0.939402  0.557365  1
  Tm  Tm4  1  0.347197  0.347302  0.347302  1
  Tm  Tm5  1  0.351662  0.351663  0.953971  1
  Tm  Tm6  1  0.351662  0.953971  0.351663  1
  Tm  Tm7  1  0.953817  0.351746  0.351746  1
  Tm  Tm8  1  0.810751  0.187605  0.187605  1
  Tm  Tm9  1  0.185969  0.811447  0.811447  1
  Tm  Tm10  1  0.187624  0.810651  0.187727  1
  Tm  Tm11  1  0.811481  0.186083  0.811337  1
  Tm  Tm12  1  0.187624  0.187727  0.810651  1
  Tm  Tm13  1  0.811481  0.811337  0.186083  1
  Tm  Tm14  1  0.935332  0.566095  0.566095  1
  Tm  Tm15  1  0.557211  0.939717  0.939717  1
  Cd  Cd16  1  0.580469  0.580230  0.580230  1
  Cd  Cd17  1  0.579517  0.579718  0.255517  1
  Cd  Cd18  1  0.579517  0.255517  0.579718  1
  Cd  Cd19  1  0.255410  0.579589  0.579589  1
  Ni  Ni20  1  0.141156  0.141253  0.575464  1
  Ni  Ni21  1  0.141156  0.575464  0.141253  1
  Ni  Ni22  1  0.575517  0.141203  0.141203  1
  Os  Os23  1  0.143569  0.143439  0.143439  1
