# generated using pymatgen
data_Dy4Tm6Sn5Sb
_symmetry_space_group_name_H-M   'P 1'
_cell_length_a   8.90122800
_cell_length_b   8.90533228
_cell_length_c   6.44837000
_cell_angle_alpha   90.00000000
_cell_angle_beta   90.00000000
_cell_angle_gamma   119.98474799
_symmetry_Int_Tables_number   1
_chemical_formula_structural   Dy4Tm6Sn5Sb
_chemical_formula_sum   'Dy4 Tm6 Sn5 Sb1'
_cell_volume   442.73857258
_cell_formula_units_Z   1
loop_
 _symmetry_equiv_pos_site_id
 _symmetry_equiv_pos_as_xyz
  1  'x, y, z'
loop_
 _atom_site_type_symbol
 _atom_site_label
 _atom_site_symmetry_multiplicity
 _atom_site_fract_x
 _atom_site_fract_y
 _atom_site_fract_z
 _atom_site_occupancy
  Dy  Dy0  1  0.998032  0.759621  0.750000  1
  Dy  Dy1  1  0.761544  0.000000  0.750000  1
  Dy  Dy2  1  0.238411  0.240379  0.750000  1
  Dy  Dy3  1  0.239254  0.000000  0.250000  1
  Tm  Tm4  1  0.000526  0.239369  0.250000  1
  Tm  Tm5  1  0.761157  0.760631  0.250000  1
  Tm  Tm6  1  0.333184  0.665676  0.499883  1
  Tm  Tm7  1  0.667509  0.334324  0.000117  1
  Tm  Tm8  1  0.667509  0.334324  0.499883  1
  Tm  Tm9  1  0.333184  0.665676  0.000117  1
  Sn  Sn10  1  0.395897  0.395556  0.250000  1
  Sn  Sn11  1  0.000341  0.604444  0.250000  1
  Sn  Sn12  1  0.999741  0.396047  0.750000  1
  Sn  Sn13  1  0.603694  0.603953  0.750000  1
  Sn  Sn14  1  0.605689  0.000000  0.250000  1
  Sb  Sb15  1  0.394327  0.000000  0.750000  1
