# generated using pymatgen
data_Ac16Cd4IrOs3
_symmetry_space_group_name_H-M   'P 1'
_cell_length_a   10.49231541
_cell_length_b   10.54970166
_cell_length_c   10.54984500
_cell_angle_alpha   59.99746867
_cell_angle_beta   59.81661863
_cell_angle_gamma   59.81636241
_symmetry_Int_Tables_number   1
_chemical_formula_structural   Ac16Cd4IrOs3
_chemical_formula_sum   'Ac16 Cd4 Ir1 Os3'
_cell_volume   823.42514849
_cell_formula_units_Z   1
loop_
 _symmetry_equiv_pos_site_id
 _symmetry_equiv_pos_as_xyz
  1  'x, y, z'
loop_
 _atom_site_type_symbol
 _atom_site_label
 _atom_site_symmetry_multiplicity
 _atom_site_fract_x
 _atom_site_fract_y
 _atom_site_fract_z
 _atom_site_occupancy
  Ac  Ac0  1  0.344154  0.345470  0.345467  1
  Ac  Ac1  1  0.344158  0.345474  0.964906  1
  Ac  Ac2  1  0.344159  0.964906  0.345473  1
  Ac  Ac3  1  0.967164  0.344283  0.344281  1
  Ac  Ac4  1  0.812987  0.188609  0.188611  1
  Ac  Ac5  1  0.188258  0.812152  0.812155  1
  Ac  Ac6  1  0.188259  0.812146  0.187435  1
  Ac  Ac7  1  0.812995  0.188609  0.809788  1
  Ac  Ac8  1  0.188260  0.187436  0.812146  1
  Ac  Ac9  1  0.812999  0.809785  0.188609  1
  Ac  Ac10  1  0.939689  0.560202  0.560203  1
  Ac  Ac11  1  0.558108  0.939947  0.939948  1
  Ac  Ac12  1  0.558106  0.939947  0.561999  1
  Ac  Ac13  1  0.939689  0.560203  0.939904  1
  Ac  Ac14  1  0.558108  0.561998  0.939946  1
  Ac  Ac15  1  0.939690  0.939904  0.560204  1
  Cd  Cd16  1  0.578322  0.579051  0.579052  1
  Cd  Cd17  1  0.578322  0.579051  0.263575  1
  Cd  Cd18  1  0.578321  0.263576  0.579052  1
  Cd  Cd19  1  0.263657  0.578780  0.578781  1
  Ir  Ir20  1  0.582288  0.139238  0.139237  1
  Os  Os21  1  0.140766  0.137779  0.137777  1
  Os  Os22  1  0.140768  0.137781  0.583671  1
  Os  Os23  1  0.140769  0.583671  0.137780  1
