# generated using pymatgen
data_Ho3Tm7(Bi3C)2
_symmetry_space_group_name_H-M   'P 1'
_cell_length_a   6.42444501
_cell_length_b   9.07574483
_cell_length_c   9.07376808
_cell_angle_alpha   120.01320904
_cell_angle_beta   90.00463867
_cell_angle_gamma   89.99927930
_symmetry_Int_Tables_number   1
_chemical_formula_structural   Ho3Tm7(Bi3C)2
_chemical_formula_sum   'Ho3 Tm7 Bi6 C2'
_cell_volume   458.11907639
_cell_formula_units_Z   1
loop_
 _symmetry_equiv_pos_site_id
 _symmetry_equiv_pos_as_xyz
  1  'x, y, z'
loop_
 _atom_site_type_symbol
 _atom_site_label
 _atom_site_symmetry_multiplicity
 _atom_site_fract_x
 _atom_site_fract_y
 _atom_site_fract_z
 _atom_site_occupancy
  Ho  Ho0  1  0.499945  0.666671  0.333313  1
  Ho  Ho1  1  0.000053  0.666670  0.333330  1
  Ho  Ho2  1  0.000043  0.333341  0.666668  1
  Tm  Tm3  1  0.499965  0.333320  0.666672  1
  Tm  Tm4  1  0.749939  0.205114  0.999976  1
  Tm  Tm5  1  0.749985  0.794676  0.794649  1
  Tm  Tm6  1  0.749955  0.999842  0.205142  1
  Tm  Tm7  1  0.250053  0.794924  0.000146  1
  Tm  Tm8  1  0.250019  0.205378  0.205303  1
  Tm  Tm9  1  0.250052  0.000054  0.794819  1
  Bi  Bi10  1  0.749629  0.599167  0.999355  1
  Bi  Bi11  1  0.749636  0.400303  0.400935  1
  Bi  Bi12  1  0.749629  0.000547  0.599696  1
  Bi  Bi13  1  0.250374  0.400247  0.999427  1
  Bi  Bi14  1  0.250361  0.599076  0.599664  1
  Bi  Bi15  1  0.250364  0.000665  0.400903  1
  C  C16  1  0.500005  0.000004  0.000002  1
  C  C17  1  0.999994  0.000002  0.000000  1
