# generated using pymatgen
data_Tb2YbY2InPd4
_symmetry_space_group_name_H-M   'P 1'
_cell_length_a   7.98239131
_cell_length_b   7.97181931
_cell_length_c   3.67878200
_cell_angle_alpha   90.00000000
_cell_angle_beta   90.00000000
_cell_angle_gamma   90.06569143
_symmetry_Int_Tables_number   1
_chemical_formula_structural   Tb2YbY2InPd4
_chemical_formula_sum   'Tb2 Yb1 Y2 In1 Pd4'
_cell_volume   234.09612651
_cell_formula_units_Z   1
loop_
 _symmetry_equiv_pos_site_id
 _symmetry_equiv_pos_as_xyz
  1  'x, y, z'
loop_
 _atom_site_type_symbol
 _atom_site_label
 _atom_site_symmetry_multiplicity
 _atom_site_fract_x
 _atom_site_fract_y
 _atom_site_fract_z
 _atom_site_occupancy
  Tb  Tb0  1  0.684069  0.139493  0.500000  1
  Tb  Tb1  1  0.315931  0.860507  0.500000  1
  Yb  Yb2  1  0.500000  0.500000  0.000000  1
  Y  Y3  1  0.139488  0.315843  0.500000  1
  Y  Y4  1  0.860512  0.684157  0.500000  1
  In  In5  1  0.000000  0.000000  0.000000  1
  Pd  Pd6  1  0.143578  0.621378  0.000000  1
  Pd  Pd7  1  0.856422  0.378622  0.000000  1
  Pd  Pd8  1  0.621241  0.856617  0.000000  1
  Pd  Pd9  1  0.378759  0.143383  0.000000  1
