# generated using pymatgen
data_Yb3YBi3
_symmetry_space_group_name_H-M   'P 1'
_cell_length_a   8.18046793
_cell_length_b   8.37586869
_cell_length_c   8.37586808
_cell_angle_alpha   109.93896666
_cell_angle_beta   108.99932752
_cell_angle_gamma   108.99932483
_symmetry_Int_Tables_number   1
_chemical_formula_structural   Yb3YBi3
_chemical_formula_sum   'Yb6 Y2 Bi6'
_cell_volume   444.33661740
_cell_formula_units_Z   2
loop_
 _symmetry_equiv_pos_site_id
 _symmetry_equiv_pos_as_xyz
  1  'x, y, z'
loop_
 _atom_site_type_symbol
 _atom_site_label
 _atom_site_symmetry_multiplicity
 _atom_site_fract_x
 _atom_site_fract_y
 _atom_site_fract_z
 _atom_site_occupancy
  Yb  Yb0  1  0.500812  0.998976  0.647100  1
  Yb  Yb1  1  0.353712  0.351876  0.352900  1
  Yb  Yb2  1  0.501836  0.001024  0.148124  1
  Yb  Yb3  1  0.001836  0.648124  0.501024  1
  Yb  Yb4  1  0.853712  0.852900  0.851876  1
  Yb  Yb5  1  0.000812  0.147100  0.498976  1
  Y  Y6  1  0.142334  0.500000  0.000000  1
  Y  Y7  1  0.642334  0.500000  0.000000  1
  Bi  Bi8  1  0.376826  0.623078  0.756094  1
  Bi  Bi9  1  0.876826  0.256094  0.123078  1
  Bi  Bi10  1  0.620732  0.743906  0.366985  1
  Bi  Bi11  1  0.120732  0.866985  0.243906  1
  Bi  Bi12  1  0.253748  0.133015  0.876922  1
  Bi  Bi13  1  0.753748  0.376922  0.633015  1
