# generated using pymatgen
data_CeSmRe6(Si2Mo)2
_symmetry_space_group_name_H-M   'P 1'
_cell_length_a   7.87916847
_cell_length_b   7.08343954
_cell_length_c   4.19344900
_cell_angle_alpha   90.00000000
_cell_angle_beta   90.00000000
_cell_angle_gamma   89.63161328
_symmetry_Int_Tables_number   1
_chemical_formula_structural   CeSmRe6(Si2Mo)2
_chemical_formula_sum   'Ce1 Sm1 Re6 Si4 Mo2'
_cell_volume   234.03831732
_cell_formula_units_Z   1
loop_
 _symmetry_equiv_pos_site_id
 _symmetry_equiv_pos_as_xyz
  1  'x, y, z'
loop_
 _atom_site_type_symbol
 _atom_site_label
 _atom_site_symmetry_multiplicity
 _atom_site_fract_x
 _atom_site_fract_y
 _atom_site_fract_z
 _atom_site_occupancy
  Ce  Ce0  1  0.500000  0.500000  0.000000  1
  Sm  Sm1  1  0.000000  0.000000  0.500000  1
  Re  Re2  1  0.110128  0.345960  0.000000  1
  Re  Re3  1  0.889872  0.654040  0.000000  1
  Re  Re4  1  0.157295  0.573778  0.500000  1
  Re  Re5  1  0.842705  0.426222  0.500000  1
  Re  Re6  1  0.336024  0.074024  0.000000  1
  Re  Re7  1  0.663976  0.925976  0.000000  1
  Si  Si8  1  0.690600  0.730071  0.500000  1
  Si  Si9  1  0.309400  0.269929  0.500000  1
  Si  Si10  1  0.186452  0.768108  0.000000  1
  Si  Si11  1  0.813548  0.231892  0.000000  1
  Mo  Mo12  1  0.612156  0.153495  0.500000  1
  Mo  Mo13  1  0.387844  0.846505  0.500000  1
