# generated using pymatgen
data_Lu6Th2MgHgRh2
_symmetry_space_group_name_H-M   'P 1'
_cell_length_a   9.58368236
_cell_length_b   9.58368250
_cell_length_c   9.61152100
_cell_angle_alpha   59.90387438
_cell_angle_beta   59.90387387
_cell_angle_gamma   59.96293912
_symmetry_Int_Tables_number   1
_chemical_formula_structural   Lu6Th2MgHgRh2
_chemical_formula_sum   'Lu12 Th4 Mg2 Hg2 Rh4'
_cell_volume   623.14337350
_cell_formula_units_Z   2
loop_
 _symmetry_equiv_pos_site_id
 _symmetry_equiv_pos_as_xyz
  1  'x, y, z'
loop_
 _atom_site_type_symbol
 _atom_site_label
 _atom_site_symmetry_multiplicity
 _atom_site_fract_x
 _atom_site_fract_y
 _atom_site_fract_z
 _atom_site_occupancy
  Lu  Lu0  1  0.813836  0.184699  0.187124  1
  Lu  Lu1  1  0.184699  0.813836  0.814342  1
  Lu  Lu2  1  0.184699  0.813836  0.187124  1
  Lu  Lu3  1  0.813836  0.184699  0.814342  1
  Lu  Lu4  1  0.186352  0.186352  0.813648  1
  Lu  Lu5  1  0.813291  0.813291  0.186709  1
  Lu  Lu6  1  0.932089  0.567519  0.566529  1
  Lu  Lu7  1  0.567519  0.932089  0.933863  1
  Lu  Lu8  1  0.567519  0.932089  0.566529  1
  Lu  Lu9  1  0.932089  0.567519  0.933863  1
  Lu  Lu10  1  0.566543  0.566543  0.933457  1
  Lu  Lu11  1  0.932591  0.932591  0.567409  1
  Th  Th12  1  0.351017  0.351017  0.349994  1
  Th  Th13  1  0.351017  0.351017  0.947974  1
  Th  Th14  1  0.354520  0.942689  0.351397  1
  Th  Th15  1  0.942689  0.354520  0.351397  1
  Mg  Mg16  1  0.579934  0.261039  0.579514  1
  Mg  Mg17  1  0.261039  0.579934  0.579514  1
  Hg  Hg18  1  0.584171  0.584171  0.591940  1
  Hg  Hg19  1  0.584171  0.584171  0.239717  1
  Rh  Rh20  1  0.142105  0.142105  0.144421  1
  Rh  Rh21  1  0.142105  0.142105  0.571367  1
  Rh  Rh22  1  0.141700  0.570471  0.143914  1
  Rh  Rh23  1  0.570471  0.141700  0.143914  1
