# generated using pymatgen
data_Pr8GaB8Rh19
_symmetry_space_group_name_H-M   'P 1'
_cell_length_a   5.56364800
_cell_length_b   5.56302607
_cell_length_c   21.19620000
_cell_angle_alpha   90.00045317
_cell_angle_beta   89.99926882
_cell_angle_gamma   120.00183110
_symmetry_Int_Tables_number   1
_chemical_formula_structural   Pr8GaB8Rh19
_chemical_formula_sum   'Pr8 Ga1 B8 Rh19'
_cell_volume   568.13476742
_cell_formula_units_Z   1
loop_
 _symmetry_equiv_pos_site_id
 _symmetry_equiv_pos_as_xyz
  1  'x, y, z'
loop_
 _atom_site_type_symbol
 _atom_site_label
 _atom_site_symmetry_multiplicity
 _atom_site_fract_x
 _atom_site_fract_y
 _atom_site_fract_z
 _atom_site_occupancy
  Pr  Pr0  1  0.666682  0.333319  0.525579  1
  Pr  Pr1  1  0.333318  0.666681  0.474421  1
  Pr  Pr2  1  0.333326  0.666671  0.021005  1
  Pr  Pr3  1  0.666674  0.333329  0.978995  1
  Pr  Pr4  1  0.666699  0.333298  0.674819  1
  Pr  Pr5  1  0.333301  0.666702  0.325181  1
  Pr  Pr6  1  0.333153  0.666852  0.174319  1
  Pr  Pr7  1  0.666847  0.333148  0.825681  1
  Ga  Ga8  1  0.000000  0.000000  0.500000  1
  B  B9  1  0.000071  0.999932  0.674110  1
  B  B10  1  0.999929  0.000068  0.325890  1
  B  B11  1  0.999910  0.000093  0.178778  1
  B  B12  1  0.000090  0.999907  0.821222  1
  B  B13  1  0.666599  0.333380  0.327766  1
  B  B14  1  0.333401  0.666620  0.672234  1
  B  B15  1  0.333423  0.666599  0.823287  1
  B  B16  1  0.666577  0.333401  0.176713  1
  Rh  Rh17  1  0.000000  0.000000  0.000000  1
  Rh  Rh18  1  0.167051  0.333857  0.747519  1
  Rh  Rh19  1  0.167041  0.832954  0.747517  1
  Rh  Rh20  1  0.666151  0.832957  0.747518  1
  Rh  Rh21  1  0.832949  0.666143  0.252481  1
  Rh  Rh22  1  0.832959  0.167046  0.252483  1
  Rh  Rh23  1  0.333849  0.167043  0.252482  1
  Rh  Rh24  1  0.165891  0.331602  0.605370  1
  Rh  Rh25  1  0.165894  0.834102  0.605365  1
  Rh  Rh26  1  0.668404  0.834107  0.605373  1
  Rh  Rh27  1  0.834109  0.668398  0.394630  1
  Rh  Rh28  1  0.834106  0.165898  0.394635  1
  Rh  Rh29  1  0.331596  0.165893  0.394627  1
  Rh  Rh30  1  0.836106  0.672495  0.110654  1
  Rh  Rh31  1  0.836141  0.163873  0.110647  1
  Rh  Rh32  1  0.327494  0.163900  0.110654  1
  Rh  Rh33  1  0.163894  0.327505  0.889346  1
  Rh  Rh34  1  0.163859  0.836127  0.889353  1
  Rh  Rh35  1  0.672506  0.836100  0.889346  1
