# generated using pymatgen
data_Hf4Zr2PBr15
_symmetry_space_group_name_H-M   'P 1'
_cell_length_a   9.38342597
_cell_length_b   9.38509965
_cell_length_c   9.38509900
_cell_angle_alpha   109.63284371
_cell_angle_beta   109.39406126
_cell_angle_gamma   109.39406291
_symmetry_Int_Tables_number   1
_chemical_formula_structural   Hf4Zr2PBr15
_chemical_formula_sum   'Hf4 Zr2 P1 Br15'
_cell_volume   636.17446957
_cell_formula_units_Z   1
loop_
 _symmetry_equiv_pos_site_id
 _symmetry_equiv_pos_as_xyz
  1  'x, y, z'
loop_
 _atom_site_type_symbol
 _atom_site_label
 _atom_site_symmetry_multiplicity
 _atom_site_fract_x
 _atom_site_fract_y
 _atom_site_fract_z
 _atom_site_occupancy
  Hf  Hf0  1  0.767426  0.998793  0.768633  1
  Hf  Hf1  1  0.000000  0.771233  0.773925  1
  Hf  Hf2  1  0.000000  0.226075  0.228767  1
  Hf  Hf3  1  0.232574  0.231367  0.001207  1
  Zr  Zr4  1  0.778095  0.776680  0.001416  1
  Zr  Zr5  1  0.221905  0.998584  0.223320  1
  P  P6  1  0.000000  0.004173  0.995827  1
  Br  Br7  1  0.512349  0.001477  0.510871  1
  Br  Br8  1  0.000000  0.500794  0.499206  1
  Br  Br9  1  0.487651  0.489129  0.998523  1
  Br  Br10  1  0.506624  0.754423  0.752202  1
  Br  Br11  1  0.754487  0.004274  0.248929  1
  Br  Br12  1  0.493376  0.247798  0.245577  1
  Br  Br13  1  0.245513  0.249787  0.494442  1
  Br  Br14  1  0.245513  0.751071  0.995726  1
  Br  Br15  1  0.000000  0.245742  0.754258  1
  Br  Br16  1  0.000000  0.751984  0.248016  1
  Br  Br17  1  0.244470  0.997859  0.752330  1
  Br  Br18  1  0.244470  0.492140  0.246613  1
  Br  Br19  1  0.755530  0.247670  0.002141  1
  Br  Br20  1  0.754487  0.505558  0.750213  1
  Br  Br21  1  0.755530  0.753387  0.507860  1
