# generated using pymatgen
data_Tb4Al18RuPt5
_symmetry_space_group_name_H-M   'P 1'
_cell_length_a   7.62537815
_cell_length_b   7.62537757
_cell_length_c   9.45006950
_cell_angle_alpha   90.03759168
_cell_angle_beta   90.03759740
_cell_angle_gamma   119.76211062
_symmetry_Int_Tables_number   1
_chemical_formula_structural   Tb4Al18RuPt5
_chemical_formula_sum   'Tb4 Al18 Ru1 Pt5'
_cell_volume   477.00626003
_cell_formula_units_Z   1
loop_
 _symmetry_equiv_pos_site_id
 _symmetry_equiv_pos_as_xyz
  1  'x, y, z'
loop_
 _atom_site_type_symbol
 _atom_site_label
 _atom_site_symmetry_multiplicity
 _atom_site_fract_x
 _atom_site_fract_y
 _atom_site_fract_z
 _atom_site_occupancy
  Tb  Tb0  1  0.995932  0.671140  0.249295  1
  Tb  Tb1  1  0.007018  0.330728  0.750543  1
  Tb  Tb2  1  0.669272  0.992982  0.249457  1
  Tb  Tb3  1  0.328860  0.004068  0.750705  1
  Al  Al4  1  0.130005  0.131713  0.249133  1
  Al  Al5  1  0.868287  0.869995  0.750867  1
  Al  Al6  1  0.993612  0.333857  0.074772  1
  Al  Al7  1  0.994657  0.659009  0.925856  1
  Al  Al8  1  0.998675  0.665943  0.577688  1
  Al  Al9  1  0.334057  0.001325  0.422312  1
  Al  Al10  1  0.000229  0.334558  0.422845  1
  Al  Al11  1  0.665442  0.999771  0.577155  1
  Al  Al12  1  0.666143  0.006388  0.925228  1
  Al  Al13  1  0.340991  0.005343  0.074144  1
  Al  Al14  1  0.334352  0.334740  0.560279  1
  Al  Al15  1  0.665260  0.665648  0.439721  1
  Al  Al16  1  0.667669  0.661384  0.053646  1
  Al  Al17  1  0.338616  0.332331  0.946354  1
  Al  Al18  1  0.337409  0.545131  0.249066  1
  Al  Al19  1  0.660464  0.450547  0.755049  1
  Al  Al20  1  0.549453  0.339536  0.244951  1
  Al  Al21  1  0.454869  0.662591  0.750934  1
  Ru  Ru22  1  0.671338  0.328662  0.000000  1
  Pt  Pt23  1  0.328046  0.671954  0.000000  1
  Pt  Pt24  1  0.327396  0.672604  0.500000  1
  Pt  Pt25  1  0.671644  0.328356  0.500000  1
  Pt  Pt26  1  0.000594  0.999406  0.000000  1
  Pt  Pt27  1  0.999711  0.000289  0.500000  1
