# generated using pymatgen
data_TbY11Os3Ru
_symmetry_space_group_name_H-M   'P 1'
_cell_length_a   6.36331099
_cell_length_b   7.39441701
_cell_length_c   9.17105800
_cell_angle_alpha   90.00000000
_cell_angle_beta   90.00000000
_cell_angle_gamma   89.95757243
_symmetry_Int_Tables_number   1
_chemical_formula_structural   TbY11Os3Ru
_chemical_formula_sum   'Tb1 Y11 Os3 Ru1'
_cell_volume   431.52544436
_cell_formula_units_Z   1
loop_
 _symmetry_equiv_pos_site_id
 _symmetry_equiv_pos_as_xyz
  1  'x, y, z'
loop_
 _atom_site_type_symbol
 _atom_site_label
 _atom_site_symmetry_multiplicity
 _atom_site_fract_x
 _atom_site_fract_y
 _atom_site_fract_z
 _atom_site_occupancy
  Tb  Tb0  1  0.634503  0.041126  0.250000  1
  Y  Y1  1  0.331363  0.674776  0.063292  1
  Y  Y2  1  0.169202  0.175855  0.436411  1
  Y  Y3  1  0.670005  0.324473  0.563544  1
  Y  Y4  1  0.829123  0.824060  0.935037  1
  Y  Y5  1  0.670005  0.324473  0.936456  1
  Y  Y6  1  0.829123  0.824060  0.564963  1
  Y  Y7  1  0.331363  0.674776  0.436708  1
  Y  Y8  1  0.169202  0.175855  0.063589  1
  Y  Y9  1  0.868028  0.541095  0.250000  1
  Y  Y10  1  0.132221  0.459958  0.750000  1
  Y  Y11  1  0.367337  0.960246  0.750000  1
  Os  Os12  1  0.461056  0.382592  0.250000  1
  Os  Os13  1  0.960246  0.116121  0.750000  1
  Os  Os14  1  0.539863  0.616264  0.750000  1
  Ru  Ru15  1  0.037361  0.884271  0.250000  1
