# generated using pymatgen
data_Ho2GeB2Ru2Rh3
_symmetry_space_group_name_H-M   'P 1'
_cell_length_a   9.56310700
_cell_length_b   9.56321400
_cell_length_c   3.11101100
_cell_angle_alpha   90.00000000
_cell_angle_beta   90.00000000
_cell_angle_gamma   90.00052124
_symmetry_Int_Tables_number   1
_chemical_formula_structural   Ho2GeB2Ru2Rh3
_chemical_formula_sum   'Ho4 Ge2 B4 Ru4 Rh6'
_cell_volume   284.51452053
_cell_formula_units_Z   2
loop_
 _symmetry_equiv_pos_site_id
 _symmetry_equiv_pos_as_xyz
  1  'x, y, z'
loop_
 _atom_site_type_symbol
 _atom_site_label
 _atom_site_symmetry_multiplicity
 _atom_site_fract_x
 _atom_site_fract_y
 _atom_site_fract_z
 _atom_site_occupancy
  Ho  Ho0  1  0.827695  0.322801  0.000000  1
  Ho  Ho1  1  0.320906  0.172298  0.000000  1
  Ho  Ho2  1  0.673894  0.824033  0.000000  1
  Ho  Ho3  1  0.175405  0.676443  0.000000  1
  Ge  Ge4  1  0.006610  0.004494  0.000000  1
  Ge  Ge5  1  0.499329  0.500560  0.000000  1
  B  B6  1  0.620986  0.118815  0.000000  1
  B  B7  1  0.117241  0.375732  0.000000  1
  B  B8  1  0.881422  0.621703  0.000000  1
  B  B9  1  0.374797  0.882539  0.000000  1
  Ru  Ru10  1  0.068686  0.217499  0.500000  1
  Ru  Ru11  1  0.216502  0.928442  0.500000  1
  Ru  Ru12  1  0.501239  0.999774  0.500000  1
  Ru  Ru13  1  0.999939  0.502164  0.500000  1
  Rh  Rh14  1  0.783523  0.068352  0.500000  1
  Rh  Rh15  1  0.928099  0.784749  0.500000  1
  Rh  Rh16  1  0.432002  0.715637  0.500000  1
  Rh  Rh17  1  0.570702  0.283262  0.500000  1
  Rh  Rh18  1  0.716537  0.569623  0.500000  1
  Rh  Rh19  1  0.284487  0.431081  0.500000  1
