# generated using pymatgen
data_Er3ThAl15(GaIr2)3
_symmetry_space_group_name_H-M   'P 1'
_cell_length_a   7.55095570
_cell_length_b   7.56741544
_cell_length_c   9.51668200
_cell_angle_alpha   90.00000000
_cell_angle_beta   90.00000000
_cell_angle_gamma   119.57534972
_symmetry_Int_Tables_number   1
_chemical_formula_structural   Er3ThAl15(GaIr2)3
_chemical_formula_sum   'Er3 Th1 Al15 Ga3 Ir6'
_cell_volume   472.94234479
_cell_formula_units_Z   1
loop_
 _symmetry_equiv_pos_site_id
 _symmetry_equiv_pos_as_xyz
  1  'x, y, z'
loop_
 _atom_site_type_symbol
 _atom_site_label
 _atom_site_symmetry_multiplicity
 _atom_site_fract_x
 _atom_site_fract_y
 _atom_site_fract_z
 _atom_site_occupancy
  Er  Er0  1  0.001335  0.329451  0.250000  1
  Er  Er1  1  0.670436  0.995122  0.750000  1
  Er  Er2  1  0.329665  0.002670  0.250000  1
  Th  Th3  1  0.994402  0.669413  0.750000  1
  Al  Al4  1  0.873005  0.875338  0.250000  1
  Al  Al5  1  0.002796  0.330252  0.570203  1
  Al  Al6  1  0.000171  0.665186  0.418555  1
  Al  Al7  1  0.000171  0.665186  0.081445  1
  Al  Al8  1  0.339512  0.006294  0.929915  1
  Al  Al9  1  0.002796  0.330252  0.929797  1
  Al  Al10  1  0.665230  0.001009  0.076203  1
  Al  Al11  1  0.665230  0.001009  0.423797  1
  Al  Al12  1  0.339512  0.006294  0.570085  1
  Al  Al13  1  0.331532  0.331654  0.065284  1
  Al  Al14  1  0.662229  0.665672  0.958776  1
  Al  Al15  1  0.662229  0.665672  0.541224  1
  Al  Al16  1  0.331532  0.331654  0.434716  1
  Al  Al17  1  0.660782  0.449997  0.250000  1
  Al  Al18  1  0.450545  0.663317  0.250000  1
  Ga  Ga19  1  0.129352  0.131859  0.750000  1
  Ga  Ga20  1  0.345001  0.547928  0.750000  1
  Ga  Ga21  1  0.541854  0.335446  0.750000  1
  Ir  Ir22  1  0.673392  0.329761  0.498522  1
  Ir  Ir23  1  0.326767  0.671556  0.498439  1
  Ir  Ir24  1  0.326767  0.671556  0.001561  1
  Ir  Ir25  1  0.673392  0.329761  0.001478  1
  Ir  Ir26  1  0.000182  0.998346  0.498251  1
  Ir  Ir27  1  0.000182  0.998346  0.001749  1
