# generated using pymatgen
data_Dy2Y4Al24Ir5Os3
_symmetry_space_group_name_H-M   'P 1'
_cell_length_a   8.83652996
_cell_length_b   8.83653021
_cell_length_c   9.50984983
_cell_angle_alpha   89.77531099
_cell_angle_beta   90.22468878
_cell_angle_gamma   120.12099503
_symmetry_Int_Tables_number   1
_chemical_formula_structural   Dy2Y4Al24Ir5Os3
_chemical_formula_sum   'Dy2 Y4 Al24 Ir5 Os3'
_cell_volume   642.29208348
_cell_formula_units_Z   1
loop_
 _symmetry_equiv_pos_site_id
 _symmetry_equiv_pos_as_xyz
  1  'x, y, z'
loop_
 _atom_site_type_symbol
 _atom_site_label
 _atom_site_symmetry_multiplicity
 _atom_site_fract_x
 _atom_site_fract_y
 _atom_site_fract_z
 _atom_site_occupancy
  Dy  Dy0  1  0.193244  0.806756  0.250047  1
  Dy  Dy1  1  0.806756  0.193244  0.749953  1
  Y  Y2  1  0.195482  0.386605  0.251589  1
  Y  Y3  1  0.804518  0.613395  0.748411  1
  Y  Y4  1  0.613395  0.804518  0.251589  1
  Y  Y5  1  0.386605  0.195482  0.748411  1
  Al  Al6  1  0.333303  0.666697  0.027444  1
  Al  Al7  1  0.666697  0.333303  0.972556  1
  Al  Al8  1  0.666075  0.333925  0.525191  1
  Al  Al9  1  0.333925  0.666075  0.474809  1
  Al  Al10  1  0.164473  0.327555  0.574974  1
  Al  Al11  1  0.835527  0.672445  0.425026  1
  Al  Al12  1  0.672445  0.835527  0.574974  1
  Al  Al13  1  0.836672  0.673106  0.074536  1
  Al  Al14  1  0.327555  0.164473  0.425026  1
  Al  Al15  1  0.163328  0.326894  0.925464  1
  Al  Al16  1  0.163107  0.836893  0.575405  1
  Al  Al17  1  0.326894  0.163328  0.074536  1
  Al  Al18  1  0.836893  0.163107  0.424595  1
  Al  Al19  1  0.673106  0.836672  0.925464  1
  Al  Al20  1  0.836833  0.163167  0.075496  1
  Al  Al21  1  0.163167  0.836833  0.924504  1
  Al  Al22  1  0.562485  0.124023  0.249587  1
  Al  Al23  1  0.437515  0.875977  0.750413  1
  Al  Al24  1  0.875977  0.437515  0.249587  1
  Al  Al25  1  0.124023  0.562485  0.750413  1
  Al  Al26  1  0.562716  0.437284  0.250609  1
  Al  Al27  1  0.437284  0.562716  0.749391  1
  Al  Al28  1  0.000817  0.999183  0.250065  1
  Al  Al29  1  0.999183  0.000817  0.749935  1
  Ir  Ir30  1  0.500000  0.000000  0.000000  1
  Ir  Ir31  1  0.000000  0.500000  0.000000  1
  Ir  Ir32  1  0.500000  0.000000  0.500000  1
  Ir  Ir33  1  0.500000  0.500000  0.000000  1
  Ir  Ir34  1  0.000000  0.500000  0.500000  1
  Os  Os35  1  0.500000  0.500000  0.500000  1
  Os  Os36  1  0.000000  0.000000  0.000000  1
  Os  Os37  1  0.000000  0.000000  0.500000  1
