# generated using pymatgen
data_Ho3ErCoCu3
_symmetry_space_group_name_H-M   'P 1'
_cell_length_a   4.35486000
_cell_length_b   5.39578609
_cell_length_c   7.02253480
_cell_angle_alpha   90.25115820
_cell_angle_beta   90.00000000
_cell_angle_gamma   90.00000000
_symmetry_Int_Tables_number   1
_chemical_formula_structural   Ho3ErCoCu3
_chemical_formula_sum   'Ho3 Er1 Co1 Cu3'
_cell_volume   165.01318599
_cell_formula_units_Z   1
loop_
 _symmetry_equiv_pos_site_id
 _symmetry_equiv_pos_as_xyz
  1  'x, y, z'
loop_
 _atom_site_type_symbol
 _atom_site_label
 _atom_site_symmetry_multiplicity
 _atom_site_fract_x
 _atom_site_fract_y
 _atom_site_fract_z
 _atom_site_occupancy
  Ho  Ho0  1  0.000000  0.629849  0.325480  1
  Ho  Ho1  1  0.000000  0.873259  0.812383  1
  Ho  Ho2  1  0.500000  0.135686  0.194375  1
  Er  Er3  1  0.500000  0.358422  0.669708  1
  Co  Co4  1  0.000000  0.132531  0.469736  1
  Cu  Cu5  1  0.000000  0.377841  0.962069  1
  Cu  Cu6  1  0.500000  0.869847  0.538827  1
  Cu  Cu7  1  0.500000  0.622563  0.027423  1
