# generated using pymatgen
data_NaEuCuPt3
_symmetry_space_group_name_H-M   'P 1'
_cell_length_a   5.30144227
_cell_length_b   5.49182258
_cell_length_c   5.49182300
_cell_angle_alpha   59.99999144
_cell_angle_beta   58.80477951
_cell_angle_gamma   58.80477743
_symmetry_Int_Tables_number   1
_chemical_formula_structural   NaEuCuPt3
_chemical_formula_sum   'Na1 Eu1 Cu1 Pt3'
_cell_volume   110.97502338
_cell_formula_units_Z   1
loop_
 _symmetry_equiv_pos_site_id
 _symmetry_equiv_pos_as_xyz
  1  'x, y, z'
loop_
 _atom_site_type_symbol
 _atom_site_label
 _atom_site_symmetry_multiplicity
 _atom_site_fract_x
 _atom_site_fract_y
 _atom_site_fract_z
 _atom_site_occupancy
  Na  Na0  1  0.249338  0.250220  0.250220  1
  Eu  Eu1  1  0.993683  0.002106  0.002106  1
  Cu  Cu2  1  0.127603  0.624132  0.624132  1
  Pt  Pt3  1  0.626458  0.125382  0.624080  1
  Pt  Pt4  1  0.626458  0.624080  0.125382  1
  Pt  Pt5  1  0.626458  0.624080  0.624080  1
