# generated using pymatgen
data_CaSmY2(Rh2O7)2
_symmetry_space_group_name_H-M   'P 1'
_cell_length_a   7.28906893
_cell_length_b   7.23895141
_cell_length_c   7.28906945
_cell_angle_alpha   120.04033007
_cell_angle_beta   120.25687201
_cell_angle_gamma   89.93970049
_symmetry_Int_Tables_number   1
_chemical_formula_structural   CaSmY2(Rh2O7)2
_chemical_formula_sum   'Ca1 Sm1 Y2 Rh4 O14'
_cell_volume   270.87731211
_cell_formula_units_Z   1
loop_
 _symmetry_equiv_pos_site_id
 _symmetry_equiv_pos_as_xyz
  1  'x, y, z'
loop_
 _atom_site_type_symbol
 _atom_site_label
 _atom_site_symmetry_multiplicity
 _atom_site_fract_x
 _atom_site_fract_y
 _atom_site_fract_z
 _atom_site_occupancy
  Ca  Ca0  1  0.500000  0.000000  0.000000  1
  Sm  Sm1  1  0.500000  0.500000  0.500000  1
  Y  Y2  1  0.500000  0.500000  0.000000  1
  Y  Y3  1  0.000000  0.500000  0.500000  1
  Rh  Rh4  1  0.000000  0.000000  0.500000  1
  Rh  Rh5  1  0.000000  0.500000  0.000000  1
  Rh  Rh6  1  0.000000  0.000000  0.000000  1
  Rh  Rh7  1  0.500000  0.000000  0.500000  1
  O  O8  1  0.370423  0.619665  0.749242  1
  O  O9  1  0.629577  0.380335  0.250758  1
  O  O10  1  0.329890  0.082938  0.253048  1
  O  O11  1  0.915824  0.664825  0.249001  1
  O  O12  1  0.333473  0.664542  0.246065  1
  O  O13  1  0.925859  0.087100  0.256618  1
  O  O14  1  0.330483  0.087100  0.661242  1
  O  O15  1  0.918478  0.664542  0.831068  1
  O  O16  1  0.670110  0.917062  0.746952  1
  O  O17  1  0.084176  0.335175  0.750999  1
  O  O18  1  0.666527  0.335458  0.753935  1
  O  O19  1  0.074141  0.912900  0.743382  1
  O  O20  1  0.669517  0.912900  0.338758  1
  O  O21  1  0.081522  0.335458  0.168932  1
