# generated using pymatgen
data_Y6VB14Mo
_symmetry_space_group_name_H-M   'P 1'
_cell_length_a   8.16295218
_cell_length_b   8.16295195
_cell_length_c   9.46704300
_cell_angle_alpha   90.00000000
_cell_angle_beta   90.00000000
_cell_angle_gamma   155.53709931
_symmetry_Int_Tables_number   1
_chemical_formula_structural   Y6VB14Mo
_chemical_formula_sum   'Y6 V1 B14 Mo1'
_cell_volume   261.22709241
_cell_formula_units_Z   1
loop_
 _symmetry_equiv_pos_site_id
 _symmetry_equiv_pos_as_xyz
  1  'x, y, z'
loop_
 _atom_site_type_symbol
 _atom_site_label
 _atom_site_symmetry_multiplicity
 _atom_site_fract_x
 _atom_site_fract_y
 _atom_site_fract_z
 _atom_site_occupancy
  Y  Y0  1  0.258167  0.741833  0.250000  1
  Y  Y1  1  0.744537  0.255463  0.750000  1
  Y  Y2  1  0.606126  0.393874  0.061718  1
  Y  Y3  1  0.393312  0.606688  0.941835  1
  Y  Y4  1  0.393312  0.606688  0.558165  1
  Y  Y5  1  0.606126  0.393874  0.438282  1
  V  V6  1  0.447320  0.552680  0.250000  1
  B  B7  1  0.978982  0.021018  0.095624  1
  B  B8  1  0.019418  0.980582  0.908618  1
  B  B9  1  0.019418  0.980582  0.591382  1
  B  B10  1  0.978982  0.021018  0.404376  1
  B  B11  1  0.772819  0.227181  0.033108  1
  B  B12  1  0.227266  0.772734  0.968171  1
  B  B13  1  0.227266  0.772734  0.531829  1
  B  B14  1  0.772819  0.227181  0.466892  1
  B  B15  1  0.867781  0.132219  0.150358  1
  B  B16  1  0.134486  0.865514  0.853284  1
  B  B17  1  0.134486  0.865514  0.646716  1
  B  B18  1  0.867781  0.132219  0.349642  1
  B  B19  1  0.040807  0.959193  0.250000  1
  B  B20  1  0.955719  0.044281  0.750000  1
  Mo  Mo21  1  0.553070  0.446930  0.750000  1
