# generated using pymatgen
data_V17Re2Si12Os
_symmetry_space_group_name_H-M   'P 1'
_cell_length_a   7.04279202
_cell_length_b   7.04279233
_cell_length_c   13.22870100
_cell_angle_alpha   90.00000000
_cell_angle_beta   90.00000000
_cell_angle_gamma   139.81042561
_symmetry_Int_Tables_number   1
_chemical_formula_structural   V17Re2Si12Os
_chemical_formula_sum   'V17 Re2 Si12 Os1'
_cell_volume   423.42958068
_cell_formula_units_Z   1
loop_
 _symmetry_equiv_pos_site_id
 _symmetry_equiv_pos_as_xyz
  1  'x, y, z'
loop_
 _atom_site_type_symbol
 _atom_site_label
 _atom_site_symmetry_multiplicity
 _atom_site_fract_x
 _atom_site_fract_y
 _atom_site_fract_z
 _atom_site_occupancy
  V  V0  1  0.070127  0.421091  0.399879  1
  V  V1  1  0.577427  0.927182  0.899648  1
  V  V2  1  0.421091  0.070127  0.600121  1
  V  V3  1  0.927182  0.577427  0.100352  1
  V  V4  1  0.852237  0.651338  0.675058  1
  V  V5  1  0.350400  0.150725  0.175341  1
  V  V6  1  0.651338  0.852237  0.324942  1
  V  V7  1  0.150725  0.350400  0.824659  1
  V  V8  1  0.651338  0.852237  0.675058  1
  V  V9  1  0.150725  0.350400  0.175341  1
  V  V10  1  0.852237  0.651338  0.324942  1
  V  V11  1  0.350400  0.150725  0.824659  1
  V  V12  1  0.421091  0.070127  0.399879  1
  V  V13  1  0.927182  0.577427  0.899648  1
  V  V14  1  0.070127  0.421091  0.600121  1
  V  V15  1  0.577427  0.927182  0.100352  1
  V  V16  1  0.998066  0.998066  0.500000  1
  Re  Re17  1  0.501208  0.501208  0.000000  1
  Re  Re18  1  0.001732  0.001732  0.000000  1
  Si  Si19  1  0.250769  0.749405  0.750108  1
  Si  Si20  1  0.749405  0.250769  0.249892  1
  Si  Si21  1  0.749405  0.250769  0.750108  1
  Si  Si22  1  0.250769  0.749405  0.249892  1
  Si  Si23  1  0.244301  0.244301  0.667146  1
  Si  Si24  1  0.753346  0.753346  0.169712  1
  Si  Si25  1  0.244301  0.244301  0.332854  1
  Si  Si26  1  0.753346  0.753346  0.830288  1
  Si  Si27  1  0.584118  0.918416  0.500000  1
  Si  Si28  1  0.080951  0.420379  0.000000  1
  Si  Si29  1  0.918416  0.584118  0.500000  1
  Si  Si30  1  0.420379  0.080951  0.000000  1
  Os  Os31  1  0.498439  0.498439  0.500000  1
