# generated using pymatgen
data_Ac3ThAu8
_symmetry_space_group_name_H-M   'P 1'
_cell_length_a   6.12911800
_cell_length_b   6.19909872
_cell_length_c   9.13340600
_cell_angle_alpha   108.09171692
_cell_angle_beta   71.03100831
_cell_angle_gamma   97.10800656
_symmetry_Int_Tables_number   1
_chemical_formula_structural   Ac3ThAu8
_chemical_formula_sum   'Ac3 Th1 Au8'
_cell_volume   311.85330113
_cell_formula_units_Z   1
loop_
 _symmetry_equiv_pos_site_id
 _symmetry_equiv_pos_as_xyz
  1  'x, y, z'
loop_
 _atom_site_type_symbol
 _atom_site_label
 _atom_site_symmetry_multiplicity
 _atom_site_fract_x
 _atom_site_fract_y
 _atom_site_fract_z
 _atom_site_occupancy
  Ac  Ac0  1  0.423032  0.938160  0.588449  1
  Ac  Ac1  1  0.914241  0.447805  0.093788  1
  Ac  Ac2  1  0.162321  0.187043  0.341174  1
  Th  Th3  1  0.665849  0.690998  0.841928  1
  Au  Au4  1  0.623814  0.385402  0.469215  1
  Au  Au5  1  0.461800  0.245913  0.961804  1
  Au  Au6  1  0.362762  0.649709  0.211936  1
  Au  Au7  1  0.125415  0.899409  0.960640  1
  Au  Au8  1  0.213640  0.488791  0.721430  1
  Au  Au9  1  0.964110  0.726547  0.481664  1
  Au  Au10  1  0.703105  0.991147  0.201589  1
  Au  Au11  1  0.878076  0.141432  0.721135  1
