# generated using pymatgen
data_Tb5Tm2(LuBi2)3
_symmetry_space_group_name_H-M   'P 1'
_cell_length_a   8.22988419
_cell_length_b   9.44368352
_cell_length_c   12.05053523
_cell_angle_alpha   90.00163695
_cell_angle_beta   89.82961239
_cell_angle_gamma   90.01484007
_symmetry_Int_Tables_number   1
_chemical_formula_structural   Tb5Tm2(LuBi2)3
_chemical_formula_sum   'Tb10 Tm4 Lu6 Bi12'
_cell_volume   936.56850641
_cell_formula_units_Z   2
loop_
 _symmetry_equiv_pos_site_id
 _symmetry_equiv_pos_as_xyz
  1  'x, y, z'
loop_
 _atom_site_type_symbol
 _atom_site_label
 _atom_site_symmetry_multiplicity
 _atom_site_fract_x
 _atom_site_fract_y
 _atom_site_fract_z
 _atom_site_occupancy
  Tb  Tb0  1  0.524463  0.250070  0.987815  1
  Tb  Tb1  1  0.353281  0.250027  0.284466  1
  Tb  Tb2  1  0.644695  0.751592  0.715878  1
  Tb  Tb3  1  0.146403  0.751220  0.783119  1
  Tb  Tb4  1  0.855089  0.250454  0.216592  1
  Tb  Tb5  1  0.186628  0.249813  0.780794  1
  Tb  Tb6  1  0.814187  0.750667  0.219216  1
  Tb  Tb7  1  0.313585  0.750410  0.282329  1
  Tb  Tb8  1  0.686142  0.249899  0.718213  1
  Tb  Tb9  1  0.808520  0.563786  0.940866  1
  Tm  Tm10  1  0.693748  0.065827  0.441228  1
  Tm  Tm11  1  0.191039  0.434203  0.059086  1
  Tm  Tm12  1  0.692618  0.433719  0.441315  1
  Tm  Tm13  1  0.307375  0.565836  0.558683  1
  Lu  Lu14  1  0.024471  0.250512  0.510905  1
  Lu  Lu15  1  0.976425  0.750050  0.488899  1
  Lu  Lu16  1  0.474802  0.750627  0.011022  1
  Lu  Lu17  1  0.192768  0.066534  0.059610  1
  Lu  Lu18  1  0.807306  0.932997  0.940546  1
  Lu  Lu19  1  0.306931  0.932953  0.558962  1
  Bi  Bi20  1  0.404965  0.248605  0.542886  1
  Bi  Bi21  1  0.594729  0.750001  0.457673  1
  Bi  Bi22  1  0.096095  0.752394  0.043275  1
  Bi  Bi23  1  0.908635  0.245206  0.957673  1
  Bi  Bi24  1  0.065572  0.004358  0.328467  1
  Bi  Bi25  1  0.933998  0.996078  0.671213  1
  Bi  Bi26  1  0.432658  0.994542  0.826782  1
  Bi  Bi27  1  0.934149  0.504528  0.670949  1
  Bi  Bi28  1  0.565076  0.003222  0.173110  1
  Bi  Bi29  1  0.065998  0.496343  0.328647  1
  Bi  Bi30  1  0.565670  0.497478  0.173209  1
  Bi  Bi31  1  0.431980  0.506047  0.826568  1
