# generated using pymatgen
data_ThRe6PdO24
_symmetry_space_group_name_H-M   'P 1'
_cell_length_a   10.32994300
_cell_length_b   10.32994270
_cell_length_c   6.00666600
_cell_angle_alpha   90.00000000
_cell_angle_beta   90.00000000
_cell_angle_gamma   119.99999776
_symmetry_Int_Tables_number   1
_chemical_formula_structural   ThRe6PdO24
_chemical_formula_sum   'Th1 Re6 Pd1 O24'
_cell_volume   555.08560232
_cell_formula_units_Z   1
loop_
 _symmetry_equiv_pos_site_id
 _symmetry_equiv_pos_as_xyz
  1  'x, y, z'
loop_
 _atom_site_type_symbol
 _atom_site_label
 _atom_site_symmetry_multiplicity
 _atom_site_fract_x
 _atom_site_fract_y
 _atom_site_fract_z
 _atom_site_occupancy
  Th  Th0  1  0.666673  0.333335  0.750000  1
  Re  Re1  1  0.098756  0.410937  0.750000  1
  Re  Re2  1  0.379670  0.280756  0.250000  1
  Re  Re3  1  0.589060  0.687818  0.750000  1
  Re  Re4  1  0.901081  0.620334  0.250000  1
  Re  Re5  1  0.312185  0.901244  0.750000  1
  Re  Re6  1  0.719250  0.098914  0.250000  1
  Pd  Pd7  1  0.333332  0.666666  0.250000  1
  O  O8  1  0.475402  0.637465  0.510703  1
  O  O9  1  0.362534  0.837937  0.510702  1
  O  O10  1  0.812485  0.724345  0.250000  1
  O  O11  1  0.121889  0.835453  0.750000  1
  O  O12  1  0.275656  0.088144  0.250000  1
  O  O13  1  0.164546  0.286429  0.750000  1
  O  O14  1  0.498744  0.344428  0.012585  1
  O  O15  1  0.911862  0.187519  0.250000  1
  O  O16  1  0.091450  0.739864  0.250000  1
  O  O17  1  0.162060  0.524596  0.989294  1
  O  O18  1  0.162060  0.524596  0.510706  1
  O  O19  1  0.901204  0.312652  0.750000  1
  O  O20  1  0.260136  0.351592  0.250000  1
  O  O21  1  0.687344  0.588550  0.750000  1
  O  O22  1  0.845682  0.501258  0.487413  1
  O  O23  1  0.411450  0.098796  0.750000  1
  O  O24  1  0.655574  0.154315  0.012591  1
  O  O25  1  0.475402  0.637465  0.989297  1
  O  O26  1  0.362534  0.837937  0.989298  1
  O  O27  1  0.655574  0.154315  0.487409  1
  O  O28  1  0.498744  0.344428  0.487415  1
  O  O29  1  0.845682  0.501258  0.012587  1
  O  O30  1  0.713571  0.878118  0.750000  1
  O  O31  1  0.648409  0.908538  0.250000  1
