# generated using pymatgen
data_Tb5Ho2Lu3(In2Pt)4
_symmetry_space_group_name_H-M   'P 1'
_cell_length_a   3.62413900
_cell_length_b   8.14184090
_cell_length_c   18.13770316
_cell_angle_alpha   89.85089840
_cell_angle_beta   90.00000000
_cell_angle_gamma   90.00000000
_symmetry_Int_Tables_number   1
_chemical_formula_structural   Tb5Ho2Lu3(In2Pt)4
_chemical_formula_sum   'Tb5 Ho2 Lu3 In8 Pt4'
_cell_volume   535.19035401
_cell_formula_units_Z   1
loop_
 _symmetry_equiv_pos_site_id
 _symmetry_equiv_pos_as_xyz
  1  'x, y, z'
loop_
 _atom_site_type_symbol
 _atom_site_label
 _atom_site_symmetry_multiplicity
 _atom_site_fract_x
 _atom_site_fract_y
 _atom_site_fract_z
 _atom_site_occupancy
  Tb  Tb0  1  0.000000  0.759321  0.781118  1
  Tb  Tb1  1  0.000000  0.259007  0.717611  1
  Tb  Tb2  1  0.000000  0.740995  0.282423  1
  Tb  Tb3  1  0.000000  0.999354  0.999273  1
  Tb  Tb4  1  0.000000  0.499833  0.500454  1
  Ho  Ho5  1  0.000000  0.617333  0.085134  1
  Ho  Ho6  1  0.000000  0.242755  0.219615  1
  Lu  Lu7  1  0.000000  0.116162  0.414062  1
  Lu  Lu8  1  0.000000  0.883285  0.586031  1
  Lu  Lu9  1  0.000000  0.383054  0.913160  1
  In  In10  1  0.500000  0.417948  0.351538  1
  In  In11  1  0.500000  0.582058  0.649514  1
  In  In12  1  0.500000  0.081164  0.849902  1
  In  In13  1  0.500000  0.922859  0.150334  1
  In  In14  1  0.500000  0.294696  0.064508  1
  In  In15  1  0.500000  0.702714  0.933864  1
  In  In16  1  0.500000  0.201445  0.563575  1
  In  In17  1  0.500000  0.797651  0.436658  1
  Pt  Pt18  1  0.500000  0.026807  0.305758  1
  Pt  Pt19  1  0.500000  0.974112  0.694035  1
  Pt  Pt20  1  0.500000  0.473049  0.804818  1
  Pt  Pt21  1  0.500000  0.524397  0.196613  1
