# generated using pymatgen
data_Ho12Er8Fe3CoBi8
_symmetry_space_group_name_H-M   'P 1'
_cell_length_a   7.93192508
_cell_length_b   8.90258400
_cell_length_c   12.39040921
_cell_angle_alpha   90.00000000
_cell_angle_beta   90.01880710
_cell_angle_gamma   90.00000000
_symmetry_Int_Tables_number   1
_chemical_formula_structural   Ho12Er8Fe3CoBi8
_chemical_formula_sum   'Ho12 Er8 Fe3 Co1 Bi8'
_cell_volume   874.94410648
_cell_formula_units_Z   1
loop_
 _symmetry_equiv_pos_site_id
 _symmetry_equiv_pos_as_xyz
  1  'x, y, z'
loop_
 _atom_site_type_symbol
 _atom_site_label
 _atom_site_symmetry_multiplicity
 _atom_site_fract_x
 _atom_site_fract_y
 _atom_site_fract_z
 _atom_site_occupancy
  Ho  Ho0  1  0.653822  0.750000  0.701269  1
  Ho  Ho1  1  0.345879  0.250000  0.300327  1
  Ho  Ho2  1  0.153980  0.250000  0.797912  1
  Ho  Ho3  1  0.848156  0.750000  0.197685  1
  Ho  Ho4  1  0.118160  0.750000  0.814399  1
  Ho  Ho5  1  0.883579  0.250000  0.186087  1
  Ho  Ho6  1  0.618692  0.250000  0.685901  1
  Ho  Ho7  1  0.382788  0.750000  0.315873  1
  Ho  Ho8  1  0.555557  0.750000  0.995219  1
  Ho  Ho9  1  0.441495  0.250000  0.005260  1
  Ho  Ho10  1  0.053576  0.250000  0.504284  1
  Ho  Ho11  1  0.941700  0.750000  0.495111  1
  Er  Er12  1  0.828067  0.464001  0.936726  1
  Er  Er13  1  0.172601  0.537082  0.062931  1
  Er  Er14  1  0.328615  0.532362  0.563419  1
  Er  Er15  1  0.172601  0.962918  0.062931  1
  Er  Er16  1  0.673978  0.458328  0.435612  1
  Er  Er17  1  0.828067  0.035999  0.936726  1
  Er  Er18  1  0.673978  0.041672  0.435612  1
  Er  Er19  1  0.328615  0.967638  0.563419  1
  Fe  Fe20  1  0.930134  0.750000  0.990291  1
  Fe  Fe21  1  0.069609  0.250000  0.007673  1
  Fe  Fe22  1  0.430378  0.250000  0.508932  1
  Co  Co23  1  0.564897  0.750000  0.494329  1
  Bi  Bi24  1  0.931921  0.005828  0.673231  1
  Bi  Bi25  1  0.068095  0.992196  0.326818  1
  Bi  Bi26  1  0.432238  0.993617  0.827152  1
  Bi  Bi27  1  0.068095  0.507804  0.326818  1
  Bi  Bi28  1  0.568283  0.006665  0.173836  1
  Bi  Bi29  1  0.931921  0.494172  0.673231  1
  Bi  Bi30  1  0.568283  0.493335  0.173836  1
  Bi  Bi31  1  0.432238  0.506383  0.827152  1
