# generated using pymatgen
data_Ca9DyIr4
_symmetry_space_group_name_H-M   'P 1'
_cell_length_a   6.53395038
_cell_length_b   7.55060961
_cell_length_c   8.61214987
_cell_angle_alpha   97.22966344
_cell_angle_beta   112.29311409
_cell_angle_gamma   89.99999480
_symmetry_Int_Tables_number   1
_chemical_formula_structural   Ca9DyIr4
_chemical_formula_sum   'Ca9 Dy1 Ir4'
_cell_volume   389.47202282
_cell_formula_units_Z   1
loop_
 _symmetry_equiv_pos_site_id
 _symmetry_equiv_pos_as_xyz
  1  'x, y, z'
loop_
 _atom_site_type_symbol
 _atom_site_label
 _atom_site_symmetry_multiplicity
 _atom_site_fract_x
 _atom_site_fract_y
 _atom_site_fract_z
 _atom_site_occupancy
  Ca  Ca0  1  0.799106  0.082093  0.827620  1
  Ca  Ca1  1  0.971486  0.417907  0.172380  1
  Ca  Ca2  1  0.197126  0.917603  0.174314  1
  Ca  Ca3  1  0.022812  0.582397  0.825686  1
  Ca  Ca4  1  0.203263  0.178535  0.565760  1
  Ca  Ca5  1  0.637503  0.321465  0.434240  1
  Ca  Ca6  1  0.800139  0.820268  0.437916  1
  Ca  Ca7  1  0.362223  0.679732  0.562084  1
  Ca  Ca8  1  0.427711  0.250000  0.000000  1
  Dy  Dy9  1  0.563930  0.750000  0.000000  1
  Ir  Ir10  1  0.603442  0.430416  0.786626  1
  Ir  Ir11  1  0.816816  0.069584  0.213374  1
  Ir  Ir12  1  0.404472  0.584627  0.214499  1
  Ir  Ir13  1  0.189973  0.915373  0.785501  1
