# generated using pymatgen
data_CsTcP2Ir
_symmetry_space_group_name_H-M   'P 1'
_cell_length_a   7.64663800
_cell_length_b   7.64663765
_cell_length_c   7.64663798
_cell_angle_alpha   148.94691732
_cell_angle_beta   148.94691382
_cell_angle_gamma   44.48945219
_symmetry_Int_Tables_number   1
_chemical_formula_structural   CsTcP2Ir
_chemical_formula_sum   'Cs1 Tc1 P2 Ir1'
_cell_volume   118.61253799
_cell_formula_units_Z   1
loop_
 _symmetry_equiv_pos_site_id
 _symmetry_equiv_pos_as_xyz
  1  'x, y, z'
loop_
 _atom_site_type_symbol
 _atom_site_label
 _atom_site_symmetry_multiplicity
 _atom_site_fract_x
 _atom_site_fract_y
 _atom_site_fract_z
 _atom_site_occupancy
  Cs  Cs0  1  0.000000  0.000000  0.000000  1
  Tc  Tc1  1  0.750000  0.250000  0.500000  1
  P  P2  1  0.330827  0.330827  0.000000  1
  P  P3  1  0.669173  0.669173  0.000000  1
  Ir  Ir4  1  0.250000  0.750000  0.500000  1
