# generated using pymatgen
data_TbEr11Co3Tc
_symmetry_space_group_name_H-M   'P 1'
_cell_length_a   6.25056549
_cell_length_b   7.06321851
_cell_length_c   9.18043900
_cell_angle_alpha   90.00000000
_cell_angle_beta   90.00000000
_cell_angle_gamma   90.00109787
_symmetry_Int_Tables_number   1
_chemical_formula_structural   TbEr11Co3Tc
_chemical_formula_sum   'Tb1 Er11 Co3 Tc1'
_cell_volume   405.30821007
_cell_formula_units_Z   1
loop_
 _symmetry_equiv_pos_site_id
 _symmetry_equiv_pos_as_xyz
  1  'x, y, z'
loop_
 _atom_site_type_symbol
 _atom_site_label
 _atom_site_symmetry_multiplicity
 _atom_site_fract_x
 _atom_site_fract_y
 _atom_site_fract_z
 _atom_site_occupancy
  Tb  Tb0  1  0.363303  0.954387  0.750000  1
  Er  Er1  1  0.326279  0.671854  0.066718  1
  Er  Er2  1  0.176275  0.181842  0.434164  1
  Er  Er3  1  0.676971  0.323804  0.568221  1
  Er  Er4  1  0.830977  0.825370  0.936387  1
  Er  Er5  1  0.676971  0.323804  0.931779  1
  Er  Er6  1  0.830977  0.825370  0.563613  1
  Er  Er7  1  0.326279  0.671854  0.433282  1
  Er  Er8  1  0.176275  0.181842  0.065836  1
  Er  Er9  1  0.856677  0.536817  0.250000  1
  Er  Er10  1  0.623500  0.044648  0.250000  1
  Er  Er11  1  0.140956  0.456461  0.750000  1
  Co  Co12  1  0.457634  0.386031  0.250000  1
  Co  Co13  1  0.957587  0.114882  0.750000  1
  Co  Co14  1  0.544276  0.611011  0.750000  1
  Tc  Tc15  1  0.035062  0.890027  0.250000  1
