# generated using pymatgen
data_Y6Er9Th(CdPt)4
_symmetry_space_group_name_H-M   'P 1'
_cell_length_a   9.65075980
_cell_length_b   9.65076105
_cell_length_c   9.65076149
_cell_angle_alpha   60.48643306
_cell_angle_beta   60.48643615
_cell_angle_gamma   60.48643235
_symmetry_Int_Tables_number   1
_chemical_formula_structural   Y6Er9Th(CdPt)4
_chemical_formula_sum   'Y6 Er9 Th1 Cd4 Pt4'
_cell_volume   642.56693196
_cell_formula_units_Z   1
loop_
 _symmetry_equiv_pos_site_id
 _symmetry_equiv_pos_as_xyz
  1  'x, y, z'
loop_
 _atom_site_type_symbol
 _atom_site_label
 _atom_site_symmetry_multiplicity
 _atom_site_fract_x
 _atom_site_fract_y
 _atom_site_fract_z
 _atom_site_occupancy
  Y  Y0  1  0.936613  0.566156  0.566156  1
  Y  Y1  1  0.562911  0.938507  0.938507  1
  Y  Y2  1  0.566156  0.936613  0.566156  1
  Y  Y3  1  0.938507  0.562911  0.938507  1
  Y  Y4  1  0.566156  0.566156  0.936613  1
  Y  Y5  1  0.938507  0.938507  0.562911  1
  Er  Er6  1  0.354207  0.354207  0.938055  1
  Er  Er7  1  0.354207  0.938055  0.354207  1
  Er  Er8  1  0.938055  0.354207  0.354207  1
  Er  Er9  1  0.813386  0.188349  0.188349  1
  Er  Er10  1  0.190809  0.811433  0.811433  1
  Er  Er11  1  0.188349  0.813386  0.188349  1
  Er  Er12  1  0.811433  0.190809  0.811433  1
  Er  Er13  1  0.188349  0.188349  0.813386  1
  Er  Er14  1  0.811433  0.811433  0.190809  1
  Th  Th15  1  0.348501  0.348501  0.348501  1
  Cd  Cd16  1  0.581310  0.581310  0.581310  1
  Cd  Cd17  1  0.582091  0.582091  0.253744  1
  Cd  Cd18  1  0.582091  0.253744  0.582091  1
  Cd  Cd19  1  0.253744  0.582091  0.582091  1
  Pt  Pt20  1  0.144316  0.144316  0.144316  1
  Pt  Pt21  1  0.139043  0.139043  0.570783  1
  Pt  Pt22  1  0.139043  0.570783  0.139043  1
  Pt  Pt23  1  0.570783  0.139043  0.139043  1
