# generated using pymatgen
data_Nb12Al8Fe3CuN4
_symmetry_space_group_name_H-M   'P 1'
_cell_length_a   8.24439600
_cell_length_b   8.24439607
_cell_length_c   8.18898337
_cell_angle_alpha   59.77590272
_cell_angle_beta   59.77590307
_cell_angle_gamma   60.00000325
_symmetry_Int_Tables_number   1
_chemical_formula_structural   Nb12Al8Fe3CuN4
_chemical_formula_sum   'Nb12 Al8 Fe3 Cu1 N4'
_cell_volume   392.24128670
_cell_formula_units_Z   1
loop_
 _symmetry_equiv_pos_site_id
 _symmetry_equiv_pos_as_xyz
  1  'x, y, z'
loop_
 _atom_site_type_symbol
 _atom_site_label
 _atom_site_symmetry_multiplicity
 _atom_site_fract_x
 _atom_site_fract_y
 _atom_site_fract_z
 _atom_site_occupancy
  Nb  Nb0  1  0.807695  0.807695  0.192063  1
  Nb  Nb1  1  0.190947  0.190947  0.809477  1
  Nb  Nb2  1  0.808627  0.190947  0.809477  1
  Nb  Nb3  1  0.192548  0.807695  0.192063  1
  Nb  Nb4  1  0.190947  0.808627  0.809477  1
  Nb  Nb5  1  0.807695  0.192548  0.192063  1
  Nb  Nb6  1  0.442305  0.442305  0.057937  1
  Nb  Nb7  1  0.059053  0.059053  0.440523  1
  Nb  Nb8  1  0.441373  0.059053  0.440523  1
  Nb  Nb9  1  0.057452  0.442305  0.057937  1
  Nb  Nb10  1  0.059053  0.441373  0.440523  1
  Nb  Nb11  1  0.442305  0.057452  0.057937  1
  Al  Al12  1  0.748046  0.415051  0.421854  1
  Al  Al13  1  0.415051  0.748046  0.421854  1
  Al  Al14  1  0.417110  0.417110  0.748669  1
  Al  Al15  1  0.415051  0.415051  0.421854  1
  Al  Al16  1  0.501954  0.834949  0.828146  1
  Al  Al17  1  0.834949  0.501954  0.828146  1
  Al  Al18  1  0.832890  0.832890  0.501331  1
  Al  Al19  1  0.834949  0.834949  0.828146  1
  Fe  Fe20  1  0.125000  0.625000  0.625000  1
  Fe  Fe21  1  0.625000  0.125000  0.625000  1
  Fe  Fe22  1  0.625000  0.625000  0.625000  1
  Cu  Cu23  1  0.625000  0.625000  0.125000  1
  N  N24  1  0.625000  0.125000  0.125000  1
  N  N25  1  0.125000  0.625000  0.125000  1
  N  N26  1  0.125000  0.125000  0.625000  1
  N  N27  1  0.125000  0.125000  0.125000  1
