# generated using pymatgen
data_Tb5PaGa18
_symmetry_space_group_name_H-M   'P 1'
_cell_length_a   14.63088685
_cell_length_b   14.63088675
_cell_length_c   14.63088700
_cell_angle_alpha   24.37147435
_cell_angle_beta   24.37147524
_cell_angle_gamma   24.37147959
_symmetry_Int_Tables_number   1
_chemical_formula_structural   Tb5PaGa18
_chemical_formula_sum   'Tb5 Pa1 Ga18'
_cell_volume   468.81741092
_cell_formula_units_Z   1
loop_
 _symmetry_equiv_pos_site_id
 _symmetry_equiv_pos_as_xyz
  1  'x, y, z'
loop_
 _atom_site_type_symbol
 _atom_site_label
 _atom_site_symmetry_multiplicity
 _atom_site_fract_x
 _atom_site_fract_y
 _atom_site_fract_z
 _atom_site_occupancy
  Tb  Tb0  1  0.890915  0.890905  0.890976  1
  Tb  Tb1  1  0.391128  0.391115  0.391191  1
  Tb  Tb2  1  0.999537  0.999534  0.999545  1
  Tb  Tb3  1  0.500046  0.500048  0.500047  1
  Tb  Tb4  1  0.608989  0.609003  0.608936  1
  Pa  Pa5  1  0.108462  0.108472  0.108426  1
  Ga  Ga6  1  0.925615  0.370578  0.370554  1
  Ga  Ga7  1  0.421057  0.871231  0.871213  1
  Ga  Ga8  1  0.370570  0.370571  0.925602  1
  Ga  Ga9  1  0.871226  0.871226  0.421045  1
  Ga  Ga10  1  0.370576  0.925624  0.370552  1
  Ga  Ga11  1  0.871232  0.421060  0.871214  1
  Ga  Ga12  1  0.576317  0.129423  0.129450  1
  Ga  Ga13  1  0.077830  0.628870  0.628839  1
  Ga  Ga14  1  0.129432  0.129430  0.576333  1
  Ga  Ga15  1  0.628844  0.628857  0.077848  1
  Ga  Ga16  1  0.129427  0.576309  0.129450  1
  Ga  Ga17  1  0.628867  0.077821  0.628848  1
  Ga  Ga18  1  0.499777  0.499781  0.999659  1
  Ga  Ga19  1  0.002315  0.002311  0.496083  1
  Ga  Ga20  1  0.499781  0.999661  0.499773  1
  Ga  Ga21  1  0.002312  0.496081  0.002322  1
  Ga  Ga22  1  0.999662  0.499783  0.499771  1
  Ga  Ga23  1  0.496083  0.002307  0.002323  1
