# generated using pymatgen
data_Tb2YTh(Ga3Ir)6
_symmetry_space_group_name_H-M   'P 1'
_cell_length_a   7.62068273
_cell_length_b   7.62868484
_cell_length_c   9.51523500
_cell_angle_alpha   90.00000000
_cell_angle_beta   90.00000000
_cell_angle_gamma   119.76296436
_symmetry_Int_Tables_number   1
_chemical_formula_structural   Tb2YTh(Ga3Ir)6
_chemical_formula_sum   'Tb2 Y1 Th1 Ga18 Ir6'
_cell_volume   480.20434105
_cell_formula_units_Z   1
loop_
 _symmetry_equiv_pos_site_id
 _symmetry_equiv_pos_as_xyz
  1  'x, y, z'
loop_
 _atom_site_type_symbol
 _atom_site_label
 _atom_site_symmetry_multiplicity
 _atom_site_fract_x
 _atom_site_fract_y
 _atom_site_fract_z
 _atom_site_occupancy
  Tb  Tb0  1  0.003495  0.331080  0.750000  1
  Tb  Tb1  1  0.330705  0.003371  0.750000  1
  Y  Y2  1  0.669849  0.996317  0.250000  1
  Th  Th3  1  0.996336  0.668897  0.250000  1
  Ga  Ga4  1  0.130077  0.131956  0.250000  1
  Ga  Ga5  1  0.872598  0.873925  0.750000  1
  Ga  Ga6  1  0.999364  0.329406  0.077641  1
  Ga  Ga7  1  0.000376  0.665287  0.915553  1
  Ga  Ga8  1  0.000376  0.665287  0.584447  1
  Ga  Ga9  1  0.340085  0.004246  0.422354  1
  Ga  Ga10  1  0.999364  0.329406  0.422359  1
  Ga  Ga11  1  0.665406  0.001176  0.580361  1
  Ga  Ga12  1  0.665406  0.001176  0.919639  1
  Ga  Ga13  1  0.340085  0.004246  0.077646  1
  Ga  Ga14  1  0.331589  0.331665  0.566108  1
  Ga  Ga15  1  0.663201  0.667869  0.437988  1
  Ga  Ga16  1  0.663201  0.667869  0.062012  1
  Ga  Ga17  1  0.331589  0.331665  0.933892  1
  Ga  Ga18  1  0.342014  0.545501  0.250000  1
  Ga  Ga19  1  0.659432  0.452639  0.750000  1
  Ga  Ga20  1  0.541791  0.337115  0.250000  1
  Ga  Ga21  1  0.453178  0.660767  0.750000  1
  Ir  Ir22  1  0.673271  0.331048  0.000880  1
  Ir  Ir23  1  0.326704  0.670860  0.000802  1
  Ir  Ir24  1  0.326704  0.670860  0.499198  1
  Ir  Ir25  1  0.673271  0.331048  0.499120  1
  Ir  Ir26  1  0.000266  0.997661  0.001070  1
  Ir  Ir27  1  0.000266  0.997661  0.498930  1
