# generated using pymatgen
data_Ti9NbSi6S
_symmetry_space_group_name_H-M   'P 1'
_cell_length_a   7.58514500
_cell_length_b   7.58514452
_cell_length_c   5.12072100
_cell_angle_alpha   90.00000000
_cell_angle_beta   90.00000000
_cell_angle_gamma   119.99999772
_symmetry_Int_Tables_number   1
_chemical_formula_structural   Ti9NbSi6S
_chemical_formula_sum   'Ti9 Nb1 Si6 S1'
_cell_volume   255.14643418
_cell_formula_units_Z   1
loop_
 _symmetry_equiv_pos_site_id
 _symmetry_equiv_pos_as_xyz
  1  'x, y, z'
loop_
 _atom_site_type_symbol
 _atom_site_label
 _atom_site_symmetry_multiplicity
 _atom_site_fract_x
 _atom_site_fract_y
 _atom_site_fract_z
 _atom_site_occupancy
  Ti  Ti0  1  0.333333  0.666667  0.500000  1
  Ti  Ti1  1  0.333333  0.666667  0.000000  1
  Ti  Ti2  1  0.666667  0.333333  0.000000  1
  Ti  Ti3  1  0.742768  0.742288  0.239427  1
  Ti  Ti4  1  0.257712  0.000480  0.239427  1
  Ti  Ti5  1  0.999520  0.257232  0.239427  1
  Ti  Ti6  1  0.257712  0.257232  0.760573  1
  Ti  Ti7  1  0.742768  0.000480  0.760573  1
  Ti  Ti8  1  0.999520  0.742288  0.760573  1
  Nb  Nb9  1  0.666667  0.333333  0.500000  1
  Si  Si10  1  0.394001  0.396537  0.245976  1
  Si  Si11  1  0.603463  0.997464  0.245976  1
  Si  Si12  1  0.002536  0.605999  0.245976  1
  Si  Si13  1  0.603463  0.605999  0.754024  1
  Si  Si14  1  0.394001  0.997464  0.754024  1
  Si  Si15  1  0.002536  0.396537  0.754024  1
  S  S16  1  0.000000  0.000000  0.500000  1
