# generated using pymatgen
data_Mg2Pd3(PtO4)3
_symmetry_space_group_name_H-M   'P 1'
_cell_length_a   3.21471700
_cell_length_b   7.17589513
_cell_length_c   10.01323901
_cell_angle_alpha   90.01390806
_cell_angle_beta   90.00000000
_cell_angle_gamma   90.00000000
_symmetry_Int_Tables_number   1
_chemical_formula_structural   Mg2Pd3(PtO4)3
_chemical_formula_sum   'Mg2 Pd3 Pt3 O12'
_cell_volume   230.99011775
_cell_formula_units_Z   1
loop_
 _symmetry_equiv_pos_site_id
 _symmetry_equiv_pos_as_xyz
  1  'x, y, z'
loop_
 _atom_site_type_symbol
 _atom_site_label
 _atom_site_symmetry_multiplicity
 _atom_site_fract_x
 _atom_site_fract_y
 _atom_site_fract_z
 _atom_site_occupancy
  Mg  Mg0  1  0.000000  0.003739  0.001964  1
  Mg  Mg1  1  0.000000  0.495990  0.497755  1
  Pd  Pd2  1  0.000000  0.000918  0.499290  1
  Pd  Pd3  1  0.000000  0.499063  0.000650  1
  Pd  Pd4  1  0.500000  0.245488  0.247838  1
  Pt  Pt5  1  0.500000  0.754412  0.752190  1
  Pt  Pt6  1  0.500000  0.254397  0.747820  1
  Pt  Pt7  1  0.500000  0.745662  0.252216  1
  O  O8  1  0.500000  0.993357  0.148100  1
  O  O9  1  0.500000  0.005076  0.852686  1
  O  O10  1  0.500000  0.505096  0.647295  1
  O  O11  1  0.500000  0.496453  0.352139  1
  O  O12  1  0.000000  0.207971  0.371129  1
  O  O13  1  0.000000  0.792138  0.630295  1
  O  O14  1  0.000000  0.290159  0.870003  1
  O  O15  1  0.000000  0.708716  0.130177  1
  O  O16  1  0.000000  0.283280  0.123042  1
  O  O17  1  0.000000  0.716998  0.875524  1
  O  O18  1  0.000000  0.218667  0.624241  1
  O  O19  1  0.000000  0.782418  0.375648  1
