# generated using pymatgen
data_Dy9Ho3(InGa2)2
_symmetry_space_group_name_H-M   'P 1'
_cell_length_a   8.64701698
_cell_length_b   8.64638918
_cell_length_c   8.64638937
_cell_angle_alpha   112.45212311
_cell_angle_beta   112.20588529
_cell_angle_gamma   103.89291664
_symmetry_Int_Tables_number   1
_chemical_formula_structural   Dy9Ho3(InGa2)2
_chemical_formula_sum   'Dy9 Ho3 In2 Ga4'
_cell_volume   494.16249500
_cell_formula_units_Z   1
loop_
 _symmetry_equiv_pos_site_id
 _symmetry_equiv_pos_as_xyz
  1  'x, y, z'
loop_
 _atom_site_type_symbol
 _atom_site_label
 _atom_site_symmetry_multiplicity
 _atom_site_fract_x
 _atom_site_fract_y
 _atom_site_fract_z
 _atom_site_occupancy
  Dy  Dy0  1  0.965438  0.762792  0.202646  1
  Dy  Dy1  1  0.187417  0.281777  0.469047  1
  Dy  Dy2  1  0.812622  0.718366  0.531347  1
  Dy  Dy3  1  0.187417  0.718369  0.905639  1
  Dy  Dy4  1  0.812622  0.281276  0.094256  1
  Dy  Dy5  1  0.320751  0.616216  0.295815  1
  Dy  Dy6  1  0.679306  0.383473  0.704001  1
  Dy  Dy7  1  0.320751  0.024937  0.704536  1
  Dy  Dy8  1  0.679306  0.975305  0.295832  1
  Ho  Ho9  1  0.439970  0.236948  0.203023  1
  Ho  Ho10  1  0.559743  0.762970  0.796772  1
  Ho  Ho11  1  0.033990  0.237085  0.796906  1
  In  In12  1  0.499711  0.499828  0.999883  1
  In  In13  1  0.000201  0.000323  0.999878  1
  Ga  Ga14  1  0.354533  0.000297  0.354236  1
  Ga  Ga15  1  0.646082  0.000012  0.646070  1
  Ga  Ga16  1  0.120730  0.620653  0.500077  1
  Ga  Ga17  1  0.879408  0.379373  0.500035  1
