# generated using pymatgen
data_Pr3Ho5Co3Si12Rh
_symmetry_space_group_name_H-M   'P 1'
_cell_length_a   8.07005780
_cell_length_b   8.07005820
_cell_length_c   8.09667205
_cell_angle_alpha   90.01162013
_cell_angle_beta   89.98837845
_cell_angle_gamma   119.88949370
_symmetry_Int_Tables_number   1
_chemical_formula_structural   Pr3Ho5Co3Si12Rh
_chemical_formula_sum   'Pr3 Ho5 Co3 Si12 Rh1'
_cell_volume   457.16503397
_cell_formula_units_Z   1
loop_
 _symmetry_equiv_pos_site_id
 _symmetry_equiv_pos_as_xyz
  1  'x, y, z'
loop_
 _atom_site_type_symbol
 _atom_site_label
 _atom_site_symmetry_multiplicity
 _atom_site_fract_x
 _atom_site_fract_y
 _atom_site_fract_z
 _atom_site_occupancy
  Pr  Pr0  1  0.999724  0.000276  0.251441  1
  Pr  Pr1  1  0.999906  0.000094  0.748098  1
  Pr  Pr2  1  0.507868  0.492132  0.251460  1
  Ho  Ho3  1  0.505673  0.010463  0.251488  1
  Ho  Ho4  1  0.989537  0.494327  0.251488  1
  Ho  Ho5  1  0.495834  0.504166  0.749966  1
  Ho  Ho6  1  0.496163  0.992033  0.750321  1
  Ho  Ho7  1  0.007967  0.503837  0.750321  1
  Co  Co8  1  0.332582  0.667418  0.471810  1
  Co  Co9  1  0.666840  0.333160  0.537674  1
  Co  Co10  1  0.666760  0.333240  0.962563  1
  Si  Si11  1  0.173806  0.826194  0.503051  1
  Si  Si12  1  0.171607  0.346641  0.504557  1
  Si  Si13  1  0.653359  0.828393  0.504557  1
  Si  Si14  1  0.826175  0.173825  0.499339  1
  Si  Si15  1  0.829634  0.654792  0.503639  1
  Si  Si16  1  0.345208  0.170366  0.503639  1
  Si  Si17  1  0.825879  0.174121  0.000936  1
  Si  Si18  1  0.828767  0.654084  0.996569  1
  Si  Si19  1  0.345916  0.171233  0.996569  1
  Si  Si20  1  0.167550  0.832450  0.995596  1
  Si  Si21  1  0.166310  0.335294  0.994214  1
  Si  Si22  1  0.664706  0.833690  0.994214  1
  Rh  Rh23  1  0.332232  0.667768  0.026488  1
