# generated using pymatgen
data_Sr3Ca6TbV7O28
_symmetry_space_group_name_H-M   'P 1'
_cell_length_a   11.15393055
_cell_length_b   11.15393019
_cell_length_c   14.35781600
_cell_angle_alpha   67.50591947
_cell_angle_beta   67.50592081
_cell_angle_gamma   59.99051261
_symmetry_Int_Tables_number   1
_chemical_formula_structural   Sr3Ca6TbV7O28
_chemical_formula_sum   'Sr6 Ca12 Tb2 V14 O56'
_cell_volume   1387.68814105
_cell_formula_units_Z   2
loop_
 _symmetry_equiv_pos_site_id
 _symmetry_equiv_pos_as_xyz
  1  'x, y, z'
loop_
 _atom_site_type_symbol
 _atom_site_label
 _atom_site_symmetry_multiplicity
 _atom_site_fract_x
 _atom_site_fract_y
 _atom_site_fract_z
 _atom_site_occupancy
  Sr  Sr0  1  0.556267  0.466705  0.021900  1
  Sr  Sr1  1  0.953468  0.055651  0.020573  1
  Sr  Sr2  1  0.971462  0.452796  0.018360  1
  Sr  Sr3  1  0.055651  0.953468  0.520573  1
  Sr  Sr4  1  0.452796  0.971462  0.518360  1
  Sr  Sr5  1  0.466705  0.556267  0.521900  1
  Ca  Ca6  1  0.501227  0.004652  0.999205  1
  Ca  Ca7  1  0.566383  0.075921  0.202032  1
  Ca  Ca8  1  0.570193  0.660113  0.200439  1
  Ca  Ca9  1  0.156783  0.065434  0.201641  1
  Ca  Ca10  1  0.660113  0.570193  0.700439  1
  Ca  Ca11  1  0.065434  0.156783  0.701641  1
  Ca  Ca12  1  0.075921  0.566383  0.702032  1
  Ca  Ca13  1  0.004652  0.501227  0.499205  1
  Ca  Ca14  1  0.945629  0.849416  0.295614  1
  Ca  Ca15  1  0.350569  0.413785  0.295571  1
  Ca  Ca16  1  0.849416  0.945629  0.795614  1
  Ca  Ca17  1  0.413785  0.350569  0.795571  1
  Tb  Tb18  1  0.909654  0.446020  0.296313  1
  Tb  Tb19  1  0.446020  0.909654  0.796313  1
  V  V20  1  0.770670  0.268349  0.195778  1
  V  V21  1  0.690795  0.221519  0.896075  1
  V  V22  1  0.718792  0.692938  0.896233  1
  V  V23  1  0.193483  0.186829  0.896166  1
  V  V24  1  0.781914  0.308459  0.593564  1
  V  V25  1  0.807577  0.815519  0.598514  1
  V  V26  1  0.692938  0.718792  0.396233  1
  V  V27  1  0.316861  0.276718  0.598621  1
  V  V28  1  0.186829  0.193483  0.396166  1
  V  V29  1  0.221519  0.690795  0.396075  1
  V  V30  1  0.815519  0.807577  0.098514  1
  V  V31  1  0.276718  0.316861  0.098621  1
  V  V32  1  0.308459  0.781914  0.093564  1
  V  V33  1  0.268349  0.770670  0.695778  1
  O  O34  1  0.601010  0.271579  0.230601  1
  O  O35  1  0.777148  0.399940  0.231773  1
  O  O36  1  0.902692  0.098892  0.229373  1
  O  O37  1  0.665305  0.183618  0.029643  1
  O  O38  1  0.682976  0.620531  0.028907  1
  O  O39  1  0.813967  0.314251  0.060267  1
  O  O40  1  0.616178  0.141682  0.864359  1
  O  O41  1  0.634380  0.879447  0.864857  1
  O  O42  1  0.640877  0.645835  0.839598  1
  O  O43  1  0.602877  0.405190  0.854930  1
  O  O44  1  0.122014  0.165668  0.028933  1
  O  O45  1  0.872741  0.150848  0.842844  1
  O  O46  1  0.901703  0.637169  0.854298  1
  O  O47  1  0.605287  0.398431  0.657693  1
  O  O48  1  0.134962  0.367899  0.841331  1
  O  O49  1  0.621162  0.885742  0.644160  1
  O  O50  1  0.144863  0.093056  0.855168  1
  O  O51  1  0.380453  0.108216  0.864167  1
  O  O52  1  0.854141  0.125080  0.637467  1
  O  O53  1  0.899451  0.839453  0.660458  1
  O  O54  1  0.620531  0.682976  0.528907  1
  O  O55  1  0.876283  0.370902  0.623068  1
  O  O56  1  0.869537  0.629500  0.627198  1
  O  O57  1  0.130743  0.371164  0.628195  1
  O  O58  1  0.794852  0.362527  0.460838  1
  O  O59  1  0.859955  0.878724  0.467722  1
  O  O60  1  0.645835  0.640877  0.339598  1
  O  O61  1  0.343999  0.096819  0.663854  1
  O  O62  1  0.637169  0.901703  0.354298  1
  O  O63  1  0.385246  0.352795  0.638866  1
  O  O64  1  0.165668  0.122014  0.528933  1
  O  O65  1  0.183618  0.665305  0.529643  1
  O  O66  1  0.879447  0.634380  0.364857  1
  O  O67  1  0.108216  0.380453  0.364167  1
  O  O68  1  0.141682  0.616178  0.364359  1
  O  O69  1  0.377308  0.286983  0.467929  1
  O  O70  1  0.150848  0.872741  0.342844  1
  O  O71  1  0.093056  0.144863  0.355168  1
  O  O72  1  0.629500  0.869537  0.127198  1
  O  O73  1  0.839453  0.899451  0.160458  1
  O  O74  1  0.367899  0.134962  0.341331  1
  O  O75  1  0.885742  0.621162  0.144160  1
  O  O76  1  0.405190  0.602877  0.354930  1
  O  O77  1  0.096819  0.343999  0.163854  1
  O  O78  1  0.125080  0.854141  0.137467  1
  O  O79  1  0.878724  0.859955  0.967722  1
  O  O80  1  0.352795  0.385246  0.138866  1
  O  O81  1  0.398431  0.605287  0.157693  1
  O  O82  1  0.371164  0.130743  0.128195  1
  O  O83  1  0.370902  0.876283  0.123068  1
  O  O84  1  0.286983  0.377308  0.967929  1
  O  O85  1  0.362527  0.794852  0.960838  1
  O  O86  1  0.098892  0.902692  0.729373  1
  O  O87  1  0.271579  0.601010  0.730601  1
  O  O88  1  0.399940  0.777148  0.731773  1
  O  O89  1  0.314251  0.813967  0.560267  1
