# generated using pymatgen
data_Hf6Al16CoNi5Ir
_symmetry_space_group_name_H-M   'P 1'
_cell_length_a   8.48699141
_cell_length_b   8.54260247
_cell_length_c   8.54260322
_cell_angle_alpha   59.76900926
_cell_angle_beta   60.21511811
_cell_angle_gamma   60.21511458
_symmetry_Int_Tables_number   1
_chemical_formula_structural   Hf6Al16CoNi5Ir
_chemical_formula_sum   'Hf6 Al16 Co1 Ni5 Ir1'
_cell_volume   438.58615102
_cell_formula_units_Z   1
loop_
 _symmetry_equiv_pos_site_id
 _symmetry_equiv_pos_as_xyz
  1  'x, y, z'
loop_
 _atom_site_type_symbol
 _atom_site_label
 _atom_site_symmetry_multiplicity
 _atom_site_fract_x
 _atom_site_fract_y
 _atom_site_fract_z
 _atom_site_occupancy
  Hf  Hf0  1  0.685577  0.686722  0.313278  1
  Hf  Hf1  1  0.314423  0.686722  0.313278  1
  Hf  Hf2  1  0.690012  0.309988  0.309988  1
  Hf  Hf3  1  0.314423  0.313278  0.686722  1
  Hf  Hf4  1  0.685577  0.313278  0.686722  1
  Hf  Hf5  1  0.309988  0.690012  0.690012  1
  Al  Al6  1  0.883244  0.881210  0.352301  1
  Al  Al7  1  0.883244  0.352301  0.881210  1
  Al  Al8  1  0.354375  0.881486  0.881486  1
  Al  Al9  1  0.882653  0.881486  0.881486  1
  Al  Al10  1  0.116756  0.118790  0.647699  1
  Al  Al11  1  0.116756  0.647699  0.118790  1
  Al  Al12  1  0.645625  0.118514  0.118514  1
  Al  Al13  1  0.117347  0.118514  0.118514  1
  Al  Al14  1  0.669260  0.658872  0.002608  1
  Al  Al15  1  0.669260  0.002608  0.658872  1
  Al  Al16  1  0.003281  0.665505  0.665505  1
  Al  Al17  1  0.665708  0.665505  0.665505  1
  Al  Al18  1  0.330740  0.341128  0.997392  1
  Al  Al19  1  0.330740  0.997392  0.341128  1
  Al  Al20  1  0.996719  0.334495  0.334495  1
  Al  Al21  1  0.334292  0.334495  0.334495  1
  Co  Co22  1  0.000000  0.000000  0.000000  1
  Ni  Ni23  1  0.000000  0.000000  0.500000  1
  Ni  Ni24  1  0.500000  0.000000  0.500000  1
  Ni  Ni25  1  0.000000  0.500000  0.500000  1
  Ni  Ni26  1  0.500000  0.500000  0.000000  1
  Ni  Ni27  1  0.000000  0.500000  0.000000  1
  Ir  Ir28  1  0.500000  0.000000  0.000000  1
