# generated using pymatgen
data_Pr12RuRh(AuBr6)2
_symmetry_space_group_name_H-M   'P 1'
_cell_length_a   10.70049517
_cell_length_b   10.75754980
_cell_length_c   10.52995136
_cell_angle_alpha   109.49844868
_cell_angle_beta   109.27657088
_cell_angle_gamma   110.39001661
_symmetry_Int_Tables_number   1
_chemical_formula_structural   Pr12RuRh(AuBr6)2
_chemical_formula_sum   'Pr12 Ru1 Rh1 Au2 Br12'
_cell_volume   924.25910703
_cell_formula_units_Z   1
loop_
 _symmetry_equiv_pos_site_id
 _symmetry_equiv_pos_as_xyz
  1  'x, y, z'
loop_
 _atom_site_type_symbol
 _atom_site_label
 _atom_site_symmetry_multiplicity
 _atom_site_fract_x
 _atom_site_fract_y
 _atom_site_fract_z
 _atom_site_occupancy
  Pr  Pr0  1  0.471494  0.492054  0.231785  1
  Pr  Pr1  1  0.763768  0.240381  0.270618  1
  Pr  Pr2  1  0.766176  0.023908  0.494691  1
  Pr  Pr3  1  0.228515  0.470782  0.494691  1
  Pr  Pr4  1  0.260289  0.739730  0.231785  1
  Pr  Pr5  1  0.028929  0.269849  0.006669  1
  Pr  Pr6  1  0.006851  0.030239  0.270618  1
  Pr  Pr7  1  0.477742  0.736820  0.006669  1
  Pr  Pr8  1  0.489116  0.239116  0.478230  1
  Pr  Pr9  1  0.012279  0.483782  0.746499  1
  Pr  Pr10  1  0.260627  0.010627  0.021255  1
  Pr  Pr11  1  0.234220  0.262717  0.746499  1
  Ru  Ru12  1  0.001783  0.251783  0.503566  1
  Rh  Rh13  1  0.248617  0.498617  0.997236  1
  Au  Au14  1  0.249675  0.250727  0.249933  1
  Au  Au15  1  0.500258  0.999206  0.249933  1
  Br  Br16  1  0.250766  0.756768  0.747196  1
  Br  Br17  1  0.509810  0.503795  0.753422  1
  Br  Br18  1  0.996531  0.749164  0.999906  1
  Br  Br19  1  0.743611  0.249627  0.753422  1
  Br  Br20  1  0.996429  0.990429  0.747196  1
  Br  Br21  1  0.249490  0.996107  0.500160  1
  Br  Br22  1  0.750671  0.504053  0.500160  1
  Br  Br23  1  0.503375  0.250742  0.999906  1
  Br  Br24  1  0.752827  0.746161  0.249513  1
  Br  Br25  1  0.746842  0.996842  0.993686  1
  Br  Br26  1  0.996686  0.503353  0.249513  1
  Br  Br27  1  0.502622  0.752622  0.505243  1
