# generated using pymatgen
data_Er6Al24Os5Rh3
_symmetry_space_group_name_H-M   'P 1'
_cell_length_a   8.78080632
_cell_length_b   8.79688733
_cell_length_c   9.52322796
_cell_angle_alpha   89.99781309
_cell_angle_beta   89.84234489
_cell_angle_gamma   119.40984489
_symmetry_Int_Tables_number   1
_chemical_formula_structural   Er6Al24Os5Rh3
_chemical_formula_sum   'Er6 Al24 Os5 Rh3'
_cell_volume   640.80826832
_cell_formula_units_Z   1
loop_
 _symmetry_equiv_pos_site_id
 _symmetry_equiv_pos_as_xyz
  1  'x, y, z'
loop_
 _atom_site_type_symbol
 _atom_site_label
 _atom_site_symmetry_multiplicity
 _atom_site_fract_x
 _atom_site_fract_y
 _atom_site_fract_z
 _atom_site_occupancy
  Er  Er0  1  0.189673  0.387118  0.252123  1
  Er  Er1  1  0.810327  0.612882  0.747877  1
  Er  Er2  1  0.611594  0.812517  0.251106  1
  Er  Er3  1  0.388406  0.187483  0.748894  1
  Er  Er4  1  0.196883  0.807476  0.251452  1
  Er  Er5  1  0.803117  0.192524  0.748548  1
  Al  Al6  1  0.333690  0.667627  0.025414  1
  Al  Al7  1  0.666310  0.332373  0.974586  1
  Al  Al8  1  0.667680  0.332901  0.521884  1
  Al  Al9  1  0.332320  0.667099  0.478116  1
  Al  Al10  1  0.161175  0.324521  0.578170  1
  Al  Al11  1  0.838825  0.675479  0.421830  1
  Al  Al12  1  0.674719  0.837630  0.577228  1
  Al  Al13  1  0.836517  0.675685  0.077696  1
  Al  Al14  1  0.325281  0.162370  0.422772  1
  Al  Al15  1  0.163483  0.324315  0.922304  1
  Al  Al16  1  0.163478  0.835253  0.576168  1
  Al  Al17  1  0.325454  0.162349  0.076571  1
  Al  Al18  1  0.836522  0.164747  0.423832  1
  Al  Al19  1  0.674546  0.837651  0.923429  1
  Al  Al20  1  0.834563  0.162569  0.075997  1
  Al  Al21  1  0.165437  0.837431  0.924003  1
  Al  Al22  1  0.561241  0.125204  0.249442  1
  Al  Al23  1  0.438759  0.874796  0.750558  1
  Al  Al24  1  0.877111  0.440140  0.249713  1
  Al  Al25  1  0.122889  0.559860  0.750287  1
  Al  Al26  1  0.560080  0.440907  0.249194  1
  Al  Al27  1  0.439920  0.559093  0.750806  1
  Al  Al28  1  0.999066  0.001825  0.250038  1
  Al  Al29  1  0.000934  0.998175  0.749962  1
  Os  Os30  1  0.500000  0.000000  0.000000  1
  Os  Os31  1  0.500000  0.000000  0.500000  1
  Os  Os32  1  0.000000  0.500000  0.500000  1
  Os  Os33  1  0.000000  0.000000  0.000000  1
  Os  Os34  1  0.000000  0.000000  0.500000  1
  Rh  Rh35  1  0.000000  0.500000  0.000000  1
  Rh  Rh36  1  0.500000  0.500000  0.000000  1
  Rh  Rh37  1  0.500000  0.500000  0.500000  1
