# generated using pymatgen
data_Tb2Y6TlInRh2
_symmetry_space_group_name_H-M   'P 1'
_cell_length_a   9.70266507
_cell_length_b   9.70065798
_cell_length_c   9.69838300
_cell_angle_alpha   59.96785159
_cell_angle_beta   59.99394848
_cell_angle_gamma   60.07582511
_symmetry_Int_Tables_number   1
_chemical_formula_structural   Tb2Y6TlInRh2
_chemical_formula_sum   'Tb4 Y12 Tl2 In2 Rh4'
_cell_volume   645.65302716
_cell_formula_units_Z   2
loop_
 _symmetry_equiv_pos_site_id
 _symmetry_equiv_pos_as_xyz
  1  'x, y, z'
loop_
 _atom_site_type_symbol
 _atom_site_label
 _atom_site_symmetry_multiplicity
 _atom_site_fract_x
 _atom_site_fract_y
 _atom_site_fract_z
 _atom_site_occupancy
  Tb  Tb0  1  0.148957  0.550876  0.148934  1
  Tb  Tb1  1  0.311320  0.688071  0.687171  1
  Tb  Tb2  1  0.688312  0.311648  0.687607  1
  Tb  Tb3  1  0.550811  0.149339  0.148722  1
  Y  Y4  1  0.687703  0.312706  0.311122  1
  Y  Y5  1  0.687956  0.688110  0.310632  1
  Y  Y6  1  0.312341  0.687507  0.311915  1
  Y  Y7  1  0.937593  0.937619  0.562424  1
  Y  Y8  1  0.147672  0.148419  0.553588  1
  Y  Y9  1  0.560256  0.938525  0.559941  1
  Y  Y10  1  0.151084  0.151736  0.150692  1
  Y  Y11  1  0.311331  0.312688  0.687308  1
  Y  Y12  1  0.937916  0.560135  0.561203  1
  Y  Y13  1  0.560897  0.559522  0.938610  1
  Y  Y14  1  0.562856  0.937463  0.937457  1
  Y  Y15  1  0.936878  0.562464  0.937200  1
  Tl  Tl16  1  0.914588  0.915761  0.256554  1
  Tl  Tl17  1  0.256843  0.915906  0.914756  1
  In  In18  1  0.917097  0.251343  0.916746  1
  In  In19  1  0.915689  0.916651  0.916463  1
  Rh  Rh20  1  0.356186  0.356374  0.354915  1
  Rh  Rh21  1  0.927871  0.358275  0.359606  1
  Rh  Rh22  1  0.359864  0.359987  0.927188  1
  Rh  Rh23  1  0.357976  0.928872  0.359244  1
