# generated using pymatgen
data_TbDy9PPb6Se
_symmetry_space_group_name_H-M   'P 1'
_cell_length_a   9.23112300
_cell_length_b   9.23112360
_cell_length_c   6.75052200
_cell_angle_alpha   90.00000000
_cell_angle_beta   90.00000000
_cell_angle_gamma   119.99999428
_symmetry_Int_Tables_number   1
_chemical_formula_structural   TbDy9PPb6Se
_chemical_formula_sum   'Tb1 Dy9 P1 Pb6 Se1'
_cell_volume   498.16947996
_cell_formula_units_Z   1
loop_
 _symmetry_equiv_pos_site_id
 _symmetry_equiv_pos_as_xyz
  1  'x, y, z'
loop_
 _atom_site_type_symbol
 _atom_site_label
 _atom_site_symmetry_multiplicity
 _atom_site_fract_x
 _atom_site_fract_y
 _atom_site_fract_z
 _atom_site_occupancy
  Tb  Tb0  1  0.333333  0.666667  0.500000  1
  Dy  Dy1  1  0.243426  0.000118  0.238938  1
  Dy  Dy2  1  0.756691  0.000118  0.761062  1
  Dy  Dy3  1  0.999882  0.243309  0.238938  1
  Dy  Dy4  1  0.999882  0.756574  0.761062  1
  Dy  Dy5  1  0.756691  0.756574  0.238938  1
  Dy  Dy6  1  0.243426  0.243309  0.761062  1
  Dy  Dy7  1  0.333333  0.666667  0.000000  1
  Dy  Dy8  1  0.666667  0.333333  0.000000  1
  Dy  Dy9  1  0.666667  0.333333  0.500000  1
  P  P10  1  0.000000  0.000000  0.000000  1
  Pb  Pb11  1  0.604028  0.000311  0.250408  1
  Pb  Pb12  1  0.396283  0.000311  0.749592  1
  Pb  Pb13  1  0.999689  0.603717  0.250408  1
  Pb  Pb14  1  0.999689  0.395972  0.749592  1
  Pb  Pb15  1  0.396283  0.395972  0.250408  1
  Pb  Pb16  1  0.604028  0.603717  0.749592  1
  Se  Se17  1  0.000000  0.000000  0.500000  1
