# generated using pymatgen
data_DyTm2Lu2CoSb2
_symmetry_space_group_name_H-M   'P 1'
_cell_length_a   7.73098700
_cell_length_b   8.72315500
_cell_length_c   12.03472700
_cell_angle_alpha   90.00000000
_cell_angle_beta   90.00000000
_cell_angle_gamma   90.00000000
_symmetry_Int_Tables_number   1
_chemical_formula_structural   DyTm2Lu2CoSb2
_chemical_formula_sum   'Dy4 Tm8 Lu8 Co4 Sb8'
_cell_volume   811.60511504
_cell_formula_units_Z   4
loop_
 _symmetry_equiv_pos_site_id
 _symmetry_equiv_pos_as_xyz
  1  'x, y, z'
loop_
 _atom_site_type_symbol
 _atom_site_label
 _atom_site_symmetry_multiplicity
 _atom_site_fract_x
 _atom_site_fract_y
 _atom_site_fract_z
 _atom_site_occupancy
  Dy  Dy0  1  0.622023  0.750000  0.308172  1
  Dy  Dy1  1  0.877977  0.750000  0.808172  1
  Dy  Dy2  1  0.377977  0.250000  0.691828  1
  Dy  Dy3  1  0.122023  0.250000  0.191828  1
  Tm  Tm4  1  0.153855  0.750000  0.203243  1
  Tm  Tm5  1  0.346145  0.750000  0.703243  1
  Tm  Tm6  1  0.846145  0.250000  0.796757  1
  Tm  Tm7  1  0.653855  0.250000  0.296757  1
  Tm  Tm8  1  0.450671  0.750000  0.997885  1
  Tm  Tm9  1  0.049329  0.750000  0.497885  1
  Tm  Tm10  1  0.549329  0.250000  0.002115  1
  Tm  Tm11  1  0.950671  0.250000  0.502115  1
  Lu  Lu12  1  0.824372  0.536075  0.064908  1
  Lu  Lu13  1  0.675628  0.963925  0.564908  1
  Lu  Lu14  1  0.175628  0.036075  0.935092  1
  Lu  Lu15  1  0.324372  0.463925  0.435092  1
  Lu  Lu16  1  0.175628  0.463925  0.935092  1
  Lu  Lu17  1  0.324372  0.036075  0.435092  1
  Lu  Lu18  1  0.824372  0.963925  0.064908  1
  Lu  Lu19  1  0.675628  0.536075  0.564908  1
  Co  Co20  1  0.434607  0.750000  0.491924  1
  Co  Co21  1  0.065393  0.750000  0.991924  1
  Co  Co22  1  0.565393  0.250000  0.508076  1
  Co  Co23  1  0.934607  0.250000  0.008076  1
  Sb  Sb24  1  0.930593  0.508156  0.327847  1
  Sb  Sb25  1  0.569407  0.991844  0.827847  1
  Sb  Sb26  1  0.069407  0.008156  0.672153  1
  Sb  Sb27  1  0.430593  0.491844  0.172153  1
  Sb  Sb28  1  0.069407  0.491844  0.672153  1
  Sb  Sb29  1  0.430593  0.008156  0.172153  1
  Sb  Sb30  1  0.930593  0.991844  0.327847  1
  Sb  Sb31  1  0.569407  0.508156  0.827847  1
