# generated using pymatgen
data_Sr4LuV(GaO5)2
_symmetry_space_group_name_H-M   'P 1'
_cell_length_a   5.74169243
_cell_length_b   5.98509921
_cell_length_c   8.71467039
_cell_angle_alpha   109.84109781
_cell_angle_beta   109.23399055
_cell_angle_gamma   90.00000277
_symmetry_Int_Tables_number   1
_chemical_formula_structural   Sr4LuV(GaO5)2
_chemical_formula_sum   'Sr4 Lu1 V1 Ga2 O10'
_cell_volume   263.85819697
_cell_formula_units_Z   1
loop_
 _symmetry_equiv_pos_site_id
 _symmetry_equiv_pos_as_xyz
  1  'x, y, z'
loop_
 _atom_site_type_symbol
 _atom_site_label
 _atom_site_symmetry_multiplicity
 _atom_site_fract_x
 _atom_site_fract_y
 _atom_site_fract_z
 _atom_site_occupancy
  Sr  Sr0  1  0.116802  0.639817  0.224322  1
  Sr  Sr1  1  0.892480  0.360183  0.775678  1
  Sr  Sr2  1  0.393861  0.909755  0.776710  1
  Sr  Sr3  1  0.617151  0.090245  0.223290  1
  Lu  Lu4  1  0.498117  0.500000  0.000000  1
  V  V5  1  0.998127  0.000000  0.000000  1
  Ga  Ga6  1  0.280261  0.321934  0.496217  1
  Ga  Ga7  1  0.784044  0.678066  0.503783  1
  O  O8  1  0.231924  0.751548  0.977563  1
  O  O9  1  0.254362  0.248452  0.022437  1
  O  O10  1  0.769336  0.254391  0.022101  1
  O  O11  1  0.747235  0.745609  0.977899  1
  O  O12  1  0.622768  0.709252  0.291404  1
  O  O13  1  0.331365  0.290748  0.708596  1
  O  O14  1  0.832392  0.922841  0.712221  1
  O  O15  1  0.120170  0.077159  0.287779  1
  O  O16  1  0.110108  0.598611  0.499610  1
  O  O17  1  0.610498  0.401389  0.500390  1
