# generated using pymatgen
data_EuSb12Ir2OsRu
_symmetry_space_group_name_H-M   'P 1'
_cell_length_a   8.17752013
_cell_length_b   8.16068683
_cell_length_c   8.15740249
_cell_angle_alpha   109.37350998
_cell_angle_beta   109.46616830
_cell_angle_gamma   109.47992774
_symmetry_Int_Tables_number   1
_chemical_formula_structural   EuSb12Ir2OsRu
_chemical_formula_sum   'Eu1 Sb12 Ir2 Os1 Ru1'
_cell_volume   419.54746165
_cell_formula_units_Z   1
loop_
 _symmetry_equiv_pos_site_id
 _symmetry_equiv_pos_as_xyz
  1  'x, y, z'
loop_
 _atom_site_type_symbol
 _atom_site_label
 _atom_site_symmetry_multiplicity
 _atom_site_fract_x
 _atom_site_fract_y
 _atom_site_fract_z
 _atom_site_occupancy
  Eu  Eu0  1  0.000000  0.000000  0.000000  1
  Sb  Sb1  1  0.661033  0.845474  0.503511  1
  Sb  Sb2  1  0.338967  0.154526  0.496489  1
  Sb  Sb3  1  0.844975  0.184495  0.341345  1
  Sb  Sb4  1  0.819761  0.661220  0.157296  1
  Sb  Sb5  1  0.845092  0.503505  0.661572  1
  Sb  Sb6  1  0.180239  0.338780  0.842704  1
  Sb  Sb7  1  0.155025  0.815505  0.658655  1
  Sb  Sb8  1  0.503324  0.657975  0.845387  1
  Sb  Sb9  1  0.496676  0.342025  0.154613  1
  Sb  Sb10  1  0.154908  0.496495  0.338428  1
  Sb  Sb11  1  0.337832  0.841382  0.183545  1
  Sb  Sb12  1  0.662168  0.158618  0.816455  1
  Ir  Ir13  1  0.500000  0.500000  0.500000  1
  Ir  Ir14  1  0.500000  0.000000  0.000000  1
  Os  Os15  1  0.000000  0.000000  0.500000  1
  Ru  Ru16  1  0.000000  0.500000  0.000000  1
