# generated using pymatgen
data_Pr12Ga(OsBr4)3
_symmetry_space_group_name_H-M   'P 1'
_cell_length_a   10.69439250
_cell_length_b   10.69439253
_cell_length_c   10.69439200
_cell_angle_alpha   110.03919814
_cell_angle_beta   110.03919819
_cell_angle_gamma   110.03919646
_symmetry_Int_Tables_number   1
_chemical_formula_structural   Pr12Ga(OsBr4)3
_chemical_formula_sum   'Pr12 Ga1 Os3 Br12'
_cell_volume   921.22531098
_cell_formula_units_Z   1
loop_
 _symmetry_equiv_pos_site_id
 _symmetry_equiv_pos_as_xyz
  1  'x, y, z'
loop_
 _atom_site_type_symbol
 _atom_site_label
 _atom_site_symmetry_multiplicity
 _atom_site_fract_x
 _atom_site_fract_y
 _atom_site_fract_z
 _atom_site_occupancy
  Pr  Pr0  1  0.470130  0.495516  0.229809  1
  Pr  Pr1  1  0.750000  0.233350  0.266650  1
  Pr  Pr2  1  0.750000  0.014745  0.485255  1
  Pr  Pr3  1  0.229809  0.470130  0.495516  1
  Pr  Pr4  1  0.266650  0.750000  0.233350  1
  Pr  Pr5  1  0.029870  0.270191  0.004484  1
  Pr  Pr6  1  0.004484  0.029870  0.270191  1
  Pr  Pr7  1  0.485255  0.750000  0.014745  1
  Pr  Pr8  1  0.495516  0.229809  0.470130  1
  Pr  Pr9  1  0.014745  0.485255  0.750000  1
  Pr  Pr10  1  0.270191  0.004484  0.029870  1
  Pr  Pr11  1  0.233350  0.266650  0.750000  1
  Ga  Ga12  1  0.250000  0.250000  0.250000  1
  Os  Os13  1  0.501309  0.998691  0.250000  1
  Os  Os14  1  0.998691  0.250000  0.501309  1
  Os  Os15  1  0.250000  0.501309  0.998691  1
  Br  Br16  1  0.250000  0.756266  0.743734  1
  Br  Br17  1  0.506289  0.500156  0.749698  1
  Br  Br18  1  0.993711  0.750302  0.999844  1
  Br  Br19  1  0.743734  0.250000  0.756266  1
  Br  Br20  1  0.999844  0.993711  0.750302  1
  Br  Br21  1  0.250000  0.000728  0.499272  1
  Br  Br22  1  0.749698  0.506289  0.500156  1
  Br  Br23  1  0.499272  0.250000  0.000728  1
  Br  Br24  1  0.756266  0.743734  0.250000  1
  Br  Br25  1  0.750302  0.999844  0.993711  1
  Br  Br26  1  0.000728  0.499272  0.250000  1
  Br  Br27  1  0.500156  0.749698  0.506289  1
