# generated using pymatgen
data_Nd3ThAlGa3Rh4
_symmetry_space_group_name_H-M   'P 1'
_cell_length_a   4.30846700
_cell_length_b   7.04862838
_cell_length_c   8.09488876
_cell_angle_alpha   90.27174172
_cell_angle_beta   90.00000000
_cell_angle_gamma   90.00000000
_symmetry_Int_Tables_number   1
_chemical_formula_structural   Nd3ThAlGa3Rh4
_chemical_formula_sum   'Nd3 Th1 Al1 Ga3 Rh4'
_cell_volume   245.82915313
_cell_formula_units_Z   1
loop_
 _symmetry_equiv_pos_site_id
 _symmetry_equiv_pos_as_xyz
  1  'x, y, z'
loop_
 _atom_site_type_symbol
 _atom_site_label
 _atom_site_symmetry_multiplicity
 _atom_site_fract_x
 _atom_site_fract_y
 _atom_site_fract_z
 _atom_site_occupancy
  Nd  Nd0  1  0.750000  0.458892  0.812062  1
  Nd  Nd1  1  0.750000  0.960673  0.680711  1
  Nd  Nd2  1  0.250000  0.039690  0.319969  1
  Th  Th3  1  0.250000  0.537981  0.180370  1
  Al  Al4  1  0.750000  0.873418  0.062177  1
  Ga  Ga5  1  0.250000  0.637025  0.564559  1
  Ga  Ga6  1  0.750000  0.357495  0.438824  1
  Ga  Ga7  1  0.250000  0.136684  0.935649  1
  Rh  Rh8  1  0.250000  0.762029  0.895015  1
  Rh  Rh9  1  0.750000  0.245584  0.122266  1
  Rh  Rh10  1  0.750000  0.727345  0.368890  1
  Rh  Rh11  1  0.250000  0.263185  0.619508  1
