# generated using pymatgen
data_La4Ga3Si7Ir6
_symmetry_space_group_name_H-M   'P 1'
_cell_length_a   8.39468130
_cell_length_b   8.58894684
_cell_length_c   8.39468200
_cell_angle_alpha   107.38368800
_cell_angle_beta   84.84643473
_cell_angle_gamma   140.03229304
_symmetry_Int_Tables_number   1
_chemical_formula_structural   La4Ga3Si7Ir6
_chemical_formula_sum   'La4 Ga3 Si7 Ir6'
_cell_volume   361.35392778
_cell_formula_units_Z   1
loop_
 _symmetry_equiv_pos_site_id
 _symmetry_equiv_pos_as_xyz
  1  'x, y, z'
loop_
 _atom_site_type_symbol
 _atom_site_label
 _atom_site_symmetry_multiplicity
 _atom_site_fract_x
 _atom_site_fract_y
 _atom_site_fract_z
 _atom_site_occupancy
  La  La0  1  0.874068  0.239097  0.097406  1
  La  La1  1  0.121786  0.757672  0.902555  1
  La  La2  1  0.644882  0.742327  0.364113  1
  La  La3  1  0.358308  0.260902  0.634971  1
  Ga  Ga4  1  0.024616  0.750000  0.274615  1
  Ga  Ga5  1  0.464495  0.750000  0.714494  1
  Ga  Ga6  1  0.975737  0.250001  0.725736  1
  Si  Si7  1  0.534432  0.250001  0.284431  1
  Si  Si8  1  0.762409  0.750000  0.012409  1
  Si  Si9  1  0.240242  0.250001  0.990241  1
  Si  Si10  1  0.598390  0.156399  0.755873  1
  Si  Si11  1  0.396702  0.840207  0.239937  1
  Si  Si12  1  0.899728  0.659792  0.556495  1
  Si  Si13  1  0.099475  0.343602  0.441991  1
  Ir  Ir14  1  0.739057  0.250001  0.489057  1
  Ir  Ir15  1  0.843907  0.867721  0.763101  1
  Ir  Ir16  1  0.171033  0.138996  0.241932  1
  Ir  Ir17  1  0.252425  0.750000  0.502423  1
  Ir  Ir18  1  0.602935  0.361003  0.032036  1
  Ir  Ir19  1  0.395379  0.632278  0.976186  1
