# generated using pymatgen
data_Ho2Er3CoBi2
_symmetry_space_group_name_H-M   'P 1'
_cell_length_a   7.93104800
_cell_length_b   8.88238800
_cell_length_c   12.36083700
_cell_angle_alpha   90.00000000
_cell_angle_beta   90.00000000
_cell_angle_gamma   90.00000000
_symmetry_Int_Tables_number   1
_chemical_formula_structural   Ho2Er3CoBi2
_chemical_formula_sum   'Ho8 Er12 Co4 Bi8'
_cell_volume   870.77950324
_cell_formula_units_Z   4
loop_
 _symmetry_equiv_pos_site_id
 _symmetry_equiv_pos_as_xyz
  1  'x, y, z'
loop_
 _atom_site_type_symbol
 _atom_site_label
 _atom_site_symmetry_multiplicity
 _atom_site_fract_x
 _atom_site_fract_y
 _atom_site_fract_z
 _atom_site_occupancy
  Ho  Ho0  1  0.885212  0.750000  0.811039  1
  Ho  Ho1  1  0.114788  0.250000  0.188961  1
  Ho  Ho2  1  0.385212  0.250000  0.688961  1
  Ho  Ho3  1  0.614788  0.750000  0.311039  1
  Ho  Ho4  1  0.053266  0.750000  0.498079  1
  Ho  Ho5  1  0.946734  0.250000  0.501921  1
  Ho  Ho6  1  0.553266  0.250000  0.001921  1
  Ho  Ho7  1  0.446734  0.750000  0.998079  1
  Er  Er8  1  0.346584  0.750000  0.699877  1
  Er  Er9  1  0.653416  0.250000  0.300123  1
  Er  Er10  1  0.846584  0.250000  0.800123  1
  Er  Er11  1  0.153416  0.750000  0.199877  1
  Er  Er12  1  0.674942  0.538458  0.563178  1
  Er  Er13  1  0.325058  0.461542  0.436822  1
  Er  Er14  1  0.174942  0.461542  0.936822  1
  Er  Er15  1  0.325058  0.038458  0.436822  1
  Er  Er16  1  0.825058  0.538458  0.063178  1
  Er  Er17  1  0.674942  0.961542  0.563178  1
  Er  Er18  1  0.825058  0.961542  0.063178  1
  Er  Er19  1  0.174942  0.038458  0.936822  1
  Co  Co20  1  0.066463  0.750000  0.992107  1
  Co  Co21  1  0.933537  0.250000  0.007893  1
  Co  Co22  1  0.566463  0.250000  0.507893  1
  Co  Co23  1  0.433537  0.750000  0.492107  1
  Bi  Bi24  1  0.571449  0.509920  0.826381  1
  Bi  Bi25  1  0.428551  0.490080  0.173619  1
  Bi  Bi26  1  0.071449  0.490080  0.673619  1
  Bi  Bi27  1  0.428551  0.009920  0.173619  1
  Bi  Bi28  1  0.928551  0.509920  0.326381  1
  Bi  Bi29  1  0.571449  0.990080  0.826381  1
  Bi  Bi30  1  0.928551  0.990080  0.326381  1
  Bi  Bi31  1  0.071449  0.009920  0.673619  1
