# generated using pymatgen
data_PrNd5(ScAu5)2
_symmetry_space_group_name_H-M   'P 1'
_cell_length_a   8.12791021
_cell_length_b   8.12919484
_cell_length_c   8.12470902
_cell_angle_alpha   66.09916685
_cell_angle_beta   66.10049049
_cell_angle_gamma   66.06047840
_symmetry_Int_Tables_number   1
_chemical_formula_structural   PrNd5(ScAu5)2
_chemical_formula_sum   'Pr1 Nd5 Sc2 Au10'
_cell_volume   429.55327472
_cell_formula_units_Z   1
loop_
 _symmetry_equiv_pos_site_id
 _symmetry_equiv_pos_as_xyz
  1  'x, y, z'
loop_
 _atom_site_type_symbol
 _atom_site_label
 _atom_site_symmetry_multiplicity
 _atom_site_fract_x
 _atom_site_fract_y
 _atom_site_fract_z
 _atom_site_occupancy
  Pr  Pr0  1  0.892332  0.187078  0.620859  1
  Nd  Nd1  1  0.620761  0.892223  0.187368  1
  Nd  Nd2  1  0.187322  0.620794  0.892321  1
  Nd  Nd3  1  0.107760  0.812562  0.379044  1
  Nd  Nd4  1  0.378975  0.107662  0.812806  1
  Nd  Nd5  1  0.812703  0.379206  0.107679  1
  Sc  Sc6  1  0.656574  0.656870  0.656661  1
  Sc  Sc7  1  0.343453  0.343354  0.343187  1
  Au  Au8  1  0.000171  0.999715  0.000574  1
  Au  Au9  1  0.499758  0.500273  0.499887  1
  Au  Au10  1  0.801160  0.800823  0.801629  1
  Au  Au11  1  0.198936  0.198622  0.198342  1
  Au  Au12  1  0.939926  0.548830  0.323273  1
  Au  Au13  1  0.324314  0.939532  0.548066  1
  Au  Au14  1  0.547695  0.324042  0.940274  1
  Au  Au15  1  0.060384  0.452122  0.676194  1
  Au  Au16  1  0.675975  0.060081  0.451650  1
  Au  Au17  1  0.451800  0.676211  0.060188  1
