# generated using pymatgen
data_La6Tb3Ho7(CdIr)4
_symmetry_space_group_name_H-M   'P 1'
_cell_length_a   9.79535385
_cell_length_b   9.79657295
_cell_length_c   9.79657300
_cell_angle_alpha   59.99999645
_cell_angle_beta   59.99587936
_cell_angle_gamma   59.99587844
_symmetry_Int_Tables_number   1
_chemical_formula_structural   La6Tb3Ho7(CdIr)4
_chemical_formula_sum   'La6 Tb3 Ho7 Cd4 Ir4'
_cell_volume   664.70113469
_cell_formula_units_Z   1
loop_
 _symmetry_equiv_pos_site_id
 _symmetry_equiv_pos_as_xyz
  1  'x, y, z'
loop_
 _atom_site_type_symbol
 _atom_site_label
 _atom_site_symmetry_multiplicity
 _atom_site_fract_x
 _atom_site_fract_y
 _atom_site_fract_z
 _atom_site_occupancy
  La  La0  1  0.192860  0.807107  0.807107  1
  La  La1  1  0.807328  0.192735  0.192735  1
  La  La2  1  0.807328  0.192735  0.807201  1
  La  La3  1  0.192860  0.807107  0.192927  1
  La  La4  1  0.807328  0.807201  0.192735  1
  La  La5  1  0.192860  0.192927  0.807107  1
  Tb  Tb6  1  0.596540  0.596748  0.596748  1
  Tb  Tb7  1  0.596540  0.596748  0.209964  1
  Tb  Tb8  1  0.596540  0.209964  0.596748  1
  Ho  Ho9  1  0.211022  0.596326  0.596326  1
  Ho  Ho10  1  0.064078  0.436068  0.436068  1
  Ho  Ho11  1  0.435947  0.064031  0.064031  1
  Ho  Ho12  1  0.435947  0.064031  0.435991  1
  Ho  Ho13  1  0.064078  0.436068  0.063787  1
  Ho  Ho14  1  0.435947  0.435991  0.064031  1
  Ho  Ho15  1  0.064078  0.063787  0.436068  1
  Cd  Cd16  1  0.828917  0.828665  0.828665  1
  Cd  Cd17  1  0.828917  0.828665  0.513752  1
  Cd  Cd18  1  0.828917  0.513752  0.828665  1
  Cd  Cd19  1  0.513652  0.828782  0.828782  1
  Ir  Ir20  1  0.390271  0.391311  0.391311  1
  Ir  Ir21  1  0.390271  0.391311  0.827107  1
  Ir  Ir22  1  0.390271  0.827107  0.391311  1
  Ir  Ir23  1  0.827500  0.390833  0.390833  1
