# generated using pymatgen
data_TlAg2Ir4PbO14
_symmetry_space_group_name_H-M   'P 1'
_cell_length_a   7.28876580
_cell_length_b   7.26983356
_cell_length_c   7.28278100
_cell_angle_alpha   59.94107265
_cell_angle_beta   60.02716259
_cell_angle_gamma   60.38432005
_symmetry_Int_Tables_number   1
_chemical_formula_structural   TlAg2Ir4PbO14
_chemical_formula_sum   'Tl1 Ag2 Ir4 Pb1 O14'
_cell_volume   273.59041102
_cell_formula_units_Z   1
loop_
 _symmetry_equiv_pos_site_id
 _symmetry_equiv_pos_as_xyz
  1  'x, y, z'
loop_
 _atom_site_type_symbol
 _atom_site_label
 _atom_site_symmetry_multiplicity
 _atom_site_fract_x
 _atom_site_fract_y
 _atom_site_fract_z
 _atom_site_occupancy
  Tl  Tl0  1  0.125000  0.625000  0.125000  1
  Ag  Ag1  1  0.125000  0.125000  0.625000  1
  Ag  Ag2  1  0.125000  0.125000  0.125000  1
  Ir  Ir3  1  0.125000  0.625000  0.625000  1
  Ir  Ir4  1  0.625000  0.125000  0.625000  1
  Ir  Ir5  1  0.625000  0.625000  0.125000  1
  Ir  Ir6  1  0.625000  0.625000  0.625000  1
  Pb  Pb7  1  0.625000  0.125000  0.125000  1
  O  O8  1  0.703646  0.708102  0.294126  1
  O  O9  1  0.308185  0.306459  0.692679  1
  O  O10  1  0.692482  0.300923  0.707806  1
  O  O11  1  0.303176  0.691215  0.299555  1
  O  O12  1  0.303176  0.691215  0.706055  1
  O  O13  1  0.692482  0.300923  0.298790  1
  O  O14  1  0.546354  0.541898  0.955874  1
  O  O15  1  0.941815  0.943541  0.557321  1
  O  O16  1  0.557518  0.949077  0.542194  1
  O  O17  1  0.946824  0.558785  0.950445  1
  O  O18  1  0.946824  0.558785  0.543945  1
  O  O19  1  0.557518  0.949077  0.951210  1
  O  O20  1  0.232380  0.235907  0.265856  1
  O  O21  1  0.017620  0.014093  0.984144  1
