# generated using pymatgen
data_La4Al13Au9
_symmetry_space_group_name_H-M   'P 1'
_cell_length_a   11.81767600
_cell_length_b   11.81767495
_cell_length_c   4.30473100
_cell_angle_alpha   90.00000000
_cell_angle_beta   90.00000000
_cell_angle_gamma   119.99999733
_symmetry_Int_Tables_number   1
_chemical_formula_structural   La4Al13Au9
_chemical_formula_sum   'La4 Al13 Au9'
_cell_volume   520.64389552
_cell_formula_units_Z   1
loop_
 _symmetry_equiv_pos_site_id
 _symmetry_equiv_pos_as_xyz
  1  'x, y, z'
loop_
 _atom_site_type_symbol
 _atom_site_label
 _atom_site_symmetry_multiplicity
 _atom_site_fract_x
 _atom_site_fract_y
 _atom_site_fract_z
 _atom_site_occupancy
  La  La0  1  0.204573  0.795427  0.500000  1
  La  La1  1  0.590854  0.795427  0.500000  1
  La  La2  1  0.204573  0.409146  0.500000  1
  La  La3  1  0.666667  0.333333  0.000000  1
  Al  Al4  1  0.947528  0.291214  0.000000  1
  Al  Al5  1  0.708786  0.656314  0.000000  1
  Al  Al6  1  0.947528  0.656314  0.000000  1
  Al  Al7  1  0.343686  0.052472  0.000000  1
  Al  Al8  1  0.165681  0.082840  0.500000  1
  Al  Al9  1  0.917160  0.834319  0.500000  1
  Al  Al10  1  0.708786  0.052472  0.000000  1
  Al  Al11  1  0.531816  0.063630  0.500000  1
  Al  Al12  1  0.917160  0.082840  0.500000  1
  Al  Al13  1  0.343686  0.291214  0.000000  1
  Al  Al14  1  0.531816  0.468184  0.500000  1
  Al  Al15  1  0.936370  0.468184  0.500000  1
  Al  Al16  1  0.333333  0.666667  0.000000  1
  Au  Au17  1  0.458060  0.541940  0.000000  1
  Au  Au18  1  0.828539  0.914270  0.000000  1
  Au  Au19  1  0.458060  0.916118  0.000000  1
  Au  Au20  1  0.085730  0.171461  0.000000  1
  Au  Au21  1  0.085730  0.914270  0.000000  1
  Au  Au22  1  0.790131  0.580261  0.500000  1
  Au  Au23  1  0.083882  0.541940  0.000000  1
  Au  Au24  1  0.790131  0.209869  0.500000  1
  Au  Au25  1  0.419739  0.209869  0.500000  1
