# generated using pymatgen
data_K3Li2SiAs3
_symmetry_space_group_name_H-M   'P 1'
_cell_length_a   9.99870344
_cell_length_b   9.99870452
_cell_length_c   15.06348600
_cell_angle_alpha   90.00000000
_cell_angle_beta   90.00000000
_cell_angle_gamma   143.14019230
_symmetry_Int_Tables_number   1
_chemical_formula_structural   K3Li2SiAs3
_chemical_formula_sum   'K12 Li8 Si4 As12'
_cell_volume   903.36272805
_cell_formula_units_Z   4
loop_
 _symmetry_equiv_pos_site_id
 _symmetry_equiv_pos_as_xyz
  1  'x, y, z'
loop_
 _atom_site_type_symbol
 _atom_site_label
 _atom_site_symmetry_multiplicity
 _atom_site_fract_x
 _atom_site_fract_y
 _atom_site_fract_z
 _atom_site_occupancy
  K  K0  1  0.604580  0.942309  0.830620  1
  K  K1  1  0.277068  0.277068  0.324493  1
  K  K2  1  0.222932  0.222932  0.824493  1
  K  K3  1  0.722932  0.722932  0.675507  1
  K  K4  1  0.442309  0.104580  0.669380  1
  K  K5  1  0.895420  0.557691  0.330620  1
  K  K6  1  0.057691  0.395420  0.169380  1
  K  K7  1  0.395420  0.057691  0.169380  1
  K  K8  1  0.557691  0.895420  0.330620  1
  K  K9  1  0.104580  0.442309  0.669380  1
  K  K10  1  0.942309  0.604580  0.830620  1
  K  K11  1  0.777068  0.777068  0.175507  1
  Li  Li12  1  0.081470  0.918530  0.000000  1
  Li  Li13  1  0.581470  0.418530  0.500000  1
  Li  Li14  1  0.918530  0.081470  0.000000  1
  Li  Li15  1  0.752003  0.247997  0.000000  1
  Li  Li16  1  0.747997  0.252003  0.500000  1
  Li  Li17  1  0.247997  0.752003  0.000000  1
  Li  Li18  1  0.252003  0.747997  0.500000  1
  Li  Li19  1  0.418530  0.581470  0.500000  1
  Si  Si20  1  0.088134  0.911866  0.500000  1
  Si  Si21  1  0.411866  0.588134  0.000000  1
  Si  Si22  1  0.911866  0.088134  0.500000  1
  Si  Si23  1  0.588134  0.411866  0.000000  1
  As  As24  1  0.063445  0.381820  0.407179  1
  As  As25  1  0.881820  0.563445  0.092821  1
  As  As26  1  0.436555  0.118180  0.907179  1
  As  As27  1  0.618180  0.936555  0.592821  1
  As  As28  1  0.936555  0.618180  0.592821  1
  As  As29  1  0.118180  0.436555  0.907179  1
  As  As30  1  0.563445  0.881820  0.092821  1
  As  As31  1  0.381820  0.063445  0.407179  1
  As  As32  1  0.205285  0.205285  0.585070  1
  As  As33  1  0.705285  0.705285  0.914930  1
  As  As34  1  0.294715  0.294715  0.085070  1
  As  As35  1  0.794715  0.794715  0.414930  1
