# generated using pymatgen
data_SmZnCdAg3
_symmetry_space_group_name_H-M   'P 1'
_cell_length_a   5.64337558
_cell_length_b   5.64337468
_cell_length_c   5.48594770
_cell_angle_alpha   59.04608809
_cell_angle_beta   59.04609021
_cell_angle_gamma   59.99999399
_symmetry_Int_Tables_number   1
_chemical_formula_structural   SmZnCdAg3
_chemical_formula_sum   'Sm1 Zn1 Cd1 Ag3'
_cell_volume   121.73061767
_cell_formula_units_Z   1
loop_
 _symmetry_equiv_pos_site_id
 _symmetry_equiv_pos_as_xyz
  1  'x, y, z'
loop_
 _atom_site_type_symbol
 _atom_site_label
 _atom_site_symmetry_multiplicity
 _atom_site_fract_x
 _atom_site_fract_y
 _atom_site_fract_z
 _atom_site_occupancy
  Sm  Sm0  1  0.750141  0.750141  0.749578  1
  Zn  Zn1  1  0.373868  0.373868  0.878395  1
  Cd  Cd2  1  0.002421  0.002421  0.992737  1
  Ag  Ag3  1  0.373740  0.876091  0.376429  1
  Ag  Ag4  1  0.373740  0.373740  0.376429  1
  Ag  Ag5  1  0.876091  0.373740  0.376429  1
