# generated using pymatgen
data_Y16Cd4IrPt2Rh
_symmetry_space_group_name_H-M   'P 1'
_cell_length_a   9.71078086
_cell_length_b   9.69644203
_cell_length_c   9.69249500
_cell_angle_alpha   60.01346794
_cell_angle_beta   60.06227460
_cell_angle_gamma   60.14107718
_symmetry_Int_Tables_number   1
_chemical_formula_structural   Y16Cd4IrPt2Rh
_chemical_formula_sum   'Y16 Cd4 Ir1 Pt2 Rh1'
_cell_volume   646.39321172
_cell_formula_units_Z   1
loop_
 _symmetry_equiv_pos_site_id
 _symmetry_equiv_pos_as_xyz
  1  'x, y, z'
loop_
 _atom_site_type_symbol
 _atom_site_label
 _atom_site_symmetry_multiplicity
 _atom_site_fract_x
 _atom_site_fract_y
 _atom_site_fract_z
 _atom_site_occupancy
  Y  Y0  1  0.350957  0.350499  0.346570  1
  Y  Y1  1  0.350957  0.350499  0.951974  1
  Y  Y2  1  0.355924  0.944153  0.349961  1
  Y  Y3  1  0.943541  0.355959  0.350249  1
  Y  Y4  1  0.806476  0.190152  0.190957  1
  Y  Y5  1  0.190469  0.806781  0.812143  1
  Y  Y6  1  0.190469  0.806781  0.190607  1
  Y  Y7  1  0.806476  0.190152  0.812416  1
  Y  Y8  1  0.191973  0.191145  0.808441  1
  Y  Y9  1  0.810706  0.811468  0.188913  1
  Y  Y10  1  0.936795  0.564757  0.563398  1
  Y  Y11  1  0.564863  0.937437  0.936090  1
  Y  Y12  1  0.564863  0.937437  0.561610  1
  Y  Y13  1  0.936795  0.564757  0.935050  1
  Y  Y14  1  0.565473  0.563585  0.935471  1
  Y  Y15  1  0.937082  0.937044  0.562937  1
  Cd  Cd16  1  0.581068  0.580876  0.582083  1
  Cd  Cd17  1  0.581068  0.580876  0.255976  1
  Cd  Cd18  1  0.580568  0.256267  0.581583  1
  Cd  Cd19  1  0.256111  0.580431  0.581729  1
  Ir  Ir20  1  0.572819  0.141129  0.143026  1
  Pt  Pt21  1  0.141715  0.142312  0.144859  1
  Pt  Pt22  1  0.141715  0.142312  0.571114  1
  Rh  Rh23  1  0.141122  0.573196  0.142841  1
