# generated using pymatgen
data_Lu2ZrRuF14
_symmetry_space_group_name_H-M   'P 1'
_cell_length_a   5.53850957
_cell_length_b   8.83354548
_cell_length_c   11.91462850
_cell_angle_alpha   63.25679815
_cell_angle_beta   89.97054999
_cell_angle_gamma   90.16648587
_symmetry_Int_Tables_number   1
_chemical_formula_structural   Lu2ZrRuF14
_chemical_formula_sum   'Lu4 Zr2 Ru2 F28'
_cell_volume   520.56254337
_cell_formula_units_Z   2
loop_
 _symmetry_equiv_pos_site_id
 _symmetry_equiv_pos_as_xyz
  1  'x, y, z'
loop_
 _atom_site_type_symbol
 _atom_site_label
 _atom_site_symmetry_multiplicity
 _atom_site_fract_x
 _atom_site_fract_y
 _atom_site_fract_z
 _atom_site_occupancy
  Lu  Lu0  1  0.256324  0.817689  0.269246  1
  Lu  Lu1  1  0.743676  0.182311  0.730754  1
  Lu  Lu2  1  0.758255  0.185090  0.237795  1
  Lu  Lu3  1  0.241745  0.814910  0.762205  1
  Zr  Zr4  1  0.755495  0.726249  0.044559  1
  Zr  Zr5  1  0.244505  0.273751  0.955441  1
  Ru  Ru6  1  0.257859  0.272384  0.457067  1
  Ru  Ru7  1  0.742141  0.727616  0.542933  1
  F  F8  1  0.948448  0.708590  0.415681  1
  F  F9  1  0.051552  0.291410  0.584319  1
  F  F10  1  0.456627  0.292291  0.087186  1
  F  F11  1  0.543373  0.707709  0.912814  1
  F  F12  1  0.467236  0.728237  0.150517  1
  F  F13  1  0.532764  0.271763  0.849483  1
  F  F14  1  0.970591  0.266155  0.361686  1
  F  F15  1  0.029409  0.733845  0.638314  1
  F  F16  1  0.963684  0.747084  0.179150  1
  F  F17  1  0.036316  0.252916  0.820850  1
  F  F18  1  0.460391  0.249757  0.328138  1
  F  F19  1  0.539609  0.750243  0.671862  1
  F  F20  1  0.779914  0.469790  0.145044  1
  F  F21  1  0.220086  0.530210  0.854956  1
  F  F22  1  0.269494  0.512997  0.362644  1
  F  F23  1  0.730506  0.487003  0.637356  1
  F  F24  1  0.934844  0.272557  0.051373  1
  F  F25  1  0.065156  0.727443  0.948627  1
  F  F26  1  0.446222  0.722457  0.450719  1
  F  F27  1  0.553778  0.277543  0.549281  1
  F  F28  1  0.742537  0.968728  0.450186  1
  F  F29  1  0.257463  0.031272  0.549814  1
  F  F30  1  0.240931  0.018336  0.059780  1
  F  F31  1  0.759069  0.981664  0.940220  1
  F  F32  1  0.576141  0.974881  0.234207  1
  F  F33  1  0.423859  0.025119  0.765793  1
  F  F34  1  0.075658  0.029247  0.268429  1
  F  F35  1  0.924342  0.970753  0.731571  1
