# generated using pymatgen
data_Ho9Er(GePb3)2
_symmetry_space_group_name_H-M   'P 1'
_cell_length_a   9.28883000
_cell_length_b   9.28883035
_cell_length_c   6.53789800
_cell_angle_alpha   90.00000000
_cell_angle_beta   90.00000000
_cell_angle_gamma   120.00001300
_symmetry_Int_Tables_number   1
_chemical_formula_structural   Ho9Er(GePb3)2
_chemical_formula_sum   'Ho9 Er1 Ge2 Pb6'
_cell_volume   488.52946330
_cell_formula_units_Z   1
loop_
 _symmetry_equiv_pos_site_id
 _symmetry_equiv_pos_as_xyz
  1  'x, y, z'
loop_
 _atom_site_type_symbol
 _atom_site_label
 _atom_site_symmetry_multiplicity
 _atom_site_fract_x
 _atom_site_fract_y
 _atom_site_fract_z
 _atom_site_occupancy
  Ho  Ho0  1  0.251611  0.999949  0.249409  1
  Ho  Ho1  1  0.748338  0.999949  0.750591  1
  Ho  Ho2  1  0.000051  0.251662  0.249409  1
  Ho  Ho3  1  0.000051  0.748389  0.750591  1
  Ho  Ho4  1  0.748338  0.748389  0.249409  1
  Ho  Ho5  1  0.251611  0.251662  0.750591  1
  Ho  Ho6  1  0.333333  0.666667  0.000000  1
  Ho  Ho7  1  0.666667  0.333333  0.000000  1
  Ho  Ho8  1  0.666667  0.333333  0.500000  1
  Er  Er9  1  0.333333  0.666667  0.500000  1
  Ge  Ge10  1  0.000000  0.000000  0.000000  1
  Ge  Ge11  1  0.000000  0.000000  0.500000  1
  Pb  Pb12  1  0.606990  0.999793  0.249930  1
  Pb  Pb13  1  0.392803  0.999793  0.750070  1
  Pb  Pb14  1  0.000207  0.607197  0.249930  1
  Pb  Pb15  1  0.000207  0.393010  0.750070  1
  Pb  Pb16  1  0.392803  0.393010  0.249930  1
  Pb  Pb17  1  0.606990  0.607197  0.750070  1
