# generated using pymatgen
data_Zr6Zn20SiPdPt2
_symmetry_space_group_name_H-M   'P 1'
_cell_length_a   8.81105487
_cell_length_b   8.81105422
_cell_length_c   8.79927700
_cell_angle_alpha   60.04421716
_cell_angle_beta   60.04421961
_cell_angle_gamma   59.91158053
_symmetry_Int_Tables_number   1
_chemical_formula_structural   Zr6Zn20SiPdPt2
_chemical_formula_sum   'Zr6 Zn20 Si1 Pd1 Pt2'
_cell_volume   483.04353934
_cell_formula_units_Z   1
loop_
 _symmetry_equiv_pos_site_id
 _symmetry_equiv_pos_as_xyz
  1  'x, y, z'
loop_
 _atom_site_type_symbol
 _atom_site_label
 _atom_site_symmetry_multiplicity
 _atom_site_fract_x
 _atom_site_fract_y
 _atom_site_fract_z
 _atom_site_occupancy
  Zr  Zr0  1  0.707807  0.292193  0.292193  1
  Zr  Zr1  1  0.292193  0.707807  0.707807  1
  Zr  Zr2  1  0.292193  0.707807  0.292193  1
  Zr  Zr3  1  0.707807  0.292193  0.707807  1
  Zr  Zr4  1  0.287241  0.287241  0.712759  1
  Zr  Zr5  1  0.712759  0.712759  0.287241  1
  Zn  Zn6  1  0.120169  0.120169  0.126471  1
  Zn  Zn7  1  0.879831  0.879831  0.873529  1
  Zn  Zn8  1  0.120169  0.120169  0.633191  1
  Zn  Zn9  1  0.126471  0.633191  0.120169  1
  Zn  Zn10  1  0.879831  0.879831  0.366809  1
  Zn  Zn11  1  0.873529  0.366809  0.879831  1
  Zn  Zn12  1  0.633191  0.126471  0.120169  1
  Zn  Zn13  1  0.366809  0.873529  0.879831  1
  Zn  Zn14  1  0.500000  0.000000  0.000000  1
  Zn  Zn15  1  0.000000  0.500000  0.500000  1
  Zn  Zn16  1  0.000000  0.500000  0.000000  1
  Zn  Zn17  1  0.500000  0.000000  0.500000  1
  Zn  Zn18  1  0.336185  0.336185  0.338828  1
  Zn  Zn19  1  0.663815  0.663815  0.661172  1
  Zn  Zn20  1  0.336185  0.336185  0.988803  1
  Zn  Zn21  1  0.338828  0.988803  0.336185  1
  Zn  Zn22  1  0.663815  0.663815  0.011197  1
  Zn  Zn23  1  0.661172  0.011197  0.663815  1
  Zn  Zn24  1  0.988803  0.338828  0.336185  1
  Zn  Zn25  1  0.011197  0.661172  0.663815  1
  Si  Si26  1  0.500000  0.500000  0.500000  1
  Pd  Pd27  1  0.000000  0.000000  0.000000  1
  Pt  Pt28  1  0.000000  0.000000  0.500000  1
  Pt  Pt29  1  0.500000  0.500000  0.000000  1
