# generated using pymatgen
data_La4CuNi3Hg2
_symmetry_space_group_name_H-M   'P 1'
_cell_length_a   7.69358161
_cell_length_b   7.69358161
_cell_length_c   3.84663300
_cell_angle_alpha   90.00000000
_cell_angle_beta   90.00000000
_cell_angle_gamma   90.09437116
_symmetry_Int_Tables_number   1
_chemical_formula_structural   La4CuNi3Hg2
_chemical_formula_sum   'La4 Cu1 Ni3 Hg2'
_cell_volume   227.68650659
_cell_formula_units_Z   1
loop_
 _symmetry_equiv_pos_site_id
 _symmetry_equiv_pos_as_xyz
  1  'x, y, z'
loop_
 _atom_site_type_symbol
 _atom_site_label
 _atom_site_symmetry_multiplicity
 _atom_site_fract_x
 _atom_site_fract_y
 _atom_site_fract_z
 _atom_site_occupancy
  La  La0  1  0.310649  0.176275  0.500001  1
  La  La1  1  0.831972  0.331972  0.500001  1
  La  La2  1  0.180820  0.680820  0.500001  1
  La  La3  1  0.676275  0.810649  0.500001  1
  Cu  Cu4  1  0.614905  0.114905  0.000000  1
  Ni  Ni5  1  0.118675  0.386845  0.000000  1
  Ni  Ni6  1  0.886845  0.618675  0.000000  1
  Ni  Ni7  1  0.384789  0.884789  0.000000  1
  Hg  Hg8  1  0.996014  0.999055  0.000000  1
  Hg  Hg9  1  0.499055  0.496014  0.000000  1
