# generated using pymatgen
data_HfFeCo4P3
_symmetry_space_group_name_H-M   'P 1'
_cell_length_a   3.59845100
_cell_length_b   10.09223200
_cell_length_c   11.64778700
_cell_angle_alpha   90.00000000
_cell_angle_beta   90.00000000
_cell_angle_gamma   90.00000000
_symmetry_Int_Tables_number   1
_chemical_formula_structural   HfFeCo4P3
_chemical_formula_sum   'Hf4 Fe4 Co16 P12'
_cell_volume   423.00571898
_cell_formula_units_Z   4
loop_
 _symmetry_equiv_pos_site_id
 _symmetry_equiv_pos_as_xyz
  1  'x, y, z'
loop_
 _atom_site_type_symbol
 _atom_site_label
 _atom_site_symmetry_multiplicity
 _atom_site_fract_x
 _atom_site_fract_y
 _atom_site_fract_z
 _atom_site_occupancy
  Hf  Hf0  1  0.250000  0.580096  0.704175  1
  Hf  Hf1  1  0.250000  0.919904  0.204175  1
  Hf  Hf2  1  0.750000  0.419904  0.295825  1
  Hf  Hf3  1  0.750000  0.080096  0.795825  1
  Fe  Fe4  1  0.250000  0.712453  0.988167  1
  Fe  Fe5  1  0.250000  0.787547  0.488167  1
  Fe  Fe6  1  0.750000  0.287547  0.011833  1
  Fe  Fe7  1  0.750000  0.212453  0.511833  1
  Co  Co8  1  0.250000  0.408264  0.484100  1
  Co  Co9  1  0.250000  0.091736  0.984100  1
  Co  Co10  1  0.750000  0.591736  0.515900  1
  Co  Co11  1  0.750000  0.908264  0.015900  1
  Co  Co12  1  0.250000  0.223664  0.177876  1
  Co  Co13  1  0.250000  0.276337  0.677876  1
  Co  Co14  1  0.750000  0.776337  0.822124  1
  Co  Co15  1  0.750000  0.723663  0.322124  1
  Co  Co16  1  0.250000  0.883047  0.701074  1
  Co  Co17  1  0.250000  0.616953  0.201074  1
  Co  Co18  1  0.750000  0.116953  0.298926  1
  Co  Co19  1  0.750000  0.383047  0.798926  1
  Co  Co20  1  0.250000  0.465241  0.931549  1
  Co  Co21  1  0.250000  0.034759  0.431549  1
  Co  Co22  1  0.750000  0.534759  0.068451  1
  Co  Co23  1  0.750000  0.965241  0.568451  1
  P  P24  1  0.250000  0.420395  0.115912  1
  P  P25  1  0.250000  0.079605  0.615912  1
  P  P26  1  0.750000  0.579605  0.884088  1
  P  P27  1  0.750000  0.920395  0.384088  1
  P  P28  1  0.250000  0.264298  0.867148  1
  P  P29  1  0.250000  0.235702  0.367148  1
  P  P30  1  0.750000  0.735702  0.132852  1
  P  P31  1  0.750000  0.764298  0.632852  1
  P  P32  1  0.250000  0.599625  0.390014  1
  P  P33  1  0.250000  0.900375  0.890014  1
  P  P34  1  0.750000  0.400375  0.609986  1
  P  P35  1  0.750000  0.099625  0.109986  1
