# generated using pymatgen
data_NdLu15
_symmetry_space_group_name_H-M   'P 1'
_cell_length_a   7.09652300
_cell_length_b   7.09652258
_cell_length_c   10.96094100
_cell_angle_alpha   90.00000000
_cell_angle_beta   90.00000000
_cell_angle_gamma   119.99999730
_symmetry_Int_Tables_number   1
_chemical_formula_structural   NdLu15
_chemical_formula_sum   'Nd1 Lu15'
_cell_volume   478.04599842
_cell_formula_units_Z   1
loop_
 _symmetry_equiv_pos_site_id
 _symmetry_equiv_pos_as_xyz
  1  'x, y, z'
loop_
 _atom_site_type_symbol
 _atom_site_label
 _atom_site_symmetry_multiplicity
 _atom_site_fract_x
 _atom_site_fract_y
 _atom_site_fract_z
 _atom_site_occupancy
  Nd  Nd0  1  0.000000  0.000000  0.500000  1
  Lu  Lu1  1  0.000000  0.000000  0.000000  1
  Lu  Lu2  1  0.002089  0.501044  0.500000  1
  Lu  Lu3  1  0.999792  0.499895  0.000000  1
  Lu  Lu4  1  0.498956  0.501044  0.500000  1
  Lu  Lu5  1  0.500105  0.499895  0.000000  1
  Lu  Lu6  1  0.498956  0.997911  0.500000  1
  Lu  Lu7  1  0.500105  0.000208  0.000000  1
  Lu  Lu8  1  0.167592  0.335184  0.247956  1
  Lu  Lu9  1  0.167592  0.335184  0.752044  1
  Lu  Lu10  1  0.167592  0.832408  0.247956  1
  Lu  Lu11  1  0.167592  0.832408  0.752044  1
  Lu  Lu12  1  0.664816  0.832408  0.247956  1
  Lu  Lu13  1  0.664816  0.832408  0.752044  1
  Lu  Lu14  1  0.666667  0.333333  0.250924  1
  Lu  Lu15  1  0.666667  0.333333  0.749076  1
