# generated using pymatgen
data_Ac(AuF4)3
_symmetry_space_group_name_H-M   'P 1'
_cell_length_a   8.49426840
_cell_length_b   8.49426921
_cell_length_c   8.49426985
_cell_angle_alpha   80.00774450
_cell_angle_beta   80.00774346
_cell_angle_gamma   80.00774571
_symmetry_Int_Tables_number   1
_chemical_formula_structural   Ac(AuF4)3
_chemical_formula_sum   'Ac2 Au6 F24'
_cell_volume   587.89755182
_cell_formula_units_Z   2
loop_
 _symmetry_equiv_pos_site_id
 _symmetry_equiv_pos_as_xyz
  1  'x, y, z'
loop_
 _atom_site_type_symbol
 _atom_site_label
 _atom_site_symmetry_multiplicity
 _atom_site_fract_x
 _atom_site_fract_y
 _atom_site_fract_z
 _atom_site_occupancy
  Ac  Ac0  1  0.250000  0.250000  0.250000  1
  Ac  Ac1  1  0.750000  0.750000  0.750000  1
  Au  Au2  1  0.161589  0.338411  0.750000  1
  Au  Au3  1  0.250000  0.838411  0.661589  1
  Au  Au4  1  0.661589  0.250000  0.838411  1
  Au  Au5  1  0.838411  0.661589  0.250000  1
  Au  Au6  1  0.338411  0.750000  0.161589  1
  Au  Au7  1  0.750000  0.161589  0.338411  1
  F  F8  1  0.512436  0.194930  0.373507  1
  F  F9  1  0.373507  0.512436  0.194930  1
  F  F10  1  0.194930  0.373507  0.512436  1
  F  F11  1  0.987564  0.126493  0.305070  1
  F  F12  1  0.305070  0.987564  0.126493  1
  F  F13  1  0.126493  0.305070  0.987564  1
  F  F14  1  0.487564  0.805070  0.626493  1
  F  F15  1  0.626493  0.487564  0.805070  1
  F  F16  1  0.019981  0.480019  0.250000  1
  F  F17  1  0.480019  0.250000  0.019981  1
  F  F18  1  0.250000  0.019981  0.480019  1
  F  F19  1  0.980019  0.519981  0.750000  1
  F  F20  1  0.519981  0.750000  0.980019  1
  F  F21  1  0.750000  0.980019  0.519981  1
  F  F22  1  0.660889  0.839111  0.250000  1
  F  F23  1  0.839111  0.250000  0.660889  1
  F  F24  1  0.250000  0.660889  0.839111  1
  F  F25  1  0.339111  0.160889  0.750000  1
  F  F26  1  0.160889  0.750000  0.339111  1
  F  F27  1  0.750000  0.339111  0.160889  1
  F  F28  1  0.873507  0.694930  0.012436  1
  F  F29  1  0.694930  0.012436  0.873507  1
  F  F30  1  0.012436  0.873507  0.694930  1
  F  F31  1  0.805070  0.626493  0.487564  1
