# generated using pymatgen
data_Zr11Sc(AlIr2)4
_symmetry_space_group_name_H-M   'P 1'
_cell_length_a   8.56061633
_cell_length_b   8.56058487
_cell_length_c   8.57500500
_cell_angle_alpha   59.94425833
_cell_angle_beta   59.94434926
_cell_angle_gamma   59.93597090
_symmetry_Int_Tables_number   1
_chemical_formula_structural   Zr11Sc(AlIr2)4
_chemical_formula_sum   'Zr11 Sc1 Al4 Ir8'
_cell_volume   443.76340980
_cell_formula_units_Z   1
loop_
 _symmetry_equiv_pos_site_id
 _symmetry_equiv_pos_as_xyz
  1  'x, y, z'
loop_
 _atom_site_type_symbol
 _atom_site_label
 _atom_site_symmetry_multiplicity
 _atom_site_fract_x
 _atom_site_fract_y
 _atom_site_fract_z
 _atom_site_occupancy
  Zr  Zr0  1  0.193486  0.193484  0.806515  1
  Zr  Zr1  1  0.806162  0.193219  0.806513  1
  Zr  Zr2  1  0.193218  0.806162  0.194107  1
  Zr  Zr3  1  0.193219  0.806162  0.806511  1
  Zr  Zr4  1  0.806162  0.193219  0.194106  1
  Zr  Zr5  1  0.443538  0.443541  0.056461  1
  Zr  Zr6  1  0.056744  0.056743  0.443257  1
  Zr  Zr7  1  0.445636  0.054812  0.443417  1
  Zr  Zr8  1  0.054812  0.445637  0.056133  1
  Zr  Zr9  1  0.054811  0.445637  0.443418  1
  Zr  Zr10  1  0.445636  0.054812  0.056135  1
  Sc  Sc11  1  0.806178  0.806172  0.193825  1
  Al  Al12  1  0.125109  0.624725  0.625083  1
  Al  Al13  1  0.624726  0.125110  0.625082  1
  Al  Al14  1  0.625502  0.625501  0.125364  1
  Al  Al15  1  0.625502  0.625501  0.623633  1
  Ir  Ir16  1  0.760284  0.412506  0.413605  1
  Ir  Ir17  1  0.412505  0.760284  0.413605  1
  Ir  Ir18  1  0.412968  0.412970  0.760198  1
  Ir  Ir19  1  0.412968  0.412970  0.413863  1
  Ir  Ir20  1  0.490057  0.836439  0.836752  1
  Ir  Ir21  1  0.836439  0.490056  0.836753  1
  Ir  Ir22  1  0.837169  0.837169  0.490071  1
  Ir  Ir23  1  0.837169  0.837169  0.835591  1
