# generated using pymatgen
data_Pr3Pd2PtPb3
_symmetry_space_group_name_H-M   'P 1'
_cell_length_a   7.90342800
_cell_length_b   7.90342763
_cell_length_c   4.14539600
_cell_angle_alpha   90.00000000
_cell_angle_beta   90.00000000
_cell_angle_gamma   120.00000154
_symmetry_Int_Tables_number   1
_chemical_formula_structural   Pr3Pd2PtPb3
_chemical_formula_sum   'Pr3 Pd2 Pt1 Pb3'
_cell_volume   224.24751092
_cell_formula_units_Z   1
loop_
 _symmetry_equiv_pos_site_id
 _symmetry_equiv_pos_as_xyz
  1  'x, y, z'
loop_
 _atom_site_type_symbol
 _atom_site_label
 _atom_site_symmetry_multiplicity
 _atom_site_fract_x
 _atom_site_fract_y
 _atom_site_fract_z
 _atom_site_occupancy
  Pr  Pr0  1  0.412851  0.406163  0.500000  1
  Pr  Pr1  1  0.593837  0.006688  0.500000  1
  Pr  Pr2  1  0.993312  0.587149  0.500000  1
  Pd  Pd3  1  0.333333  0.666667  0.000000  1
  Pd  Pd4  1  0.000000  0.000000  0.500000  1
  Pt  Pt5  1  0.666667  0.333333  0.000000  1
  Pb  Pb6  1  0.743531  0.747969  0.000000  1
  Pb  Pb7  1  0.252031  0.995562  0.000000  1
  Pb  Pb8  1  0.004438  0.256469  0.000000  1
