# generated using pymatgen
data_Nd5P12Ru9Rh10
_symmetry_space_group_name_H-M   'P 1'
_cell_length_a   12.70180400
_cell_length_b   12.70180369
_cell_length_c   3.98364600
_cell_angle_alpha   90.00000000
_cell_angle_beta   90.00000000
_cell_angle_gamma   120.00000602
_symmetry_Int_Tables_number   1
_chemical_formula_structural   Nd5P12Ru9Rh10
_chemical_formula_sum   'Nd5 P12 Ru9 Rh10'
_cell_volume   556.59864803
_cell_formula_units_Z   1
loop_
 _symmetry_equiv_pos_site_id
 _symmetry_equiv_pos_as_xyz
  1  'x, y, z'
loop_
 _atom_site_type_symbol
 _atom_site_label
 _atom_site_symmetry_multiplicity
 _atom_site_fract_x
 _atom_site_fract_y
 _atom_site_fract_z
 _atom_site_occupancy
  Nd  Nd0  1  0.000000  0.186150  0.500000  1
  Nd  Nd1  1  0.813850  0.813850  0.500000  1
  Nd  Nd2  1  0.186150  0.000000  0.500000  1
  Nd  Nd3  1  0.666667  0.333333  0.000000  1
  Nd  Nd4  1  0.333333  0.666667  0.000000  1
  P  P5  1  0.000000  0.815555  0.000000  1
  P  P6  1  0.184445  0.184445  0.000000  1
  P  P7  1  0.815555  0.000000  0.000000  1
  P  P8  1  0.690389  0.171626  0.500000  1
  P  P9  1  0.828374  0.518763  0.500000  1
  P  P10  1  0.481237  0.309611  0.500000  1
  P  P11  1  0.171626  0.690389  0.500000  1
  P  P12  1  0.518763  0.828374  0.500000  1
  P  P13  1  0.309611  0.481237  0.500000  1
  P  P14  1  0.000000  0.372424  0.000000  1
  P  P15  1  0.627576  0.627576  0.000000  1
  P  P16  1  0.372424  0.000000  0.000000  1
  Ru  Ru17  1  0.000000  0.713258  0.500000  1
  Ru  Ru18  1  0.286742  0.286742  0.500000  1
  Ru  Ru19  1  0.713258  0.000000  0.500000  1
  Ru  Ru20  1  0.874665  0.362834  0.500000  1
  Ru  Ru21  1  0.637166  0.511831  0.500000  1
  Ru  Ru22  1  0.488169  0.125335  0.500000  1
  Ru  Ru23  1  0.362834  0.874665  0.500000  1
  Ru  Ru24  1  0.511831  0.637166  0.500000  1
  Ru  Ru25  1  0.125335  0.488169  0.500000  1
  Rh  Rh26  1  0.000000  0.551300  0.000000  1
  Rh  Rh27  1  0.448700  0.448700  0.000000  1
  Rh  Rh28  1  0.551300  0.000000  0.000000  1
  Rh  Rh29  1  0.805672  0.182543  0.000000  1
  Rh  Rh30  1  0.817457  0.623130  0.000000  1
  Rh  Rh31  1  0.376870  0.194328  0.000000  1
  Rh  Rh32  1  0.182543  0.805672  0.000000  1
  Rh  Rh33  1  0.623130  0.817457  0.000000  1
  Rh  Rh34  1  0.194328  0.376870  0.000000  1
  Rh  Rh35  1  0.000000  0.000000  0.000000  1
