# generated using pymatgen
data_Lu10TlIn7NiAu3
_symmetry_space_group_name_H-M   'P 1'
_cell_length_a   3.60378800
_cell_length_b   8.05675900
_cell_length_c   17.96520780
_cell_angle_alpha   90.05693514
_cell_angle_beta   90.00000000
_cell_angle_gamma   90.00000000
_symmetry_Int_Tables_number   1
_chemical_formula_structural   Lu10TlIn7NiAu3
_chemical_formula_sum   'Lu10 Tl1 In7 Ni1 Au3'
_cell_volume   521.61688141
_cell_formula_units_Z   1
loop_
 _symmetry_equiv_pos_site_id
 _symmetry_equiv_pos_as_xyz
  1  'x, y, z'
loop_
 _atom_site_type_symbol
 _atom_site_label
 _atom_site_symmetry_multiplicity
 _atom_site_fract_x
 _atom_site_fract_y
 _atom_site_fract_z
 _atom_site_occupancy
  Lu  Lu0  1  0.000000  0.878960  0.082819  1
  Lu  Lu1  1  0.000000  0.737909  0.281905  1
  Lu  Lu2  1  0.000000  0.739813  0.781071  1
  Lu  Lu3  1  0.000000  0.387205  0.411314  1
  Lu  Lu4  1  0.000000  0.119865  0.920513  1
  Lu  Lu5  1  0.000000  0.239811  0.716874  1
  Lu  Lu6  1  0.000000  0.499883  0.002073  1
  Lu  Lu7  1  0.000000  0.274980  0.225675  1
  Lu  Lu8  1  0.000000  0.620358  0.577764  1
  Lu  Lu9  1  0.000000  0.999997  0.497825  1
  Tl  Tl10  1  0.500000  0.210468  0.068115  1
  In  In11  1  0.500000  0.422148  0.853949  1
  In  In12  1  0.500000  0.575339  0.151032  1
  In  In13  1  0.500000  0.080829  0.352675  1
  In  In14  1  0.500000  0.921424  0.644937  1
  In  In15  1  0.500000  0.788713  0.935328  1
  In  In16  1  0.500000  0.707041  0.430592  1
  In  In17  1  0.500000  0.291921  0.562171  1
  Ni  Ni18  1  0.500000  0.474815  0.304292  1
  Au  Au19  1  0.500000  0.969944  0.200219  1
  Au  Au20  1  0.500000  0.029664  0.803592  1
  Au  Au21  1  0.500000  0.528915  0.695266  1
