# generated using pymatgen
data_Np2Ag(Br3F)2
_symmetry_space_group_name_H-M   'P 1'
_cell_length_a   8.65411538
_cell_length_b   8.65411413
_cell_length_c   12.25730166
_cell_angle_alpha   66.18473493
_cell_angle_beta   66.18473161
_cell_angle_gamma   30.34942916
_symmetry_Int_Tables_number   1
_chemical_formula_structural   Np2Ag(Br3F)2
_chemical_formula_sum   'Np2 Ag1 Br6 F2'
_cell_volume   421.29109552
_cell_formula_units_Z   1
loop_
 _symmetry_equiv_pos_site_id
 _symmetry_equiv_pos_as_xyz
  1  'x, y, z'
loop_
 _atom_site_type_symbol
 _atom_site_label
 _atom_site_symmetry_multiplicity
 _atom_site_fract_x
 _atom_site_fract_y
 _atom_site_fract_z
 _atom_site_occupancy
  Np  Np0  1  0.094396  0.094396  0.804715  1
  Np  Np1  1  0.918321  0.918321  0.189306  1
  Ag  Ag2  1  0.222678  0.222678  0.484331  1
  Br  Br3  1  0.275140  0.275140  0.663406  1
  Br  Br4  1  0.733914  0.733914  0.343646  1
  Br  Br5  1  0.105169  0.105169  0.033835  1
  Br  Br6  1  0.907761  0.907761  0.958157  1
  Br  Br7  1  0.044271  0.044271  0.617918  1
  Br  Br8  1  0.957554  0.957554  0.379773  1
  F  F9  1  0.595002  0.595002  0.812122  1
  F  F10  1  0.411195  0.411195  0.180491  1
