# generated using pymatgen
data_Ho3Mg2TiIr3
_symmetry_space_group_name_H-M   'P 1'
_cell_length_a   7.20991531
_cell_length_b   7.02002821
_cell_length_c   4.18341600
_cell_angle_alpha   90.00000000
_cell_angle_beta   90.00000000
_cell_angle_gamma   119.13253953
_symmetry_Int_Tables_number   1
_chemical_formula_structural   Ho3Mg2TiIr3
_chemical_formula_sum   'Ho3 Mg2 Ti1 Ir3'
_cell_volume   184.95281066
_cell_formula_units_Z   1
loop_
 _symmetry_equiv_pos_site_id
 _symmetry_equiv_pos_as_xyz
  1  'x, y, z'
loop_
 _atom_site_type_symbol
 _atom_site_label
 _atom_site_symmetry_multiplicity
 _atom_site_fract_x
 _atom_site_fract_y
 _atom_site_fract_z
 _atom_site_occupancy
  Ho  Ho0  1  0.587537  0.586563  0.000000  1
  Ho  Ho1  1  0.412463  0.999026  0.000000  1
  Ho  Ho2  1  0.000000  0.407185  0.000000  1
  Mg  Mg3  1  0.247467  0.246015  0.500000  1
  Mg  Mg4  1  0.752533  0.998548  0.500000  1
  Ti  Ti5  1  0.000000  0.755911  0.500000  1
  Ir  Ir6  1  0.000000  0.966888  0.000000  1
  Ir  Ir7  1  0.686867  0.363365  0.500000  1
  Ir  Ir8  1  0.313133  0.676499  0.500000  1
