# generated using pymatgen
data_Dy6Ho2Sc12Si15Tc
_symmetry_space_group_name_H-M   'P 1'
_cell_length_a   7.08808617
_cell_length_b   7.44786018
_cell_length_c   13.94780608
_cell_angle_alpha   89.98902881
_cell_angle_beta   89.99388706
_cell_angle_gamma   90.17834432
_symmetry_Int_Tables_number   1
_chemical_formula_structural   Dy6Ho2Sc12Si15Tc
_chemical_formula_sum   'Dy6 Ho2 Sc12 Si15 Tc1'
_cell_volume   736.31608889
_cell_formula_units_Z   1
loop_
 _symmetry_equiv_pos_site_id
 _symmetry_equiv_pos_as_xyz
  1  'x, y, z'
loop_
 _atom_site_type_symbol
 _atom_site_label
 _atom_site_symmetry_multiplicity
 _atom_site_fract_x
 _atom_site_fract_y
 _atom_site_fract_z
 _atom_site_occupancy
  Dy  Dy0  1  0.489000  0.675768  0.904030  1
  Dy  Dy1  1  0.990990  0.827359  0.596238  1
  Dy  Dy2  1  0.510886  0.322997  0.096033  1
  Dy  Dy3  1  0.011541  0.178550  0.404083  1
  Dy  Dy4  1  0.510827  0.323021  0.403920  1
  Dy  Dy5  1  0.489028  0.675719  0.596023  1
  Ho  Ho6  1  0.011579  0.178607  0.096009  1
  Ho  Ho7  1  0.990992  0.827296  0.903688  1
  Sc  Sc8  1  0.156321  0.498774  0.750030  1
  Sc  Sc9  1  0.838377  0.494845  0.249950  1
  Sc  Sc10  1  0.338699  0.005580  0.249942  1
  Sc  Sc11  1  0.667797  0.998944  0.750050  1
  Sc  Sc12  1  0.316479  0.171553  0.627973  1
  Sc  Sc13  1  0.671969  0.826199  0.373905  1
  Sc  Sc14  1  0.171655  0.677927  0.373819  1
  Sc  Sc15  1  0.672034  0.826261  0.126026  1
  Sc  Sc16  1  0.837465  0.319644  0.627359  1
  Sc  Sc17  1  0.316241  0.171441  0.872089  1
  Sc  Sc18  1  0.837588  0.319496  0.872694  1
  Sc  Sc19  1  0.171579  0.677971  0.126111  1
  Si  Si20  1  0.968375  0.884424  0.249928  1
  Si  Si21  1  0.470065  0.614202  0.249987  1
  Si  Si22  1  0.529633  0.387954  0.750028  1
  Si  Si23  1  0.286696  0.867477  0.750127  1
  Si  Si24  1  0.713226  0.129212  0.249897  1
  Si  Si25  1  0.214026  0.370124  0.249877  1
  Si  Si26  1  0.780132  0.628227  0.750097  1
  Si  Si27  1  0.159929  0.468673  0.536842  1
  Si  Si28  1  0.844672  0.536377  0.461517  1
  Si  Si29  1  0.344502  0.965424  0.459927  1
  Si  Si30  1  0.844802  0.536317  0.038479  1
  Si  Si31  1  0.655041  0.034032  0.538877  1
  Si  Si32  1  0.159801  0.468716  0.963168  1
  Si  Si33  1  0.655381  0.033918  0.961100  1
  Si  Si34  1  0.344144  0.965524  0.040092  1
  Tc  Tc35  1  0.028529  0.111446  0.750084  1
