# generated using pymatgen
data_NaYb2Si2(AsPd5)4
_symmetry_space_group_name_H-M   'P 1'
_cell_length_a   8.78534848
_cell_length_b   8.78534874
_cell_length_c   8.86398100
_cell_angle_alpha   59.70348309
_cell_angle_beta   59.70348209
_cell_angle_gamma   60.59303564
_symmetry_Int_Tables_number   1
_chemical_formula_structural   NaYb2Si2(AsPd5)4
_chemical_formula_sum   'Na1 Yb2 Si2 As4 Pd20'
_cell_volume   483.68386911
_cell_formula_units_Z   1
loop_
 _symmetry_equiv_pos_site_id
 _symmetry_equiv_pos_as_xyz
  1  'x, y, z'
loop_
 _atom_site_type_symbol
 _atom_site_label
 _atom_site_symmetry_multiplicity
 _atom_site_fract_x
 _atom_site_fract_y
 _atom_site_fract_z
 _atom_site_occupancy
  Na  Na0  1  0.000000  0.000000  0.000000  1
  Yb  Yb1  1  0.250000  0.250000  0.250000  1
  Yb  Yb2  1  0.750000  0.750000  0.750000  1
  Si  Si3  1  0.265060  0.265060  0.734940  1
  Si  Si4  1  0.734940  0.734940  0.265060  1
  As  As5  1  0.735747  0.264253  0.264253  1
  As  As6  1  0.264253  0.735747  0.735747  1
  As  As7  1  0.264253  0.735747  0.264253  1
  As  As8  1  0.735747  0.264253  0.735747  1
  Pd  Pd9  1  0.381187  0.381187  0.388867  1
  Pd  Pd10  1  0.618813  0.618813  0.611133  1
  Pd  Pd11  1  0.381187  0.381187  0.848761  1
  Pd  Pd12  1  0.388867  0.848761  0.381187  1
  Pd  Pd13  1  0.618813  0.618813  0.151239  1
  Pd  Pd14  1  0.611133  0.151239  0.618813  1
  Pd  Pd15  1  0.848761  0.388867  0.381187  1
  Pd  Pd16  1  0.151239  0.611133  0.618813  1
  Pd  Pd17  1  0.347324  0.006557  0.993443  1
  Pd  Pd18  1  0.652676  0.993443  0.006557  1
  Pd  Pd19  1  0.006557  0.347324  0.652676  1
  Pd  Pd20  1  0.993443  0.652676  0.347324  1
  Pd  Pd21  1  0.006557  0.347324  0.993443  1
  Pd  Pd22  1  0.652676  0.993443  0.347324  1
  Pd  Pd23  1  0.993443  0.652676  0.006557  1
  Pd  Pd24  1  0.347324  0.006557  0.652676  1
  Pd  Pd25  1  0.000000  0.000000  0.348157  1
  Pd  Pd26  1  0.000000  0.000000  0.651843  1
  Pd  Pd27  1  0.651843  0.348157  0.000000  1
  Pd  Pd28  1  0.348157  0.651843  0.000000  1
