# generated using pymatgen
data_Tb5Co16(TcAs4)3
_symmetry_space_group_name_H-M   'P 1'
_cell_length_a   12.49483900
_cell_length_b   12.49483753
_cell_length_c   3.83922000
_cell_angle_alpha   90.00000000
_cell_angle_beta   90.00000000
_cell_angle_gamma   120.00000655
_symmetry_Int_Tables_number   1
_chemical_formula_structural   Tb5Co16(TcAs4)3
_chemical_formula_sum   'Tb5 Co16 Tc3 As12'
_cell_volume   519.08069819
_cell_formula_units_Z   1
loop_
 _symmetry_equiv_pos_site_id
 _symmetry_equiv_pos_as_xyz
  1  'x, y, z'
loop_
 _atom_site_type_symbol
 _atom_site_label
 _atom_site_symmetry_multiplicity
 _atom_site_fract_x
 _atom_site_fract_y
 _atom_site_fract_z
 _atom_site_occupancy
  Tb  Tb0  1  0.185261  0.185261  0.500000  1
  Tb  Tb1  1  0.814739  0.000000  0.500000  1
  Tb  Tb2  1  0.000000  0.814739  0.500000  1
  Tb  Tb3  1  0.333333  0.666667  0.000000  1
  Tb  Tb4  1  0.666667  0.333333  0.000000  1
  Co  Co5  1  0.717546  0.717546  0.500000  1
  Co  Co6  1  0.282454  0.000000  0.500000  1
  Co  Co7  1  0.000000  0.282454  0.500000  1
  Co  Co8  1  0.178747  0.376508  0.000000  1
  Co  Co9  1  0.623492  0.802239  0.000000  1
  Co  Co10  1  0.197761  0.821253  0.000000  1
  Co  Co11  1  0.802239  0.623492  0.000000  1
  Co  Co12  1  0.821253  0.197761  0.000000  1
  Co  Co13  1  0.376508  0.178747  0.000000  1
  Co  Co14  1  0.357327  0.481516  0.500000  1
  Co  Co15  1  0.518484  0.875812  0.500000  1
  Co  Co16  1  0.124188  0.642673  0.500000  1
  Co  Co17  1  0.875812  0.518484  0.500000  1
  Co  Co18  1  0.642673  0.124188  0.500000  1
  Co  Co19  1  0.481516  0.357327  0.500000  1
  Co  Co20  1  0.000000  0.000000  0.000000  1
  Tc  Tc21  1  0.557771  0.557771  0.000000  1
  Tc  Tc22  1  0.442229  0.000000  0.000000  1
  Tc  Tc23  1  0.000000  0.442229  0.000000  1
  As  As24  1  0.821013  0.821013  0.000000  1
  As  As25  1  0.178987  0.000000  0.000000  1
  As  As26  1  0.000000  0.178987  0.000000  1
  As  As27  1  0.165937  0.480741  0.500000  1
  As  As28  1  0.519259  0.685197  0.500000  1
  As  As29  1  0.314803  0.834063  0.500000  1
  As  As30  1  0.685197  0.519259  0.500000  1
  As  As31  1  0.834063  0.314803  0.500000  1
  As  As32  1  0.480741  0.165937  0.500000  1
  As  As33  1  0.363214  0.363214  0.000000  1
  As  As34  1  0.636786  0.000000  0.000000  1
  As  As35  1  0.000000  0.636786  0.000000  1
