# generated using pymatgen
data_Nd3CCl5
_symmetry_space_group_name_H-M   'P 1'
_cell_length_a   7.45350123
_cell_length_b   8.84167160
_cell_length_c   8.92763868
_cell_angle_alpha   108.55843199
_cell_angle_beta   97.32265342
_cell_angle_gamma   106.29362979
_symmetry_Int_Tables_number   1
_chemical_formula_structural   Nd3CCl5
_chemical_formula_sum   'Nd6 C2 Cl10'
_cell_volume   519.93822292
_cell_formula_units_Z   2
loop_
 _symmetry_equiv_pos_site_id
 _symmetry_equiv_pos_as_xyz
  1  'x, y, z'
loop_
 _atom_site_type_symbol
 _atom_site_label
 _atom_site_symmetry_multiplicity
 _atom_site_fract_x
 _atom_site_fract_y
 _atom_site_fract_z
 _atom_site_occupancy
  Nd  Nd0  1  0.880163  0.951262  0.233621  1
  Nd  Nd1  1  0.119837  0.048738  0.766379  1
  Nd  Nd2  1  0.026032  0.711847  0.911094  1
  Nd  Nd3  1  0.973968  0.288153  0.088906  1
  Nd  Nd4  1  0.601549  0.838527  0.786858  1
  Nd  Nd5  1  0.398451  0.161473  0.213142  1
  C  C6  1  0.905411  0.964823  0.950877  1
  C  C7  1  0.094589  0.035177  0.049123  1
  Cl  Cl8  1  0.756589  0.915841  0.538362  1
  Cl  Cl9  1  0.243411  0.084159  0.461638  1
  Cl  Cl10  1  0.458533  0.828463  0.078382  1
  Cl  Cl11  1  0.541467  0.171537  0.921618  1
  Cl  Cl12  1  0.822325  0.263955  0.354834  1
  Cl  Cl13  1  0.177675  0.736045  0.645166  1
  Cl  Cl14  1  0.910191  0.627464  0.168702  1
  Cl  Cl15  1  0.089809  0.372536  0.831298  1
  Cl  Cl16  1  0.651749  0.531729  0.718405  1
  Cl  Cl17  1  0.348251  0.468271  0.281595  1
