# generated using pymatgen
data_CaLa4YbSi3Ge
_symmetry_space_group_name_H-M   'P 1'
_cell_length_a   7.82089371
_cell_length_b   7.81060785
_cell_length_c   4.52066600
_cell_angle_alpha   90.00000000
_cell_angle_beta   90.00000000
_cell_angle_gamma   89.78872701
_symmetry_Int_Tables_number   1
_chemical_formula_structural   CaLa4YbSi3Ge
_chemical_formula_sum   'Ca1 La4 Yb1 Si3 Ge1'
_cell_volume   276.14722662
_cell_formula_units_Z   1
loop_
 _symmetry_equiv_pos_site_id
 _symmetry_equiv_pos_as_xyz
  1  'x, y, z'
loop_
 _atom_site_type_symbol
 _atom_site_label
 _atom_site_symmetry_multiplicity
 _atom_site_fract_x
 _atom_site_fract_y
 _atom_site_fract_z
 _atom_site_occupancy
  Ca  Ca0  1  0.501184  0.499329  0.000000  1
  La  La1  1  0.678253  0.175877  0.500000  1
  La  La2  1  0.323252  0.825603  0.500000  1
  La  La3  1  0.176157  0.320187  0.500000  1
  La  La4  1  0.821218  0.677946  0.500000  1
  Yb  Yb5  1  0.999474  0.999991  0.000000  1
  Si  Si6  1  0.886211  0.388964  0.000000  1
  Si  Si7  1  0.608584  0.888588  0.000000  1
  Si  Si8  1  0.391416  0.111479  0.000000  1
  Ge  Ge9  1  0.114250  0.612037  0.000000  1
