# generated using pymatgen
data_Ca2LaNd(Ru2O7)2
_symmetry_space_group_name_H-M   'P 1'
_cell_length_a   7.36232964
_cell_length_b   7.34585370
_cell_length_c   7.33568302
_cell_angle_alpha   60.05463690
_cell_angle_beta   60.12512165
_cell_angle_gamma   60.35124393
_symmetry_Int_Tables_number   1
_chemical_formula_structural   Ca2LaNd(Ru2O7)2
_chemical_formula_sum   'Ca2 La1 Nd1 Ru4 O14'
_cell_volume   281.65286619
_cell_formula_units_Z   1
loop_
 _symmetry_equiv_pos_site_id
 _symmetry_equiv_pos_as_xyz
  1  'x, y, z'
loop_
 _atom_site_type_symbol
 _atom_site_label
 _atom_site_symmetry_multiplicity
 _atom_site_fract_x
 _atom_site_fract_y
 _atom_site_fract_z
 _atom_site_occupancy
  Ca  Ca0  1  0.125000  0.125000  0.625000  1
  Ca  Ca1  1  0.125000  0.125000  0.125000  1
  La  La2  1  0.125000  0.625000  0.125000  1
  Nd  Nd3  1  0.625000  0.125000  0.125000  1
  Ru  Ru4  1  0.125000  0.625000  0.625000  1
  Ru  Ru5  1  0.625000  0.125000  0.625000  1
  Ru  Ru6  1  0.625000  0.625000  0.125000  1
  Ru  Ru7  1  0.625000  0.625000  0.625000  1
  O  O8  1  0.700774  0.705584  0.296727  1
  O  O9  1  0.309099  0.308676  0.691096  1
  O  O10  1  0.697968  0.302077  0.698924  1
  O  O11  1  0.304519  0.698600  0.301671  1
  O  O12  1  0.304345  0.698661  0.695283  1
  O  O13  1  0.697913  0.302271  0.300986  1
  O  O14  1  0.549226  0.544416  0.953273  1
  O  O15  1  0.940901  0.941324  0.558904  1
  O  O16  1  0.552032  0.947923  0.551076  1
  O  O17  1  0.945481  0.551400  0.948329  1
  O  O18  1  0.945655  0.551339  0.554717  1
  O  O19  1  0.552087  0.947729  0.949014  1
  O  O20  1  0.247724  0.245988  0.253161  1
  O  O21  1  0.002276  0.004012  0.996839  1
