# generated using pymatgen
data_Dy(Th2Co)3
_symmetry_space_group_name_H-M   'P 1'
_cell_length_a   9.76192000
_cell_length_b   9.76192062
_cell_length_c   6.15936600
_cell_angle_alpha   90.00000000
_cell_angle_beta   90.00000000
_cell_angle_gamma   119.99999113
_symmetry_Int_Tables_number   1
_chemical_formula_structural   Dy(Th2Co)3
_chemical_formula_sum   'Dy2 Th12 Co6'
_cell_volume   508.32000042
_cell_formula_units_Z   2
loop_
 _symmetry_equiv_pos_site_id
 _symmetry_equiv_pos_as_xyz
  1  'x, y, z'
loop_
 _atom_site_type_symbol
 _atom_site_label
 _atom_site_symmetry_multiplicity
 _atom_site_fract_x
 _atom_site_fract_y
 _atom_site_fract_z
 _atom_site_occupancy
  Dy  Dy0  1  0.333333  0.666667  0.050895  1
  Dy  Dy1  1  0.666667  0.333333  0.550895  1
  Th  Th2  1  0.126040  0.873960  0.240487  1
  Th  Th3  1  0.252080  0.126040  0.740487  1
  Th  Th4  1  0.873960  0.747920  0.740487  1
  Th  Th5  1  0.126040  0.252080  0.240487  1
  Th  Th6  1  0.747920  0.873960  0.240487  1
  Th  Th7  1  0.873960  0.126040  0.740487  1
  Th  Th8  1  0.542667  0.457333  0.061286  1
  Th  Th9  1  0.085333  0.542667  0.561286  1
  Th  Th10  1  0.457333  0.914667  0.561286  1
  Th  Th11  1  0.542667  0.085333  0.061286  1
  Th  Th12  1  0.914667  0.457333  0.061286  1
  Th  Th13  1  0.457333  0.542667  0.561286  1
  Co  Co14  1  0.818417  0.181583  0.291262  1
  Co  Co15  1  0.636835  0.818417  0.791262  1
  Co  Co16  1  0.181583  0.363165  0.791262  1
  Co  Co17  1  0.818417  0.636835  0.291262  1
  Co  Co18  1  0.363165  0.181583  0.291262  1
  Co  Co19  1  0.181583  0.818417  0.791262  1
