# generated using pymatgen
data_LaPr4SmTa2O14
_symmetry_space_group_name_H-M   'P 1'
_cell_length_a   6.73561497
_cell_length_b   6.71539862
_cell_length_c   7.75721213
_cell_angle_alpha   89.99927875
_cell_angle_beta   90.02046808
_cell_angle_gamma   108.70347289
_symmetry_Int_Tables_number   1
_chemical_formula_structural   LaPr4SmTa2O14
_chemical_formula_sum   'La1 Pr4 Sm1 Ta2 O14'
_cell_volume   332.34731861
_cell_formula_units_Z   1
loop_
 _symmetry_equiv_pos_site_id
 _symmetry_equiv_pos_as_xyz
  1  'x, y, z'
loop_
 _atom_site_type_symbol
 _atom_site_label
 _atom_site_symmetry_multiplicity
 _atom_site_fract_x
 _atom_site_fract_y
 _atom_site_fract_z
 _atom_site_occupancy
  La  La0  1  0.474985  0.478259  0.500790  1
  Pr  Pr1  1  0.462396  0.466629  0.999473  1
  Pr  Pr2  1  0.537956  0.994766  0.750769  1
  Pr  Pr3  1  0.993138  0.538929  0.249410  1
  Pr  Pr4  1  0.467879  0.996134  0.250549  1
  Sm  Sm5  1  0.995638  0.467424  0.749201  1
  Ta  Ta6  1  0.001096  0.000955  0.501230  1
  Ta  Ta7  1  0.999535  0.999164  0.998731  1
  O  O8  1  0.694439  0.935945  0.470258  1
  O  O9  1  0.955743  0.699248  0.536083  1
  O  O10  1  0.696323  0.938493  0.030974  1
  O  O11  1  0.960936  0.701832  0.962358  1
  O  O12  1  0.317185  0.075801  0.528079  1
  O  O13  1  0.067460  0.315989  0.473791  1
  O  O14  1  0.318882  0.078601  0.973174  1
  O  O15  1  0.071168  0.317726  0.024929  1
  O  O16  1  0.945076  0.061357  0.750076  1
  O  O17  1  0.055266  0.946724  0.249982  1
  O  O18  1  0.360545  0.624087  0.750498  1
  O  O19  1  0.626825  0.367910  0.248774  1
  O  O20  1  0.639321  0.362820  0.751416  1
  O  O21  1  0.358210  0.631208  0.249457  1
