# generated using pymatgen
data_LiP4Pd3Ru4
_symmetry_space_group_name_H-M   'P 1'
_cell_length_a   3.82152400
_cell_length_b   6.49806086
_cell_length_c   6.78510440
_cell_angle_alpha   91.06028990
_cell_angle_beta   90.00000000
_cell_angle_gamma   90.00000000
_symmetry_Int_Tables_number   1
_chemical_formula_structural   LiP4Pd3Ru4
_chemical_formula_sum   'Li1 P4 Pd3 Ru4'
_cell_volume   168.46222530
_cell_formula_units_Z   1
loop_
 _symmetry_equiv_pos_site_id
 _symmetry_equiv_pos_as_xyz
  1  'x, y, z'
loop_
 _atom_site_type_symbol
 _atom_site_label
 _atom_site_symmetry_multiplicity
 _atom_site_fract_x
 _atom_site_fract_y
 _atom_site_fract_z
 _atom_site_occupancy
  Li  Li0  1  0.750000  0.028948  0.661116  1
  P  P1  1  0.250000  0.719144  0.616739  1
  P  P2  1  0.750000  0.282848  0.387887  1
  P  P3  1  0.250000  0.208446  0.873256  1
  P  P4  1  0.750000  0.789981  0.120401  1
  Pd  Pd5  1  0.250000  0.969110  0.353081  1
  Pd  Pd6  1  0.750000  0.545281  0.836038  1
  Pd  Pd7  1  0.250000  0.454715  0.152865  1
  Ru  Ru8  1  0.250000  0.360164  0.570097  1
  Ru  Ru9  1  0.750000  0.646683  0.421979  1
  Ru  Ru10  1  0.250000  0.850707  0.935417  1
  Ru  Ru11  1  0.750000  0.143971  0.071125  1
