# generated using pymatgen
data_Dy20Si15Hg
_symmetry_space_group_name_H-M   'P 1'
_cell_length_a   7.45409084
_cell_length_b   7.70906798
_cell_length_c   14.66721919
_cell_angle_alpha   90.03688571
_cell_angle_beta   89.41503048
_cell_angle_gamma   90.13797456
_symmetry_Int_Tables_number   1
_chemical_formula_structural   Dy20Si15Hg
_chemical_formula_sum   'Dy20 Si15 Hg1'
_cell_volume   842.79191502
_cell_formula_units_Z   1
loop_
 _symmetry_equiv_pos_site_id
 _symmetry_equiv_pos_as_xyz
  1  'x, y, z'
loop_
 _atom_site_type_symbol
 _atom_site_label
 _atom_site_symmetry_multiplicity
 _atom_site_fract_x
 _atom_site_fract_y
 _atom_site_fract_z
 _atom_site_occupancy
  Dy  Dy0  1  0.648401  0.989002  0.250616  1
  Dy  Dy1  1  0.150452  0.511912  0.249095  1
  Dy  Dy2  1  0.849519  0.488772  0.747641  1
  Dy  Dy3  1  0.349553  0.012807  0.749225  1
  Dy  Dy4  1  0.975502  0.822252  0.101582  1
  Dy  Dy5  1  0.471310  0.684353  0.401253  1
  Dy  Dy6  1  0.519051  0.312880  0.899325  1
  Dy  Dy7  1  0.030015  0.182658  0.598119  1
  Dy  Dy8  1  0.030189  0.176442  0.899915  1
  Dy  Dy9  1  0.529092  0.315864  0.598122  1
  Dy  Dy10  1  0.474220  0.682844  0.100899  1
  Dy  Dy11  1  0.970021  0.816387  0.400721  1
  Dy  Dy12  1  0.674227  0.829591  0.873880  1
  Dy  Dy13  1  0.182295  0.680181  0.621826  1
  Dy  Dy14  1  0.821426  0.319671  0.126021  1
  Dy  Dy15  1  0.318321  0.179031  0.377620  1
  Dy  Dy16  1  0.322218  0.177213  0.124280  1
  Dy  Dy17  1  0.818523  0.320547  0.377375  1
  Dy  Dy18  1  0.183401  0.676841  0.877282  1
  Dy  Dy19  1  0.681742  0.821819  0.621954  1
  Si  Si20  1  0.766734  0.628029  0.251801  1
  Si  Si21  1  0.266702  0.873032  0.251590  1
  Si  Si22  1  0.734763  0.126947  0.748323  1
  Si  Si23  1  0.231354  0.373551  0.747887  1
  Si  Si24  1  0.022560  0.103460  0.251407  1
  Si  Si25  1  0.523201  0.395930  0.251960  1
  Si  Si26  1  0.477018  0.603565  0.747774  1
  Si  Si27  1  0.977737  0.893126  0.748191  1
  Si  Si28  1  0.354000  0.971397  0.540054  1
  Si  Si29  1  0.649558  0.028637  0.041464  1
  Si  Si30  1  0.146275  0.470536  0.460272  1
  Si  Si31  1  0.161501  0.470250  0.042937  1
  Si  Si32  1  0.645655  0.028645  0.459301  1
  Si  Si33  1  0.351285  0.969466  0.961111  1
  Si  Si34  1  0.855100  0.529803  0.539105  1
  Hg  Hg35  1  0.837079  0.532555  0.960073  1
