# generated using pymatgen
data_Cs4NaGaSe4
_symmetry_space_group_name_H-M   'P 1'
_cell_length_a   8.91572586
_cell_length_b   8.91572593
_cell_length_c   8.91572608
_cell_angle_alpha   132.32857585
_cell_angle_beta   129.56017932
_cell_angle_gamma   71.92451596
_symmetry_Int_Tables_number   1
_chemical_formula_structural   Cs4NaGaSe4
_chemical_formula_sum   'Cs4 Na1 Ga1 Se4'
_cell_volume   395.09915058
_cell_formula_units_Z   1
loop_
 _symmetry_equiv_pos_site_id
 _symmetry_equiv_pos_as_xyz
  1  'x, y, z'
loop_
 _atom_site_type_symbol
 _atom_site_label
 _atom_site_symmetry_multiplicity
 _atom_site_fract_x
 _atom_site_fract_y
 _atom_site_fract_z
 _atom_site_occupancy
  Cs  Cs0  1  0.524337  0.862333  0.677007  1
  Cs  Cs1  1  0.475663  0.152670  0.337996  1
  Cs  Cs2  1  0.814674  0.637667  0.162004  1
  Cs  Cs3  1  0.185326  0.347330  0.822993  1
  Na  Na4  1  0.000000  0.250000  0.250000  1
  Ga  Ga5  1  0.000000  0.750000  0.750000  1
  Se  Se6  1  0.079418  0.858778  0.137618  1
  Se  Se7  1  0.721161  0.441800  0.362382  1
  Se  Se8  1  0.920582  0.058200  0.779361  1
  Se  Se9  1  0.278840  0.641222  0.720639  1
