# generated using pymatgen
data_SrTcIO4
_symmetry_space_group_name_H-M   'P 1'
_cell_length_a   9.90714800
_cell_length_b   6.31194201
_cell_length_c   7.78609924
_cell_angle_alpha   51.53100069
_cell_angle_beta   90.00000000
_cell_angle_gamma   90.00000000
_symmetry_Int_Tables_number   1
_chemical_formula_structural   SrTcIO4
_chemical_formula_sum   'Sr2 Tc2 I2 O8'
_cell_volume   381.20866597
_cell_formula_units_Z   2
loop_
 _symmetry_equiv_pos_site_id
 _symmetry_equiv_pos_as_xyz
  1  'x, y, z'
loop_
 _atom_site_type_symbol
 _atom_site_label
 _atom_site_symmetry_multiplicity
 _atom_site_fract_x
 _atom_site_fract_y
 _atom_site_fract_z
 _atom_site_occupancy
  Sr  Sr0  1  0.481832  0.089298  0.477259  1
  Sr  Sr1  1  0.981832  0.910702  0.022741  1
  Tc  Tc2  1  0.865800  0.727835  0.613625  1
  Tc  Tc3  1  0.365800  0.272165  0.886375  1
  I  I4  1  0.185114  0.393844  0.323438  1
  I  I5  1  0.685114  0.606156  0.176562  1
  O  O6  1  0.381265  0.622664  0.725539  1
  O  O7  1  0.881265  0.377336  0.774461  1
  O  O8  1  0.696641  0.820121  0.580194  1
  O  O9  1  0.196641  0.179879  0.919806  1
  O  O10  1  0.950187  0.839679  0.739689  1
  O  O11  1  0.450187  0.160321  0.760311  1
  O  O12  1  0.939163  0.877764  0.358876  1
  O  O13  1  0.439163  0.122236  0.141124  1
