# generated using pymatgen
data_Cs4Cr2S5
_symmetry_space_group_name_H-M   'P 1'
_cell_length_a   7.92922460
_cell_length_b   8.96665743
_cell_length_c   10.95581209
_cell_angle_alpha   77.73587511
_cell_angle_beta   85.03010414
_cell_angle_gamma   80.22897576
_symmetry_Int_Tables_number   1
_chemical_formula_structural   Cs4Cr2S5
_chemical_formula_sum   'Cs8 Cr4 S10'
_cell_volume   749.08980469
_cell_formula_units_Z   2
loop_
 _symmetry_equiv_pos_site_id
 _symmetry_equiv_pos_as_xyz
  1  'x, y, z'
loop_
 _atom_site_type_symbol
 _atom_site_label
 _atom_site_symmetry_multiplicity
 _atom_site_fract_x
 _atom_site_fract_y
 _atom_site_fract_z
 _atom_site_occupancy
  Cs  Cs0  1  0.933551  0.894663  0.249063  1
  Cs  Cs1  1  0.066449  0.105337  0.750937  1
  Cs  Cs2  1  0.578070  0.178579  0.906877  1
  Cs  Cs3  1  0.421930  0.821421  0.093123  1
  Cs  Cs4  1  0.408471  0.785755  0.492759  1
  Cs  Cs5  1  0.591529  0.214245  0.507241  1
  Cs  Cs6  1  0.205294  0.575713  0.871571  1
  Cs  Cs7  1  0.794706  0.424287  0.128429  1
  Cr  Cr8  1  0.727874  0.767478  0.780223  1
  Cr  Cr9  1  0.272126  0.232522  0.219777  1
  Cr  Cr10  1  0.909680  0.580530  0.594057  1
  Cr  Cr11  1  0.090320  0.419470  0.405943  1
  S  S12  1  0.832582  0.810378  0.949630  1
  S  S13  1  0.167418  0.189622  0.050370  1
  S  S14  1  0.463199  0.897204  0.766931  1
  S  S15  1  0.536801  0.102796  0.233069  1
  S  S16  1  0.891855  0.839041  0.606340  1
  S  S17  1  0.108145  0.160959  0.393660  1
  S  S18  1  0.743364  0.512356  0.778460  1
  S  S19  1  0.256636  0.487644  0.221540  1
  S  S20  1  0.810011  0.542253  0.413917  1
  S  S21  1  0.189989  0.457747  0.586083  1
