# generated using pymatgen
data_VGaPt5Rh
_symmetry_space_group_name_H-M   'P 1'
_cell_length_a   5.57571476
_cell_length_b   5.57571476
_cell_length_c   3.86336400
_cell_angle_alpha   90.00000000
_cell_angle_beta   90.00000000
_cell_angle_gamma   89.16544830
_symmetry_Int_Tables_number   1
_chemical_formula_structural   VGaPt5Rh
_chemical_formula_sum   'V1 Ga1 Pt5 Rh1'
_cell_volume   120.09381849
_cell_formula_units_Z   1
loop_
 _symmetry_equiv_pos_site_id
 _symmetry_equiv_pos_as_xyz
  1  'x, y, z'
loop_
 _atom_site_type_symbol
 _atom_site_label
 _atom_site_symmetry_multiplicity
 _atom_site_fract_x
 _atom_site_fract_y
 _atom_site_fract_z
 _atom_site_occupancy
  V  V0  1  0.011411  0.488589  0.500000  1
  Ga  Ga1  1  0.497151  0.002849  0.500000  1
  Pt  Pt2  1  0.759155  0.261056  0.000000  1
  Pt  Pt3  1  0.238944  0.740845  0.000000  1
  Pt  Pt4  1  0.749541  0.750459  0.000000  1
  Pt  Pt5  1  0.496471  0.495874  0.500000  1
  Pt  Pt6  1  0.004126  0.003529  0.500000  1
  Rh  Rh7  1  0.243201  0.256799  0.000000  1
