# generated using pymatgen
data_YbThNiOs3
_symmetry_space_group_name_H-M   'P 1'
_cell_length_a   5.27761108
_cell_length_b   5.27761148
_cell_length_c   5.37272628
_cell_angle_alpha   60.58390501
_cell_angle_beta   60.58389908
_cell_angle_gamma   60.00000954
_symmetry_Int_Tables_number   1
_chemical_formula_structural   YbThNiOs3
_chemical_formula_sum   'Yb1 Th1 Ni1 Os3'
_cell_volume   106.74109006
_cell_formula_units_Z   1
loop_
 _symmetry_equiv_pos_site_id
 _symmetry_equiv_pos_as_xyz
  1  'x, y, z'
loop_
 _atom_site_type_symbol
 _atom_site_label
 _atom_site_symmetry_multiplicity
 _atom_site_fract_x
 _atom_site_fract_y
 _atom_site_fract_z
 _atom_site_occupancy
  Yb  Yb0  1  0.749135  0.749135  0.752594  1
  Th  Th1  1  0.501290  0.501290  0.496131  1
  Ni  Ni2  1  0.123696  0.123696  0.628912  1
  Os  Os3  1  0.125107  0.125107  0.124121  1
  Os  Os4  1  0.625666  0.125107  0.124121  1
  Os  Os5  1  0.125107  0.625666  0.124121  1
