# generated using pymatgen
data_Hf2Fe3Ni7P6
_symmetry_space_group_name_H-M   'P 1'
_cell_length_a   3.61471200
_cell_length_b   10.14042400
_cell_length_c   11.78743200
_cell_angle_alpha   90.00000000
_cell_angle_beta   90.00000000
_cell_angle_gamma   90.00000000
_symmetry_Int_Tables_number   1
_chemical_formula_structural   Hf2Fe3Ni7P6
_chemical_formula_sum   'Hf4 Fe6 Ni14 P12'
_cell_volume   432.06492893
_cell_formula_units_Z   2
loop_
 _symmetry_equiv_pos_site_id
 _symmetry_equiv_pos_as_xyz
  1  'x, y, z'
loop_
 _atom_site_type_symbol
 _atom_site_label
 _atom_site_symmetry_multiplicity
 _atom_site_fract_x
 _atom_site_fract_y
 _atom_site_fract_z
 _atom_site_occupancy
  Hf  Hf0  1  0.250000  0.571727  0.707638  1
  Hf  Hf1  1  0.250000  0.928273  0.207638  1
  Hf  Hf2  1  0.750000  0.422349  0.290675  1
  Hf  Hf3  1  0.750000  0.077651  0.790675  1
  Fe  Fe4  1  0.750000  0.127263  0.298439  1
  Fe  Fe5  1  0.750000  0.372737  0.798439  1
  Fe  Fe6  1  0.250000  0.464539  0.931026  1
  Fe  Fe7  1  0.250000  0.035461  0.431026  1
  Fe  Fe8  1  0.750000  0.541156  0.070907  1
  Fe  Fe9  1  0.750000  0.958844  0.570907  1
  Ni  Ni10  1  0.250000  0.720675  0.994639  1
  Ni  Ni11  1  0.250000  0.779325  0.494639  1
  Ni  Ni12  1  0.750000  0.287495  0.009481  1
  Ni  Ni13  1  0.750000  0.212505  0.509481  1
  Ni  Ni14  1  0.250000  0.406539  0.483494  1
  Ni  Ni15  1  0.250000  0.093461  0.983494  1
  Ni  Ni16  1  0.750000  0.586596  0.515215  1
  Ni  Ni17  1  0.750000  0.913404  0.015215  1
  Ni  Ni18  1  0.250000  0.229055  0.173963  1
  Ni  Ni19  1  0.250000  0.270945  0.673963  1
  Ni  Ni20  1  0.750000  0.770403  0.822260  1
  Ni  Ni21  1  0.750000  0.729597  0.322260  1
  Ni  Ni22  1  0.250000  0.871764  0.703611  1
  Ni  Ni23  1  0.250000  0.628236  0.203611  1
  P  P24  1  0.250000  0.430929  0.114682  1
  P  P25  1  0.250000  0.069071  0.614682  1
  P  P26  1  0.750000  0.569464  0.884594  1
  P  P27  1  0.750000  0.930536  0.384594  1
  P  P28  1  0.250000  0.265936  0.864749  1
  P  P29  1  0.250000  0.234064  0.364749  1
  P  P30  1  0.750000  0.741471  0.131838  1
  P  P31  1  0.750000  0.758529  0.631838  1
  P  P32  1  0.250000  0.597841  0.389731  1
  P  P33  1  0.250000  0.902159  0.889731  1
  P  P34  1  0.750000  0.395743  0.613058  1
  P  P35  1  0.750000  0.104257  0.113058  1
