# generated using pymatgen
data_Yb2DyY5(B6Ru)4
_symmetry_space_group_name_H-M   'P 1'
_cell_length_a   3.66423600
_cell_length_b   9.16213044
_cell_length_c   11.55561708
_cell_angle_alpha   89.80727986
_cell_angle_beta   90.00000000
_cell_angle_gamma   90.00000000
_symmetry_Int_Tables_number   1
_chemical_formula_structural   Yb2DyY5(B6Ru)4
_chemical_formula_sum   'Yb2 Dy1 Y5 B24 Ru4'
_cell_volume   387.94538772
_cell_formula_units_Z   1
loop_
 _symmetry_equiv_pos_site_id
 _symmetry_equiv_pos_as_xyz
  1  'x, y, z'
loop_
 _atom_site_type_symbol
 _atom_site_label
 _atom_site_symmetry_multiplicity
 _atom_site_fract_x
 _atom_site_fract_y
 _atom_site_fract_z
 _atom_site_occupancy
  Yb  Yb0  1  0.000000  0.325676  0.414912  1
  Yb  Yb1  1  0.000000  0.674322  0.585072  1
  Dy  Dy2  1  0.000000  0.557440  0.868658  1
  Y  Y3  1  0.000000  0.822868  0.086189  1
  Y  Y4  1  0.000000  0.177153  0.913807  1
  Y  Y5  1  0.000000  0.941858  0.370003  1
  Y  Y6  1  0.000000  0.058133  0.629998  1
  Y  Y7  1  0.000000  0.442711  0.131039  1
  B  B8  1  0.500000  0.554255  0.432581  1
  B  B9  1  0.500000  0.445740  0.567460  1
  B  B10  1  0.500000  0.053852  0.066989  1
  B  B11  1  0.500000  0.946136  0.932995  1
  B  B12  1  0.500000  0.747336  0.418236  1
  B  B13  1  0.500000  0.252668  0.581790  1
  B  B14  1  0.500000  0.247877  0.081345  1
  B  B15  1  0.500000  0.752040  0.918566  1
  B  B16  1  0.500000  0.790744  0.265172  1
  B  B17  1  0.500000  0.209279  0.734814  1
  B  B18  1  0.500000  0.289688  0.234562  1
  B  B19  1  0.500000  0.710292  0.765553  1
  B  B20  1  0.500000  0.631776  0.185740  1
  B  B21  1  0.500000  0.368340  0.814223  1
  B  B22  1  0.500000  0.131357  0.313862  1
  B  B23  1  0.500000  0.868611  0.686167  1
  B  B24  1  0.500000  0.983863  0.211594  1
  B  B25  1  0.500000  0.016111  0.788422  1
  B  B26  1  0.500000  0.484443  0.288747  1
  B  B27  1  0.500000  0.515493  0.711356  1
  B  B28  1  0.500000  0.604432  0.028756  1
  B  B29  1  0.500000  0.395583  0.971210  1
  B  B30  1  0.500000  0.100548  0.472097  1
  B  B31  1  0.500000  0.899445  0.527901  1
  Ru  Ru32  1  0.000000  0.639729  0.319547  1
  Ru  Ru33  1  0.000000  0.360378  0.680608  1
  Ru  Ru34  1  0.000000  0.137029  0.178053  1
  Ru  Ru35  1  0.000000  0.862791  0.821976  1
