# generated using pymatgen
data_Hf2V3AgO12
_symmetry_space_group_name_H-M   'P 1'
_cell_length_a   9.49736923
_cell_length_b   9.49736781
_cell_length_c   9.49736900
_cell_angle_alpha   59.03937717
_cell_angle_beta   59.03937526
_cell_angle_gamma   59.03938668
_symmetry_Int_Tables_number   1
_chemical_formula_structural   Hf2V3AgO12
_chemical_formula_sum   'Hf4 V6 Ag2 O24'
_cell_volume   592.48174764
_cell_formula_units_Z   2
loop_
 _symmetry_equiv_pos_site_id
 _symmetry_equiv_pos_as_xyz
  1  'x, y, z'
loop_
 _atom_site_type_symbol
 _atom_site_label
 _atom_site_symmetry_multiplicity
 _atom_site_fract_x
 _atom_site_fract_y
 _atom_site_fract_z
 _atom_site_occupancy
  Hf  Hf0  1  0.359536  0.359536  0.359536  1
  Hf  Hf1  1  0.859536  0.859536  0.859536  1
  Hf  Hf2  1  0.640464  0.640464  0.640464  1
  Hf  Hf3  1  0.140464  0.140464  0.140464  1
  V  V4  1  0.962883  0.537117  0.250000  1
  V  V5  1  0.250000  0.962883  0.537117  1
  V  V6  1  0.537117  0.250000  0.962883  1
  V  V7  1  0.750000  0.037117  0.462883  1
  V  V8  1  0.462883  0.750000  0.037117  1
  V  V9  1  0.037117  0.462883  0.750000  1
  Ag  Ag10  1  0.500000  0.500000  0.500000  1
  Ag  Ag11  1  0.000000  0.000000  0.000000  1
  O  O12  1  0.132986  0.496558  0.302254  1
  O  O13  1  0.302254  0.132986  0.496558  1
  O  O14  1  0.496558  0.302254  0.132986  1
  O  O15  1  0.802254  0.996558  0.632986  1
  O  O16  1  0.632986  0.802254  0.996558  1
  O  O17  1  0.996558  0.632986  0.802254  1
  O  O18  1  0.867014  0.503442  0.697746  1
  O  O19  1  0.697746  0.867014  0.503442  1
  O  O20  1  0.503442  0.697746  0.867014  1
  O  O21  1  0.197746  0.003442  0.367014  1
  O  O22  1  0.367014  0.197746  0.003442  1
  O  O23  1  0.003442  0.367014  0.197746  1
  O  O24  1  0.232560  0.440951  0.574643  1
  O  O25  1  0.574643  0.232560  0.440951  1
  O  O26  1  0.440951  0.574643  0.232560  1
  O  O27  1  0.074643  0.940951  0.732560  1
  O  O28  1  0.732560  0.074643  0.940951  1
  O  O29  1  0.940951  0.732560  0.074643  1
  O  O30  1  0.767440  0.559049  0.425357  1
  O  O31  1  0.425357  0.767440  0.559049  1
  O  O32  1  0.559049  0.425357  0.767440  1
  O  O33  1  0.925357  0.059049  0.267440  1
  O  O34  1  0.267440  0.925357  0.059049  1
  O  O35  1  0.059049  0.267440  0.925357  1
