# generated using pymatgen
data_NdTh2Ga3IrRh2
_symmetry_space_group_name_H-M   'P 1'
_cell_length_a   7.35814636
_cell_length_b   7.29811666
_cell_length_c   4.01085000
_cell_angle_alpha   90.00000000
_cell_angle_beta   90.00000000
_cell_angle_gamma   119.78640982
_symmetry_Int_Tables_number   1
_chemical_formula_structural   NdTh2Ga3IrRh2
_chemical_formula_sum   'Nd1 Th2 Ga3 Ir1 Rh2'
_cell_volume   186.92912762
_cell_formula_units_Z   1
loop_
 _symmetry_equiv_pos_site_id
 _symmetry_equiv_pos_as_xyz
  1  'x, y, z'
loop_
 _atom_site_type_symbol
 _atom_site_label
 _atom_site_symmetry_multiplicity
 _atom_site_fract_x
 _atom_site_fract_y
 _atom_site_fract_z
 _atom_site_occupancy
  Nd  Nd0  1  0.000558  0.413287  0.500000  1
  Th  Th1  1  0.584679  0.587041  0.500000  1
  Th  Th2  1  0.415010  0.002159  0.500000  1
  Ga  Ga3  1  0.000185  0.749551  0.000000  1
  Ga  Ga4  1  0.229330  0.239055  0.000000  1
  Ga  Ga5  1  0.770604  0.009666  0.000000  1
  Ir  Ir6  1  0.356553  0.686781  0.000000  1
  Rh  Rh7  1  0.643097  0.330441  0.000000  1
  Rh  Rh8  1  0.999983  0.982018  0.500000  1
