# generated using pymatgen
data_SrY2Ho(Ir2O7)2
_symmetry_space_group_name_H-M   'P 1'
_cell_length_a   7.28968714
_cell_length_b   7.31386439
_cell_length_c   7.28804714
_cell_angle_alpha   60.12724354
_cell_angle_beta   59.99255149
_cell_angle_gamma   60.10928758
_symmetry_Int_Tables_number   1
_chemical_formula_structural   SrY2Ho(Ir2O7)2
_chemical_formula_sum   'Sr1 Y2 Ho1 Ir4 O14'
_cell_volume   275.23359042
_cell_formula_units_Z   1
loop_
 _symmetry_equiv_pos_site_id
 _symmetry_equiv_pos_as_xyz
  1  'x, y, z'
loop_
 _atom_site_type_symbol
 _atom_site_label
 _atom_site_symmetry_multiplicity
 _atom_site_fract_x
 _atom_site_fract_y
 _atom_site_fract_z
 _atom_site_occupancy
  Sr  Sr0  1  0.125000  0.625000  0.125000  1
  Y  Y1  1  0.625000  0.125000  0.125000  1
  Y  Y2  1  0.125000  0.125000  0.125000  1
  Ho  Ho3  1  0.125000  0.125000  0.625000  1
  Ir  Ir4  1  0.125000  0.625000  0.625000  1
  Ir  Ir5  1  0.625000  0.125000  0.625000  1
  Ir  Ir6  1  0.625000  0.625000  0.125000  1
  Ir  Ir7  1  0.625000  0.625000  0.625000  1
  O  O8  1  0.692052  0.719234  0.294356  1
  O  O9  1  0.292846  0.290450  0.707593  1
  O  O10  1  0.709110  0.290450  0.707593  1
  O  O11  1  0.294358  0.719234  0.294356  1
  O  O12  1  0.293918  0.720453  0.691712  1
  O  O13  1  0.707966  0.290840  0.293229  1
  O  O14  1  0.557948  0.530766  0.955644  1
  O  O15  1  0.957154  0.959550  0.542407  1
  O  O16  1  0.540890  0.959550  0.542407  1
  O  O17  1  0.955642  0.530766  0.955644  1
  O  O18  1  0.956082  0.529547  0.558288  1
  O  O19  1  0.542034  0.959160  0.956771  1
  O  O20  1  0.256742  0.227466  0.259051  1
  O  O21  1  0.993258  0.022534  0.990949  1
