# generated using pymatgen
data_Ho6Tm4(AlSb)3
_symmetry_space_group_name_H-M   'P 1'
_cell_length_a   8.76561957
_cell_length_b   8.77605226
_cell_length_c   6.40548000
_cell_angle_alpha   90.00000000
_cell_angle_beta   90.00000000
_cell_angle_gamma   119.62372721
_symmetry_Int_Tables_number   1
_chemical_formula_structural   Ho6Tm4(AlSb)3
_chemical_formula_sum   'Ho6 Tm4 Al3 Sb3'
_cell_volume   428.34956925
_cell_formula_units_Z   1
loop_
 _symmetry_equiv_pos_site_id
 _symmetry_equiv_pos_as_xyz
  1  'x, y, z'
loop_
 _atom_site_type_symbol
 _atom_site_label
 _atom_site_symmetry_multiplicity
 _atom_site_fract_x
 _atom_site_fract_y
 _atom_site_fract_z
 _atom_site_occupancy
  Ho  Ho0  1  0.234174  0.988957  0.250000  1
  Ho  Ho1  1  0.759195  0.002531  0.750000  1
  Ho  Ho2  1  0.986940  0.233784  0.250000  1
  Ho  Ho3  1  0.762722  0.763833  0.250000  1
  Ho  Ho4  1  0.243861  0.233088  0.750000  1
  Ho  Ho5  1  0.013336  0.770058  0.750000  1
  Tm  Tm6  1  0.332964  0.678826  0.002453  1
  Tm  Tm7  1  0.666352  0.325823  0.497360  1
  Tm  Tm8  1  0.666352  0.325823  0.002640  1
  Tm  Tm9  1  0.332964  0.678826  0.497547  1
  Al  Al10  1  0.599528  0.999384  0.250000  1
  Al  Al11  1  0.404457  0.003417  0.750000  1
  Al  Al12  1  0.995017  0.599783  0.250000  1
  Sb  Sb13  1  0.389559  0.393033  0.250000  1
  Sb  Sb14  1  0.607911  0.606001  0.750000  1
  Sb  Sb15  1  0.004668  0.396830  0.750000  1
