# generated using pymatgen
data_Be6Fe11Si6Ni
_symmetry_space_group_name_H-M   'P 1'
_cell_length_a   3.81514802
_cell_length_b   5.40158602
_cell_length_c   11.43600800
_cell_angle_alpha   90.00091872
_cell_angle_beta   90.00183291
_cell_angle_gamma   90.01022760
_symmetry_Int_Tables_number   1
_chemical_formula_structural   Be6Fe11Si6Ni
_chemical_formula_sum   'Be6 Fe11 Si6 Ni1'
_cell_volume   235.67153579
_cell_formula_units_Z   1
loop_
 _symmetry_equiv_pos_site_id
 _symmetry_equiv_pos_as_xyz
  1  'x, y, z'
loop_
 _atom_site_type_symbol
 _atom_site_label
 _atom_site_symmetry_multiplicity
 _atom_site_fract_x
 _atom_site_fract_y
 _atom_site_fract_z
 _atom_site_occupancy
  Be  Be0  1  0.999981  0.005583  0.001969  1
  Be  Be1  1  0.499940  0.503921  0.165274  1
  Be  Be2  1  0.999932  0.990838  0.333251  1
  Be  Be3  1  0.500015  0.503989  0.501410  1
  Be  Be4  1  0.000043  0.005556  0.664789  1
  Be  Be5  1  0.500039  0.490367  0.833323  1
  Fe  Fe6  1  0.499962  0.250142  0.001152  1
  Fe  Fe7  1  0.499919  0.749678  0.996813  1
  Fe  Fe8  1  0.999949  0.249379  0.170447  1
  Fe  Fe9  1  0.999954  0.749969  0.165503  1
  Fe  Fe10  1  0.499936  0.248848  0.333276  1
  Fe  Fe11  1  0.499901  0.751019  0.333352  1
  Fe  Fe12  1  0.000013  0.249451  0.496219  1
  Fe  Fe13  1  0.000015  0.749991  0.501177  1
  Fe  Fe14  1  0.500019  0.250203  0.665569  1
  Fe  Fe15  1  0.499986  0.749710  0.669821  1
  Fe  Fe16  1  0.000045  0.252140  0.833377  1
  Si  Si17  1  0.999991  0.494800  0.002587  1
  Si  Si18  1  0.499945  0.995647  0.164672  1
  Si  Si19  1  0.999930  0.507506  0.333222  1
  Si  Si20  1  0.500020  0.995583  0.502003  1
  Si  Si21  1  0.000036  0.494943  0.664213  1
  Si  Si22  1  0.500005  0.011196  0.833336  1
  Ni  Ni23  1  0.000422  0.749545  0.833244  1
