# generated using pymatgen
data_TiCo(BrO3)6
_symmetry_space_group_name_H-M   'P 1'
_cell_length_a   9.15242900
_cell_length_b   9.15242947
_cell_length_c   5.71740600
_cell_angle_alpha   90.00000000
_cell_angle_beta   90.00000000
_cell_angle_gamma   119.99999908
_symmetry_Int_Tables_number   1
_chemical_formula_structural   TiCo(BrO3)6
_chemical_formula_sum   'Ti1 Co1 Br6 O18'
_cell_volume   414.76531235
_cell_formula_units_Z   1
loop_
 _symmetry_equiv_pos_site_id
 _symmetry_equiv_pos_as_xyz
  1  'x, y, z'
loop_
 _atom_site_type_symbol
 _atom_site_label
 _atom_site_symmetry_multiplicity
 _atom_site_fract_x
 _atom_site_fract_y
 _atom_site_fract_z
 _atom_site_occupancy
  Ti  Ti0  1  0.333333  0.666667  0.631539  1
  Co  Co1  1  0.666667  0.333333  0.133990  1
  Br  Br2  1  0.345770  0.323031  0.465541  1
  Br  Br3  1  0.977260  0.654230  0.465541  1
  Br  Br4  1  0.018925  0.339918  0.955788  1
  Br  Br5  1  0.320993  0.981075  0.955788  1
  Br  Br6  1  0.660082  0.679007  0.955788  1
  Br  Br7  1  0.676969  0.022740  0.465541  1
  O  O8  1  0.815961  0.283459  0.900298  1
  O  O9  1  0.525233  0.805377  0.422226  1
  O  O10  1  0.280144  0.474767  0.422226  1
  O  O11  1  0.716541  0.532502  0.900298  1
  O  O12  1  0.467498  0.184039  0.900298  1
  O  O13  1  0.194623  0.719856  0.422226  1
  O  O14  1  0.419047  0.872119  0.830031  1
  O  O15  1  0.541386  0.425865  0.342246  1
  O  O16  1  0.826333  0.048354  0.284981  1
  O  O17  1  0.778342  0.836230  0.781709  1
  O  O18  1  0.057889  0.221658  0.781709  1
  O  O19  1  0.951646  0.777979  0.284981  1
  O  O20  1  0.222021  0.173667  0.284981  1
  O  O21  1  0.884479  0.458614  0.342246  1
  O  O22  1  0.574135  0.115521  0.342246  1
  O  O23  1  0.453072  0.580953  0.830031  1
  O  O24  1  0.127881  0.546928  0.830031  1
  O  O25  1  0.163770  0.942111  0.781709  1
