# generated using pymatgen
data_CsNaSe12
_symmetry_space_group_name_H-M   'P 1'
_cell_length_a   11.47665650
_cell_length_b   11.47665741
_cell_length_c   11.47633257
_cell_angle_alpha   129.52619646
_cell_angle_beta   120.90707966
_cell_angle_gamma   81.37041311
_symmetry_Int_Tables_number   1
_chemical_formula_structural   CsNaSe12
_chemical_formula_sum   'Cs2 Na2 Se24'
_cell_volume   963.99690799
_cell_formula_units_Z   2
loop_
 _symmetry_equiv_pos_site_id
 _symmetry_equiv_pos_as_xyz
  1  'x, y, z'
loop_
 _atom_site_type_symbol
 _atom_site_label
 _atom_site_symmetry_multiplicity
 _atom_site_fract_x
 _atom_site_fract_y
 _atom_site_fract_z
 _atom_site_occupancy
  Cs  Cs0  1  0.749999  0.249999  0.500000  1
  Cs  Cs1  1  0.250001  0.750001  0.500000  1
  Na  Na2  1  0.500000  0.500000  0.000000  1
  Na  Na3  1  0.000000  0.000000  0.000000  1
  Se  Se4  1  0.646696  0.749992  0.896696  1
  Se  Se5  1  0.853296  0.750000  0.103304  1
  Se  Se6  1  0.353304  0.250008  0.103304  1
  Se  Se7  1  0.146704  0.250000  0.896696  1
  Se  Se8  1  0.270891  0.180709  0.721530  1
  Se  Se9  1  0.229102  0.950649  0.909817  1
  Se  Se10  1  0.040832  0.319285  0.090183  1
  Se  Se11  1  0.459179  0.549361  0.278470  1
  Se  Se12  1  0.729109  0.819291  0.278470  1
  Se  Se13  1  0.770898  0.049351  0.090183  1
  Se  Se14  1  0.959168  0.680715  0.909817  1
  Se  Se15  1  0.540821  0.450639  0.721530  1
  Se  Se16  1  0.904876  0.815236  0.506351  1
  Se  Se17  1  0.595133  0.101470  0.910370  1
  Se  Se18  1  0.191102  0.684765  0.089630  1
  Se  Se19  1  0.308884  0.398524  0.493649  1
  Se  Se20  1  0.095124  0.184764  0.493649  1
  Se  Se21  1  0.404867  0.898530  0.089630  1
  Se  Se22  1  0.808899  0.315235  0.910370  1
  Se  Se23  1  0.691116  0.601476  0.506351  1
  Se  Se24  1  0.665798  0.063813  0.729610  1
  Se  Se25  1  0.834210  0.563808  0.398017  1
  Se  Se26  1  0.165790  0.436192  0.601983  1
  Se  Se27  1  0.334202  0.936187  0.270390  1
