# generated using pymatgen
data_YTaReB6
_symmetry_space_group_name_H-M   'P 1'
_cell_length_a   3.55535100
_cell_length_b   8.94662700
_cell_length_c   11.31115600
_cell_angle_alpha   90.00000000
_cell_angle_beta   90.00000000
_cell_angle_gamma   90.00000000
_symmetry_Int_Tables_number   1
_chemical_formula_structural   YTaReB6
_chemical_formula_sum   'Y4 Ta4 Re4 B24'
_cell_volume   359.78976604
_cell_formula_units_Z   4
loop_
 _symmetry_equiv_pos_site_id
 _symmetry_equiv_pos_as_xyz
  1  'x, y, z'
loop_
 _atom_site_type_symbol
 _atom_site_label
 _atom_site_symmetry_multiplicity
 _atom_site_fract_x
 _atom_site_fract_y
 _atom_site_fract_z
 _atom_site_occupancy
  Y  Y0  1  0.000000  0.322636  0.413548  1
  Y  Y1  1  0.000000  0.677364  0.586452  1
  Y  Y2  1  0.000000  0.822636  0.086452  1
  Y  Y3  1  0.000000  0.177364  0.913548  1
  Ta  Ta4  1  0.000000  0.945584  0.374477  1
  Ta  Ta5  1  0.000000  0.054416  0.625523  1
  Ta  Ta6  1  0.000000  0.445584  0.125523  1
  Ta  Ta7  1  0.000000  0.554416  0.874477  1
  Re  Re8  1  0.000000  0.643138  0.317358  1
  Re  Re9  1  0.000000  0.356862  0.682642  1
  Re  Re10  1  0.000000  0.143138  0.182642  1
  Re  Re11  1  0.000000  0.856862  0.817358  1
  B  B12  1  0.500000  0.554491  0.433744  1
  B  B13  1  0.500000  0.445509  0.566256  1
  B  B14  1  0.500000  0.054491  0.066256  1
  B  B15  1  0.500000  0.945509  0.933744  1
  B  B16  1  0.500000  0.754635  0.418078  1
  B  B17  1  0.500000  0.245365  0.581922  1
  B  B18  1  0.500000  0.254635  0.081922  1
  B  B19  1  0.500000  0.745365  0.918078  1
  B  B20  1  0.500000  0.797086  0.263268  1
  B  B21  1  0.500000  0.202914  0.736732  1
  B  B22  1  0.500000  0.297086  0.236732  1
  B  B23  1  0.500000  0.702914  0.763268  1
  B  B24  1  0.500000  0.629027  0.181310  1
  B  B25  1  0.500000  0.370973  0.818690  1
  B  B26  1  0.500000  0.129027  0.318690  1
  B  B27  1  0.500000  0.870973  0.681310  1
  B  B28  1  0.500000  0.981203  0.214122  1
  B  B29  1  0.500000  0.018797  0.785878  1
  B  B30  1  0.500000  0.481203  0.285878  1
  B  B31  1  0.500000  0.518797  0.714122  1
  B  B32  1  0.500000  0.598754  0.026379  1
  B  B33  1  0.500000  0.401246  0.973621  1
  B  B34  1  0.500000  0.098754  0.473621  1
  B  B35  1  0.500000  0.901246  0.526379  1
