# generated using pymatgen
data_Pr3Sm(TaN2)4
_symmetry_space_group_name_H-M   'P 1'
_cell_length_a   3.39079800
_cell_length_b   5.83356317
_cell_length_c   11.09763328
_cell_angle_alpha   89.92688016
_cell_angle_beta   90.00000000
_cell_angle_gamma   90.00000000
_symmetry_Int_Tables_number   1
_chemical_formula_structural   Pr3Sm(TaN2)4
_chemical_formula_sum   'Pr3 Sm1 Ta4 N8'
_cell_volume   219.51582781
_cell_formula_units_Z   1
loop_
 _symmetry_equiv_pos_site_id
 _symmetry_equiv_pos_as_xyz
  1  'x, y, z'
loop_
 _atom_site_type_symbol
 _atom_site_label
 _atom_site_symmetry_multiplicity
 _atom_site_fract_x
 _atom_site_fract_y
 _atom_site_fract_z
 _atom_site_occupancy
  Pr  Pr0  1  0.250000  0.585992  0.863269  1
  Pr  Pr1  1  0.750000  0.414479  0.136489  1
  Pr  Pr2  1  0.750000  0.913967  0.364466  1
  Sm  Sm3  1  0.250000  0.086187  0.636901  1
  Ta  Ta4  1  0.250000  0.919798  0.111775  1
  Ta  Ta5  1  0.750000  0.080676  0.886852  1
  Ta  Ta6  1  0.750000  0.581086  0.611315  1
  Ta  Ta7  1  0.250000  0.418434  0.389189  1
  N  N8  1  0.250000  0.663121  0.247039  1
  N  N9  1  0.750000  0.334645  0.751377  1
  N  N10  1  0.750000  0.840377  0.743781  1
  N  N11  1  0.250000  0.163549  0.253941  1
  N  N12  1  0.250000  0.721754  0.515432  1
  N  N13  1  0.750000  0.276111  0.489481  1
  N  N14  1  0.750000  0.782044  0.012896  1
  N  N15  1  0.250000  0.217780  0.985798  1
