# generated using pymatgen
data_Hf3Ga3OsAu2
_symmetry_space_group_name_H-M   'P 1'
_cell_length_a   7.29851600
_cell_length_b   7.29851577
_cell_length_c   7.04893600
_cell_angle_alpha   90.00000000
_cell_angle_beta   90.00000000
_cell_angle_gamma   119.99999319
_symmetry_Int_Tables_number   1
_chemical_formula_structural   Hf3Ga3OsAu2
_chemical_formula_sum   'Hf6 Ga6 Os2 Au4'
_cell_volume   325.17963864
_cell_formula_units_Z   2
loop_
 _symmetry_equiv_pos_site_id
 _symmetry_equiv_pos_as_xyz
  1  'x, y, z'
loop_
 _atom_site_type_symbol
 _atom_site_label
 _atom_site_symmetry_multiplicity
 _atom_site_fract_x
 _atom_site_fract_y
 _atom_site_fract_z
 _atom_site_occupancy
  Hf  Hf0  1  0.603623  0.608534  0.250000  1
  Hf  Hf1  1  0.038053  0.413960  0.750000  1
  Hf  Hf2  1  0.391466  0.995089  0.250000  1
  Hf  Hf3  1  0.004911  0.396377  0.250000  1
  Hf  Hf4  1  0.375907  0.961947  0.750000  1
  Hf  Hf5  1  0.586040  0.624093  0.750000  1
  Ga  Ga6  1  0.276680  0.274844  0.497065  1
  Ga  Ga7  1  0.725156  0.001836  0.497065  1
  Ga  Ga8  1  0.998164  0.723320  0.497065  1
  Ga  Ga9  1  0.725156  0.001836  0.002935  1
  Ga  Ga10  1  0.276680  0.274844  0.002935  1
  Ga  Ga11  1  0.998164  0.723320  0.002935  1
  Os  Os12  1  0.333333  0.666667  0.481119  1
  Os  Os13  1  0.333333  0.666667  0.018881  1
  Au  Au14  1  0.000000  0.000000  0.750000  1
  Au  Au15  1  0.000000  0.000000  0.250000  1
  Au  Au16  1  0.666667  0.333333  0.530646  1
  Au  Au17  1  0.666667  0.333333  0.969354  1
