# generated using pymatgen
data_Er10In8CoIr3
_symmetry_space_group_name_H-M   'P 1'
_cell_length_a   3.60636500
_cell_length_b   7.98176101
_cell_length_c   18.13100418
_cell_angle_alpha   89.98957348
_cell_angle_beta   90.00000000
_cell_angle_gamma   90.00000000
_symmetry_Int_Tables_number   1
_chemical_formula_structural   Er10In8CoIr3
_chemical_formula_sum   'Er10 In8 Co1 Ir3'
_cell_volume   521.90354904
_cell_formula_units_Z   1
loop_
 _symmetry_equiv_pos_site_id
 _symmetry_equiv_pos_as_xyz
  1  'x, y, z'
loop_
 _atom_site_type_symbol
 _atom_site_label
 _atom_site_symmetry_multiplicity
 _atom_site_fract_x
 _atom_site_fract_y
 _atom_site_fract_z
 _atom_site_occupancy
  Er  Er0  1  0.000000  0.114153  0.407208  1
  Er  Er1  1  0.000000  0.883017  0.588054  1
  Er  Er2  1  0.000000  0.383048  0.911054  1
  Er  Er3  1  0.000000  0.617278  0.090271  1
  Er  Er4  1  0.000000  0.245714  0.223897  1
  Er  Er5  1  0.000000  0.754392  0.777172  1
  Er  Er6  1  0.000000  0.253924  0.721961  1
  Er  Er7  1  0.000000  0.749442  0.278369  1
  Er  Er8  1  0.000000  0.999633  0.001105  1
  Er  Er9  1  0.000000  0.500021  0.499229  1
  In  In10  1  0.500000  0.428873  0.351231  1
  In  In11  1  0.500000  0.569049  0.648268  1
  In  In12  1  0.500000  0.068914  0.851243  1
  In  In13  1  0.500000  0.933260  0.152838  1
  In  In14  1  0.500000  0.293303  0.068802  1
  In  In15  1  0.500000  0.707046  0.932768  1
  In  In16  1  0.500000  0.205650  0.565691  1
  In  In17  1  0.500000  0.795571  0.429665  1
  Co  Co18  1  0.500000  0.019114  0.305042  1
  Ir  Ir19  1  0.500000  0.978915  0.694981  1
  Ir  Ir20  1  0.500000  0.478275  0.803857  1
  Ir  Ir21  1  0.500000  0.521408  0.197291  1
