# generated using pymatgen
data_Sr2AsPIr2
_symmetry_space_group_name_H-M   'P 1'
_cell_length_a   6.47243100
_cell_length_b   6.50788825
_cell_length_c   6.50625028
_cell_angle_alpha   89.88524231
_cell_angle_beta   90.00000000
_cell_angle_gamma   90.00000000
_symmetry_Int_Tables_number   1
_chemical_formula_structural   Sr2AsPIr2
_chemical_formula_sum   'Sr4 As2 P2 Ir4'
_cell_volume   274.05479828
_cell_formula_units_Z   2
loop_
 _symmetry_equiv_pos_site_id
 _symmetry_equiv_pos_as_xyz
  1  'x, y, z'
loop_
 _atom_site_type_symbol
 _atom_site_label
 _atom_site_symmetry_multiplicity
 _atom_site_fract_x
 _atom_site_fract_y
 _atom_site_fract_z
 _atom_site_occupancy
  Sr  Sr0  1  0.622719  0.381650  0.878853  1
  Sr  Sr1  1  0.380132  0.877071  0.620621  1
  Sr  Sr2  1  0.122719  0.118350  0.121147  1
  Sr  Sr3  1  0.880132  0.622929  0.379379  1
  As  As4  1  0.164283  0.338604  0.668082  1
  As  As5  1  0.664283  0.161396  0.331918  1
  P  P6  1  0.337817  0.665254  0.158991  1
  P  P7  1  0.837817  0.834746  0.841009  1
  Ir  Ir8  1  0.587527  0.898307  0.078388  1
  Ir  Ir9  1  0.087527  0.601693  0.921612  1
  Ir  Ir10  1  0.407522  0.422723  0.398383  1
  Ir  Ir11  1  0.907522  0.077277  0.601617  1
