# generated using pymatgen
data_Sc2Si(Ni2P)6
_symmetry_space_group_name_H-M   'P 1'
_cell_length_a   9.00349226
_cell_length_b   9.00215743
_cell_length_c   3.58648200
_cell_angle_alpha   90.00000000
_cell_angle_beta   90.00000000
_cell_angle_gamma   119.94238688
_symmetry_Int_Tables_number   1
_chemical_formula_structural   Sc2Si(Ni2P)6
_chemical_formula_sum   'Sc2 Si1 Ni12 P6'
_cell_volume   251.88872179
_cell_formula_units_Z   1
loop_
 _symmetry_equiv_pos_site_id
 _symmetry_equiv_pos_as_xyz
  1  'x, y, z'
loop_
 _atom_site_type_symbol
 _atom_site_label
 _atom_site_symmetry_multiplicity
 _atom_site_fract_x
 _atom_site_fract_y
 _atom_site_fract_z
 _atom_site_occupancy
  Sc  Sc0  1  0.333200  0.666688  0.000000  1
  Sc  Sc1  1  0.666816  0.333557  0.500000  1
  Si  Si2  1  0.999890  0.999887  0.000000  1
  Ni  Ni3  1  0.627357  0.063562  0.000000  1
  Ni  Ni4  1  0.123489  0.283268  0.000000  1
  Ni  Ni5  1  0.435931  0.372623  0.000000  1
  Ni  Ni6  1  0.936899  0.564128  0.000000  1
  Ni  Ni7  1  0.716157  0.839672  0.000000  1
  Ni  Ni8  1  0.160205  0.876675  0.000000  1
  Ni  Ni9  1  0.874274  0.092109  0.500000  1
  Ni  Ni10  1  0.217889  0.125810  0.500000  1
  Ni  Ni11  1  0.050204  0.434703  0.500000  1
  Ni  Ni12  1  0.565016  0.615231  0.500000  1
  Ni  Ni13  1  0.907786  0.781915  0.500000  1
  Ni  Ni14  1  0.384802  0.950003  0.500000  1
  P  P15  1  0.412221  0.118780  0.000000  1
  P  P16  1  0.881288  0.293366  0.000000  1
  P  P17  1  0.706552  0.587937  0.000000  1
  P  P18  1  0.292868  0.411092  0.500000  1
  P  P19  1  0.118212  0.707185  0.500000  1
  P  P20  1  0.588942  0.881817  0.500000  1
