# generated using pymatgen
data_NdSe27
_symmetry_space_group_name_H-M   'P 1'
_cell_length_a   14.84073178
_cell_length_b   14.84073236
_cell_length_c   14.84073222
_cell_angle_alpha   118.74406805
_cell_angle_beta   118.74406642
_cell_angle_gamma   118.74406500
_symmetry_Int_Tables_number   1
_chemical_formula_structural   NdSe27
_chemical_formula_sum   'Nd1 Se27'
_cell_volume   946.11916609
_cell_formula_units_Z   1
loop_
 _symmetry_equiv_pos_site_id
 _symmetry_equiv_pos_as_xyz
  1  'x, y, z'
loop_
 _atom_site_type_symbol
 _atom_site_label
 _atom_site_symmetry_multiplicity
 _atom_site_fract_x
 _atom_site_fract_y
 _atom_site_fract_z
 _atom_site_occupancy
  Nd  Nd0  1  0.412907  0.412907  0.412907  1
  Se  Se1  1  0.044415  0.660647  0.660647  1
  Se  Se2  1  0.660647  0.660647  0.044415  1
  Se  Se3  1  0.660647  0.044415  0.660647  1
  Se  Se4  1  0.295796  0.911812  0.767657  1
  Se  Se5  1  0.911812  0.767657  0.295796  1
  Se  Se6  1  0.767657  0.295796  0.911812  1
  Se  Se7  1  0.911812  0.295796  0.767657  1
  Se  Se8  1  0.295796  0.767657  0.911812  1
  Se  Se9  1  0.767657  0.911812  0.295796  1
  Se  Se10  1  0.079609  0.605981  0.407258  1
  Se  Se11  1  0.605981  0.407258  0.079609  1
  Se  Se12  1  0.407258  0.079609  0.605981  1
  Se  Se13  1  0.605981  0.079609  0.407258  1
  Se  Se14  1  0.079609  0.407258  0.605981  1
  Se  Se15  1  0.407258  0.605981  0.079609  1
  Se  Se16  1  0.377414  0.740418  0.591665  1
  Se  Se17  1  0.740418  0.591665  0.377414  1
  Se  Se18  1  0.591665  0.377414  0.740418  1
  Se  Se19  1  0.740418  0.377414  0.591665  1
  Se  Se20  1  0.377414  0.591665  0.740418  1
  Se  Se21  1  0.591665  0.740418  0.377414  1
  Se  Se22  1  0.169881  0.403049  0.403049  1
  Se  Se23  1  0.403049  0.403049  0.169881  1
  Se  Se24  1  0.403049  0.169881  0.403049  1
  Se  Se25  1  0.990359  0.873462  0.873462  1
  Se  Se26  1  0.873462  0.873462  0.990359  1
  Se  Se27  1  0.873462  0.990359  0.873462  1
