# generated using pymatgen
data_Pr2PaS5
_symmetry_space_group_name_H-M   'P 1'
_cell_length_a   7.52729800
_cell_length_b   8.13461400
_cell_length_c   12.08438400
_cell_angle_alpha   90.00000000
_cell_angle_beta   90.00000000
_cell_angle_gamma   90.00065130
_symmetry_Int_Tables_number   1
_chemical_formula_structural   Pr2PaS5
_chemical_formula_sum   'Pr8 Pa4 S20'
_cell_volume   739.94693700
_cell_formula_units_Z   4
loop_
 _symmetry_equiv_pos_site_id
 _symmetry_equiv_pos_as_xyz
  1  'x, y, z'
loop_
 _atom_site_type_symbol
 _atom_site_label
 _atom_site_symmetry_multiplicity
 _atom_site_fract_x
 _atom_site_fract_y
 _atom_site_fract_z
 _atom_site_occupancy
  Pr  Pr0  1  0.471090  0.500204  0.177061  1
  Pr  Pr1  1  0.028910  0.999796  0.677061  1
  Pr  Pr2  1  0.528907  0.000202  0.822939  1
  Pr  Pr3  1  0.971093  0.499798  0.322939  1
  Pr  Pr4  1  0.528910  0.499796  0.822939  1
  Pr  Pr5  1  0.971090  0.000204  0.322939  1
  Pr  Pr6  1  0.471093  0.999798  0.177061  1
  Pr  Pr7  1  0.028907  0.500202  0.677061  1
  Pa  Pa8  1  0.931806  0.750003  0.006394  1
  Pa  Pa9  1  0.568194  0.749997  0.506394  1
  Pa  Pa10  1  0.068194  0.249997  0.993606  1
  Pa  Pa11  1  0.431806  0.250003  0.493606  1
  S  S12  1  0.165904  0.750001  0.185701  1
  S  S13  1  0.334096  0.749999  0.685701  1
  S  S14  1  0.834096  0.249999  0.814299  1
  S  S15  1  0.665904  0.250001  0.314299  1
  S  S16  1  0.690106  0.750000  0.287773  1
  S  S17  1  0.809894  0.750000  0.787773  1
  S  S18  1  0.309894  0.250000  0.712227  1
  S  S19  1  0.190106  0.250000  0.212227  1
  S  S20  1  0.550653  0.750000  0.001286  1
  S  S21  1  0.949347  0.750000  0.501286  1
  S  S22  1  0.449347  0.250000  0.998714  1
  S  S23  1  0.050653  0.250000  0.498714  1
  S  S24  1  0.836165  0.460330  0.094616  1
  S  S25  1  0.663835  0.039670  0.594616  1
  S  S26  1  0.163836  0.960326  0.905382  1
  S  S27  1  0.336164  0.539674  0.405382  1
  S  S28  1  0.163835  0.539670  0.905384  1
  S  S29  1  0.336165  0.960330  0.405384  1
  S  S30  1  0.836164  0.039674  0.094618  1
  S  S31  1  0.663836  0.460326  0.594618  1
