# generated using pymatgen
data_Tb5Dy5(IrPb3)2
_symmetry_space_group_name_H-M   'P 1'
_cell_length_a   9.23462500
_cell_length_b   9.23374675
_cell_length_c   6.89392600
_cell_angle_alpha   90.00000000
_cell_angle_beta   90.00000000
_cell_angle_gamma   120.00314279
_symmetry_Int_Tables_number   1
_chemical_formula_structural   Tb5Dy5(IrPb3)2
_chemical_formula_sum   'Tb5 Dy5 Ir2 Pb6'
_cell_volume   509.07376692
_cell_formula_units_Z   1
loop_
 _symmetry_equiv_pos_site_id
 _symmetry_equiv_pos_as_xyz
  1  'x, y, z'
loop_
 _atom_site_type_symbol
 _atom_site_label
 _atom_site_symmetry_multiplicity
 _atom_site_fract_x
 _atom_site_fract_y
 _atom_site_fract_z
 _atom_site_occupancy
  Tb  Tb0  1  0.235466  0.000000  0.250000  1
  Tb  Tb1  1  0.333344  0.666660  0.500007  1
  Tb  Tb2  1  0.666685  0.333340  0.500007  1
  Tb  Tb3  1  0.333344  0.666660  0.999993  1
  Tb  Tb4  1  0.666685  0.333340  0.999993  1
  Dy  Dy5  1  0.000004  0.764624  0.750000  1
  Dy  Dy6  1  0.999996  0.235389  0.250000  1
  Dy  Dy7  1  0.764658  0.000000  0.750000  1
  Dy  Dy8  1  0.235380  0.235376  0.750000  1
  Dy  Dy9  1  0.764606  0.764611  0.250000  1
  Ir  Ir10  1  0.999892  0.000000  0.999893  1
  Ir  Ir11  1  0.999892  0.000000  0.500107  1
  Pb  Pb12  1  0.594014  0.000000  0.250000  1
  Pb  Pb13  1  0.406046  0.000000  0.750000  1
  Pb  Pb14  1  0.999961  0.593891  0.250000  1
  Pb  Pb15  1  0.593960  0.593965  0.750000  1
  Pb  Pb16  1  0.406070  0.406109  0.250000  1
  Pb  Pb17  1  0.999995  0.406035  0.750000  1
