# generated using pymatgen
data_Zr6Sc8Ga8Ir7
_symmetry_space_group_name_H-M   'P 1'
_cell_length_a   9.08006169
_cell_length_b   9.08006231
_cell_length_c   9.08006200
_cell_angle_alpha   60.00000113
_cell_angle_beta   59.99999886
_cell_angle_gamma   60.00000151
_symmetry_Int_Tables_number   1
_chemical_formula_structural   Zr6Sc8Ga8Ir7
_chemical_formula_sum   'Zr6 Sc8 Ga8 Ir7'
_cell_volume   529.36039891
_cell_formula_units_Z   1
loop_
 _symmetry_equiv_pos_site_id
 _symmetry_equiv_pos_as_xyz
  1  'x, y, z'
loop_
 _atom_site_type_symbol
 _atom_site_label
 _atom_site_symmetry_multiplicity
 _atom_site_fract_x
 _atom_site_fract_y
 _atom_site_fract_z
 _atom_site_occupancy
  Zr  Zr0  1  0.680053  0.680053  0.319947  1
  Zr  Zr1  1  0.319947  0.680053  0.319947  1
  Zr  Zr2  1  0.680053  0.319947  0.319947  1
  Zr  Zr3  1  0.319947  0.319947  0.680053  1
  Zr  Zr4  1  0.680053  0.319947  0.680053  1
  Zr  Zr5  1  0.319947  0.680053  0.680053  1
  Sc  Sc6  1  0.875390  0.875390  0.373833  1
  Sc  Sc7  1  0.875390  0.373833  0.875390  1
  Sc  Sc8  1  0.373833  0.875390  0.875390  1
  Sc  Sc9  1  0.875390  0.875390  0.875390  1
  Sc  Sc10  1  0.124610  0.124610  0.626167  1
  Sc  Sc11  1  0.124610  0.626167  0.124610  1
  Sc  Sc12  1  0.626167  0.124610  0.124610  1
  Sc  Sc13  1  0.124610  0.124610  0.124610  1
  Ga  Ga14  1  0.657940  0.657940  0.026179  1
  Ga  Ga15  1  0.657940  0.026179  0.657940  1
  Ga  Ga16  1  0.026179  0.657940  0.657940  1
  Ga  Ga17  1  0.657940  0.657940  0.657940  1
  Ga  Ga18  1  0.342060  0.342060  0.973821  1
  Ga  Ga19  1  0.342060  0.973821  0.342060  1
  Ga  Ga20  1  0.973821  0.342060  0.342060  1
  Ga  Ga21  1  0.342060  0.342060  0.342060  1
  Ir  Ir22  1  0.000000  0.000000  0.000000  1
  Ir  Ir23  1  0.000000  0.000000  0.500000  1
  Ir  Ir24  1  0.500000  0.000000  0.500000  1
  Ir  Ir25  1  0.000000  0.500000  0.500000  1
  Ir  Ir26  1  0.500000  0.500000  0.000000  1
  Ir  Ir27  1  0.000000  0.500000  0.000000  1
  Ir  Ir28  1  0.500000  0.000000  0.000000  1
