# generated using pymatgen
data_Sm2Ho4CoP12Rh17
_symmetry_space_group_name_H-M   'P 1'
_cell_length_a   3.89597300
_cell_length_b   11.18665900
_cell_length_c   12.81972100
_cell_angle_alpha   90.00000000
_cell_angle_beta   90.00000000
_cell_angle_gamma   90.00000000
_symmetry_Int_Tables_number   1
_chemical_formula_structural   Sm2Ho4CoP12Rh17
_chemical_formula_sum   'Sm2 Ho4 Co1 P12 Rh17'
_cell_volume   558.72089302
_cell_formula_units_Z   1
loop_
 _symmetry_equiv_pos_site_id
 _symmetry_equiv_pos_as_xyz
  1  'x, y, z'
loop_
 _atom_site_type_symbol
 _atom_site_label
 _atom_site_symmetry_multiplicity
 _atom_site_fract_x
 _atom_site_fract_y
 _atom_site_fract_z
 _atom_site_occupancy
  Sm  Sm0  1  0.000000  0.500000  0.521114  1
  Sm  Sm1  1  0.500000  0.000000  0.478284  1
  Ho  Ho2  1  0.500000  0.817409  0.202860  1
  Ho  Ho3  1  0.500000  0.182591  0.202860  1
  Ho  Ho4  1  0.000000  0.688109  0.797223  1
  Ho  Ho5  1  0.000000  0.311891  0.797223  1
  Co  Co6  1  0.500000  0.000000  0.022259  1
  P  P7  1  0.500000  0.314505  0.619945  1
  P  P8  1  0.500000  0.685495  0.619945  1
  P  P9  1  0.000000  0.185307  0.380160  1
  P  P10  1  0.000000  0.814693  0.380160  1
  P  P11  1  0.500000  0.500000  0.879017  1
  P  P12  1  0.000000  0.000000  0.119445  1
  P  P13  1  0.500000  0.855255  0.896072  1
  P  P14  1  0.500000  0.144745  0.896072  1
  P  P15  1  0.000000  0.655465  0.106454  1
  P  P16  1  0.000000  0.344535  0.106454  1
  P  P17  1  0.500000  0.500000  0.348192  1
  P  P18  1  0.000000  0.000000  0.650045  1
  Rh  Rh19  1  0.000000  0.500000  0.979305  1
  Rh  Rh20  1  0.500000  0.292801  0.429665  1
  Rh  Rh21  1  0.500000  0.707199  0.429665  1
  Rh  Rh22  1  0.000000  0.206878  0.570100  1
  Rh  Rh23  1  0.000000  0.793122  0.570100  1
  Rh  Rh24  1  0.500000  0.873308  0.712461  1
  Rh  Rh25  1  0.500000  0.126692  0.712461  1
  Rh  Rh26  1  0.000000  0.627917  0.286994  1
  Rh  Rh27  1  0.000000  0.372083  0.286994  1
  Rh  Rh28  1  0.500000  0.331171  0.993831  1
  Rh  Rh29  1  0.500000  0.668829  0.993831  1
  Rh  Rh30  1  0.000000  0.160506  0.006217  1
  Rh  Rh31  1  0.000000  0.839494  0.006217  1
  Rh  Rh32  1  0.500000  0.500000  0.166948  1
  Rh  Rh33  1  0.000000  0.000000  0.831446  1
  Rh  Rh34  1  0.500000  0.500000  0.703670  1
  Rh  Rh35  1  0.000000  0.000000  0.296309  1
