# generated using pymatgen
data_Nb12Al3Ga5(NiN)4
_symmetry_space_group_name_H-M   'P 1'
_cell_length_a   8.20411409
_cell_length_b   8.20471973
_cell_length_c   8.20411308
_cell_angle_alpha   59.97006422
_cell_angle_beta   59.95658613
_cell_angle_gamma   59.97006694
_symmetry_Int_Tables_number   1
_chemical_formula_structural   Nb12Al3Ga5(NiN)4
_chemical_formula_sum   'Nb12 Al3 Ga5 Ni4 N4'
_cell_volume   390.18706373
_cell_formula_units_Z   1
loop_
 _symmetry_equiv_pos_site_id
 _symmetry_equiv_pos_as_xyz
  1  'x, y, z'
loop_
 _atom_site_type_symbol
 _atom_site_label
 _atom_site_symmetry_multiplicity
 _atom_site_fract_x
 _atom_site_fract_y
 _atom_site_fract_z
 _atom_site_occupancy
  Nb  Nb0  1  0.562699  0.937651  0.562699  1
  Nb  Nb1  1  0.312172  0.688379  0.688225  1
  Nb  Nb2  1  0.686855  0.311960  0.312758  1
  Nb  Nb3  1  0.312496  0.686881  0.312496  1
  Nb  Nb4  1  0.688225  0.688379  0.312172  1
  Nb  Nb5  1  0.312758  0.311960  0.686855  1
  Nb  Nb6  1  0.561472  0.562656  0.938390  1
  Nb  Nb7  1  0.938390  0.562656  0.561472  1
  Nb  Nb8  1  0.560867  0.938345  0.938456  1
  Nb  Nb9  1  0.938456  0.938345  0.560867  1
  Nb  Nb10  1  0.688793  0.311236  0.688793  1
  Nb  Nb11  1  0.938885  0.561085  0.938885  1
  Al  Al12  1  0.916592  0.917962  0.247234  1
  Al  Al13  1  0.247234  0.917962  0.916592  1
  Al  Al14  1  0.331939  0.332448  0.331939  1
  Ga  Ga15  1  0.916234  0.916176  0.916234  1
  Ga  Ga16  1  0.998499  0.333981  0.333374  1
  Ga  Ga17  1  0.333739  0.998671  0.333739  1
  Ga  Ga18  1  0.333374  0.333981  0.998499  1
  Ga  Ga19  1  0.916384  0.251183  0.916384  1
  Ni  Ni20  1  0.124794  0.121474  0.124794  1
  Ni  Ni21  1  0.624147  0.125462  0.127236  1
  Ni  Ni22  1  0.125963  0.626238  0.125963  1
  Ni  Ni23  1  0.127236  0.125462  0.624147  1
  N  N24  1  0.625304  0.624095  0.625304  1
  N  N25  1  0.124490  0.625253  0.626191  1
  N  N26  1  0.625812  0.124863  0.625812  1
  N  N27  1  0.626191  0.625253  0.124490  1
