# generated using pymatgen
data_Ho16Al4OsRh3
_symmetry_space_group_name_H-M   'P 1'
_cell_length_a   9.46481268
_cell_length_b   9.50461734
_cell_length_c   9.46481300
_cell_angle_alpha   60.13844844
_cell_angle_beta   60.00000938
_cell_angle_gamma   60.13845336
_symmetry_Int_Tables_number   1
_chemical_formula_structural   Ho16Al4OsRh3
_chemical_formula_sum   'Ho16 Al4 Os1 Rh3'
_cell_volume   603.32234355
_cell_formula_units_Z   1
loop_
 _symmetry_equiv_pos_site_id
 _symmetry_equiv_pos_as_xyz
  1  'x, y, z'
loop_
 _atom_site_type_symbol
 _atom_site_label
 _atom_site_symmetry_multiplicity
 _atom_site_fract_x
 _atom_site_fract_y
 _atom_site_fract_z
 _atom_site_occupancy
  Ho  Ho0  1  0.185375  0.186866  0.813880  1
  Ho  Ho1  1  0.602878  0.601643  0.192601  1
  Ho  Ho2  1  0.441261  0.056882  0.441261  1
  Ho  Ho3  1  0.440707  0.442904  0.058195  1
  Ho  Ho4  1  0.813880  0.186866  0.813880  1
  Ho  Ho5  1  0.188771  0.815545  0.188771  1
  Ho  Ho6  1  0.441261  0.056882  0.060596  1
  Ho  Ho7  1  0.188771  0.815545  0.806914  1
  Ho  Ho8  1  0.058195  0.442904  0.058195  1
  Ho  Ho9  1  0.806914  0.815545  0.188771  1
  Ho  Ho10  1  0.192601  0.601643  0.602878  1
  Ho  Ho11  1  0.058195  0.442904  0.440707  1
  Ho  Ho12  1  0.060596  0.056882  0.441261  1
  Ho  Ho13  1  0.813880  0.186866  0.185375  1
  Ho  Ho14  1  0.602302  0.193095  0.602302  1
  Ho  Ho15  1  0.602878  0.601643  0.602878  1
  Al  Al16  1  0.827437  0.828907  0.827437  1
  Al  Al17  1  0.827437  0.828907  0.516221  1
  Al  Al18  1  0.516221  0.828907  0.827437  1
  Al  Al19  1  0.827785  0.516646  0.827785  1
  Os  Os20  1  0.393509  0.819474  0.393509  1
  Rh  Rh21  1  0.392700  0.390850  0.392700  1
  Rh  Rh22  1  0.823750  0.390850  0.392700  1
  Rh  Rh23  1  0.392700  0.390850  0.823750  1
