# generated using pymatgen
data_Sm2Y4Co17TcP12
_symmetry_space_group_name_H-M   'P 1'
_cell_length_a   3.72369100
_cell_length_b   10.56574000
_cell_length_c   12.27359800
_cell_angle_alpha   90.00000000
_cell_angle_beta   90.00000000
_cell_angle_gamma   90.00000000
_symmetry_Int_Tables_number   1
_chemical_formula_structural   Sm2Y4Co17TcP12
_chemical_formula_sum   'Sm2 Y4 Co17 Tc1 P12'
_cell_volume   482.88692821
_cell_formula_units_Z   1
loop_
 _symmetry_equiv_pos_site_id
 _symmetry_equiv_pos_as_xyz
  1  'x, y, z'
loop_
 _atom_site_type_symbol
 _atom_site_label
 _atom_site_symmetry_multiplicity
 _atom_site_fract_x
 _atom_site_fract_y
 _atom_site_fract_z
 _atom_site_occupancy
  Sm  Sm0  1  0.000000  0.500000  0.524288  1
  Sm  Sm1  1  0.500000  0.000000  0.477827  1
  Y  Y2  1  0.500000  0.817141  0.206089  1
  Y  Y3  1  0.500000  0.182859  0.206089  1
  Y  Y4  1  0.000000  0.683154  0.795417  1
  Y  Y5  1  0.000000  0.316846  0.795417  1
  Co  Co6  1  0.000000  0.000000  0.840911  1
  Co  Co7  1  0.500000  0.500000  0.704652  1
  Co  Co8  1  0.000000  0.000000  0.294766  1
  Co  Co9  1  0.000000  0.500000  0.987695  1
  Co  Co10  1  0.500000  0.000000  0.014384  1
  Co  Co11  1  0.500000  0.332023  0.991242  1
  Co  Co12  1  0.500000  0.667977  0.991242  1
  Co  Co13  1  0.000000  0.166440  0.005674  1
  Co  Co14  1  0.000000  0.833560  0.005674  1
  Co  Co15  1  0.500000  0.296468  0.429978  1
  Co  Co16  1  0.500000  0.703532  0.429978  1
  Co  Co17  1  0.000000  0.203677  0.569633  1
  Co  Co18  1  0.000000  0.796323  0.569633  1
  Co  Co19  1  0.500000  0.879526  0.710294  1
  Co  Co20  1  0.500000  0.120474  0.710294  1
  Co  Co21  1  0.000000  0.620276  0.290652  1
  Co  Co22  1  0.000000  0.379724  0.290652  1
  Tc  Tc23  1  0.500000  0.500000  0.155808  1
  P  P24  1  0.500000  0.500000  0.882217  1
  P  P25  1  0.000000  0.000000  0.116526  1
  P  P26  1  0.500000  0.500000  0.346564  1
  P  P27  1  0.000000  0.000000  0.658146  1
  P  P28  1  0.500000  0.309053  0.617026  1
  P  P29  1  0.500000  0.690947  0.617026  1
  P  P30  1  0.000000  0.190444  0.383756  1
  P  P31  1  0.000000  0.809556  0.383756  1
  P  P32  1  0.500000  0.849623  0.892766  1
  P  P33  1  0.500000  0.150377  0.892766  1
  P  P34  1  0.000000  0.655298  0.105580  1
  P  P35  1  0.000000  0.344702  0.105580  1
