# generated using pymatgen
data_ScTiAu8
_symmetry_space_group_name_H-M   'P 1'
_cell_length_a   5.09483790
_cell_length_b   5.09483811
_cell_length_c   9.35272322
_cell_angle_alpha   90.03134063
_cell_angle_beta   90.03134171
_cell_angle_gamma   47.24104452
_symmetry_Int_Tables_number   1
_chemical_formula_structural   ScTiAu8
_chemical_formula_sum   'Sc1 Ti1 Au8'
_cell_volume   178.24725361
_cell_formula_units_Z   1
loop_
 _symmetry_equiv_pos_site_id
 _symmetry_equiv_pos_as_xyz
  1  'x, y, z'
loop_
 _atom_site_type_symbol
 _atom_site_label
 _atom_site_symmetry_multiplicity
 _atom_site_fract_x
 _atom_site_fract_y
 _atom_site_fract_z
 _atom_site_occupancy
  Sc  Sc0  1  0.000000  0.000000  0.000000  1
  Ti  Ti1  1  0.500000  0.500000  0.500000  1
  Au  Au2  1  0.699086  0.699086  0.902807  1
  Au  Au3  1  0.199807  0.199807  0.405929  1
  Au  Au4  1  0.800193  0.800193  0.594071  1
  Au  Au5  1  0.300914  0.300914  0.097193  1
  Au  Au6  1  0.402950  0.402950  0.797234  1
  Au  Au7  1  0.905920  0.905920  0.303755  1
  Au  Au8  1  0.094080  0.094080  0.696245  1
  Au  Au9  1  0.597050  0.597050  0.202766  1
