# generated using pymatgen
data_Sc3Al3SiPt2
_symmetry_space_group_name_H-M   'P 1'
_cell_length_a   6.84337000
_cell_length_b   6.84336840
_cell_length_c   3.91489500
_cell_angle_alpha   90.00000000
_cell_angle_beta   90.00000000
_cell_angle_gamma   119.99999806
_symmetry_Int_Tables_number   1
_chemical_formula_structural   Sc3Al3SiPt2
_chemical_formula_sum   'Sc3 Al3 Si1 Pt2'
_cell_volume   158.77813649
_cell_formula_units_Z   1
loop_
 _symmetry_equiv_pos_site_id
 _symmetry_equiv_pos_as_xyz
  1  'x, y, z'
loop_
 _atom_site_type_symbol
 _atom_site_label
 _atom_site_symmetry_multiplicity
 _atom_site_fract_x
 _atom_site_fract_y
 _atom_site_fract_z
 _atom_site_occupancy
  Sc  Sc0  1  0.586442  0.998773  0.500001  1
  Sc  Sc1  1  0.412331  0.413558  0.500001  1
  Sc  Sc2  1  0.001227  0.587670  0.500001  1
  Al  Al3  1  0.245562  0.992777  0.000000  1
  Al  Al4  1  0.007223  0.252785  0.000000  1
  Al  Al5  1  0.747216  0.754439  0.000000  1
  Si  Si6  1  0.666666  0.333333  0.000000  1
  Pt  Pt7  1  0.333333  0.666666  0.000000  1
  Pt  Pt8  1  0.000000  0.000000  0.500001  1
