# generated using pymatgen
data_Nb6RhS12
_symmetry_space_group_name_H-M   'P 1'
_cell_length_a   5.81594727
_cell_length_b   5.81594721
_cell_length_c   12.67244575
_cell_angle_alpha   85.62610139
_cell_angle_beta   85.62609883
_cell_angle_gamma   120.00020011
_symmetry_Int_Tables_number   1
_chemical_formula_structural   Nb6RhS12
_chemical_formula_sum   'Nb6 Rh1 S12'
_cell_volume   366.87607508
_cell_formula_units_Z   1
loop_
 _symmetry_equiv_pos_site_id
 _symmetry_equiv_pos_as_xyz
  1  'x, y, z'
loop_
 _atom_site_type_symbol
 _atom_site_label
 _atom_site_symmetry_multiplicity
 _atom_site_fract_x
 _atom_site_fract_y
 _atom_site_fract_z
 _atom_site_occupancy
  Nb  Nb0  1  0.080500  0.080500  0.758322  1
  Nb  Nb1  1  0.413103  0.746359  0.760762  1
  Nb  Nb2  1  0.746359  0.413103  0.760762  1
  Nb  Nb3  1  0.253641  0.586897  0.239238  1
  Nb  Nb4  1  0.586897  0.253641  0.239238  1
  Nb  Nb5  1  0.919500  0.919500  0.241678  1
  Rh  Rh6  1  0.000000  0.000000  0.000000  1
  S  S7  1  0.296325  0.296325  0.115366  1
  S  S8  1  0.626740  0.961447  0.115451  1
  S  S9  1  0.961447  0.626740  0.115451  1
  S  S10  1  0.038553  0.373260  0.884549  1
  S  S11  1  0.373260  0.038553  0.884549  1
  S  S12  1  0.703675  0.703675  0.884634  1
  S  S13  1  0.213479  0.213479  0.365325  1
  S  S14  1  0.543322  0.878402  0.365282  1
  S  S15  1  0.878402  0.543322  0.365282  1
  S  S16  1  0.121598  0.456678  0.634718  1
  S  S17  1  0.456678  0.121598  0.634718  1
  S  S18  1  0.786521  0.786521  0.634675  1
