# generated using pymatgen
data_Tb3Eu(NiB4)4
_symmetry_space_group_name_H-M   'P 1'
_cell_length_a   6.87696039
_cell_length_b   6.87695995
_cell_length_c   6.87696006
_cell_angle_alpha   112.91904531
_cell_angle_beta   112.91904788
_cell_angle_gamma   102.77598227
_symmetry_Int_Tables_number   1
_chemical_formula_structural   Tb3Eu(NiB4)4
_chemical_formula_sum   'Tb3 Eu1 Ni4 B16'
_cell_volume   247.83900207
_cell_formula_units_Z   1
loop_
 _symmetry_equiv_pos_site_id
 _symmetry_equiv_pos_as_xyz
  1  'x, y, z'
loop_
 _atom_site_type_symbol
 _atom_site_label
 _atom_site_symmetry_multiplicity
 _atom_site_fract_x
 _atom_site_fract_y
 _atom_site_fract_z
 _atom_site_occupancy
  Tb  Tb0  1  0.796642  0.796642  0.000000  1
  Tb  Tb1  1  0.749807  0.249807  0.500000  1
  Tb  Tb2  1  0.249807  0.749807  0.500000  1
  Eu  Eu3  1  0.202264  0.202264  0.000000  1
  Ni  Ni4  1  0.501282  0.272843  0.771561  1
  Ni  Ni5  1  0.501282  0.729722  0.228439  1
  Ni  Ni6  1  0.729722  0.501282  0.228439  1
  Ni  Ni7  1  0.272843  0.501282  0.771561  1
  B  B8  1  0.111517  0.275605  0.387944  1
  B  B9  1  0.887661  0.723572  0.612056  1
  B  B10  1  0.887661  0.275605  0.164089  1
  B  B11  1  0.111517  0.723572  0.835911  1
  B  B12  1  0.723572  0.887661  0.612056  1
  B  B13  1  0.275605  0.111517  0.387944  1
  B  B14  1  0.723572  0.111517  0.835911  1
  B  B15  1  0.275605  0.887661  0.164089  1
  B  B16  1  0.418101  0.418101  0.531724  1
  B  B17  1  0.886379  0.886379  0.468276  1
  B  B18  1  0.582516  0.112825  0.000000  1
  B  B19  1  0.112825  0.582516  0.000000  1
  B  B20  1  0.582516  0.582516  0.469690  1
  B  B21  1  0.112825  0.112825  0.530310  1
  B  B22  1  0.886379  0.418101  0.000000  1
  B  B23  1  0.418101  0.886379  0.000000  1
