# generated using pymatgen
data_Lu24In3AgTe8
_symmetry_space_group_name_H-M   'P 1'
_cell_length_a   4.07694900
_cell_length_b   11.37750056
_cell_length_c   21.31509843
_cell_angle_alpha   89.78795288
_cell_angle_beta   90.00000000
_cell_angle_gamma   90.00000000
_symmetry_Int_Tables_number   1
_chemical_formula_structural   Lu24In3AgTe8
_chemical_formula_sum   'Lu24 In3 Ag1 Te8'
_cell_volume   988.70450381
_cell_formula_units_Z   1
loop_
 _symmetry_equiv_pos_site_id
 _symmetry_equiv_pos_as_xyz
  1  'x, y, z'
loop_
 _atom_site_type_symbol
 _atom_site_label
 _atom_site_symmetry_multiplicity
 _atom_site_fract_x
 _atom_site_fract_y
 _atom_site_fract_z
 _atom_site_occupancy
  Lu  Lu0  1  0.750000  0.668157  0.891068  1
  Lu  Lu1  1  0.250000  0.369492  0.473576  1
  Lu  Lu2  1  0.750000  0.870973  0.030557  1
  Lu  Lu3  1  0.750000  0.971615  0.836003  1
  Lu  Lu4  1  0.250000  0.178396  0.606926  1
  Lu  Lu5  1  0.250000  0.746246  0.270513  1
  Lu  Lu6  1  0.750000  0.108114  0.490380  1
  Lu  Lu7  1  0.750000  0.565950  0.139512  1
  Lu  Lu8  1  0.250000  0.331887  0.108646  1
  Lu  Lu9  1  0.250000  0.029543  0.163297  1
  Lu  Lu10  1  0.250000  0.467722  0.658511  1
  Lu  Lu11  1  0.250000  0.753955  0.770477  1
  Lu  Lu12  1  0.750000  0.528737  0.336353  1
  Lu  Lu13  1  0.750000  0.936237  0.639663  1
  Lu  Lu14  1  0.250000  0.609458  0.009769  1
  Lu  Lu15  1  0.750000  0.257056  0.730842  1
  Lu  Lu16  1  0.750000  0.246257  0.229888  1
  Lu  Lu17  1  0.750000  0.619866  0.532739  1
  Lu  Lu18  1  0.750000  0.830953  0.391342  1
  Lu  Lu19  1  0.250000  0.129124  0.969495  1
  Lu  Lu20  1  0.250000  0.889027  0.509531  1
  Lu  Lu21  1  0.750000  0.390437  0.990553  1
  Lu  Lu22  1  0.250000  0.435038  0.860596  1
  Lu  Lu23  1  0.250000  0.065925  0.359431  1
  In  In24  1  0.750000  0.133803  0.075865  1
  In  In25  1  0.250000  0.632365  0.424445  1
  In  In26  1  0.250000  0.866974  0.923923  1
  Ag  Ag27  1  0.750000  0.362162  0.576303  1
  Te  Te28  1  0.250000  0.772606  0.127625  1
  Te  Te29  1  0.250000  0.730516  0.628437  1
  Te  Te30  1  0.250000  0.041989  0.735617  1
  Te  Te31  1  0.750000  0.272450  0.372961  1
  Te  Te32  1  0.750000  0.538103  0.762710  1
  Te  Te33  1  0.250000  0.460531  0.236255  1
  Te  Te34  1  0.750000  0.960210  0.263483  1
  Te  Te35  1  0.750000  0.228131  0.872707  1
