# generated using pymatgen
data_DyHoP2(Ru2C)2
_symmetry_space_group_name_H-M   'P 1'
_cell_length_a   5.84810404
_cell_length_b   5.84810501
_cell_length_c   7.06386000
_cell_angle_alpha   90.00000000
_cell_angle_beta   90.00000000
_cell_angle_gamma   142.29897138
_symmetry_Int_Tables_number   1
_chemical_formula_structural   DyHoP2(Ru2C)2
_chemical_formula_sum   'Dy1 Ho1 P2 Ru4 C2'
_cell_volume   147.73999799
_cell_formula_units_Z   1
loop_
 _symmetry_equiv_pos_site_id
 _symmetry_equiv_pos_as_xyz
  1  'x, y, z'
loop_
 _atom_site_type_symbol
 _atom_site_label
 _atom_site_symmetry_multiplicity
 _atom_site_fract_x
 _atom_site_fract_y
 _atom_site_fract_z
 _atom_site_occupancy
  Dy  Dy0  1  0.544149  0.455851  0.250000  1
  Ho  Ho1  1  0.455903  0.544097  0.750000  1
  P  P2  1  0.268384  0.731616  0.250000  1
  P  P3  1  0.731616  0.268384  0.750000  1
  Ru  Ru4  1  0.834613  0.165387  0.053249  1
  Ru  Ru5  1  0.165385  0.834615  0.946568  1
  Ru  Ru6  1  0.165385  0.834615  0.553432  1
  Ru  Ru7  1  0.834613  0.165387  0.446751  1
  C  C8  1  0.999976  0.000024  0.999818  1
  C  C9  1  0.999976  0.000024  0.500182  1
