# generated using pymatgen
data_Pa5Ti3Fe9Co7P12
_symmetry_space_group_name_H-M   'P 1'
_cell_length_a   12.11053300
_cell_length_b   12.11053255
_cell_length_c   3.75072200
_cell_angle_alpha   90.00000000
_cell_angle_beta   90.00000000
_cell_angle_gamma   119.99999850
_symmetry_Int_Tables_number   1
_chemical_formula_structural   Pa5Ti3Fe9Co7P12
_chemical_formula_sum   'Pa5 Ti3 Fe9 Co7 P12'
_cell_volume   476.40028519
_cell_formula_units_Z   1
loop_
 _symmetry_equiv_pos_site_id
 _symmetry_equiv_pos_as_xyz
  1  'x, y, z'
loop_
 _atom_site_type_symbol
 _atom_site_label
 _atom_site_symmetry_multiplicity
 _atom_site_fract_x
 _atom_site_fract_y
 _atom_site_fract_z
 _atom_site_occupancy
  Pa  Pa0  1  0.813105  0.000000  0.500000  1
  Pa  Pa1  1  0.000000  0.813105  0.500000  1
  Pa  Pa2  1  0.186895  0.186895  0.500000  1
  Pa  Pa3  1  0.333333  0.666667  0.000000  1
  Pa  Pa4  1  0.666667  0.333333  0.000000  1
  Ti  Ti5  1  0.431449  0.000000  0.000000  1
  Ti  Ti6  1  0.000000  0.431449  0.000000  1
  Ti  Ti7  1  0.568551  0.568551  0.000000  1
  Fe  Fe8  1  0.278458  0.000000  0.500000  1
  Fe  Fe9  1  0.000000  0.278458  0.500000  1
  Fe  Fe10  1  0.721542  0.721542  0.500000  1
  Fe  Fe11  1  0.623495  0.806308  0.000000  1
  Fe  Fe12  1  0.193692  0.817187  0.000000  1
  Fe  Fe13  1  0.182813  0.376505  0.000000  1
  Fe  Fe14  1  0.376505  0.182813  0.000000  1
  Fe  Fe15  1  0.806308  0.623495  0.000000  1
  Fe  Fe16  1  0.817187  0.193692  0.000000  1
  Co  Co17  1  0.512776  0.872962  0.500000  1
  Co  Co18  1  0.127038  0.639813  0.500000  1
  Co  Co19  1  0.360187  0.487224  0.500000  1
  Co  Co20  1  0.487224  0.360187  0.500000  1
  Co  Co21  1  0.872962  0.512776  0.500000  1
  Co  Co22  1  0.639813  0.127038  0.500000  1
  Co  Co23  1  0.000000  0.000000  0.000000  1
  P  P24  1  0.183712  0.000000  0.000000  1
  P  P25  1  0.000000  0.183712  0.000000  1
  P  P26  1  0.816288  0.816288  0.000000  1
  P  P27  1  0.526606  0.693118  0.500000  1
  P  P28  1  0.306882  0.833487  0.500000  1
  P  P29  1  0.166513  0.473394  0.500000  1
  P  P30  1  0.473394  0.166513  0.500000  1
  P  P31  1  0.693118  0.526606  0.500000  1
  P  P32  1  0.833487  0.306882  0.500000  1
  P  P33  1  0.634798  0.000000  0.000000  1
  P  P34  1  0.000000  0.634798  0.000000  1
  P  P35  1  0.365202  0.365202  0.000000  1
