# generated using pymatgen
data_Dy5Er11(AgPd)4
_symmetry_space_group_name_H-M   'P 1'
_cell_length_a   9.44310956
_cell_length_b   9.48873948
_cell_length_c   9.48874000
_cell_angle_alpha   60.35324987
_cell_angle_beta   60.15895211
_cell_angle_gamma   60.15894648
_symmetry_Int_Tables_number   1
_chemical_formula_structural   Dy5Er11(AgPd)4
_chemical_formula_sum   'Dy5 Er11 Ag4 Pd4'
_cell_volume   604.23786798
_cell_formula_units_Z   1
loop_
 _symmetry_equiv_pos_site_id
 _symmetry_equiv_pos_as_xyz
  1  'x, y, z'
loop_
 _atom_site_type_symbol
 _atom_site_label
 _atom_site_symmetry_multiplicity
 _atom_site_fract_x
 _atom_site_fract_y
 _atom_site_fract_z
 _atom_site_occupancy
  Dy  Dy0  1  0.815037  0.184963  0.184963  1
  Dy  Dy1  1  0.815868  0.184137  0.814953  1
  Dy  Dy2  1  0.185042  0.814953  0.184137  1
  Dy  Dy3  1  0.815868  0.814953  0.184137  1
  Dy  Dy4  1  0.185042  0.184137  0.814953  1
  Er  Er5  1  0.606925  0.608764  0.608764  1
  Er  Er6  1  0.608546  0.610862  0.172046  1
  Er  Er7  1  0.608546  0.172046  0.610862  1
  Er  Er8  1  0.175545  0.608764  0.608764  1
  Er  Er9  1  0.061984  0.438016  0.438016  1
  Er  Er10  1  0.437565  0.062435  0.062435  1
  Er  Er11  1  0.437570  0.062590  0.437875  1
  Er  Er12  1  0.061965  0.437875  0.062590  1
  Er  Er13  1  0.437570  0.437875  0.062590  1
  Er  Er14  1  0.061965  0.062590  0.437875  1
  Er  Er15  1  0.185237  0.814763  0.814763  1
  Ag  Ag16  1  0.833362  0.833048  0.833048  1
  Ag  Ag17  1  0.832762  0.833765  0.500712  1
  Ag  Ag18  1  0.832762  0.500712  0.833765  1
  Ag  Ag19  1  0.500545  0.833048  0.833048  1
  Pd  Pd20  1  0.397743  0.396354  0.396354  1
  Pd  Pd21  1  0.396501  0.395791  0.811208  1
  Pd  Pd22  1  0.396501  0.811208  0.395791  1
  Pd  Pd23  1  0.809550  0.396354  0.396354  1
