# generated using pymatgen
data_TaNbFeF12
_symmetry_space_group_name_H-M   'P 1'
_cell_length_a   5.35203180
_cell_length_b   5.70337608
_cell_length_c   9.39318000
_cell_angle_alpha   104.79887547
_cell_angle_beta   90.86987068
_cell_angle_gamma   119.16633892
_symmetry_Int_Tables_number   1
_chemical_formula_structural   TaNbFeF12
_chemical_formula_sum   'Ta1 Nb1 Fe1 F12'
_cell_volume   238.72901736
_cell_formula_units_Z   1
loop_
 _symmetry_equiv_pos_site_id
 _symmetry_equiv_pos_as_xyz
  1  'x, y, z'
loop_
 _atom_site_type_symbol
 _atom_site_label
 _atom_site_symmetry_multiplicity
 _atom_site_fract_x
 _atom_site_fract_y
 _atom_site_fract_z
 _atom_site_occupancy
  Ta  Ta0  1  0.218906  0.494098  0.739565  1
  Nb  Nb1  1  0.781513  0.506710  0.261967  1
  Fe  Fe2  1  0.000172  0.000187  0.000278  1
  F  F3  1  0.814422  0.259309  0.701734  1
  F  F4  1  0.187364  0.742178  0.297334  1
  F  F5  1  0.173652  0.743716  0.919225  1
  F  F6  1  0.704444  0.721572  0.422323  1
  F  F7  1  0.293910  0.279065  0.579412  1
  F  F8  1  0.779236  0.263158  0.364743  1
  F  F9  1  0.221485  0.734634  0.635451  1
  F  F10  1  0.360339  0.262863  0.176105  1
  F  F11  1  0.637805  0.736400  0.823044  1
  F  F12  1  0.781935  0.730171  0.125666  1
  F  F13  1  0.218371  0.271303  0.873581  1
  F  F14  1  0.826446  0.254635  0.079573  1
