# generated using pymatgen
data_Nd4Si2Pd25Au3
_symmetry_space_group_name_H-M   'P 1'
_cell_length_a   9.08239865
_cell_length_b   9.08239865
_cell_length_c   7.13987472
_cell_angle_alpha   90.03526645
_cell_angle_beta   90.03526645
_cell_angle_gamma   90.34947041
_symmetry_Int_Tables_number   1
_chemical_formula_structural   Nd4Si2Pd25Au3
_chemical_formula_sum   'Nd4 Si2 Pd25 Au3'
_cell_volume   588.95683647
_cell_formula_units_Z   1
loop_
 _symmetry_equiv_pos_site_id
 _symmetry_equiv_pos_as_xyz
  1  'x, y, z'
loop_
 _atom_site_type_symbol
 _atom_site_label
 _atom_site_symmetry_multiplicity
 _atom_site_fract_x
 _atom_site_fract_y
 _atom_site_fract_z
 _atom_site_occupancy
  Nd  Nd0  1  0.502717  0.002717  0.932435  1
  Nd  Nd1  1  0.997283  0.497283  0.067565  1
  Nd  Nd2  1  0.999539  0.000461  0.500000  1
  Nd  Nd3  1  0.500461  0.499539  0.500000  1
  Si  Si4  1  0.500790  0.000790  0.448143  1
  Si  Si5  1  0.999210  0.499210  0.551857  1
  Pd  Pd6  1  0.336092  0.836092  0.613046  1
  Pd  Pd7  1  0.336448  0.164240  0.612356  1
  Pd  Pd8  1  0.664240  0.836448  0.612356  1
  Pd  Pd9  1  0.665357  0.165357  0.615102  1
  Pd  Pd10  1  0.163908  0.663908  0.386954  1
  Pd  Pd11  1  0.163552  0.335760  0.387644  1
  Pd  Pd12  1  0.835760  0.663552  0.387644  1
  Pd  Pd13  1  0.834643  0.334643  0.384898  1
  Pd  Pd14  1  0.499865  0.771163  0.259439  1
  Pd  Pd15  1  0.501917  0.228809  0.257865  1
  Pd  Pd16  1  0.271163  0.999865  0.259439  1
  Pd  Pd17  1  0.728809  0.001917  0.257865  1
  Pd  Pd18  1  0.000135  0.728837  0.740561  1
  Pd  Pd19  1  0.998083  0.271191  0.742135  1
  Pd  Pd20  1  0.228837  0.500135  0.740561  1
  Pd  Pd21  1  0.771191  0.498083  0.742135  1
  Pd  Pd22  1  0.502164  0.349030  0.854655  1
  Pd  Pd23  1  0.499647  0.649778  0.852773  1
  Pd  Pd24  1  0.849030  0.002164  0.854655  1
  Pd  Pd25  1  0.149778  0.999647  0.852773  1
  Pd  Pd26  1  0.997836  0.150970  0.145345  1
  Pd  Pd27  1  0.000353  0.850222  0.147227  1
  Pd  Pd28  1  0.650970  0.497836  0.145345  1
  Pd  Pd29  1  0.350222  0.500353  0.147227  1
  Pd  Pd30  1  0.750000  0.250000  0.000000  1
  Au  Au31  1  0.250000  0.750000  0.000000  1
  Au  Au32  1  0.250000  0.250000  0.000000  1
  Au  Au33  1  0.750000  0.750000  0.000000  1
