# generated using pymatgen
data_Tb3YFeTc7
_symmetry_space_group_name_H-M   'P 1'
_cell_length_a   5.43823412
_cell_length_b   5.35173554
_cell_length_c   8.73408800
_cell_angle_alpha   89.99999880
_cell_angle_beta   89.99893409
_cell_angle_gamma   119.47524021
_symmetry_Int_Tables_number   1
_chemical_formula_structural   Tb3YFeTc7
_chemical_formula_sum   'Tb3 Y1 Fe1 Tc7'
_cell_volume   221.29571853
_cell_formula_units_Z   1
loop_
 _symmetry_equiv_pos_site_id
 _symmetry_equiv_pos_as_xyz
  1  'x, y, z'
loop_
 _atom_site_type_symbol
 _atom_site_label
 _atom_site_symmetry_multiplicity
 _atom_site_fract_x
 _atom_site_fract_y
 _atom_site_fract_z
 _atom_site_occupancy
  Tb  Tb0  1  0.669468  0.334734  0.563566  1
  Tb  Tb1  1  0.669333  0.334666  0.936460  1
  Tb  Tb2  1  0.333124  0.666562  0.060928  1
  Y  Y3  1  0.333411  0.666706  0.438477  1
  Fe  Fe4  1  0.658070  0.829034  0.749817  1
  Tc  Tc5  1  0.004164  0.002082  0.505756  1
  Tc  Tc6  1  0.003901  0.001950  0.994921  1
  Tc  Tc7  1  0.829407  0.169017  0.250197  1
  Tc  Tc8  1  0.829407  0.660389  0.250197  1
  Tc  Tc9  1  0.341099  0.170549  0.250029  1
  Tc  Tc10  1  0.164308  0.825294  0.749825  1
  Tc  Tc11  1  0.164308  0.339014  0.749825  1
