# generated using pymatgen
data_PrNd5IrI10
_symmetry_space_group_name_H-M   'P 1'
_cell_length_a   8.00542129
_cell_length_b   9.99619723
_cell_length_c   10.05668908
_cell_angle_alpha   107.46903768
_cell_angle_beta   105.17533445
_cell_angle_gamma   96.97921866
_symmetry_Int_Tables_number   1
_chemical_formula_structural   PrNd5IrI10
_chemical_formula_sum   'Pr1 Nd5 Ir1 I10'
_cell_volume   723.17764172
_cell_formula_units_Z   1
loop_
 _symmetry_equiv_pos_site_id
 _symmetry_equiv_pos_as_xyz
  1  'x, y, z'
loop_
 _atom_site_type_symbol
 _atom_site_label
 _atom_site_symmetry_multiplicity
 _atom_site_fract_x
 _atom_site_fract_y
 _atom_site_fract_z
 _atom_site_occupancy
  Pr  Pr0  1  0.884209  0.239519  0.958562  1
  Nd  Nd1  1  0.645619  0.828970  0.871238  1
  Nd  Nd2  1  0.354590  0.170718  0.128871  1
  Nd  Nd3  1  0.029881  0.911210  0.708350  1
  Nd  Nd4  1  0.970261  0.088453  0.291676  1
  Nd  Nd5  1  0.115097  0.761262  0.041128  1
  Ir  Ir6  1  0.000314  0.999371  0.000087  1
  I  I7  1  0.643295  0.726793  0.544873  1
  I  I8  1  0.356704  0.273228  0.455136  1
  I  I9  1  0.213126  0.649343  0.739980  1
  I  I10  1  0.786683  0.350819  0.260749  1
  I  I11  1  0.453074  0.091209  0.817156  1
  I  I12  1  0.546220  0.908478  0.182593  1
  I  I13  1  0.261059  0.461967  0.088230  1
  I  I14  1  0.739765  0.538864  0.912052  1
  I  I15  1  0.086112  0.818875  0.369140  1
  I  I16  1  0.913992  0.180921  0.630178  1
