# generated using pymatgen
data_La4Y12MgHg3Pt4
_symmetry_space_group_name_H-M   'P 1'
_cell_length_a   9.84050697
_cell_length_b   9.88281430
_cell_length_c   9.88278076
_cell_angle_alpha   59.78501000
_cell_angle_beta   59.75684213
_cell_angle_gamma   59.75789395
_symmetry_Int_Tables_number   1
_chemical_formula_structural   La4Y12MgHg3Pt4
_chemical_formula_sum   'La4 Y12 Mg1 Hg3 Pt4'
_cell_volume   676.01194754
_cell_formula_units_Z   1
loop_
 _symmetry_equiv_pos_site_id
 _symmetry_equiv_pos_as_xyz
  1  'x, y, z'
loop_
 _atom_site_type_symbol
 _atom_site_label
 _atom_site_symmetry_multiplicity
 _atom_site_fract_x
 _atom_site_fract_y
 _atom_site_fract_z
 _atom_site_occupancy
  La  La0  1  0.602105  0.601969  0.601969  1
  La  La1  1  0.605686  0.604662  0.187696  1
  La  La2  1  0.605692  0.187706  0.604639  1
  La  La3  1  0.178083  0.608374  0.608382  1
  Y  Y4  1  0.061032  0.438953  0.438984  1
  Y  Y5  1  0.433580  0.064499  0.064495  1
  Y  Y6  1  0.435742  0.063658  0.437371  1
  Y  Y7  1  0.061317  0.437827  0.062973  1
  Y  Y8  1  0.435742  0.437367  0.063662  1
  Y  Y9  1  0.061309  0.062975  0.437836  1
  Y  Y10  1  0.184340  0.817493  0.817494  1
  Y  Y11  1  0.815563  0.184603  0.184579  1
  Y  Y12  1  0.816421  0.185055  0.817091  1
  Y  Y13  1  0.183526  0.816774  0.184213  1
  Y  Y14  1  0.816421  0.817082  0.185055  1
  Y  Y15  1  0.183519  0.184224  0.816770  1
  Mg  Mg16  1  0.528380  0.822000  0.821994  1
  Hg  Hg17  1  0.834177  0.841160  0.841162  1
  Hg  Hg18  1  0.832704  0.840325  0.482497  1
  Hg  Hg19  1  0.832710  0.482490  0.840327  1
  Pt  Pt20  1  0.390518  0.392295  0.392289  1
  Pt  Pt21  1  0.388151  0.391062  0.826480  1
  Pt  Pt22  1  0.388138  0.826472  0.391081  1
  Pt  Pt23  1  0.825149  0.390976  0.390966  1
