# generated using pymatgen
data_PrDy2Sc7(Si5Ir2)4
_symmetry_space_group_name_H-M   'P 1'
_cell_length_a   12.48265906
_cell_length_b   12.48396305
_cell_length_c   4.15814700
_cell_angle_alpha   90.00000000
_cell_angle_beta   90.00000000
_cell_angle_gamma   90.20832072
_symmetry_Int_Tables_number   1
_chemical_formula_structural   PrDy2Sc7(Si5Ir2)4
_chemical_formula_sum   'Pr1 Dy2 Sc7 Si20 Ir8'
_cell_volume   647.97246496
_cell_formula_units_Z   1
loop_
 _symmetry_equiv_pos_site_id
 _symmetry_equiv_pos_as_xyz
  1  'x, y, z'
loop_
 _atom_site_type_symbol
 _atom_site_label
 _atom_site_symmetry_multiplicity
 _atom_site_fract_x
 _atom_site_fract_y
 _atom_site_fract_z
 _atom_site_occupancy
  Pr  Pr0  1  0.884810  0.384680  0.500000  1
  Dy  Dy1  1  0.115865  0.615755  0.500000  1
  Dy  Dy2  1  0.614856  0.885079  0.500000  1
  Sc  Sc3  1  0.384337  0.115597  0.500000  1
  Sc  Sc4  1  0.672756  0.174103  0.500000  1
  Sc  Sc5  1  0.325242  0.826521  0.500000  1
  Sc  Sc6  1  0.176281  0.324272  0.500000  1
  Sc  Sc7  1  0.825248  0.675360  0.500000  1
  Sc  Sc8  1  0.000751  0.999596  0.000000  1
  Sc  Sc9  1  0.499496  0.499348  0.000000  1
  Si  Si10  1  0.566310  0.067504  0.000000  1
  Si  Si11  1  0.432312  0.933484  0.000000  1
  Si  Si12  1  0.069767  0.431877  0.000000  1
  Si  Si13  1  0.932202  0.569524  0.000000  1
  Si  Si14  1  0.202615  0.164198  0.000000  1
  Si  Si15  1  0.799880  0.835317  0.000000  1
  Si  Si16  1  0.165728  0.800933  0.000000  1
  Si  Si17  1  0.697564  0.334403  0.000000  1
  Si  Si18  1  0.834645  0.198664  0.000000  1
  Si  Si19  1  0.299740  0.665493  0.000000  1
  Si  Si20  1  0.664385  0.701167  0.000000  1
  Si  Si21  1  0.335548  0.298545  0.000000  1
  Si  Si22  1  0.009361  0.149238  0.500000  1
  Si  Si23  1  0.992904  0.849800  0.500000  1
  Si  Si24  1  0.153074  0.993646  0.500000  1
  Si  Si25  1  0.505801  0.346898  0.500000  1
  Si  Si26  1  0.849072  0.009310  0.500000  1
  Si  Si27  1  0.490257  0.650908  0.500000  1
  Si  Si28  1  0.648978  0.507995  0.500000  1
  Si  Si29  1  0.349568  0.491465  0.500000  1
  Ir  Ir30  1  0.023708  0.241203  0.000000  1
  Ir  Ir31  1  0.979140  0.757470  0.000000  1
  Ir  Ir32  1  0.246589  0.980221  0.000000  1
  Ir  Ir33  1  0.519177  0.253312  0.000000  1
  Ir  Ir34  1  0.754879  0.020782  0.000000  1
  Ir  Ir35  1  0.478579  0.745025  0.000000  1
  Ir  Ir36  1  0.741150  0.522913  0.000000  1
  Ir  Ir37  1  0.257425  0.478393  0.000000  1
