# generated using pymatgen
data_LaTb19Sn11Sb5
_symmetry_space_group_name_H-M   'P 1'
_cell_length_a   8.16173849
_cell_length_b   8.19502923
_cell_length_c   15.47704800
_cell_angle_alpha   90.16574839
_cell_angle_beta   90.10419158
_cell_angle_gamma   89.78989668
_symmetry_Int_Tables_number   1
_chemical_formula_structural   LaTb19Sn11Sb5
_chemical_formula_sum   'La1 Tb19 Sn11 Sb5'
_cell_volume   1035.17998241
_cell_formula_units_Z   1
loop_
 _symmetry_equiv_pos_site_id
 _symmetry_equiv_pos_as_xyz
  1  'x, y, z'
loop_
 _atom_site_type_symbol
 _atom_site_label
 _atom_site_symmetry_multiplicity
 _atom_site_fract_x
 _atom_site_fract_y
 _atom_site_fract_z
 _atom_site_occupancy
  La  La0  1  0.035444  0.180777  0.899816  1
  Tb  Tb1  1  0.381014  0.839124  0.880247  1
  Tb  Tb2  1  0.880356  0.661427  0.619882  1
  Tb  Tb3  1  0.619977  0.160263  0.379162  1
  Tb  Tb4  1  0.119631  0.338676  0.121491  1
  Tb  Tb5  1  0.619920  0.160689  0.120305  1
  Tb  Tb6  1  0.120215  0.337794  0.379012  1
  Tb  Tb7  1  0.378853  0.838723  0.620594  1
  Tb  Tb8  1  0.879944  0.660881  0.878778  1
  Tb  Tb9  1  0.545778  0.332894  0.893544  1
  Tb  Tb10  1  0.044409  0.171711  0.605548  1
  Tb  Tb11  1  0.455701  0.672301  0.394531  1
  Tb  Tb12  1  0.956607  0.825014  0.105762  1
  Tb  Tb13  1  0.462217  0.670459  0.105461  1
  Tb  Tb14  1  0.966505  0.824718  0.397447  1
  Tb  Tb15  1  0.533152  0.324935  0.601581  1
  Tb  Tb16  1  0.210489  0.501288  0.746457  1
  Tb  Tb17  1  0.710007  0.000291  0.749084  1
  Tb  Tb18  1  0.789687  0.499168  0.248613  1
  Tb  Tb19  1  0.290049  0.999742  0.253140  1
  Sn  Sn20  1  0.219574  0.531006  0.542786  1
  Sn  Sn21  1  0.281019  0.030583  0.456927  1
  Sn  Sn22  1  0.778857  0.470280  0.043213  1
  Sn  Sn23  1  0.576079  0.625553  0.749665  1
  Sn  Sn24  1  0.076792  0.874571  0.750779  1
  Sn  Sn25  1  0.423617  0.374914  0.249544  1
  Sn  Sn26  1  0.923344  0.123225  0.250074  1
  Sn  Sn27  1  0.347360  0.144699  0.750625  1
  Sn  Sn28  1  0.841402  0.357799  0.746371  1
  Sn  Sn29  1  0.656204  0.855263  0.250618  1
  Sn  Sn30  1  0.154600  0.643884  0.249537  1
  Sb  Sb31  1  0.277248  0.019146  0.049044  1
  Sb  Sb32  1  0.774712  0.474145  0.454539  1
  Sb  Sb33  1  0.724810  0.974907  0.544758  1
  Sb  Sb34  1  0.226934  0.529891  0.955756  1
  Sb  Sb35  1  0.717492  0.969258  0.955315  1
