# generated using pymatgen
data_Hf3Th5(Co4P3)4
_symmetry_space_group_name_H-M   'P 1'
_cell_length_a   12.41753300
_cell_length_b   12.41753236
_cell_length_c   3.84366400
_cell_angle_alpha   90.00000000
_cell_angle_beta   90.00000000
_cell_angle_gamma   120.00000437
_symmetry_Int_Tables_number   1
_chemical_formula_structural   Hf3Th5(Co4P3)4
_chemical_formula_sum   'Hf3 Th5 Co16 P12'
_cell_volume   513.27091099
_cell_formula_units_Z   1
loop_
 _symmetry_equiv_pos_site_id
 _symmetry_equiv_pos_as_xyz
  1  'x, y, z'
loop_
 _atom_site_type_symbol
 _atom_site_label
 _atom_site_symmetry_multiplicity
 _atom_site_fract_x
 _atom_site_fract_y
 _atom_site_fract_z
 _atom_site_occupancy
  Hf  Hf0  1  0.433531  0.433531  0.000000  1
  Hf  Hf1  1  0.566469  0.000000  0.000000  1
  Hf  Hf2  1  0.000000  0.566469  0.000000  1
  Th  Th3  1  0.666667  0.333333  0.000000  1
  Th  Th4  1  0.333333  0.666667  0.000000  1
  Th  Th5  1  0.814917  0.814917  0.500000  1
  Th  Th6  1  0.185083  0.000000  0.500000  1
  Th  Th7  1  0.000000  0.185083  0.500000  1
  Co  Co8  1  0.875559  0.359785  0.500000  1
  Co  Co9  1  0.640215  0.515774  0.500000  1
  Co  Co10  1  0.484226  0.124441  0.500000  1
  Co  Co11  1  0.359785  0.875559  0.500000  1
  Co  Co12  1  0.515774  0.640215  0.500000  1
  Co  Co13  1  0.124441  0.484226  0.500000  1
  Co  Co14  1  0.806505  0.183443  0.000000  1
  Co  Co15  1  0.816557  0.623061  0.000000  1
  Co  Co16  1  0.376939  0.193495  0.000000  1
  Co  Co17  1  0.183443  0.806505  0.000000  1
  Co  Co18  1  0.623061  0.816557  0.000000  1
  Co  Co19  1  0.193495  0.376939  0.000000  1
  Co  Co20  1  0.278211  0.278211  0.500000  1
  Co  Co21  1  0.721789  0.000000  0.500000  1
  Co  Co22  1  0.000000  0.721789  0.500000  1
  Co  Co23  1  0.000000  0.000000  0.000000  1
  P  P24  1  0.696507  0.169180  0.500000  1
  P  P25  1  0.830820  0.527327  0.500000  1
  P  P26  1  0.472673  0.303493  0.500000  1
  P  P27  1  0.169180  0.696507  0.500000  1
  P  P28  1  0.527327  0.830820  0.500000  1
  P  P29  1  0.303493  0.472673  0.500000  1
  P  P30  1  0.182752  0.182752  0.000000  1
  P  P31  1  0.817248  0.000000  0.000000  1
  P  P32  1  0.000000  0.817248  0.000000  1
  P  P33  1  0.638568  0.638568  0.000000  1
  P  P34  1  0.361432  0.000000  0.000000  1
  P  P35  1  0.000000  0.361432  0.000000  1
