# generated using pymatgen
data_Sc12TlFe3Sb
_symmetry_space_group_name_H-M   'P 1'
_cell_length_a   7.78559873
_cell_length_b   7.78559868
_cell_length_c   7.78559800
_cell_angle_alpha   108.19620157
_cell_angle_beta   108.67379533
_cell_angle_gamma   111.56449222
_symmetry_Int_Tables_number   1
_chemical_formula_structural   Sc12TlFe3Sb
_chemical_formula_sum   'Sc12 Tl1 Fe3 Sb1'
_cell_volume   362.91934444
_cell_formula_units_Z   1
loop_
 _symmetry_equiv_pos_site_id
 _symmetry_equiv_pos_as_xyz
  1  'x, y, z'
loop_
 _atom_site_type_symbol
 _atom_site_label
 _atom_site_symmetry_multiplicity
 _atom_site_fract_x
 _atom_site_fract_y
 _atom_site_fract_z
 _atom_site_occupancy
  Sc  Sc0  1  0.302149  0.308069  0.610218  1
  Sc  Sc1  1  0.697851  0.691931  0.389782  1
  Sc  Sc2  1  0.697851  0.308069  0.005920  1
  Sc  Sc3  1  0.302149  0.691931  0.994080  1
  Sc  Sc4  1  0.192442  0.425754  0.233312  1
  Sc  Sc5  1  0.807558  0.574246  0.766688  1
  Sc  Sc6  1  0.192442  0.959128  0.766688  1
  Sc  Sc7  1  0.961590  0.196060  0.765531  1
  Sc  Sc8  1  0.807558  0.040872  0.233312  1
  Sc  Sc9  1  0.038410  0.803940  0.234469  1
  Sc  Sc10  1  0.430529  0.196060  0.234469  1
  Sc  Sc11  1  0.569471  0.803940  0.765531  1
  Tl  Tl12  1  0.000000  0.500000  0.500000  1
  Fe  Fe13  1  0.379407  0.379407  0.000000  1
  Fe  Fe14  1  0.620593  0.620593  0.000000  1
  Fe  Fe15  1  0.000000  0.000000  0.000000  1
  Sb  Sb16  1  0.500000  0.000000  0.500000  1
