# generated using pymatgen
data_MnCd3Pt2
_symmetry_space_group_name_H-M   'P 1'
_cell_length_a   8.56671850
_cell_length_b   8.57067883
_cell_length_c   8.56847307
_cell_angle_alpha   120.00471097
_cell_angle_beta   89.99841249
_cell_angle_gamma   120.01750703
_symmetry_Int_Tables_number   1
_chemical_formula_structural   MnCd3Pt2
_chemical_formula_sum   'Mn4 Cd12 Pt8'
_cell_volume   444.71139989
_cell_formula_units_Z   4
loop_
 _symmetry_equiv_pos_site_id
 _symmetry_equiv_pos_as_xyz
  1  'x, y, z'
loop_
 _atom_site_type_symbol
 _atom_site_label
 _atom_site_symmetry_multiplicity
 _atom_site_fract_x
 _atom_site_fract_y
 _atom_site_fract_z
 _atom_site_occupancy
  Mn  Mn0  1  0.375077  0.750045  0.125091  1
  Mn  Mn1  1  0.374766  0.250087  0.624861  1
  Mn  Mn2  1  0.375032  0.750034  0.624938  1
  Mn  Mn3  1  0.874987  0.249904  0.625023  1
  Cd  Cd4  1  0.945115  0.499961  0.054902  1
  Cd  Cd5  1  0.554904  0.109759  0.054895  1
  Cd  Cd6  1  0.554878  0.499940  0.054878  1
  Cd  Cd7  1  0.804911  0.000018  0.195116  1
  Cd  Cd8  1  0.195147  0.000007  0.195104  1
  Cd  Cd9  1  0.195128  0.390221  0.195115  1
  Cd  Cd10  1  0.554920  0.499990  0.445106  1
  Cd  Cd11  1  0.945120  0.499981  0.445115  1
  Cd  Cd12  1  0.945116  0.890194  0.445136  1
  Cd  Cd13  1  0.195135  0.000004  0.804890  1
  Cd  Cd14  1  0.804884  0.609734  0.804857  1
  Cd  Cd15  1  0.804904  0.999986  0.804898  1
  Pt  Pt16  1  0.586888  0.173849  0.413115  1
  Pt  Pt17  1  0.239122  0.826163  0.413058  1
  Pt  Pt18  1  0.586987  0.826055  0.413017  1
  Pt  Pt19  1  0.162997  0.326082  0.489071  1
  Pt  Pt20  1  0.586904  0.173961  0.760862  1
  Pt  Pt21  1  0.163090  0.326161  0.836979  1
  Pt  Pt22  1  0.163049  0.673906  0.836973  1
  Pt  Pt23  1  0.510943  0.673963  0.837006  1
