# generated using pymatgen
data_Ca7Pr13Sn16
_symmetry_space_group_name_H-M   'P 1'
_cell_length_a   8.08907405
_cell_length_b   8.57103612
_cell_length_c   16.20608653
_cell_angle_alpha   90.02038763
_cell_angle_beta   89.98747642
_cell_angle_gamma   89.99116019
_symmetry_Int_Tables_number   1
_chemical_formula_structural   Ca7Pr13Sn16
_chemical_formula_sum   'Ca7 Pr13 Sn16'
_cell_volume   1123.59616142
_cell_formula_units_Z   1
loop_
 _symmetry_equiv_pos_site_id
 _symmetry_equiv_pos_as_xyz
  1  'x, y, z'
loop_
 _atom_site_type_symbol
 _atom_site_label
 _atom_site_symmetry_multiplicity
 _atom_site_fract_x
 _atom_site_fract_y
 _atom_site_fract_z
 _atom_site_occupancy
  Ca  Ca0  1  0.330266  0.829180  0.876895  1
  Ca  Ca1  1  0.832262  0.670749  0.622710  1
  Ca  Ca2  1  0.669405  0.169492  0.377257  1
  Ca  Ca3  1  0.163175  0.498560  0.749922  1
  Ca  Ca4  1  0.662358  0.002485  0.749875  1
  Ca  Ca5  1  0.836609  0.502447  0.251541  1
  Ca  Ca6  1  0.337485  0.994704  0.250877  1
  Pr  Pr7  1  0.166234  0.325704  0.123481  1
  Pr  Pr8  1  0.666599  0.172389  0.124374  1
  Pr  Pr9  1  0.165967  0.326681  0.375815  1
  Pr  Pr10  1  0.335487  0.827212  0.624691  1
  Pr  Pr11  1  0.834822  0.674767  0.874599  1
  Pr  Pr12  1  0.490610  0.315834  0.904438  1
  Pr  Pr13  1  0.991368  0.187469  0.596419  1
  Pr  Pr14  1  0.510447  0.685246  0.404506  1
  Pr  Pr15  1  0.008271  0.814669  0.095576  1
  Pr  Pr16  1  0.508886  0.683435  0.095823  1
  Pr  Pr17  1  0.005443  0.815876  0.404963  1
  Pr  Pr18  1  0.493637  0.315688  0.595022  1
  Pr  Pr19  1  0.990209  0.185688  0.902794  1
  Sn  Sn20  1  0.327821  0.033441  0.038763  1
  Sn  Sn21  1  0.827570  0.465877  0.461116  1
  Sn  Sn22  1  0.673713  0.966063  0.539742  1
  Sn  Sn23  1  0.173414  0.535176  0.961061  1
  Sn  Sn24  1  0.671528  0.963193  0.961735  1
  Sn  Sn25  1  0.173858  0.537477  0.537892  1
  Sn  Sn26  1  0.328116  0.036126  0.462125  1
  Sn  Sn27  1  0.825545  0.463479  0.036840  1
  Sn  Sn28  1  0.533446  0.604038  0.749985  1
  Sn  Sn29  1  0.032773  0.898880  0.749660  1
  Sn  Sn30  1  0.467917  0.397496  0.249571  1
  Sn  Sn31  1  0.967657  0.103152  0.250747  1
  Sn  Sn32  1  0.288731  0.141940  0.749512  1
  Sn  Sn33  1  0.787889  0.359506  0.750660  1
  Sn  Sn34  1  0.710233  0.857179  0.249099  1
  Sn  Sn35  1  0.210250  0.638700  0.249914  1
