# generated using pymatgen
data_Th4Co3CuSn2
_symmetry_space_group_name_H-M   'P 1'
_cell_length_a   7.59436420
_cell_length_b   7.59436420
_cell_length_c   3.74652100
_cell_angle_alpha   90.00000000
_cell_angle_beta   90.00000000
_cell_angle_gamma   90.70617089
_symmetry_Int_Tables_number   1
_chemical_formula_structural   Th4Co3CuSn2
_chemical_formula_sum   'Th4 Co3 Cu1 Sn2'
_cell_volume   216.06181800
_cell_formula_units_Z   1
loop_
 _symmetry_equiv_pos_site_id
 _symmetry_equiv_pos_as_xyz
  1  'x, y, z'
loop_
 _atom_site_type_symbol
 _atom_site_label
 _atom_site_symmetry_multiplicity
 _atom_site_fract_x
 _atom_site_fract_y
 _atom_site_fract_z
 _atom_site_occupancy
  Th  Th0  1  0.331987  0.810722  0.500000  1
  Th  Th1  1  0.823014  0.676986  0.500000  1
  Th  Th2  1  0.157270  0.342730  0.500000  1
  Th  Th3  1  0.689278  0.168013  0.500000  1
  Co  Co4  1  0.865358  0.372101  0.000000  1
  Co  Co5  1  0.127899  0.634642  0.000000  1
  Co  Co6  1  0.618764  0.881236  0.000000  1
  Cu  Cu7  1  0.375361  0.124639  0.000000  1
  Sn  Sn8  1  0.007927  0.996859  0.000000  1
  Sn  Sn9  1  0.503141  0.492073  0.000000  1
