# generated using pymatgen
data_Pr4Ga4Ir3Pt
_symmetry_space_group_name_H-M   'P 1'
_cell_length_a   4.45645100
_cell_length_b   7.14323006
_cell_length_c   7.93561907
_cell_angle_alpha   90.01493792
_cell_angle_beta   90.00000000
_cell_angle_gamma   90.00000000
_symmetry_Int_Tables_number   1
_chemical_formula_structural   Pr4Ga4Ir3Pt
_chemical_formula_sum   'Pr4 Ga4 Ir3 Pt1'
_cell_volume   252.61816189
_cell_formula_units_Z   1
loop_
 _symmetry_equiv_pos_site_id
 _symmetry_equiv_pos_as_xyz
  1  'x, y, z'
loop_
 _atom_site_type_symbol
 _atom_site_label
 _atom_site_symmetry_multiplicity
 _atom_site_fract_x
 _atom_site_fract_y
 _atom_site_fract_z
 _atom_site_occupancy
  Pr  Pr0  1  0.250000  0.023496  0.687007  1
  Pr  Pr1  1  0.250000  0.528462  0.810366  1
  Pr  Pr2  1  0.750000  0.974702  0.310263  1
  Pr  Pr3  1  0.750000  0.477938  0.192876  1
  Ga  Ga4  1  0.250000  0.154018  0.073170  1
  Ga  Ga5  1  0.250000  0.655556  0.428582  1
  Ga  Ga6  1  0.750000  0.839639  0.929197  1
  Ga  Ga7  1  0.750000  0.345862  0.567789  1
  Ir  Ir8  1  0.250000  0.279266  0.391410  1
  Ir  Ir9  1  0.250000  0.780321  0.108085  1
  Ir  Ir10  1  0.750000  0.721182  0.609380  1
  Pt  Pt11  1  0.750000  0.219558  0.891875  1
