# generated using pymatgen
data_La10(GaSi)3
_symmetry_space_group_name_H-M   'P 1'
_cell_length_a   7.89968454
_cell_length_b   7.89968398
_cell_length_c   14.45296100
_cell_angle_alpha   89.96425761
_cell_angle_beta   90.03574239
_cell_angle_gamma   89.96533884
_symmetry_Int_Tables_number   1
_chemical_formula_structural   La10(GaSi)3
_chemical_formula_sum   'La20 Ga6 Si6'
_cell_volume   901.93668001
_cell_formula_units_Z   2
loop_
 _symmetry_equiv_pos_site_id
 _symmetry_equiv_pos_as_xyz
  1  'x, y, z'
loop_
 _atom_site_type_symbol
 _atom_site_label
 _atom_site_symmetry_multiplicity
 _atom_site_fract_x
 _atom_site_fract_y
 _atom_site_fract_z
 _atom_site_occupancy
  La  La0  1  0.815104  0.830479  0.606408  1
  La  La1  1  0.186927  0.829349  0.103593  1
  La  La2  1  0.170466  0.812644  0.395889  1
  La  La3  1  0.001275  0.499400  0.723179  1
  La  La4  1  0.829349  0.186927  0.396407  1
  La  La5  1  0.681816  0.663831  0.396734  1
  La  La6  1  0.667843  0.313843  0.606174  1
  La  La7  1  0.330859  0.685659  0.606268  1
  La  La8  1  0.997625  0.504329  0.220738  1
  La  La9  1  0.663831  0.681816  0.103266  1
  La  La10  1  0.685659  0.330859  0.893732  1
  La  La11  1  0.830479  0.815104  0.893592  1
  La  La12  1  0.318887  0.338181  0.398035  1
  La  La13  1  0.184000  0.168783  0.606079  1
  La  La14  1  0.812644  0.170466  0.104111  1
  La  La15  1  0.313843  0.667843  0.893826  1
  La  La16  1  0.338181  0.318887  0.101965  1
  La  La17  1  0.504329  0.997625  0.279262  1
  La  La18  1  0.168783  0.184000  0.893921  1
  La  La19  1  0.499400  0.001275  0.776821  1
  Ga  Ga20  1  0.998120  0.499297  0.503243  1
  Ga  Ga21  1  0.498470  0.999045  0.497954  1
  Ga  Ga22  1  0.499297  0.998120  0.996757  1
  Ga  Ga23  1  0.121174  0.121174  0.250000  1
  Ga  Ga24  1  0.999045  0.498470  0.002046  1
  Ga  Ga25  1  0.884191  0.884191  0.250000  1
  Si  Si26  1  0.612695  0.386445  0.250151  1
  Si  Si27  1  0.112669  0.886804  0.750075  1
  Si  Si28  1  0.386772  0.386772  0.750000  1
  Si  Si29  1  0.386445  0.612695  0.249849  1
  Si  Si30  1  0.613020  0.613020  0.750000  1
  Si  Si31  1  0.886804  0.112669  0.749925  1
