# generated using pymatgen
data_PrTh(ZnRh)2
_symmetry_space_group_name_H-M   'P 1'
_cell_length_a   4.00381900
_cell_length_b   7.42337752
_cell_length_c   16.66846211
_cell_angle_alpha   90.39050291
_cell_angle_beta   90.00000000
_cell_angle_gamma   90.00000000
_symmetry_Int_Tables_number   1
_chemical_formula_structural   PrTh(ZnRh)2
_chemical_formula_sum   'Pr4 Th4 Zn8 Rh8'
_cell_volume   495.40618991
_cell_formula_units_Z   4
loop_
 _symmetry_equiv_pos_site_id
 _symmetry_equiv_pos_as_xyz
  1  'x, y, z'
loop_
 _atom_site_type_symbol
 _atom_site_label
 _atom_site_symmetry_multiplicity
 _atom_site_fract_x
 _atom_site_fract_y
 _atom_site_fract_z
 _atom_site_occupancy
  Pr  Pr0  1  0.250000  0.171299  0.939681  1
  Pr  Pr1  1  0.250000  0.554925  0.785217  1
  Pr  Pr2  1  0.750000  0.328216  0.441091  1
  Pr  Pr3  1  0.250000  0.675351  0.559453  1
  Th  Th4  1  0.750000  0.441367  0.214782  1
  Th  Th5  1  0.750000  0.945634  0.285679  1
  Th  Th6  1  0.750000  0.824128  0.059206  1
  Th  Th7  1  0.250000  0.054301  0.715015  1
  Zn  Zn8  1  0.250000  0.002480  0.441608  1
  Zn  Zn9  1  0.750000  0.496231  0.939052  1
  Zn  Zn10  1  0.750000  0.003193  0.557958  1
  Zn  Zn11  1  0.250000  0.615113  0.349351  1
  Zn  Zn12  1  0.750000  0.386029  0.651510  1
  Zn  Zn13  1  0.750000  0.879467  0.850832  1
  Zn  Zn14  1  0.250000  0.491866  0.059761  1
  Zn  Zn15  1  0.250000  0.113760  0.151097  1
  Rh  Rh16  1  0.250000  0.243972  0.569759  1
  Rh  Rh17  1  0.750000  0.253016  0.069769  1
  Rh  Rh18  1  0.250000  0.241331  0.308906  1
  Rh  Rh19  1  0.750000  0.246091  0.807739  1
  Rh  Rh20  1  0.250000  0.749269  0.942147  1
  Rh  Rh21  1  0.750000  0.776061  0.687496  1
  Rh  Rh22  1  0.750000  0.765701  0.427599  1
  Rh  Rh23  1  0.250000  0.741199  0.185294  1
