# generated using pymatgen
data_U2BeCo4P3
_symmetry_space_group_name_H-M   'P 1'
_cell_length_a   3.78885200
_cell_length_b   3.78885200
_cell_length_c   9.28289300
_cell_angle_alpha   90.00000000
_cell_angle_beta   90.00000000
_cell_angle_gamma   90.00000000
_symmetry_Int_Tables_number   1
_chemical_formula_structural   U2BeCo4P3
_chemical_formula_sum   'U2 Be1 Co4 P3'
_cell_volume   133.25963733
_cell_formula_units_Z   1
loop_
 _symmetry_equiv_pos_site_id
 _symmetry_equiv_pos_as_xyz
  1  'x, y, z'
loop_
 _atom_site_type_symbol
 _atom_site_label
 _atom_site_symmetry_multiplicity
 _atom_site_fract_x
 _atom_site_fract_y
 _atom_site_fract_z
 _atom_site_occupancy
  U  U0  1  0.500000  0.000000  0.242229  1
  U  U1  1  0.000000  0.500000  0.757771  1
  Be  Be2  1  0.500000  0.500000  0.000000  1
  Co  Co3  1  0.000000  0.500000  0.128984  1
  Co  Co4  1  0.500000  0.000000  0.871016  1
  Co  Co5  1  0.000000  0.000000  0.500000  1
  Co  Co6  1  0.500000  0.500000  0.500000  1
  P  P7  1  0.000000  0.500000  0.367175  1
  P  P8  1  0.500000  0.000000  0.632825  1
  P  P9  1  0.000000  0.000000  0.000000  1
