# generated using pymatgen
data_KTl7Bi4Mo4(PO8)4
_symmetry_space_group_name_H-M   'P 1'
_cell_length_a   12.46474097
_cell_length_b   12.46474002
_cell_length_c   12.46474100
_cell_angle_alpha   146.36388708
_cell_angle_beta   118.75539820
_cell_angle_gamma   71.72104729
_symmetry_Int_Tables_number   1
_chemical_formula_structural   KTl7Bi4Mo4(PO8)4
_chemical_formula_sum   'K1 Tl7 Bi4 Mo4 P4 O32'
_cell_volume   925.27542586
_cell_formula_units_Z   1
loop_
 _symmetry_equiv_pos_site_id
 _symmetry_equiv_pos_as_xyz
  1  'x, y, z'
loop_
 _atom_site_type_symbol
 _atom_site_label
 _atom_site_symmetry_multiplicity
 _atom_site_fract_x
 _atom_site_fract_y
 _atom_site_fract_z
 _atom_site_occupancy
  K  K0  1  0.765226  0.374149  0.452107  1
  Tl  Tl1  1  0.264069  0.808590  0.387793  1
  Tl  Tl2  1  0.419930  0.308625  0.043697  1
  Tl  Tl3  1  0.079306  0.123408  0.887845  1
  Tl  Tl4  1  0.735844  0.190738  0.611534  1
  Tl  Tl5  1  0.921793  0.876892  0.112906  1
  Tl  Tl6  1  0.235942  0.623691  0.544480  1
  Tl  Tl7  1  0.579159  0.691040  0.955144  1
  Bi  Bi8  1  0.829893  0.250097  0.080285  1
  Bi  Bi9  1  0.670417  0.749958  0.420636  1
  Bi  Bi10  1  0.169840  0.750011  0.919716  1
  Bi  Bi11  1  0.329681  0.249957  0.579321  1
  Mo  Mo12  1  0.586023  0.835353  0.750678  1
  Mo  Mo13  1  0.914693  0.664593  0.249884  1
  Mo  Mo14  1  0.416386  0.166146  0.251136  1
  Mo  Mo15  1  0.084668  0.335476  0.749383  1
  P  P16  1  0.925121  0.748242  0.675329  1
  P  P17  1  0.073238  0.250244  0.324475  1
  P  P18  1  0.425909  0.750011  0.175893  1
  P  P19  1  0.573960  0.249976  0.823990  1
  O  O20  1  0.837822  0.571075  0.430888  1
  O  O21  1  0.830635  0.815630  0.417200  1
  O  O22  1  0.140047  0.072344  0.233130  1
  O  O23  1  0.161180  0.427442  0.568671  1
  O  O24  1  0.439251  0.165379  0.726083  1
  O  O25  1  0.858505  0.926170  0.766165  1
  O  O26  1  0.358878  0.592346  0.931404  1
  O  O27  1  0.439114  0.665153  0.225693  1
  O  O28  1  0.898420  0.413335  0.082899  1
  O  O29  1  0.425565  0.846649  0.701635  1
  O  O30  1  0.854232  0.652750  0.077637  1
  O  O31  1  0.144663  0.346363  0.920802  1
  O  O32  1  0.669822  0.087293  0.987524  1
  O  O33  1  0.660709  0.092258  0.733277  1
  O  O34  1  0.353205  0.276757  0.201162  1
  O  O35  1  0.939101  0.215788  0.277280  1
  O  O36  1  0.059780  0.785065  0.724902  1
  O  O37  1  0.075092  0.776427  0.422184  1
  O  O38  1  0.102035  0.587227  0.917776  1
  O  O39  1  0.399568  0.315498  0.485242  1
  O  O40  1  0.560840  0.334773  0.774169  1
  O  O41  1  0.577192  0.159714  0.302261  1
  O  O42  1  0.602055  0.684819  0.515562  1
  O  O43  1  0.560492  0.834827  0.273831  1
  O  O44  1  0.333125  0.914289  0.016711  1
  O  O45  1  0.646460  0.721418  0.796689  1
  O  O46  1  0.059961  0.286614  0.226141  1
  O  O47  1  0.924029  0.225520  0.577494  1
  O  O48  1  0.169011  0.184349  0.582431  1
  O  O49  1  0.640922  0.407440  0.068368  1
  O  O50  1  0.938150  0.710465  0.771935  1
  O  O51  1  0.339043  0.907626  0.266623  1
