# generated using pymatgen
data_Tb3Lu5Mn(B8Rh)3
_symmetry_space_group_name_H-M   'P 1'
_cell_length_a   3.60356900
_cell_length_b   9.07743076
_cell_length_c   11.43939426
_cell_angle_alpha   90.07999072
_cell_angle_beta   90.00000000
_cell_angle_gamma   90.00000000
_symmetry_Int_Tables_number   1
_chemical_formula_structural   Tb3Lu5Mn(B8Rh)3
_chemical_formula_sum   'Tb3 Lu5 Mn1 B24 Rh3'
_cell_volume   374.19535489
_cell_formula_units_Z   1
loop_
 _symmetry_equiv_pos_site_id
 _symmetry_equiv_pos_as_xyz
  1  'x, y, z'
loop_
 _atom_site_type_symbol
 _atom_site_label
 _atom_site_symmetry_multiplicity
 _atom_site_fract_x
 _atom_site_fract_y
 _atom_site_fract_z
 _atom_site_occupancy
  Tb  Tb0  1  0.500000  0.317996  0.409980  1
  Tb  Tb1  1  0.500000  0.678500  0.585446  1
  Tb  Tb2  1  0.500000  0.178047  0.918985  1
  Lu  Lu3  1  0.500000  0.826039  0.087543  1
  Lu  Lu4  1  0.500000  0.440150  0.126801  1
  Lu  Lu5  1  0.500000  0.556821  0.874092  1
  Lu  Lu6  1  0.500000  0.056167  0.627471  1
  Lu  Lu7  1  0.500000  0.947570  0.370063  1
  Mn  Mn8  1  0.500000  0.137935  0.179916  1
  B  B9  1  0.000000  0.103409  0.471712  1
  B  B10  1  0.000000  0.896323  0.527932  1
  B  B11  1  0.000000  0.395380  0.971555  1
  B  B12  1  0.000000  0.606927  0.029208  1
  B  B13  1  0.000000  0.130596  0.313530  1
  B  B14  1  0.000000  0.868339  0.683517  1
  B  B15  1  0.000000  0.369396  0.817309  1
  B  B16  1  0.000000  0.632350  0.182086  1
  B  B17  1  0.000000  0.053888  0.068765  1
  B  B18  1  0.000000  0.945357  0.935800  1
  B  B19  1  0.000000  0.444773  0.565763  1
  B  B20  1  0.000000  0.553968  0.432438  1
  B  B21  1  0.000000  0.482484  0.285181  1
  B  B22  1  0.000000  0.518054  0.714370  1
  B  B23  1  0.000000  0.017443  0.787237  1
  B  B24  1  0.000000  0.984247  0.212227  1
  B  B25  1  0.000000  0.247570  0.082751  1
  B  B26  1  0.000000  0.750430  0.922178  1
  B  B27  1  0.000000  0.248725  0.579353  1
  B  B28  1  0.000000  0.751640  0.418785  1
  B  B29  1  0.000000  0.290507  0.233483  1
  B  B30  1  0.000000  0.706290  0.764890  1
  B  B31  1  0.000000  0.206804  0.735760  1
  B  B32  1  0.000000  0.794441  0.263513  1
  Rh  Rh33  1  0.500000  0.860918  0.821493  1
  Rh  Rh34  1  0.500000  0.360325  0.680096  1
  Rh  Rh35  1  0.500000  0.640196  0.318770  1
