# generated using pymatgen
data_CaU3F15
_symmetry_space_group_name_H-M   'P 1'
_cell_length_a   8.70029122
_cell_length_b   8.70029172
_cell_length_c   8.69189236
_cell_angle_alpha   79.49667020
_cell_angle_beta   79.49667141
_cell_angle_gamma   100.67243039
_symmetry_Int_Tables_number   1
_chemical_formula_structural   CaU3F15
_chemical_formula_sum   'Ca2 U6 F30'
_cell_volume   619.62303526
_cell_formula_units_Z   2
loop_
 _symmetry_equiv_pos_site_id
 _symmetry_equiv_pos_as_xyz
  1  'x, y, z'
loop_
 _atom_site_type_symbol
 _atom_site_label
 _atom_site_symmetry_multiplicity
 _atom_site_fract_x
 _atom_site_fract_y
 _atom_site_fract_z
 _atom_site_occupancy
  Ca  Ca0  1  0.176550  0.823450  0.250000  1
  Ca  Ca1  1  0.823450  0.176550  0.750000  1
  U  U2  1  0.749133  0.250867  0.250000  1
  U  U3  1  0.250867  0.749133  0.750000  1
  U  U4  1  0.756630  0.677573  0.673344  1
  U  U5  1  0.322427  0.243370  0.826656  1
  U  U6  1  0.243370  0.322427  0.326656  1
  U  U7  1  0.677573  0.756630  0.173344  1
  F  F8  1  0.471904  0.528096  0.250000  1
  F  F9  1  0.747685  0.959408  0.970568  1
  F  F10  1  0.040592  0.252315  0.529432  1
  F  F11  1  0.252315  0.040592  0.029432  1
  F  F12  1  0.959408  0.747685  0.470568  1
  F  F13  1  0.528096  0.471904  0.750000  1
  F  F14  1  0.774757  0.278881  0.002220  1
  F  F15  1  0.005943  0.276895  0.217280  1
  F  F16  1  0.779463  0.505191  0.222104  1
  F  F17  1  0.505191  0.779463  0.722104  1
  F  F18  1  0.276895  0.005943  0.717280  1
  F  F19  1  0.278881  0.774757  0.502220  1
  F  F20  1  0.225243  0.721119  0.997780  1
  F  F21  1  0.994057  0.723105  0.782720  1
  F  F22  1  0.220537  0.494809  0.777896  1
  F  F23  1  0.494809  0.220537  0.277896  1
  F  F24  1  0.723105  0.994057  0.282720  1
  F  F25  1  0.721119  0.225243  0.497780  1
  F  F26  1  0.315349  0.348201  0.056361  1
  F  F27  1  0.932291  0.809197  0.155253  1
  F  F28  1  0.836590  0.456977  0.688208  1
  F  F29  1  0.456977  0.836590  0.188208  1
  F  F30  1  0.809197  0.932291  0.655253  1
  F  F31  1  0.348201  0.315349  0.556361  1
  F  F32  1  0.684651  0.651799  0.943639  1
  F  F33  1  0.067709  0.190803  0.844747  1
  F  F34  1  0.163410  0.543023  0.311792  1
  F  F35  1  0.543023  0.163410  0.811792  1
  F  F36  1  0.190803  0.067709  0.344747  1
  F  F37  1  0.651799  0.684651  0.443639  1
