# generated using pymatgen
data_ErLu7Re2(B12Ir)2
_symmetry_space_group_name_H-M   'P 1'
_cell_length_a   3.61389900
_cell_length_b   9.04825318
_cell_length_c   11.42846802
_cell_angle_alpha   90.28601172
_cell_angle_beta   90.00000000
_cell_angle_gamma   90.00000000
_symmetry_Int_Tables_number   1
_chemical_formula_structural   ErLu7Re2(B12Ir)2
_chemical_formula_sum   'Er1 Lu7 Re2 B24 Ir2'
_cell_volume   373.70022671
_cell_formula_units_Z   1
loop_
 _symmetry_equiv_pos_site_id
 _symmetry_equiv_pos_as_xyz
  1  'x, y, z'
loop_
 _atom_site_type_symbol
 _atom_site_label
 _atom_site_symmetry_multiplicity
 _atom_site_fract_x
 _atom_site_fract_y
 _atom_site_fract_z
 _atom_site_occupancy
  Er  Er0  1  0.000000  0.316234  0.410013  1
  Lu  Lu1  1  0.000000  0.684645  0.590384  1
  Lu  Lu2  1  0.000000  0.826085  0.081720  1
  Lu  Lu3  1  0.000000  0.173856  0.918186  1
  Lu  Lu4  1  0.000000  0.946257  0.372456  1
  Lu  Lu5  1  0.000000  0.053400  0.627663  1
  Lu  Lu6  1  0.000000  0.441821  0.125467  1
  Lu  Lu7  1  0.000000  0.558264  0.874447  1
  Re  Re8  1  0.000000  0.137867  0.179590  1
  Re  Re9  1  0.000000  0.861708  0.820010  1
  B  B10  1  0.500000  0.554500  0.434790  1
  B  B11  1  0.500000  0.446185  0.565631  1
  B  B12  1  0.500000  0.052937  0.066370  1
  B  B13  1  0.500000  0.946925  0.933460  1
  B  B14  1  0.500000  0.750646  0.421883  1
  B  B15  1  0.500000  0.249231  0.578795  1
  B  B16  1  0.500000  0.249149  0.079772  1
  B  B17  1  0.500000  0.750822  0.920027  1
  B  B18  1  0.500000  0.792160  0.265285  1
  B  B19  1  0.500000  0.207861  0.734861  1
  B  B20  1  0.500000  0.293286  0.234515  1
  B  B21  1  0.500000  0.706467  0.764985  1
  B  B22  1  0.500000  0.631606  0.182958  1
  B  B23  1  0.500000  0.368574  0.817013  1
  B  B24  1  0.500000  0.130843  0.315422  1
  B  B25  1  0.500000  0.868665  0.684270  1
  B  B26  1  0.500000  0.981180  0.213089  1
  B  B27  1  0.500000  0.018570  0.786823  1
  B  B28  1  0.500000  0.481899  0.286933  1
  B  B29  1  0.500000  0.518722  0.712842  1
  B  B30  1  0.500000  0.604969  0.029361  1
  B  B31  1  0.500000  0.395118  0.970574  1
  B  B32  1  0.500000  0.104600  0.471718  1
  B  B33  1  0.500000  0.894550  0.528550  1
  Ir  Ir34  1  0.000000  0.637467  0.321890  1
  Ir  Ir35  1  0.000000  0.362931  0.678248  1
