# generated using pymatgen
data_Eu3Er(Co5P3)4
_symmetry_space_group_name_H-M   'P 1'
_cell_length_a   3.66709500
_cell_length_b   10.34343651
_cell_length_c   11.83915735
_cell_angle_alpha   90.02592683
_cell_angle_beta   90.00000000
_cell_angle_gamma   90.00000000
_symmetry_Int_Tables_number   1
_chemical_formula_structural   Eu3Er(Co5P3)4
_chemical_formula_sum   'Eu3 Er1 Co20 P12'
_cell_volume   449.06350561
_cell_formula_units_Z   1
loop_
 _symmetry_equiv_pos_site_id
 _symmetry_equiv_pos_as_xyz
  1  'x, y, z'
loop_
 _atom_site_type_symbol
 _atom_site_label
 _atom_site_symmetry_multiplicity
 _atom_site_fract_x
 _atom_site_fract_y
 _atom_site_fract_z
 _atom_site_occupancy
  Eu  Eu0  1  0.250000  0.583887  0.703496  1
  Eu  Eu1  1  0.250000  0.916693  0.203207  1
  Eu  Eu2  1  0.750000  0.415936  0.296505  1
  Er  Er3  1  0.750000  0.083001  0.797579  1
  Co  Co4  1  0.250000  0.713941  0.987785  1
  Co  Co5  1  0.250000  0.786538  0.490719  1
  Co  Co6  1  0.750000  0.285512  0.009584  1
  Co  Co7  1  0.750000  0.213496  0.511114  1
  Co  Co8  1  0.250000  0.405380  0.490708  1
  Co  Co9  1  0.250000  0.095010  0.984854  1
  Co  Co10  1  0.750000  0.594186  0.509885  1
  Co  Co11  1  0.750000  0.907983  0.008380  1
  Co  Co12  1  0.250000  0.218768  0.174169  1
  Co  Co13  1  0.250000  0.276742  0.676612  1
  Co  Co14  1  0.750000  0.781117  0.823962  1
  Co  Co15  1  0.750000  0.720399  0.325181  1
  Co  Co16  1  0.250000  0.884763  0.699387  1
  Co  Co17  1  0.250000  0.619396  0.196938  1
  Co  Co18  1  0.750000  0.118957  0.303349  1
  Co  Co19  1  0.750000  0.378169  0.802350  1
  Co  Co20  1  0.250000  0.465353  0.932870  1
  Co  Co21  1  0.250000  0.033405  0.435361  1
  Co  Co22  1  0.750000  0.533000  0.065956  1
  Co  Co23  1  0.750000  0.968307  0.569446  1
  P  P24  1  0.250000  0.418896  0.111291  1
  P  P25  1  0.250000  0.080716  0.614058  1
  P  P26  1  0.750000  0.580594  0.887974  1
  P  P27  1  0.750000  0.919648  0.389867  1
  P  P28  1  0.250000  0.269962  0.868605  1
  P  P29  1  0.250000  0.227303  0.369633  1
  P  P30  1  0.750000  0.728088  0.129653  1
  P  P31  1  0.750000  0.772531  0.630195  1
  P  P32  1  0.250000  0.603867  0.392314  1
  P  P33  1  0.250000  0.898505  0.891517  1
  P  P34  1  0.750000  0.396276  0.607904  1
  P  P35  1  0.750000  0.103675  0.107591  1
