# generated using pymatgen
data_Mg3Ta(ZnRh2)4
_symmetry_space_group_name_H-M   'P 1'
_cell_length_a   6.12730800
_cell_length_b   6.10741400
_cell_length_c   6.23749900
_cell_angle_alpha   89.99916487
_cell_angle_beta   90.00060220
_cell_angle_gamma   90.00303478
_symmetry_Int_Tables_number   1
_chemical_formula_structural   Mg3Ta(ZnRh2)4
_chemical_formula_sum   'Mg3 Ta1 Zn4 Rh8'
_cell_volume   233.41972895
_cell_formula_units_Z   1
loop_
 _symmetry_equiv_pos_site_id
 _symmetry_equiv_pos_as_xyz
  1  'x, y, z'
loop_
 _atom_site_type_symbol
 _atom_site_label
 _atom_site_symmetry_multiplicity
 _atom_site_fract_x
 _atom_site_fract_y
 _atom_site_fract_z
 _atom_site_occupancy
  Mg  Mg0  1  0.750018  0.250009  0.000041  1
  Mg  Mg1  1  0.249988  0.749984  0.000032  1
  Mg  Mg2  1  0.750024  0.250017  0.499966  1
  Ta  Ta3  1  0.249993  0.749994  0.500003  1
  Zn  Zn4  1  0.250004  0.250010  0.000018  1
  Zn  Zn5  1  0.749980  0.750002  0.000005  1
  Zn  Zn6  1  0.749992  0.749996  0.500005  1
  Zn  Zn7  1  0.249998  0.250018  0.499991  1
  Rh  Rh8  1  0.497901  0.997781  0.251676  1
  Rh  Rh9  1  0.002080  0.997766  0.251659  1
  Rh  Rh10  1  0.497935  0.502201  0.251651  1
  Rh  Rh11  1  0.002077  0.502236  0.251661  1
  Rh  Rh12  1  0.497882  0.997774  0.748309  1
  Rh  Rh13  1  0.002101  0.997739  0.748311  1
  Rh  Rh14  1  0.497928  0.502232  0.748339  1
  Rh  Rh15  1  0.002100  0.502240  0.748329  1
