# generated using pymatgen
data_Ho6InFe2
_symmetry_space_group_name_H-M   'P 1'
_cell_length_a   8.39642729
_cell_length_b   8.39642683
_cell_length_c   8.39642809
_cell_angle_alpha   111.48589403
_cell_angle_beta   110.30402704
_cell_angle_gamma   106.66206171
_symmetry_Int_Tables_number   1
_chemical_formula_structural   Ho6InFe2
_chemical_formula_sum   'Ho12 In2 Fe4'
_cell_volume   454.81439267
_cell_formula_units_Z   2
loop_
 _symmetry_equiv_pos_site_id
 _symmetry_equiv_pos_as_xyz
  1  'x, y, z'
loop_
 _atom_site_type_symbol
 _atom_site_label
 _atom_site_symmetry_multiplicity
 _atom_site_fract_x
 _atom_site_fract_y
 _atom_site_fract_z
 _atom_site_occupancy
  Ho  Ho0  1  0.311486  0.610780  0.299294  1
  Ho  Ho1  1  0.688514  0.389220  0.700706  1
  Ho  Ho2  1  0.311486  0.012191  0.700706  1
  Ho  Ho3  1  0.688514  0.987809  0.299294  1
  Ho  Ho4  1  0.188315  0.289382  0.477697  1
  Ho  Ho5  1  0.811685  0.710618  0.522303  1
  Ho  Ho6  1  0.188315  0.710618  0.898933  1
  Ho  Ho7  1  0.811685  0.289382  0.101067  1
  Ho  Ho8  1  0.443643  0.231020  0.212623  1
  Ho  Ho9  1  0.556357  0.768980  0.787377  1
  Ho  Ho10  1  0.018398  0.231020  0.787377  1
  Ho  Ho11  1  0.981602  0.768980  0.212623  1
  In  In12  1  0.500000  0.500000  0.000000  1
  In  In13  1  0.000000  0.000000  0.000000  1
  Fe  Fe14  1  0.108287  0.608287  0.500000  1
  Fe  Fe15  1  0.891713  0.391713  0.500000  1
  Fe  Fe16  1  0.385304  0.000000  0.385304  1
  Fe  Fe17  1  0.614696  0.000000  0.614696  1
