# generated using pymatgen
data_KGa3Te5
_symmetry_space_group_name_H-M   'P 1'
_cell_length_a   10.88419254
_cell_length_b   10.88419302
_cell_length_c   10.88419344
_cell_angle_alpha   90.51679403
_cell_angle_beta   90.51679415
_cell_angle_gamma   90.51679395
_symmetry_Int_Tables_number   1
_chemical_formula_structural   KGa3Te5
_chemical_formula_sum   'K4 Ga12 Te20'
_cell_volume   1289.24477531
_cell_formula_units_Z   4
loop_
 _symmetry_equiv_pos_site_id
 _symmetry_equiv_pos_as_xyz
  1  'x, y, z'
loop_
 _atom_site_type_symbol
 _atom_site_label
 _atom_site_symmetry_multiplicity
 _atom_site_fract_x
 _atom_site_fract_y
 _atom_site_fract_z
 _atom_site_occupancy
  K  K0  1  0.253150  0.000000  0.746850  1
  K  K1  1  0.746850  0.253150  0.000000  1
  K  K2  1  0.000000  0.746850  0.253150  1
  K  K3  1  0.500000  0.500000  0.500000  1
  Ga  Ga4  1  0.835620  0.885942  0.574709  1
  Ga  Ga5  1  0.574709  0.835620  0.885942  1
  Ga  Ga6  1  0.885942  0.574709  0.835620  1
  Ga  Ga7  1  0.164380  0.425291  0.114058  1
  Ga  Ga8  1  0.114058  0.164380  0.425291  1
  Ga  Ga9  1  0.425291  0.114058  0.164380  1
  Ga  Ga10  1  0.743587  0.160434  0.349336  1
  Ga  Ga11  1  0.349336  0.743587  0.160434  1
  Ga  Ga12  1  0.160434  0.349336  0.743587  1
  Ga  Ga13  1  0.256413  0.650664  0.839566  1
  Ga  Ga14  1  0.839566  0.256413  0.650664  1
  Ga  Ga15  1  0.650664  0.839566  0.256413  1
  Te  Te16  1  0.184470  0.815530  0.000000  1
  Te  Te17  1  0.815530  0.000000  0.184470  1
  Te  Te18  1  0.178694  0.178694  0.178694  1
  Te  Te19  1  0.821306  0.821306  0.821306  1
  Te  Te20  1  0.000000  0.184470  0.815530  1
  Te  Te21  1  0.934487  0.500000  0.065513  1
  Te  Te22  1  0.065513  0.934487  0.500000  1
  Te  Te23  1  0.500000  0.065513  0.934487  1
  Te  Te24  1  0.739025  0.706478  0.437106  1
  Te  Te25  1  0.437106  0.739025  0.706478  1
  Te  Te26  1  0.706478  0.437106  0.739025  1
  Te  Te27  1  0.260975  0.562894  0.293522  1
  Te  Te28  1  0.293522  0.260975  0.562894  1
  Te  Te29  1  0.562894  0.293522  0.260975  1
  Te  Te30  1  0.680773  0.076082  0.575374  1
  Te  Te31  1  0.575374  0.680773  0.076082  1
  Te  Te32  1  0.076082  0.575374  0.680773  1
  Te  Te33  1  0.319227  0.424626  0.923918  1
  Te  Te34  1  0.923918  0.319227  0.424626  1
  Te  Te35  1  0.424626  0.923918  0.319227  1
