# generated using pymatgen
data_AcAl6Ag7
_symmetry_space_group_name_H-M   'P 1'
_cell_length_a   9.07983049
_cell_length_b   9.07993752
_cell_length_c   9.07977721
_cell_angle_alpha   120.59826534
_cell_angle_beta   119.76439253
_cell_angle_gamma   89.68969711
_symmetry_Int_Tables_number   1
_chemical_formula_structural   AcAl6Ag7
_chemical_formula_sum   'Ac2 Al12 Ag14'
_cell_volume   527.81963851
_cell_formula_units_Z   2
loop_
 _symmetry_equiv_pos_site_id
 _symmetry_equiv_pos_as_xyz
  1  'x, y, z'
loop_
 _atom_site_type_symbol
 _atom_site_label
 _atom_site_symmetry_multiplicity
 _atom_site_fract_x
 _atom_site_fract_y
 _atom_site_fract_z
 _atom_site_occupancy
  Ac  Ac0  1  0.249971  0.749982  0.499979  1
  Ac  Ac1  1  0.750029  0.250018  0.500021  1
  Al  Al2  1  0.557961  0.554269  0.348586  1
  Al  Al3  1  0.442039  0.445731  0.651414  1
  Al  Al4  1  0.205683  0.209376  0.651416  1
  Al  Al5  1  0.294314  0.945732  0.003692  1
  Al  Al6  1  0.794317  0.790624  0.348584  1
  Al  Al7  1  0.705686  0.054268  0.996308  1
  Al  Al8  1  0.942040  0.290622  0.996308  1
  Al  Al9  1  0.057960  0.709378  0.003692  1
  Al  Al10  1  0.061201  0.294861  0.356062  1
  Al  Al11  1  0.938799  0.705139  0.643938  1
  Al  Al12  1  0.561201  0.205137  0.766338  1
  Al  Al13  1  0.438799  0.794863  0.233662  1
  Ag  Ag14  1  0.311034  0.316408  0.261402  1
  Ag  Ag15  1  0.688966  0.683592  0.738598  1
  Ag  Ag16  1  0.054999  0.049631  0.738594  1
  Ag  Ag17  1  0.444992  0.183597  0.994624  1
  Ag  Ag18  1  0.945001  0.950369  0.261406  1
  Ag  Ag19  1  0.555008  0.816403  0.005376  1
  Ag  Ag20  1  0.188969  0.450369  0.005369  1
  Ag  Ag21  1  0.811031  0.549631  0.994631  1
  Ag  Ag22  1  0.000000  0.000000  0.000000  1
  Ag  Ag23  1  0.500000  0.500000  0.000000  1
  Ag  Ag24  1  0.309837  0.058779  0.368614  1
  Ag  Ag25  1  0.690163  0.941221  0.631386  1
  Ag  Ag26  1  0.809837  0.441222  0.251060  1
  Ag  Ag27  1  0.190163  0.558778  0.748940  1
