# generated using pymatgen
data_Pr3Nd(B10Rh)2
_symmetry_space_group_name_H-M   'P 1'
_cell_length_a   4.22367000
_cell_length_b   5.76376900
_cell_length_c   11.47018400
_cell_angle_alpha   90.00008472
_cell_angle_beta   90.00000000
_cell_angle_gamma   90.00000000
_symmetry_Int_Tables_number   1
_chemical_formula_structural   Pr3Nd(B10Rh)2
_chemical_formula_sum   'Pr3 Nd1 B20 Rh2'
_cell_volume   279.23312104
_cell_formula_units_Z   1
loop_
 _symmetry_equiv_pos_site_id
 _symmetry_equiv_pos_as_xyz
  1  'x, y, z'
loop_
 _atom_site_type_symbol
 _atom_site_label
 _atom_site_symmetry_multiplicity
 _atom_site_fract_x
 _atom_site_fract_y
 _atom_site_fract_z
 _atom_site_occupancy
  Pr  Pr0  1  0.500000  0.296725  0.864818  1
  Pr  Pr1  1  0.500000  0.703282  0.135222  1
  Pr  Pr2  1  0.500000  0.796785  0.635157  1
  Nd  Nd3  1  0.500000  0.203167  0.364828  1
  B  B4  1  0.000000  0.119010  0.543011  1
  B  B5  1  0.000000  0.881147  0.456864  1
  B  B6  1  0.000000  0.619015  0.956867  1
  B  B7  1  0.000000  0.380975  0.043144  1
  B  B8  1  0.000000  0.138135  0.697238  1
  B  B9  1  0.000000  0.862019  0.302736  1
  B  B10  1  0.300413  0.218378  0.118550  1
  B  B11  1  0.300341  0.781620  0.881531  1
  B  B12  1  0.699513  0.718491  0.381531  1
  B  B13  1  0.699589  0.281618  0.618430  1
  B  B14  1  0.699659  0.781620  0.881531  1
  B  B15  1  0.699587  0.218378  0.118550  1
  B  B16  1  0.300411  0.281618  0.618430  1
  B  B17  1  0.300487  0.718491  0.381531  1
  B  B18  1  0.000000  0.056144  0.192805  1
  B  B19  1  0.000000  0.943858  0.807281  1
  B  B20  1  0.000000  0.555956  0.307271  1
  B  B21  1  0.000000  0.443881  0.692726  1
  B  B22  1  0.000000  0.361861  0.197352  1
  B  B23  1  0.000000  0.638127  0.802738  1
  Rh  Rh24  1  0.000000  0.499694  0.499838  1
  Rh  Rh25  1  0.000000  0.000003  0.000019  1
