# generated using pymatgen
data_La12TbNd3(CdRu)4
_symmetry_space_group_name_H-M   'P 1'
_cell_length_a   10.01461774
_cell_length_b   10.06504121
_cell_length_c   10.00435409
_cell_angle_alpha   59.77088119
_cell_angle_beta   60.15351907
_cell_angle_gamma   59.65720306
_symmetry_Int_Tables_number   1
_chemical_formula_structural   La12TbNd3(CdRu)4
_chemical_formula_sum   'La12 Tb1 Nd3 Cd4 Ru4'
_cell_volume   710.77042613
_cell_formula_units_Z   1
loop_
 _symmetry_equiv_pos_site_id
 _symmetry_equiv_pos_as_xyz
  1  'x, y, z'
loop_
 _atom_site_type_symbol
 _atom_site_label
 _atom_site_symmetry_multiplicity
 _atom_site_fract_x
 _atom_site_fract_y
 _atom_site_fract_z
 _atom_site_occupancy
  La  La0  1  0.843930  0.849787  0.843800  1
  La  La1  1  0.691077  0.310413  0.315081  1
  La  La2  1  0.059670  0.438517  0.442475  1
  La  La3  1  0.314365  0.686157  0.689710  1
  La  La4  1  0.316132  0.309993  0.691547  1
  La  La5  1  0.847594  0.845918  0.459708  1
  La  La6  1  0.689311  0.686639  0.314296  1
  La  La7  1  0.459672  0.844566  0.848069  1
  La  La8  1  0.060043  0.440386  0.059473  1
  La  La9  1  0.843450  0.460709  0.844743  1
  La  La10  1  0.441624  0.060198  0.440652  1
  La  La11  1  0.311823  0.690520  0.310374  1
  Tb  Tb12  1  0.690512  0.308023  0.692702  1
  Nd  Nd13  1  0.441453  0.436284  0.059682  1
  Nd  Nd14  1  0.062140  0.064262  0.437346  1
  Nd  Nd15  1  0.437357  0.065111  0.062572  1
  Cd  Cd16  1  0.080131  0.761969  0.078359  1
  Cd  Cd17  1  0.074769  0.080312  0.762126  1
  Cd  Cd18  1  0.760862  0.081893  0.075050  1
  Cd  Cd19  1  0.079521  0.078305  0.079655  1
  Ru  Ru20  1  0.632798  0.088495  0.633026  1
  Ru  Ru21  1  0.634295  0.642756  0.633555  1
  Ru  Ru22  1  0.636579  0.634482  0.090417  1
  Ru  Ru23  1  0.090894  0.634300  0.635580  1
