# generated using pymatgen
data_Ce4Be(Pd5Rh)2
_symmetry_space_group_name_H-M   'P 1'
_cell_length_a   7.27071296
_cell_length_b   7.27071221
_cell_length_c   7.27764557
_cell_angle_alpha   109.08359709
_cell_angle_beta   109.08360120
_cell_angle_gamma   110.21120459
_symmetry_Int_Tables_number   1
_chemical_formula_structural   Ce4Be(Pd5Rh)2
_chemical_formula_sum   'Ce4 Be1 Pd10 Rh2'
_cell_volume   296.25767521
_cell_formula_units_Z   1
loop_
 _symmetry_equiv_pos_site_id
 _symmetry_equiv_pos_as_xyz
  1  'x, y, z'
loop_
 _atom_site_type_symbol
 _atom_site_label
 _atom_site_symmetry_multiplicity
 _atom_site_fract_x
 _atom_site_fract_y
 _atom_site_fract_z
 _atom_site_occupancy
  Ce  Ce0  1  0.995358  0.995358  0.508600  1
  Ce  Ce1  1  0.995232  0.495232  0.990464  1
  Ce  Ce2  1  0.495232  0.995232  0.990464  1
  Ce  Ce3  1  0.513242  0.513242  0.508600  1
  Be  Be4  1  0.000152  0.000152  0.000305  1
  Pd  Pd5  1  0.748421  0.248421  0.496842  1
  Pd  Pd6  1  0.751403  0.498102  0.249506  1
  Pd  Pd7  1  0.498246  0.248543  0.746789  1
  Pd  Pd8  1  0.248543  0.498246  0.746789  1
  Pd  Pd9  1  0.248421  0.748421  0.496842  1
  Pd  Pd10  1  0.498102  0.751403  0.249506  1
  Pd  Pd11  1  0.733652  0.733652  0.003256  1
  Pd  Pd12  1  0.265155  0.001113  0.266268  1
  Pd  Pd13  1  0.001113  0.265155  0.266268  1
  Pd  Pd14  1  0.269604  0.269604  0.003256  1
  Rh  Rh15  1  0.736883  0.001240  0.738123  1
  Rh  Rh16  1  0.001240  0.736883  0.738123  1
