# generated using pymatgen
data_Pu4Hf3VF28
_symmetry_space_group_name_H-M   'P 1'
_cell_length_a   5.67102885
_cell_length_b   9.03916831
_cell_length_c   12.09756300
_cell_angle_alpha   62.54642826
_cell_angle_beta   90.05741674
_cell_angle_gamma   90.00459628
_symmetry_Int_Tables_number   1
_chemical_formula_structural   Pu4Hf3VF28
_chemical_formula_sum   'Pu4 Hf3 V1 F28'
_cell_volume   550.30049658
_cell_formula_units_Z   1
loop_
 _symmetry_equiv_pos_site_id
 _symmetry_equiv_pos_as_xyz
  1  'x, y, z'
loop_
 _atom_site_type_symbol
 _atom_site_label
 _atom_site_symmetry_multiplicity
 _atom_site_fract_x
 _atom_site_fract_y
 _atom_site_fract_z
 _atom_site_occupancy
  Pu  Pu0  1  0.260771  0.811285  0.256816  1
  Pu  Pu1  1  0.741374  0.174962  0.744919  1
  Pu  Pu2  1  0.758783  0.194841  0.235495  1
  Pu  Pu3  1  0.246615  0.808439  0.776459  1
  Hf  Hf4  1  0.243155  0.274532  0.955477  1
  Hf  Hf5  1  0.258253  0.271404  0.462004  1
  Hf  Hf6  1  0.746020  0.723075  0.544551  1
  V  V7  1  0.757188  0.722890  0.047090  1
  F  F8  1  0.950571  0.709062  0.415991  1
  F  F9  1  0.056146  0.293290  0.587139  1
  F  F10  1  0.438408  0.291194  0.084989  1
  F  F11  1  0.554581  0.714709  0.916266  1
  F  F12  1  0.473839  0.724994  0.138214  1
  F  F13  1  0.540823  0.278339  0.864626  1
  F  F14  1  0.963376  0.267767  0.372314  1
  F  F15  1  0.031531  0.727355  0.639243  1
  F  F16  1  0.946852  0.738514  0.177852  1
  F  F17  1  0.062375  0.263826  0.816858  1
  F  F18  1  0.431327  0.257836  0.321447  1
  F  F19  1  0.549220  0.741959  0.675589  1
  F  F20  1  0.777543  0.479750  0.140959  1
  F  F21  1  0.223434  0.521133  0.855607  1
  F  F22  1  0.284796  0.518016  0.363583  1
  F  F23  1  0.723138  0.476071  0.640904  1
  F  F24  1  0.937340  0.281329  0.035093  1
  F  F25  1  0.043954  0.721352  0.956804  1
  F  F26  1  0.445729  0.720927  0.455777  1
  F  F27  1  0.565377  0.274351  0.543836  1
  F  F28  1  0.743990  0.973340  0.445520  1
  F  F29  1  0.270587  0.023268  0.557299  1
  F  F30  1  0.241590  0.026239  0.043641  1
  F  F31  1  0.761390  0.969892  0.948711  1
  F  F32  1  0.591774  0.966977  0.233042  1
  F  F33  1  0.382612  0.049397  0.767268  1
  F  F34  1  0.097026  0.042796  0.258679  1
  F  F35  1  0.898516  0.964892  0.719937  1
