# generated using pymatgen
data_Er4TiSi4Rh
_symmetry_space_group_name_H-M   'P 1'
_cell_length_a   5.81271229
_cell_length_b   5.81271281
_cell_length_c   10.05188720
_cell_angle_alpha   116.16818543
_cell_angle_beta   116.16818818
_cell_angle_gamma   41.91178269
_symmetry_Int_Tables_number   1
_chemical_formula_structural   Er4TiSi4Rh
_chemical_formula_sum   'Er4 Ti1 Si4 Rh1'
_cell_volume   199.97650882
_cell_formula_units_Z   1
loop_
 _symmetry_equiv_pos_site_id
 _symmetry_equiv_pos_as_xyz
  1  'x, y, z'
loop_
 _atom_site_type_symbol
 _atom_site_label
 _atom_site_symmetry_multiplicity
 _atom_site_fract_x
 _atom_site_fract_y
 _atom_site_fract_z
 _atom_site_occupancy
  Er  Er0  1  0.007120  0.007120  0.177724  1
  Er  Er1  1  0.815921  0.815921  0.396557  1
  Er  Er2  1  0.189967  0.189967  0.610498  1
  Er  Er3  1  0.990764  0.990764  0.817260  1
  Ti  Ti4  1  0.273595  0.273595  0.129732  1
  Si  Si5  1  0.625486  0.625486  0.053171  1
  Si  Si6  1  0.512239  0.512239  0.386797  1
  Si  Si7  1  0.498681  0.498681  0.623189  1
  Si  Si8  1  0.359559  0.359559  0.932269  1
  Rh  Rh9  1  0.726667  0.726667  0.872805  1
