# generated using pymatgen
data_Ti2BeB2IrRu4
_symmetry_space_group_name_H-M   'P 1'
_cell_length_a   9.06323457
_cell_length_b   9.07497857
_cell_length_c   2.94877800
_cell_angle_alpha   90.00000000
_cell_angle_beta   90.00000000
_cell_angle_gamma   90.08632492
_symmetry_Int_Tables_number   1
_chemical_formula_structural   Ti2BeB2IrRu4
_chemical_formula_sum   'Ti4 Be2 B4 Ir2 Ru8'
_cell_volume   242.53276256
_cell_formula_units_Z   2
loop_
 _symmetry_equiv_pos_site_id
 _symmetry_equiv_pos_as_xyz
  1  'x, y, z'
loop_
 _atom_site_type_symbol
 _atom_site_label
 _atom_site_symmetry_multiplicity
 _atom_site_fract_x
 _atom_site_fract_y
 _atom_site_fract_z
 _atom_site_occupancy
  Ti  Ti0  1  0.325912  0.177443  0.000000  1
  Ti  Ti1  1  0.825802  0.324749  0.000000  1
  Ti  Ti2  1  0.176347  0.669892  0.000000  1
  Ti  Ti3  1  0.671420  0.827345  0.000000  1
  Be  Be4  1  0.000475  0.998160  0.000000  1
  Be  Be5  1  0.499431  0.499592  0.000000  1
  B  B6  1  0.628951  0.130474  0.000000  1
  B  B7  1  0.129072  0.370323  0.000000  1
  B  B8  1  0.869249  0.625154  0.000000  1
  B  B9  1  0.374529  0.869541  0.000000  1
  Ir  Ir10  1  0.928417  0.794537  0.499999  1
  Ir  Ir11  1  0.205815  0.930088  0.499999  1
  Ru  Ru12  1  0.498846  0.001111  0.499999  1
  Ru  Ru13  1  0.793955  0.071766  0.499999  1
  Ru  Ru14  1  0.069863  0.206285  0.499999  1
  Ru  Ru15  1  0.571869  0.295057  0.499999  1
  Ru  Ru16  1  0.294224  0.429992  0.499999  1
  Ru  Ru17  1  0.000605  0.500502  0.499999  1
  Ru  Ru18  1  0.705370  0.572025  0.499999  1
  Ru  Ru19  1  0.429848  0.705961  0.499999  1
