# generated using pymatgen
data_HoMg(U3Sb5)2
_symmetry_space_group_name_H-M   'P 1'
_cell_length_a   9.29270100
_cell_length_b   9.29270113
_cell_length_c   6.23706700
_cell_angle_alpha   90.00000000
_cell_angle_beta   90.00000000
_cell_angle_gamma   120.00000309
_symmetry_Int_Tables_number   1
_chemical_formula_structural   HoMg(U3Sb5)2
_chemical_formula_sum   'Ho1 Mg1 U6 Sb10'
_cell_volume   466.43911315
_cell_formula_units_Z   1
loop_
 _symmetry_equiv_pos_site_id
 _symmetry_equiv_pos_as_xyz
  1  'x, y, z'
loop_
 _atom_site_type_symbol
 _atom_site_label
 _atom_site_symmetry_multiplicity
 _atom_site_fract_x
 _atom_site_fract_y
 _atom_site_fract_z
 _atom_site_occupancy
  Ho  Ho0  1  0.000000  0.000000  0.500000  1
  Mg  Mg1  1  0.000000  0.000000  0.000000  1
  U  U2  1  0.387179  0.000000  0.750989  1
  U  U3  1  0.387179  0.387179  0.249011  1
  U  U4  1  0.000000  0.612821  0.249011  1
  U  U5  1  0.000000  0.387179  0.750989  1
  U  U6  1  0.612821  0.612821  0.750989  1
  U  U7  1  0.612821  0.000000  0.249011  1
  Sb  Sb8  1  0.666667  0.333333  0.500000  1
  Sb  Sb9  1  0.333333  0.666667  0.000000  1
  Sb  Sb10  1  0.726695  0.000000  0.753867  1
  Sb  Sb11  1  0.726695  0.726695  0.246133  1
  Sb  Sb12  1  0.333333  0.666667  0.500000  1
  Sb  Sb13  1  0.666667  0.333333  0.000000  1
  Sb  Sb14  1  0.273305  0.000000  0.246133  1
  Sb  Sb15  1  0.273305  0.273305  0.753867  1
  Sb  Sb16  1  0.000000  0.726695  0.753867  1
  Sb  Sb17  1  0.000000  0.273305  0.246133  1
