# generated using pymatgen
data_PmEuSe2
_symmetry_space_group_name_H-M   'P 1'
_cell_length_a   6.01629200
_cell_length_b   6.01629200
_cell_length_c   6.00119300
_cell_angle_alpha   90.00000000
_cell_angle_beta   90.00000000
_cell_angle_gamma   90.00000000
_symmetry_Int_Tables_number   1
_chemical_formula_structural   PmEuSe2
_chemical_formula_sum   'Pm2 Eu2 Se4'
_cell_volume   217.21779813
_cell_formula_units_Z   2
loop_
 _symmetry_equiv_pos_site_id
 _symmetry_equiv_pos_as_xyz
  1  'x, y, z'
loop_
 _atom_site_type_symbol
 _atom_site_label
 _atom_site_symmetry_multiplicity
 _atom_site_fract_x
 _atom_site_fract_y
 _atom_site_fract_z
 _atom_site_occupancy
  Pm  Pm0  1  0.750002  0.250003  0.500000  1
  Pm  Pm1  1  0.250003  0.750002  0.500000  1
  Eu  Eu2  1  0.250003  0.250003  0.000941  1
  Eu  Eu3  1  0.750002  0.750002  0.999061  1
  Se  Se4  1  0.750002  0.250003  0.000000  1
  Se  Se5  1  0.250003  0.750002  0.000000  1
  Se  Se6  1  0.750002  0.750002  0.499115  1
  Se  Se7  1  0.250003  0.250003  0.500884  1
