# generated using pymatgen
data_La7Ce(AlIr)8
_symmetry_space_group_name_H-M   'P 1'
_cell_length_a   4.25923800
_cell_length_b   7.24163093
_cell_length_c   16.38161100
_cell_angle_alpha   89.32742505
_cell_angle_beta   90.00000000
_cell_angle_gamma   90.00000000
_symmetry_Int_Tables_number   1
_chemical_formula_structural   La7Ce(AlIr)8
_chemical_formula_sum   'La7 Ce1 Al8 Ir8'
_cell_volume   505.23680696
_cell_formula_units_Z   1
loop_
 _symmetry_equiv_pos_site_id
 _symmetry_equiv_pos_as_xyz
  1  'x, y, z'
loop_
 _atom_site_type_symbol
 _atom_site_label
 _atom_site_symmetry_multiplicity
 _atom_site_fract_x
 _atom_site_fract_y
 _atom_site_fract_z
 _atom_site_occupancy
  La  La0  1  0.750000  0.479277  0.219620  1
  La  La1  1  0.750000  0.979597  0.279497  1
  La  La2  1  0.250000  0.022230  0.721972  1
  La  La3  1  0.250000  0.652266  0.562391  1
  La  La4  1  0.750000  0.339939  0.440448  1
  La  La5  1  0.750000  0.847205  0.059268  1
  La  La6  1  0.250000  0.161423  0.936276  1
  Ce  Ce7  1  0.250000  0.525234  0.780055  1
  Al  Al8  1  0.250000  0.648369  0.352438  1
  Al  Al9  1  0.750000  0.346847  0.649797  1
  Al  Al10  1  0.750000  0.838809  0.849292  1
  Al  Al11  1  0.250000  0.149549  0.146278  1
  Al  Al12  1  0.250000  0.506947  0.060085  1
  Al  Al13  1  0.750000  0.498778  0.938975  1
  Al  Al14  1  0.750000  0.988555  0.562930  1
  Al  Al15  1  0.250000  0.000921  0.439069  1
  Ir  Ir16  1  0.250000  0.771181  0.179532  1
  Ir  Ir17  1  0.750000  0.263643  0.815170  1
  Ir  Ir18  1  0.750000  0.714002  0.688621  1
  Ir  Ir19  1  0.250000  0.271552  0.320490  1
  Ir  Ir20  1  0.250000  0.721795  0.925535  1
  Ir  Ir21  1  0.750000  0.282590  0.070760  1
  Ir  Ir22  1  0.750000  0.778453  0.429884  1
  Ir  Ir23  1  0.250000  0.210837  0.571613  1
