# generated using pymatgen
data_PmSi2OsPt
_symmetry_space_group_name_H-M   'P 1'
_cell_length_a   5.87465173
_cell_length_b   5.87465132
_cell_length_c   5.87465206
_cell_angle_alpha   138.92386502
_cell_angle_beta   138.92385750
_cell_angle_gamma   59.49096126
_symmetry_Int_Tables_number   1
_chemical_formula_structural   PmSi2OsPt
_chemical_formula_sum   'Pm1 Si2 Os1 Pt1'
_cell_volume   86.66380187
_cell_formula_units_Z   1
loop_
 _symmetry_equiv_pos_site_id
 _symmetry_equiv_pos_as_xyz
  1  'x, y, z'
loop_
 _atom_site_type_symbol
 _atom_site_label
 _atom_site_symmetry_multiplicity
 _atom_site_fract_x
 _atom_site_fract_y
 _atom_site_fract_z
 _atom_site_occupancy
  Pm  Pm0  1  0.000000  0.000000  0.000000  1
  Si  Si1  1  0.378179  0.378179  0.000000  1
  Si  Si2  1  0.621820  0.621820  0.000000  1
  Os  Os3  1  0.750000  0.250000  0.500000  1
  Pt  Pt4  1  0.250000  0.750000  0.500000  1
