# generated using pymatgen
data_Ce4Bi8PdRh2
_symmetry_space_group_name_H-M   'P 1'
_cell_length_a   4.62508100
_cell_length_b   4.62508100
_cell_length_c   19.09130100
_cell_angle_alpha   90.00000000
_cell_angle_beta   90.00000000
_cell_angle_gamma   90.00000000
_symmetry_Int_Tables_number   1
_chemical_formula_structural   Ce4Bi8PdRh2
_chemical_formula_sum   'Ce4 Bi8 Pd1 Rh2'
_cell_volume   408.38916474
_cell_formula_units_Z   1
loop_
 _symmetry_equiv_pos_site_id
 _symmetry_equiv_pos_as_xyz
  1  'x, y, z'
loop_
 _atom_site_type_symbol
 _atom_site_label
 _atom_site_symmetry_multiplicity
 _atom_site_fract_x
 _atom_site_fract_y
 _atom_site_fract_z
 _atom_site_occupancy
  Ce  Ce0  1  0.500000  0.000000  0.110281  1
  Ce  Ce1  1  0.500000  0.000000  0.613174  1
  Ce  Ce2  1  0.000000  0.500000  0.889719  1
  Ce  Ce3  1  0.000000  0.500000  0.386826  1
  Bi  Bi4  1  0.500000  0.000000  0.918590  1
  Bi  Bi5  1  0.500000  0.000000  0.414643  1
  Bi  Bi6  1  0.000000  0.500000  0.081410  1
  Bi  Bi7  1  0.000000  0.500000  0.585357  1
  Bi  Bi8  1  0.500000  0.500000  0.752068  1
  Bi  Bi9  1  0.500000  0.500000  0.247932  1
  Bi  Bi10  1  0.000000  0.000000  0.751943  1
  Bi  Bi11  1  0.000000  0.000000  0.248057  1
  Pd  Pd12  1  0.000000  0.000000  0.000000  1
  Rh  Rh13  1  0.500000  0.500000  0.500000  1
  Rh  Rh14  1  0.000000  0.000000  0.500000  1
