# generated using pymatgen
data_SmTm(Co3Si2)2
_symmetry_space_group_name_H-M   'P 1'
_cell_length_a   6.26003892
_cell_length_b   6.26003824
_cell_length_c   6.26003966
_cell_angle_alpha   130.53119492
_cell_angle_beta   113.28969814
_cell_angle_gamma   87.40692934
_symmetry_Int_Tables_number   1
_chemical_formula_structural   SmTm(Co3Si2)2
_chemical_formula_sum   'Sm1 Tm1 Co6 Si4'
_cell_volume   163.19819039
_cell_formula_units_Z   1
loop_
 _symmetry_equiv_pos_site_id
 _symmetry_equiv_pos_as_xyz
  1  'x, y, z'
loop_
 _atom_site_type_symbol
 _atom_site_label
 _atom_site_symmetry_multiplicity
 _atom_site_fract_x
 _atom_site_fract_y
 _atom_site_fract_z
 _atom_site_occupancy
  Sm  Sm0  1  0.750000  0.470584  0.720584  1
  Tm  Tm1  1  0.250000  0.535145  0.285145  1
  Co  Co2  1  0.999320  0.998633  0.497954  1
  Co  Co3  1  0.500680  0.998633  0.999313  1
  Co  Co4  1  0.721424  0.997080  0.721508  1
  Co  Co5  1  0.224428  0.500085  0.721508  1
  Co  Co6  1  0.275572  0.997080  0.275657  1
  Co  Co7  1  0.778576  0.500085  0.275657  1
  Si  Si8  1  0.083090  0.878429  0.795339  1
  Si  Si9  1  0.921615  0.127613  0.205998  1
  Si  Si10  1  0.578385  0.784384  0.205998  1
  Si  Si11  1  0.416910  0.212247  0.795339  1
