# generated using pymatgen
data_Tm6Zn22SiAg
_symmetry_space_group_name_H-M   'P 1'
_cell_length_a   9.02534521
_cell_length_b   9.02534610
_cell_length_c   9.02533600
_cell_angle_alpha   59.99995252
_cell_angle_beta   59.99996536
_cell_angle_gamma   60.00000189
_symmetry_Int_Tables_number   1
_chemical_formula_structural   Tm6Zn22SiAg
_chemical_formula_sum   'Tm6 Zn22 Si1 Ag1'
_cell_volume   519.84731457
_cell_formula_units_Z   1
loop_
 _symmetry_equiv_pos_site_id
 _symmetry_equiv_pos_as_xyz
  1  'x, y, z'
loop_
 _atom_site_type_symbol
 _atom_site_label
 _atom_site_symmetry_multiplicity
 _atom_site_fract_x
 _atom_site_fract_y
 _atom_site_fract_z
 _atom_site_occupancy
  Tm  Tm0  1  0.715376  0.284624  0.284624  1
  Tm  Tm1  1  0.284624  0.715376  0.715376  1
  Tm  Tm2  1  0.284624  0.715376  0.284624  1
  Tm  Tm3  1  0.715376  0.284624  0.715376  1
  Tm  Tm4  1  0.284625  0.284624  0.715376  1
  Tm  Tm5  1  0.715375  0.715376  0.284624  1
  Zn  Zn6  1  0.125280  0.125281  0.125280  1
  Zn  Zn7  1  0.874720  0.874719  0.874720  1
  Zn  Zn8  1  0.125281  0.125280  0.624159  1
  Zn  Zn9  1  0.125281  0.624159  0.125280  1
  Zn  Zn10  1  0.874719  0.874720  0.375841  1
  Zn  Zn11  1  0.874719  0.375841  0.874720  1
  Zn  Zn12  1  0.624160  0.125280  0.125280  1
  Zn  Zn13  1  0.375840  0.874720  0.874720  1
  Zn  Zn14  1  0.500000  0.000000  0.000000  1
  Zn  Zn15  1  0.000000  0.500000  0.500000  1
  Zn  Zn16  1  0.000000  0.500000  0.000000  1
  Zn  Zn17  1  0.500000  0.000000  0.500000  1
  Zn  Zn18  1  0.000000  0.000000  0.500000  1
  Zn  Zn19  1  0.500000  0.500000  0.000000  1
  Zn  Zn20  1  0.334987  0.334986  0.334986  1
  Zn  Zn21  1  0.665013  0.665014  0.665014  1
  Zn  Zn22  1  0.334987  0.334987  0.995040  1
  Zn  Zn23  1  0.334987  0.995039  0.334988  1
  Zn  Zn24  1  0.665013  0.665013  0.004960  1
  Zn  Zn25  1  0.665013  0.004961  0.665012  1
  Zn  Zn26  1  0.995040  0.334987  0.334987  1
  Zn  Zn27  1  0.004960  0.665013  0.665013  1
  Si  Si28  1  0.500000  0.500000  0.500000  1
  Ag  Ag29  1  0.000000  0.000000  0.000000  1
