# generated using pymatgen
data_Pr11Th(Si7Br3)2
_symmetry_space_group_name_H-M   'P 1'
_cell_length_a   4.12390300
_cell_length_b   11.80868800
_cell_length_c   16.63618700
_cell_angle_alpha   90.00000000
_cell_angle_beta   90.00000000
_cell_angle_gamma   90.00000000
_symmetry_Int_Tables_number   1
_chemical_formula_structural   Pr11Th(Si7Br3)2
_chemical_formula_sum   'Pr11 Th1 Si14 Br6'
_cell_volume   810.14710255
_cell_formula_units_Z   1
loop_
 _symmetry_equiv_pos_site_id
 _symmetry_equiv_pos_as_xyz
  1  'x, y, z'
loop_
 _atom_site_type_symbol
 _atom_site_label
 _atom_site_symmetry_multiplicity
 _atom_site_fract_x
 _atom_site_fract_y
 _atom_site_fract_z
 _atom_site_occupancy
  Pr  Pr0  1  0.500000  0.342540  0.500000  1
  Pr  Pr1  1  0.000000  0.658820  0.000000  1
  Pr  Pr2  1  0.500000  0.358249  0.756179  1
  Pr  Pr3  1  0.000000  0.641726  0.743247  1
  Pr  Pr4  1  0.500000  0.358249  0.243821  1
  Pr  Pr5  1  0.000000  0.641726  0.256753  1
  Pr  Pr6  1  0.500000  0.065510  0.880158  1
  Pr  Pr7  1  0.000000  0.933754  0.618990  1
  Pr  Pr8  1  0.500000  0.065510  0.119842  1
  Pr  Pr9  1  0.000000  0.933754  0.381010  1
  Pr  Pr10  1  0.500000  0.356043  0.000000  1
  Th  Th11  1  0.000000  0.645218  0.500000  1
  Si  Si12  1  0.000000  0.151673  0.000000  1
  Si  Si13  1  0.500000  0.847530  0.500000  1
  Si  Si14  1  0.500000  0.567550  0.876455  1
  Si  Si15  1  0.000000  0.433777  0.623392  1
  Si  Si16  1  0.500000  0.567550  0.123545  1
  Si  Si17  1  0.000000  0.433777  0.376608  1
  Si  Si18  1  0.000000  0.253224  0.873708  1
  Si  Si19  1  0.500000  0.746154  0.625432  1
  Si  Si20  1  0.000000  0.253224  0.126292  1
  Si  Si21  1  0.500000  0.746154  0.374568  1
  Si  Si22  1  0.000000  0.458413  0.876819  1
  Si  Si23  1  0.500000  0.540676  0.622571  1
  Si  Si24  1  0.500000  0.540676  0.377429  1
  Si  Si25  1  0.000000  0.458413  0.123181  1
  Br  Br26  1  0.500000  0.109355  0.693074  1
  Br  Br27  1  0.000000  0.890813  0.806775  1
  Br  Br28  1  0.000000  0.138862  0.500000  1
  Br  Br29  1  0.500000  0.860907  0.000000  1
  Br  Br30  1  0.500000  0.109355  0.306926  1
  Br  Br31  1  0.000000  0.890813  0.193225  1
