# generated using pymatgen
data_Y2ErGa3(Ni3Sn)3
_symmetry_space_group_name_H-M   'P 1'
_cell_length_a   9.12772600
_cell_length_b   9.12772585
_cell_length_c   4.06258300
_cell_angle_alpha   90.00000000
_cell_angle_beta   90.00000000
_cell_angle_gamma   119.99999329
_symmetry_Int_Tables_number   1
_chemical_formula_structural   Y2ErGa3(Ni3Sn)3
_chemical_formula_sum   'Y2 Er1 Ga3 Ni9 Sn3'
_cell_volume   293.12853019
_cell_formula_units_Z   1
loop_
 _symmetry_equiv_pos_site_id
 _symmetry_equiv_pos_as_xyz
  1  'x, y, z'
loop_
 _atom_site_type_symbol
 _atom_site_label
 _atom_site_symmetry_multiplicity
 _atom_site_fract_x
 _atom_site_fract_y
 _atom_site_fract_z
 _atom_site_occupancy
  Y  Y0  1  0.666667  0.333333  0.500000  1
  Y  Y1  1  0.333333  0.666667  0.500000  1
  Er  Er2  1  0.000000  0.000000  0.000000  1
  Ga  Ga3  1  0.744242  0.744242  0.500000  1
  Ga  Ga4  1  0.255758  0.000000  0.500000  1
  Ga  Ga5  1  0.000000  0.255758  0.500000  1
  Ni  Ni6  1  0.837657  0.201308  0.000000  1
  Ni  Ni7  1  0.798692  0.636349  0.000000  1
  Ni  Ni8  1  0.363651  0.162343  0.000000  1
  Ni  Ni9  1  0.201308  0.837657  0.000000  1
  Ni  Ni10  1  0.636349  0.798692  0.000000  1
  Ni  Ni11  1  0.162343  0.363651  0.000000  1
  Ni  Ni12  1  0.281625  0.281625  0.500000  1
  Ni  Ni13  1  0.718375  0.000000  0.500000  1
  Ni  Ni14  1  0.000000  0.718375  0.500000  1
  Sn  Sn15  1  0.474435  0.474435  0.000000  1
  Sn  Sn16  1  0.525565  0.000000  0.000000  1
  Sn  Sn17  1  0.000000  0.525565  0.000000  1
