# generated using pymatgen
data_Y17Er3(IrRh2)4
_symmetry_space_group_name_H-M   'P 1'
_cell_length_a   10.93557600
_cell_length_b   10.93557600
_cell_length_c   6.38919300
_cell_angle_alpha   90.00000000
_cell_angle_beta   90.00000000
_cell_angle_gamma   90.00000000
_symmetry_Int_Tables_number   1
_chemical_formula_structural   Y17Er3(IrRh2)4
_chemical_formula_sum   'Y17 Er3 Ir4 Rh8'
_cell_volume   764.06328890
_cell_formula_units_Z   1
loop_
 _symmetry_equiv_pos_site_id
 _symmetry_equiv_pos_as_xyz
  1  'x, y, z'
loop_
 _atom_site_type_symbol
 _atom_site_label
 _atom_site_symmetry_multiplicity
 _atom_site_fract_x
 _atom_site_fract_y
 _atom_site_fract_z
 _atom_site_occupancy
  Y  Y0  1  0.290946  0.089930  0.379324  1
  Y  Y1  1  0.291288  0.909828  0.879166  1
  Y  Y2  1  0.708712  0.090172  0.879166  1
  Y  Y3  1  0.709054  0.910070  0.379324  1
  Y  Y4  1  0.587649  0.789244  0.879942  1
  Y  Y5  1  0.587552  0.210721  0.379938  1
  Y  Y6  1  0.412448  0.789279  0.379938  1
  Y  Y7  1  0.412351  0.210756  0.879942  1
  Y  Y8  1  0.210721  0.412448  0.620062  1
  Y  Y9  1  0.210756  0.587649  0.120058  1
  Y  Y10  1  0.789244  0.412351  0.120058  1
  Y  Y11  1  0.789279  0.587552  0.620062  1
  Y  Y12  1  0.909828  0.708712  0.120834  1
  Y  Y13  1  0.910070  0.290946  0.620676  1
  Y  Y14  1  0.089930  0.709054  0.620676  1
  Y  Y15  1  0.090172  0.291288  0.120834  1
  Y  Y16  1  0.000000  0.000000  0.000000  1
  Er  Er17  1  0.000000  0.000000  0.500000  1
  Er  Er18  1  0.500000  0.500000  0.000000  1
  Er  Er19  1  0.500000  0.500000  0.500000  1
  Ir  Ir20  1  0.652613  0.347368  0.749961  1
  Ir  Ir21  1  0.652632  0.652613  0.250039  1
  Ir  Ir22  1  0.347368  0.347387  0.250039  1
  Ir  Ir23  1  0.347387  0.652632  0.749961  1
  Rh  Rh24  1  0.847281  0.152662  0.251592  1
  Rh  Rh25  1  0.847338  0.847281  0.748408  1
  Rh  Rh26  1  0.152662  0.152719  0.748408  1
  Rh  Rh27  1  0.152719  0.847338  0.251592  1
  Rh  Rh28  1  0.500000  0.000000  0.125942  1
  Rh  Rh29  1  0.500000  0.000000  0.625950  1
  Rh  Rh30  1  0.000000  0.500000  0.874058  1
  Rh  Rh31  1  0.000000  0.500000  0.374050  1
