# generated using pymatgen
data_Ce5Sn3Ge
_symmetry_space_group_name_H-M   'P 1'
_cell_length_a   6.46507600
_cell_length_b   9.53628941
_cell_length_c   9.53794547
_cell_angle_alpha   119.98423623
_cell_angle_beta   90.00000000
_cell_angle_gamma   90.00000000
_symmetry_Int_Tables_number   1
_chemical_formula_structural   Ce5Sn3Ge
_chemical_formula_sum   'Ce10 Sn6 Ge2'
_cell_volume   509.33965315
_cell_formula_units_Z   2
loop_
 _symmetry_equiv_pos_site_id
 _symmetry_equiv_pos_as_xyz
  1  'x, y, z'
loop_
 _atom_site_type_symbol
 _atom_site_label
 _atom_site_symmetry_multiplicity
 _atom_site_fract_x
 _atom_site_fract_y
 _atom_site_fract_z
 _atom_site_occupancy
  Ce  Ce0  1  0.749956  0.262078  0.999978  1
  Ce  Ce1  1  0.750007  0.737929  0.737908  1
  Ce  Ce2  1  0.750007  0.999997  0.262114  1
  Ce  Ce3  1  0.249956  0.737922  0.000022  1
  Ce  Ce4  1  0.250007  0.262071  0.262092  1
  Ce  Ce5  1  0.250007  0.000003  0.737886  1
  Ce  Ce6  1  0.500022  0.333251  0.666558  1
  Ce  Ce7  1  0.500018  0.666769  0.333439  1
  Ce  Ce8  1  0.000022  0.666749  0.333442  1
  Ce  Ce9  1  0.000018  0.333231  0.666561  1
  Sn  Sn10  1  0.750036  0.616671  0.000027  1
  Sn  Sn11  1  0.750003  0.383298  0.383306  1
  Sn  Sn12  1  0.750001  0.000017  0.616669  1
  Sn  Sn13  1  0.250036  0.383329  0.999973  1
  Sn  Sn14  1  0.250003  0.616702  0.616694  1
  Sn  Sn15  1  0.250001  0.999983  0.383331  1
  Ge  Ge16  1  0.499950  0.999971  0.000001  1
  Ge  Ge17  1  0.999950  0.000029  0.999999  1
