# generated using pymatgen
data_Ho2Mg2AgIr
_symmetry_space_group_name_H-M   'P 1'
_cell_length_a   4.11497900
_cell_length_b   7.29904318
_cell_length_c   8.88235632
_cell_angle_alpha   86.72255459
_cell_angle_beta   90.00000000
_cell_angle_gamma   90.00000000
_symmetry_Int_Tables_number   1
_chemical_formula_structural   Ho2Mg2AgIr
_chemical_formula_sum   'Ho4 Mg4 Ag2 Ir2'
_cell_volume   266.34885442
_cell_formula_units_Z   2
loop_
 _symmetry_equiv_pos_site_id
 _symmetry_equiv_pos_as_xyz
  1  'x, y, z'
loop_
 _atom_site_type_symbol
 _atom_site_label
 _atom_site_symmetry_multiplicity
 _atom_site_fract_x
 _atom_site_fract_y
 _atom_site_fract_z
 _atom_site_occupancy
  Ho  Ho0  1  0.250000  0.526032  0.158999  1
  Ho  Ho1  1  0.750000  0.473968  0.841001  1
  Ho  Ho2  1  0.750000  0.940911  0.694205  1
  Ho  Ho3  1  0.250000  0.059089  0.305795  1
  Mg  Mg4  1  0.250000  0.638659  0.569582  1
  Mg  Mg5  1  0.750000  0.361341  0.430418  1
  Mg  Mg6  1  0.750000  0.866348  0.056552  1
  Mg  Mg7  1  0.250000  0.133652  0.943448  1
  Ag  Ag8  1  0.750000  0.748906  0.370594  1
  Ag  Ag9  1  0.250000  0.251094  0.629406  1
  Ir  Ir10  1  0.250000  0.748057  0.869131  1
  Ir  Ir11  1  0.750000  0.251943  0.130869  1
