# generated using pymatgen
data_RbSrCrN3
_symmetry_space_group_name_H-M   'P 1'
_cell_length_a   6.51548255
_cell_length_b   6.51548278
_cell_length_c   12.41164900
_cell_angle_alpha   90.00000000
_cell_angle_beta   90.00000000
_cell_angle_gamma   127.39859908
_symmetry_Int_Tables_number   1
_chemical_formula_structural   RbSrCrN3
_chemical_formula_sum   'Rb4 Sr4 Cr4 N12'
_cell_volume   418.57956220
_cell_formula_units_Z   4
loop_
 _symmetry_equiv_pos_site_id
 _symmetry_equiv_pos_as_xyz
  1  'x, y, z'
loop_
 _atom_site_type_symbol
 _atom_site_label
 _atom_site_symmetry_multiplicity
 _atom_site_fract_x
 _atom_site_fract_y
 _atom_site_fract_z
 _atom_site_occupancy
  Rb  Rb0  1  0.542822  0.457178  0.641838  1
  Rb  Rb1  1  0.457178  0.542822  0.358162  1
  Rb  Rb2  1  0.957178  0.042822  0.141838  1
  Rb  Rb3  1  0.042822  0.957178  0.858162  1
  Sr  Sr4  1  0.850646  0.149354  0.583129  1
  Sr  Sr5  1  0.149354  0.850646  0.416871  1
  Sr  Sr6  1  0.649354  0.350646  0.083129  1
  Sr  Sr7  1  0.350646  0.649354  0.916871  1
  Cr  Cr8  1  0.728201  0.271799  0.834075  1
  Cr  Cr9  1  0.271799  0.728201  0.165925  1
  Cr  Cr10  1  0.771799  0.228201  0.334075  1
  Cr  Cr11  1  0.228201  0.771799  0.665925  1
  N  N12  1  0.812632  0.187368  0.944299  1
  N  N13  1  0.187368  0.812632  0.055701  1
  N  N14  1  0.687368  0.312632  0.444299  1
  N  N15  1  0.312632  0.687368  0.555701  1
  N  N16  1  0.589889  0.410111  0.876117  1
  N  N17  1  0.410111  0.589889  0.123883  1
  N  N18  1  0.910111  0.089889  0.376117  1
  N  N19  1  0.089889  0.910111  0.623883  1
  N  N20  1  0.513644  0.986356  0.750000  1
  N  N21  1  0.986356  0.513644  0.250000  1
  N  N22  1  0.486356  0.013644  0.250000  1
  N  N23  1  0.013644  0.486356  0.750000  1
