# generated using pymatgen
data_Zr4Si4RuPt5
_symmetry_space_group_name_H-M   'P 1'
_cell_length_a   4.07838800
_cell_length_b   6.46130246
_cell_length_c   8.72913701
_cell_angle_alpha   89.84523100
_cell_angle_beta   90.00000000
_cell_angle_gamma   90.00000000
_symmetry_Int_Tables_number   1
_chemical_formula_structural   Zr4Si4RuPt5
_chemical_formula_sum   'Zr4 Si4 Ru1 Pt5'
_cell_volume   230.02674675
_cell_formula_units_Z   1
loop_
 _symmetry_equiv_pos_site_id
 _symmetry_equiv_pos_as_xyz
  1  'x, y, z'
loop_
 _atom_site_type_symbol
 _atom_site_label
 _atom_site_symmetry_multiplicity
 _atom_site_fract_x
 _atom_site_fract_y
 _atom_site_fract_z
 _atom_site_occupancy
  Zr  Zr0  1  0.000000  0.883307  0.334665  1
  Zr  Zr1  1  0.000000  0.116693  0.665335  1
  Zr  Zr2  1  0.000000  0.388918  0.174301  1
  Zr  Zr3  1  0.000000  0.611082  0.825699  1
  Si  Si4  1  0.500000  0.573802  0.353500  1
  Si  Si5  1  0.500000  0.426198  0.646500  1
  Si  Si6  1  0.500000  0.073944  0.151852  1
  Si  Si7  1  0.500000  0.926056  0.848148  1
  Ru  Ru8  1  0.000000  0.500000  0.500000  1
  Pt  Pt9  1  0.500000  0.687388  0.087201  1
  Pt  Pt10  1  0.500000  0.312612  0.912799  1
  Pt  Pt11  1  0.500000  0.194605  0.414647  1
  Pt  Pt12  1  0.500000  0.805395  0.585353  1
  Pt  Pt13  1  0.000000  0.000000  0.000000  1
