# generated using pymatgen
data_Lu6Sc4In5Sb
_symmetry_space_group_name_H-M   'P 1'
_cell_length_a   6.17712900
_cell_length_b   8.77788491
_cell_length_c   8.73876766
_cell_angle_alpha   120.14805663
_cell_angle_beta   89.99875100
_cell_angle_gamma   90.00689540
_symmetry_Int_Tables_number   1
_chemical_formula_structural   Lu6Sc4In5Sb
_chemical_formula_sum   'Lu6 Sc4 In5 Sb1'
_cell_volume   409.73919317
_cell_formula_units_Z   1
loop_
 _symmetry_equiv_pos_site_id
 _symmetry_equiv_pos_as_xyz
  1  'x, y, z'
loop_
 _atom_site_type_symbol
 _atom_site_label
 _atom_site_symmetry_multiplicity
 _atom_site_fract_x
 _atom_site_fract_y
 _atom_site_fract_z
 _atom_site_occupancy
  Lu  Lu0  1  0.749966  0.234817  0.999895  1
  Lu  Lu1  1  0.750082  0.767279  0.763139  1
  Lu  Lu2  1  0.749987  0.003962  0.236435  1
  Lu  Lu3  1  0.250028  0.761781  0.999871  1
  Lu  Lu4  1  0.250054  0.232051  0.232537  1
  Lu  Lu5  1  0.249949  0.999453  0.767337  1
  Sc  Sc6  1  0.498066  0.334512  0.669756  1
  Sc  Sc7  1  0.497380  0.664682  0.330528  1
  Sc  Sc8  1  0.002081  0.664741  0.330686  1
  Sc  Sc9  1  0.002359  0.334496  0.669696  1
  In  In10  1  0.750773  0.408884  0.408005  1
  In  In11  1  0.749262  0.001276  0.592189  1
  In  In12  1  0.249517  0.398908  0.999829  1
  In  In13  1  0.250722  0.592100  0.594478  1
  In  In14  1  0.249734  0.997480  0.405536  1
  Sb  Sb15  1  0.750041  0.603583  0.000082  1
