# generated using pymatgen
data_Ac8In3Co
_symmetry_space_group_name_H-M   'P 1'
_cell_length_a   11.47783400
_cell_length_b   11.47795622
_cell_length_c   7.69969700
_cell_angle_alpha   90.00000000
_cell_angle_beta   90.00000000
_cell_angle_gamma   120.00037608
_symmetry_Int_Tables_number   1
_chemical_formula_structural   Ac8In3Co
_chemical_formula_sum   'Ac16 In6 Co2'
_cell_volume   878.47038312
_cell_formula_units_Z   2
loop_
 _symmetry_equiv_pos_site_id
 _symmetry_equiv_pos_as_xyz
  1  'x, y, z'
loop_
 _atom_site_type_symbol
 _atom_site_label
 _atom_site_symmetry_multiplicity
 _atom_site_fract_x
 _atom_site_fract_y
 _atom_site_fract_z
 _atom_site_occupancy
  Ac  Ac0  1  0.544550  0.089105  0.515486  1
  Ac  Ac1  1  0.910893  0.455447  0.515484  1
  Ac  Ac2  1  0.544551  0.455446  0.515486  1
  Ac  Ac3  1  0.455450  0.910895  0.015486  1
  Ac  Ac4  1  0.089107  0.544553  0.015484  1
  Ac  Ac5  1  0.455449  0.544554  0.015486  1
  Ac  Ac6  1  0.173277  0.346554  0.711596  1
  Ac  Ac7  1  0.653445  0.826722  0.711600  1
  Ac  Ac8  1  0.173277  0.826723  0.711595  1
  Ac  Ac9  1  0.826723  0.653446  0.211596  1
  Ac  Ac10  1  0.346555  0.173278  0.211600  1
  Ac  Ac11  1  0.826723  0.173277  0.211595  1
  Ac  Ac12  1  0.666667  0.333333  0.920863  1
  Ac  Ac13  1  0.333333  0.666667  0.420863  1
  Ac  Ac14  1  0.000001  0.000001  0.498335  1
  Ac  Ac15  1  0.999999  0.999999  0.998335  1
  In  In16  1  0.836052  0.672108  0.762872  1
  In  In17  1  0.327874  0.163937  0.762918  1
  In  In18  1  0.836053  0.163944  0.762873  1
  In  In19  1  0.163948  0.327892  0.262872  1
  In  In20  1  0.672126  0.836063  0.262918  1
  In  In21  1  0.163947  0.836056  0.262873  1
  Co  Co22  1  0.666667  0.333334  0.282992  1
  Co  Co23  1  0.333333  0.666666  0.782992  1
