# generated using pymatgen
data_Os(Se4I)2
_symmetry_space_group_name_H-M   'P 1'
_cell_length_a   9.18225082
_cell_length_b   9.18220682
_cell_length_c   9.87918953
_cell_angle_alpha   78.72276050
_cell_angle_beta   78.72300659
_cell_angle_gamma   119.41309321
_symmetry_Int_Tables_number   1
_chemical_formula_structural   Os(Se4I)2
_chemical_formula_sum   'Os2 Se16 I4'
_cell_volume   668.83846463
_cell_formula_units_Z   2
loop_
 _symmetry_equiv_pos_site_id
 _symmetry_equiv_pos_as_xyz
  1  'x, y, z'
loop_
 _atom_site_type_symbol
 _atom_site_label
 _atom_site_symmetry_multiplicity
 _atom_site_fract_x
 _atom_site_fract_y
 _atom_site_fract_z
 _atom_site_occupancy
  Os  Os0  1  0.000000  0.000000  0.000000  1
  Os  Os1  1  0.000000  0.000000  0.500000  1
  Se  Se2  1  0.800176  0.060085  0.154195  1
  Se  Se3  1  0.939914  0.199825  0.345803  1
  Se  Se4  1  0.199824  0.939915  0.845805  1
  Se  Se5  1  0.060086  0.800175  0.654197  1
  Se  Se6  1  0.980345  0.789373  0.212015  1
  Se  Se7  1  0.210627  0.019654  0.287984  1
  Se  Se8  1  0.019655  0.210627  0.787985  1
  Se  Se9  1  0.789373  0.980346  0.712016  1
  Se  Se10  1  0.765078  0.735617  0.459270  1
  Se  Se11  1  0.264381  0.234921  0.040729  1
  Se  Se12  1  0.234922  0.264383  0.540730  1
  Se  Se13  1  0.735619  0.765079  0.959271  1
  Se  Se14  1  0.575709  0.802706  0.361628  1
  Se  Se15  1  0.197292  0.424292  0.138372  1
  Se  Se16  1  0.424291  0.197294  0.638372  1
  Se  Se17  1  0.802708  0.575708  0.861628  1
  I  I18  1  0.595155  0.404850  0.249998  1
  I  I19  1  0.404845  0.595150  0.750002  1
  I  I20  1  0.000000  0.500000  0.500000  1
  I  I21  1  0.500000  0.000000  0.000000  1
