# generated using pymatgen
data_Nb2CrCo3
_symmetry_space_group_name_H-M   'P 1'
_cell_length_a   4.84731400
_cell_length_b   4.84731394
_cell_length_c   7.68755200
_cell_angle_alpha   90.00000000
_cell_angle_beta   90.00000000
_cell_angle_gamma   120.00000038
_symmetry_Int_Tables_number   1
_chemical_formula_structural   Nb2CrCo3
_chemical_formula_sum   'Nb4 Cr2 Co6'
_cell_volume   156.43034328
_cell_formula_units_Z   2
loop_
 _symmetry_equiv_pos_site_id
 _symmetry_equiv_pos_as_xyz
  1  'x, y, z'
loop_
 _atom_site_type_symbol
 _atom_site_label
 _atom_site_symmetry_multiplicity
 _atom_site_fract_x
 _atom_site_fract_y
 _atom_site_fract_z
 _atom_site_occupancy
  Nb  Nb0  1  0.333333  0.666667  0.436382  1
  Nb  Nb1  1  0.666667  0.333333  0.563618  1
  Nb  Nb2  1  0.666667  0.333333  0.936382  1
  Nb  Nb3  1  0.333333  0.666667  0.063618  1
  Cr  Cr4  1  0.000000  0.000000  0.500000  1
  Cr  Cr5  1  0.000000  0.000000  0.000000  1
  Co  Co6  1  0.829571  0.170429  0.250000  1
  Co  Co7  1  0.829571  0.659143  0.250000  1
  Co  Co8  1  0.340857  0.170429  0.250000  1
  Co  Co9  1  0.170429  0.829571  0.750000  1
  Co  Co10  1  0.170429  0.340857  0.750000  1
  Co  Co11  1  0.659143  0.829571  0.750000  1
