# generated using pymatgen
data_La2HoSi2
_symmetry_space_group_name_H-M   'P 1'
_cell_length_a   7.67444400
_cell_length_b   7.67444400
_cell_length_c   4.52118400
_cell_angle_alpha   90.00000000
_cell_angle_beta   90.00000000
_cell_angle_gamma   90.00000000
_symmetry_Int_Tables_number   1
_chemical_formula_structural   La2HoSi2
_chemical_formula_sum   'La4 Ho2 Si4'
_cell_volume   266.28458416
_cell_formula_units_Z   2
loop_
 _symmetry_equiv_pos_site_id
 _symmetry_equiv_pos_as_xyz
  1  'x, y, z'
loop_
 _atom_site_type_symbol
 _atom_site_label
 _atom_site_symmetry_multiplicity
 _atom_site_fract_x
 _atom_site_fract_y
 _atom_site_fract_z
 _atom_site_occupancy
  La  La0  1  0.677978  0.177978  0.500000  1
  La  La1  1  0.322022  0.822022  0.500000  1
  La  La2  1  0.177978  0.322022  0.500000  1
  La  La3  1  0.822022  0.677978  0.500000  1
  Ho  Ho4  1  0.000000  0.000000  0.000000  1
  Ho  Ho5  1  0.500000  0.500000  0.000000  1
  Si  Si6  1  0.113026  0.613026  0.000000  1
  Si  Si7  1  0.886974  0.386974  0.000000  1
  Si  Si8  1  0.613026  0.886974  0.000000  1
  Si  Si9  1  0.386974  0.113026  0.000000  1
