# generated using pymatgen
data_Li8Y7Ho(SnSb3)2
_symmetry_space_group_name_H-M   'P 1'
_cell_length_a   9.47635300
_cell_length_b   9.47635337
_cell_length_c   7.03625800
_cell_angle_alpha   90.00000000
_cell_angle_beta   90.00000000
_cell_angle_gamma   120.00000916
_symmetry_Int_Tables_number   1
_chemical_formula_structural   Li8Y7Ho(SnSb3)2
_chemical_formula_sum   'Li8 Y7 Ho1 Sn2 Sb6'
_cell_volume   547.21100685
_cell_formula_units_Z   1
loop_
 _symmetry_equiv_pos_site_id
 _symmetry_equiv_pos_as_xyz
  1  'x, y, z'
loop_
 _atom_site_type_symbol
 _atom_site_label
 _atom_site_symmetry_multiplicity
 _atom_site_fract_x
 _atom_site_fract_y
 _atom_site_fract_z
 _atom_site_occupancy
  Li  Li0  1  0.167571  0.335143  0.277781  1
  Li  Li1  1  0.167571  0.832429  0.277781  1
  Li  Li2  1  0.664857  0.832429  0.277781  1
  Li  Li3  1  0.832440  0.664878  0.777820  1
  Li  Li4  1  0.832440  0.167560  0.777820  1
  Li  Li5  1  0.335122  0.167560  0.777820  1
  Li  Li6  1  0.333333  0.666667  0.688553  1
  Li  Li7  1  0.666667  0.333333  0.188549  1
  Y  Y8  1  0.508690  0.017378  0.493560  1
  Y  Y9  1  0.508690  0.491310  0.493560  1
  Y  Y10  1  0.982622  0.491310  0.493560  1
  Y  Y11  1  0.491302  0.982606  0.993552  1
  Y  Y12  1  0.491302  0.508698  0.993552  1
  Y  Y13  1  0.017394  0.508698  0.993552  1
  Y  Y14  1  0.000000  0.000000  0.501274  1
  Ho  Ho15  1  0.000000  0.000000  0.001266  1
  Sn  Sn16  1  0.333333  0.666667  0.255879  1
  Sn  Sn17  1  0.666667  0.333333  0.755903  1
  Sb  Sb18  1  0.166192  0.332383  0.737275  1
  Sb  Sb19  1  0.166192  0.833808  0.737275  1
  Sb  Sb20  1  0.667617  0.833808  0.737275  1
  Sb  Sb21  1  0.833852  0.667703  0.236862  1
  Sb  Sb22  1  0.833852  0.166148  0.236862  1
  Sb  Sb23  1  0.332297  0.166148  0.236862  1
