# generated using pymatgen
data_Y(VCo)6
_symmetry_space_group_name_H-M   'P 1'
_cell_length_a   4.85711290
_cell_length_b   6.38058621
_cell_length_c   6.38058692
_cell_angle_alpha   95.84250291
_cell_angle_beta   112.37188304
_cell_angle_gamma   67.62811923
_symmetry_Int_Tables_number   1
_chemical_formula_structural   Y(VCo)6
_chemical_formula_sum   'Y1 V6 Co6'
_cell_volume   168.88084019
_cell_formula_units_Z   1
loop_
 _symmetry_equiv_pos_site_id
 _symmetry_equiv_pos_as_xyz
  1  'x, y, z'
loop_
 _atom_site_type_symbol
 _atom_site_label
 _atom_site_symmetry_multiplicity
 _atom_site_fract_x
 _atom_site_fract_y
 _atom_site_fract_z
 _atom_site_occupancy
  Y  Y0  1  0.000000  0.000000  0.000000  1
  V  V1  1  0.641391  0.358609  0.641391  1
  V  V2  1  0.358609  0.641391  0.358609  1
  V  V3  1  0.000000  0.359485  0.359485  1
  V  V4  1  0.000000  0.640515  0.640515  1
  V  V5  1  0.500000  0.787871  0.787871  1
  V  V6  1  0.500000  0.212129  0.212129  1
  Co  Co7  1  0.500000  0.000000  0.500000  1
  Co  Co8  1  0.000000  0.000000  0.500000  1
  Co  Co9  1  0.500000  0.500000  0.000000  1
  Co  Co10  1  0.000000  0.500000  0.000000  1
  Co  Co11  1  0.727196  0.772804  0.227196  1
  Co  Co12  1  0.272804  0.227196  0.772804  1
