# generated using pymatgen
data_Nb12Al8CrNi3C4
_symmetry_space_group_name_H-M   'P 1'
_cell_length_a   8.30504270
_cell_length_b   8.25449790
_cell_length_c   8.25449800
_cell_angle_alpha   60.00000762
_cell_angle_beta   60.20112868
_cell_angle_gamma   60.20113254
_symmetry_Int_Tables_number   1
_chemical_formula_structural   Nb12Al8CrNi3C4
_chemical_formula_sum   'Nb12 Al8 Cr1 Ni3 C4'
_cell_volume   401.34869093
_cell_formula_units_Z   1
loop_
 _symmetry_equiv_pos_site_id
 _symmetry_equiv_pos_as_xyz
  1  'x, y, z'
loop_
 _atom_site_type_symbol
 _atom_site_label
 _atom_site_symmetry_multiplicity
 _atom_site_fract_x
 _atom_site_fract_y
 _atom_site_fract_z
 _atom_site_occupancy
  Nb  Nb0  1  0.815268  0.812266  0.186233  1
  Nb  Nb1  1  0.182002  0.201347  0.808326  1
  Nb  Nb2  1  0.815268  0.186233  0.812266  1
  Nb  Nb3  1  0.182002  0.808326  0.201347  1
  Nb  Nb4  1  0.182002  0.808326  0.808326  1
  Nb  Nb5  1  0.815268  0.186233  0.186233  1
  Nb  Nb6  1  0.434732  0.437734  0.063767  1
  Nb  Nb7  1  0.067998  0.048653  0.441674  1
  Nb  Nb8  1  0.434732  0.063767  0.437734  1
  Nb  Nb9  1  0.067998  0.441674  0.048653  1
  Nb  Nb10  1  0.067998  0.441674  0.441674  1
  Nb  Nb11  1  0.434732  0.063767  0.063767  1
  Al  Al12  1  0.754410  0.415197  0.415197  1
  Al  Al13  1  0.424118  0.745453  0.415214  1
  Al  Al14  1  0.424118  0.415214  0.745453  1
  Al  Al15  1  0.424118  0.415214  0.415214  1
  Al  Al16  1  0.495590  0.834803  0.834803  1
  Al  Al17  1  0.825882  0.504547  0.834786  1
  Al  Al18  1  0.825882  0.834786  0.504547  1
  Al  Al19  1  0.825882  0.834786  0.834786  1
  Cr  Cr20  1  0.125000  0.625000  0.625000  1
  Ni  Ni21  1  0.625000  0.125000  0.625000  1
  Ni  Ni22  1  0.625000  0.625000  0.125000  1
  Ni  Ni23  1  0.625000  0.625000  0.625000  1
  C  C24  1  0.625000  0.125000  0.125000  1
  C  C25  1  0.125000  0.625000  0.125000  1
  C  C26  1  0.125000  0.125000  0.625000  1
  C  C27  1  0.125000  0.125000  0.125000  1
