# generated using pymatgen
data_DyLu2Ga5Ir
_symmetry_space_group_name_H-M   'P 1'
_cell_length_a   6.87996900
_cell_length_b   6.91659027
_cell_length_c   4.23914500
_cell_angle_alpha   90.00000000
_cell_angle_beta   90.00000000
_cell_angle_gamma   119.82501150
_symmetry_Int_Tables_number   1
_chemical_formula_structural   DyLu2Ga5Ir
_chemical_formula_sum   'Dy1 Lu2 Ga5 Ir1'
_cell_volume   175.00502891
_cell_formula_units_Z   1
loop_
 _symmetry_equiv_pos_site_id
 _symmetry_equiv_pos_as_xyz
  1  'x, y, z'
loop_
 _atom_site_type_symbol
 _atom_site_label
 _atom_site_symmetry_multiplicity
 _atom_site_fract_x
 _atom_site_fract_y
 _atom_site_fract_z
 _atom_site_occupancy
  Dy  Dy0  1  0.587122  0.000000  0.500000  1
  Lu  Lu1  1  0.407943  0.409095  0.500000  1
  Lu  Lu2  1  0.998846  0.590905  0.500000  1
  Ga  Ga3  1  0.239080  0.000000  0.000000  1
  Ga  Ga4  1  0.999706  0.237526  0.000000  1
  Ga  Ga5  1  0.668027  0.336835  0.000000  1
  Ga  Ga6  1  0.331191  0.663165  0.000000  1
  Ga  Ga7  1  0.762180  0.762474  0.000000  1
  Ir  Ir8  1  0.005905  0.000000  0.500000  1
