# generated using pymatgen
data_EuHo5Ta2O14
_symmetry_space_group_name_H-M   'P 1'
_cell_length_a   6.46758737
_cell_length_b   6.46758631
_cell_length_c   7.49375421
_cell_angle_alpha   90.02212997
_cell_angle_beta   89.97787324
_cell_angle_gamma   108.68449885
_symmetry_Int_Tables_number   1
_chemical_formula_structural   EuHo5Ta2O14
_chemical_formula_sum   'Eu1 Ho5 Ta2 O14'
_cell_volume   296.94094587
_cell_formula_units_Z   1
loop_
 _symmetry_equiv_pos_site_id
 _symmetry_equiv_pos_as_xyz
  1  'x, y, z'
loop_
 _atom_site_type_symbol
 _atom_site_label
 _atom_site_symmetry_multiplicity
 _atom_site_fract_x
 _atom_site_fract_y
 _atom_site_fract_z
 _atom_site_occupancy
  Eu  Eu0  1  0.493950  0.493950  0.000000  1
  Ho  Ho1  1  0.001114  0.464961  0.744193  1
  Ho  Ho2  1  0.001430  0.534082  0.246122  1
  Ho  Ho3  1  0.534082  0.001430  0.753878  1
  Ho  Ho4  1  0.464961  0.001114  0.255807  1
  Ho  Ho5  1  0.537718  0.537718  0.500000  1
  Ta  Ta6  1  0.002957  0.002957  0.500000  1
  Ta  Ta7  1  0.999657  0.999657  0.000000  1
  O  O8  1  0.639796  0.360030  0.742879  1
  O  O9  1  0.360030  0.639796  0.257121  1
  O  O10  1  0.931336  0.067832  0.750253  1
  O  O11  1  0.067832  0.931336  0.249747  1
  O  O12  1  0.918771  0.672256  0.527979  1
  O  O13  1  0.071154  0.322759  0.029467  1
  O  O14  1  0.322759  0.071154  0.970533  1
  O  O15  1  0.672256  0.918771  0.472021  1
  O  O16  1  0.368523  0.632123  0.742272  1
  O  O17  1  0.632123  0.368523  0.257728  1
  O  O18  1  0.936614  0.682307  0.961056  1
  O  O19  1  0.050638  0.309993  0.459347  1
  O  O20  1  0.309993  0.050638  0.540653  1
  O  O21  1  0.682307  0.936614  0.038944  1
