# generated using pymatgen
data_Dy4Y4Ti11Si16Mo
_symmetry_space_group_name_H-M   'P 1'
_cell_length_a   7.04440074
_cell_length_b   7.04443508
_cell_length_c   12.95081100
_cell_angle_alpha   90.02446887
_cell_angle_beta   89.97420081
_cell_angle_gamma   90.01198297
_symmetry_Int_Tables_number   1
_chemical_formula_structural   Dy4Y4Ti11Si16Mo
_chemical_formula_sum   'Dy4 Y4 Ti11 Si16 Mo1'
_cell_volume   642.66862439
_cell_formula_units_Z   1
loop_
 _symmetry_equiv_pos_site_id
 _symmetry_equiv_pos_as_xyz
  1  'x, y, z'
loop_
 _atom_site_type_symbol
 _atom_site_label
 _atom_site_symmetry_multiplicity
 _atom_site_fract_x
 _atom_site_fract_y
 _atom_site_fract_z
 _atom_site_occupancy
  Dy  Dy0  1  0.840018  0.498884  0.284414  1
  Dy  Dy1  1  0.502806  0.160025  0.217375  1
  Dy  Dy2  1  0.498893  0.840053  0.715573  1
  Dy  Dy3  1  0.341459  0.001332  0.467060  1
  Y  Y4  1  0.996898  0.659936  0.032996  1
  Y  Y5  1  0.001377  0.341392  0.532902  1
  Y  Y6  1  0.659920  0.996893  0.967011  1
  Y  Y7  1  0.160075  0.502821  0.782632  1
  Ti  Ti8  1  0.348191  0.508336  0.375071  1
  Ti  Ti9  1  0.846329  0.990687  0.376855  1
  Ti  Ti10  1  0.007920  0.152065  0.123913  1
  Ti  Ti11  1  0.990730  0.846358  0.623112  1
  Ti  Ti12  1  0.508375  0.348146  0.624903  1
  Ti  Ti13  1  0.152074  0.007937  0.876083  1
  Ti  Ti14  1  0.826112  0.172593  0.749637  1
  Ti  Ti15  1  0.172605  0.826177  0.250389  1
  Ti  Ti16  1  0.327129  0.327093  0.000016  1
  Ti  Ti17  1  0.492319  0.651949  0.126668  1
  Ti  Ti18  1  0.651937  0.492331  0.873324  1
  Si  Si19  1  0.046587  0.709408  0.435052  1
  Si  Si20  1  0.952641  0.291210  0.934909  1
  Si  Si21  1  0.709298  0.046583  0.564913  1
  Si  Si22  1  0.208453  0.453705  0.185084  1
  Si  Si23  1  0.791355  0.547344  0.684634  1
  Si  Si24  1  0.453713  0.208421  0.814917  1
  Si  Si25  1  0.547334  0.791481  0.315388  1
  Si  Si26  1  0.291251  0.952674  0.065112  1
  Si  Si27  1  0.797919  0.870037  0.184901  1
  Si  Si28  1  0.298760  0.629462  0.565347  1
  Si  Si29  1  0.702445  0.370186  0.065385  1
  Si  Si30  1  0.629373  0.298669  0.434646  1
  Si  Si31  1  0.370222  0.702476  0.934629  1
  Si  Si32  1  0.129743  0.202105  0.315317  1
  Si  Si33  1  0.202199  0.129674  0.684697  1
  Si  Si34  1  0.870004  0.797948  0.815133  1
  Mo  Mo35  1  0.673533  0.673606  0.500004  1
