# generated using pymatgen
data_La6Mn(GeS7)2
_symmetry_space_group_name_H-M   'P 1'
_cell_length_a   10.39722600
_cell_length_b   10.39722527
_cell_length_c   5.84842700
_cell_angle_alpha   90.00000000
_cell_angle_beta   90.00000000
_cell_angle_gamma   120.00000233
_symmetry_Int_Tables_number   1
_chemical_formula_structural   La6Mn(GeS7)2
_chemical_formula_sum   'La6 Mn1 Ge2 S14'
_cell_volume   547.52585578
_cell_formula_units_Z   1
loop_
 _symmetry_equiv_pos_site_id
 _symmetry_equiv_pos_as_xyz
  1  'x, y, z'
loop_
 _atom_site_type_symbol
 _atom_site_label
 _atom_site_symmetry_multiplicity
 _atom_site_fract_x
 _atom_site_fract_y
 _atom_site_fract_z
 _atom_site_occupancy
  La  La0  1  0.877387  0.233136  0.249523  1
  La  La1  1  0.766864  0.644253  0.249523  1
  La  La2  1  0.355747  0.122613  0.249523  1
  La  La3  1  0.122885  0.767570  0.751355  1
  La  La4  1  0.232430  0.355315  0.751355  1
  La  La5  1  0.644685  0.877115  0.751355  1
  Mn  Mn6  1  0.000000  0.000000  0.487940  1
  Ge  Ge7  1  0.666667  0.333333  0.832485  1
  Ge  Ge8  1  0.333333  0.666667  0.335737  1
  S  S9  1  0.666667  0.333333  0.457225  1
  S  S10  1  0.333333  0.666667  0.960039  1
  S  S11  1  0.915339  0.158295  0.723945  1
  S  S12  1  0.841705  0.757044  0.723945  1
  S  S13  1  0.242956  0.084661  0.723945  1
  S  S14  1  0.082402  0.839669  0.249910  1
  S  S15  1  0.160331  0.242733  0.249910  1
  S  S16  1  0.757267  0.917598  0.249910  1
  S  S17  1  0.589199  0.107845  0.984945  1
  S  S18  1  0.892155  0.481354  0.984945  1
  S  S19  1  0.518646  0.410801  0.984945  1
  S  S20  1  0.411767  0.892246  0.487732  1
  S  S21  1  0.107754  0.519521  0.487732  1
  S  S22  1  0.480479  0.588233  0.487732  1
