# generated using pymatgen
data_La2Ga10Ir
_symmetry_space_group_name_H-M   'P 1'
_cell_length_a   4.42509148
_cell_length_b   4.42509216
_cell_length_c   13.69885757
_cell_angle_alpha   99.29472604
_cell_angle_beta   99.29474200
_cell_angle_gamma   90.00000291
_symmetry_Int_Tables_number   1
_chemical_formula_structural   La2Ga10Ir
_chemical_formula_sum   'La2 Ga10 Ir1'
_cell_volume   261.15206631
_cell_formula_units_Z   1
loop_
 _symmetry_equiv_pos_site_id
 _symmetry_equiv_pos_as_xyz
  1  'x, y, z'
loop_
 _atom_site_type_symbol
 _atom_site_label
 _atom_site_symmetry_multiplicity
 _atom_site_fract_x
 _atom_site_fract_y
 _atom_site_fract_z
 _atom_site_occupancy
  La  La0  1  0.643461  0.643461  0.286924  1
  La  La1  1  0.356539  0.356539  0.713076  1
  Ga  Ga2  1  0.550055  0.050055  0.100109  1
  Ga  Ga3  1  0.050055  0.550055  0.100109  1
  Ga  Ga4  1  0.106209  0.106209  0.212418  1
  Ga  Ga5  1  0.197582  0.197582  0.395163  1
  Ga  Ga6  1  0.750000  0.250000  0.500000  1
  Ga  Ga7  1  0.250000  0.750000  0.500000  1
  Ga  Ga8  1  0.802418  0.802418  0.604837  1
  Ga  Ga9  1  0.893791  0.893791  0.787581  1
  Ga  Ga10  1  0.949945  0.449945  0.899890  1
  Ga  Ga11  1  0.449945  0.949945  0.899890  1
  Ir  Ir12  1  0.500000  0.500000  0.000000  1
