# generated using pymatgen
data_Lu6Al15Si9Os8
_symmetry_space_group_name_H-M   'P 1'
_cell_length_a   8.65806356
_cell_length_b   8.65806370
_cell_length_c   9.30543400
_cell_angle_alpha   90.00000000
_cell_angle_beta   90.00000000
_cell_angle_gamma   120.04116993
_symmetry_Int_Tables_number   1
_chemical_formula_structural   Lu6Al15Si9Os8
_chemical_formula_sum   'Lu6 Al15 Si9 Os8'
_cell_volume   603.84919592
_cell_formula_units_Z   1
loop_
 _symmetry_equiv_pos_site_id
 _symmetry_equiv_pos_as_xyz
  1  'x, y, z'
loop_
 _atom_site_type_symbol
 _atom_site_label
 _atom_site_symmetry_multiplicity
 _atom_site_fract_x
 _atom_site_fract_y
 _atom_site_fract_z
 _atom_site_occupancy
  Lu  Lu0  1  0.195370  0.392221  0.250000  1
  Lu  Lu1  1  0.806295  0.609313  0.750000  1
  Lu  Lu2  1  0.607779  0.804630  0.250000  1
  Lu  Lu3  1  0.390687  0.193705  0.750000  1
  Lu  Lu4  1  0.196456  0.803544  0.250000  1
  Lu  Lu5  1  0.804168  0.195832  0.750000  1
  Al  Al6  1  0.165153  0.328200  0.579294  1
  Al  Al7  1  0.836396  0.672033  0.418963  1
  Al  Al8  1  0.671800  0.834847  0.579294  1
  Al  Al9  1  0.836396  0.672033  0.081037  1
  Al  Al10  1  0.327967  0.163604  0.418963  1
  Al  Al11  1  0.165153  0.328200  0.920706  1
  Al  Al12  1  0.163975  0.836025  0.579973  1
  Al  Al13  1  0.327967  0.163604  0.081037  1
  Al  Al14  1  0.835722  0.164278  0.419574  1
  Al  Al15  1  0.671800  0.834847  0.920706  1
  Al  Al16  1  0.835722  0.164278  0.080426  1
  Al  Al17  1  0.163975  0.836025  0.920027  1
  Al  Al18  1  0.435758  0.564242  0.750000  1
  Al  Al19  1  0.000155  0.999845  0.250000  1
  Al  Al20  1  0.000151  0.999849  0.750000  1
  Si  Si21  1  0.334307  0.665693  0.041037  1
  Si  Si22  1  0.666012  0.333988  0.957775  1
  Si  Si23  1  0.666012  0.333988  0.542225  1
  Si  Si24  1  0.334307  0.665693  0.458963  1
  Si  Si25  1  0.561332  0.124195  0.250000  1
  Si  Si26  1  0.436815  0.876115  0.750000  1
  Si  Si27  1  0.875805  0.438668  0.250000  1
  Si  Si28  1  0.123885  0.563185  0.750000  1
  Si  Si29  1  0.562848  0.437152  0.250000  1
  Os  Os30  1  0.500111  0.000896  0.000621  1
  Os  Os31  1  0.999104  0.499889  0.000621  1
  Os  Os32  1  0.500111  0.000896  0.499379  1
  Os  Os33  1  0.500786  0.499214  0.006739  1
  Os  Os34  1  0.999104  0.499889  0.499379  1
  Os  Os35  1  0.500786  0.499214  0.493261  1
  Os  Os36  1  0.999917  0.000083  0.999949  1
  Os  Os37  1  0.999917  0.000083  0.500051  1
