# generated using pymatgen
data_Cu4AgPbO8
_symmetry_space_group_name_H-M   'P 1'
_cell_length_a   6.27910158
_cell_length_b   6.27910198
_cell_length_c   6.27910150
_cell_angle_alpha   125.26107859
_cell_angle_beta   125.26107937
_cell_angle_gamma   81.10604070
_symmetry_Int_Tables_number   1
_chemical_formula_structural   Cu4AgPbO8
_chemical_formula_sum   'Cu4 Ag1 Pb1 O8'
_cell_volume   159.02066584
_cell_formula_units_Z   1
loop_
 _symmetry_equiv_pos_site_id
 _symmetry_equiv_pos_as_xyz
  1  'x, y, z'
loop_
 _atom_site_type_symbol
 _atom_site_label
 _atom_site_symmetry_multiplicity
 _atom_site_fract_x
 _atom_site_fract_y
 _atom_site_fract_z
 _atom_site_occupancy
  Cu  Cu0  1  0.874304  0.613981  0.237783  1
  Cu  Cu1  1  0.376198  0.636521  0.762217  1
  Cu  Cu2  1  0.363479  0.125696  0.739676  1
  Cu  Cu3  1  0.386019  0.623802  0.260324  1
  Ag  Ag4  1  0.000000  0.000000  0.000000  1
  Pb  Pb5  1  0.750000  0.250000  0.500000  1
  O  O6  1  0.424732  0.835246  0.154376  1
  O  O7  1  0.680870  0.270356  0.845624  1
  O  O8  1  0.349961  0.422281  0.376281  1
  O  O9  1  0.046001  0.973681  0.623719  1
  O  O10  1  0.026319  0.650039  0.072320  1
  O  O11  1  0.577719  0.953999  0.927680  1
  O  O12  1  0.164754  0.319130  0.589486  1
  O  O13  1  0.729644  0.575268  0.410514  1
