# generated using pymatgen
data_Dy7YRe(B8Ru)3
_symmetry_space_group_name_H-M   'P 1'
_cell_length_a   3.67677800
_cell_length_b   9.16115862
_cell_length_c   11.54830800
_cell_angle_alpha   90.13754747
_cell_angle_beta   90.00000000
_cell_angle_gamma   90.00000000
_symmetry_Int_Tables_number   1
_chemical_formula_structural   Dy7YRe(B8Ru)3
_chemical_formula_sum   'Dy7 Y1 Re1 B24 Ru3'
_cell_volume   388.98684819
_cell_formula_units_Z   1
loop_
 _symmetry_equiv_pos_site_id
 _symmetry_equiv_pos_as_xyz
  1  'x, y, z'
loop_
 _atom_site_type_symbol
 _atom_site_label
 _atom_site_symmetry_multiplicity
 _atom_site_fract_x
 _atom_site_fract_y
 _atom_site_fract_z
 _atom_site_occupancy
  Dy  Dy0  1  0.000000  0.679519  0.588065  1
  Dy  Dy1  1  0.000000  0.823219  0.083605  1
  Dy  Dy2  1  0.000000  0.175777  0.913452  1
  Dy  Dy3  1  0.000000  0.943065  0.370941  1
  Dy  Dy4  1  0.000000  0.056349  0.627698  1
  Dy  Dy5  1  0.000000  0.442696  0.128680  1
  Dy  Dy6  1  0.000000  0.555828  0.872495  1
  Y  Y7  1  0.000000  0.323067  0.415095  1
  Re  Re8  1  0.000000  0.862256  0.821342  1
  B  B9  1  0.500000  0.554328  0.433147  1
  B  B10  1  0.500000  0.446272  0.567288  1
  B  B11  1  0.500000  0.053855  0.067504  1
  B  B12  1  0.500000  0.947049  0.933183  1
  B  B13  1  0.500000  0.748248  0.419422  1
  B  B14  1  0.500000  0.252144  0.580542  1
  B  B15  1  0.500000  0.247971  0.080716  1
  B  B16  1  0.500000  0.751554  0.919352  1
  B  B17  1  0.500000  0.790199  0.265939  1
  B  B18  1  0.500000  0.209226  0.733118  1
  B  B19  1  0.500000  0.290549  0.233971  1
  B  B20  1  0.500000  0.708460  0.766026  1
  B  B21  1  0.500000  0.631371  0.185403  1
  B  B22  1  0.500000  0.368042  0.814232  1
  B  B23  1  0.500000  0.131975  0.314569  1
  B  B24  1  0.500000  0.868438  0.685552  1
  B  B25  1  0.500000  0.983940  0.212302  1
  B  B26  1  0.500000  0.017417  0.787455  1
  B  B27  1  0.500000  0.483875  0.288032  1
  B  B28  1  0.500000  0.516317  0.712518  1
  B  B29  1  0.500000  0.606219  0.030193  1
  B  B30  1  0.500000  0.391839  0.970719  1
  B  B31  1  0.500000  0.107912  0.469631  1
  B  B32  1  0.500000  0.892801  0.528933  1
  Ru  Ru33  1  0.000000  0.637966  0.321274  1
  Ru  Ru34  1  0.000000  0.362256  0.678479  1
  Ru  Ru35  1  0.000000  0.138001  0.179129  1
