# generated using pymatgen
data_Tb2HoMg3AgGe2
_symmetry_space_group_name_H-M   'P 1'
_cell_length_a   7.30975872
_cell_length_b   7.30975892
_cell_length_c   4.34673400
_cell_angle_alpha   90.00000000
_cell_angle_beta   90.00000000
_cell_angle_gamma   119.88438874
_symmetry_Int_Tables_number   1
_chemical_formula_structural   Tb2HoMg3AgGe2
_chemical_formula_sum   'Tb2 Ho1 Mg3 Ag1 Ge2'
_cell_volume   201.37453765
_cell_formula_units_Z   1
loop_
 _symmetry_equiv_pos_site_id
 _symmetry_equiv_pos_as_xyz
  1  'x, y, z'
loop_
 _atom_site_type_symbol
 _atom_site_label
 _atom_site_symmetry_multiplicity
 _atom_site_fract_x
 _atom_site_fract_y
 _atom_site_fract_z
 _atom_site_occupancy
  Tb  Tb0  1  0.578817  0.999549  0.000000  1
  Tb  Tb1  1  0.999549  0.578817  0.000000  1
  Ho  Ho2  1  0.420780  0.420780  0.000000  1
  Mg  Mg3  1  0.245925  0.000474  0.500000  1
  Mg  Mg4  1  0.000474  0.245925  0.500000  1
  Mg  Mg5  1  0.753630  0.753630  0.500000  1
  Ag  Ag6  1  0.000962  0.000962  0.000000  1
  Ge  Ge7  1  0.333697  0.666164  0.500000  1
  Ge  Ge8  1  0.666164  0.333697  0.500000  1
