# generated using pymatgen
data_Er8Ta8Nb4Si15Ge
_symmetry_space_group_name_H-M   'P 1'
_cell_length_a   6.84642093
_cell_length_b   7.03848329
_cell_length_c   13.37765502
_cell_angle_alpha   90.04618921
_cell_angle_beta   89.92254420
_cell_angle_gamma   90.02430565
_symmetry_Int_Tables_number   1
_chemical_formula_structural   Er8Ta8Nb4Si15Ge
_chemical_formula_sum   'Er8 Ta8 Nb4 Si15 Ge1'
_cell_volume   644.64719270
_cell_formula_units_Z   1
loop_
 _symmetry_equiv_pos_site_id
 _symmetry_equiv_pos_as_xyz
  1  'x, y, z'
loop_
 _atom_site_type_symbol
 _atom_site_label
 _atom_site_symmetry_multiplicity
 _atom_site_fract_x
 _atom_site_fract_y
 _atom_site_fract_z
 _atom_site_occupancy
  Er  Er0  1  0.503710  0.328557  0.095680  1
  Er  Er1  1  0.002876  0.171217  0.403794  1
  Er  Er2  1  0.499511  0.673724  0.596501  1
  Er  Er3  1  0.996126  0.828169  0.904842  1
  Er  Er4  1  0.495859  0.671358  0.904693  1
  Er  Er5  1  0.995992  0.829144  0.595944  1
  Er  Er6  1  0.504340  0.326969  0.403427  1
  Er  Er7  1  0.003829  0.172087  0.095351  1
  Ta  Ta8  1  0.662880  0.008157  0.750195  1
  Ta  Ta9  1  0.162803  0.490587  0.752056  1
  Ta  Ta10  1  0.336859  0.991825  0.249676  1
  Ta  Ta11  1  0.837077  0.508786  0.249881  1
  Ta  Ta12  1  0.835034  0.324127  0.625528  1
  Ta  Ta13  1  0.336516  0.175335  0.875175  1
  Ta  Ta14  1  0.163415  0.675542  0.124884  1
  Ta  Ta15  1  0.663123  0.825116  0.374454  1
  Nb  Nb16  1  0.161897  0.678010  0.373243  1
  Nb  Nb17  1  0.662822  0.824374  0.124793  1
  Nb  Nb18  1  0.836113  0.324375  0.875273  1
  Nb  Nb19  1  0.338742  0.171466  0.626265  1
  Si  Si20  1  0.795475  0.627629  0.750331  1
  Si  Si21  1  0.294319  0.870989  0.750679  1
  Si  Si22  1  0.204953  0.372377  0.249617  1
  Si  Si23  1  0.705165  0.127913  0.249479  1
  Si  Si24  1  0.540738  0.377395  0.750169  1
  Si  Si25  1  0.040592  0.122521  0.750341  1
  Si  Si26  1  0.458894  0.622747  0.249702  1
  Si  Si27  1  0.958286  0.878207  0.249083  1
  Si  Si28  1  0.664651  0.036480  0.540062  1
  Si  Si29  1  0.163530  0.464045  0.959574  1
  Si  Si30  1  0.335833  0.964376  0.040540  1
  Si  Si31  1  0.832181  0.536670  0.458858  1
  Si  Si32  1  0.336216  0.963665  0.459387  1
  Si  Si33  1  0.836819  0.535807  0.040917  1
  Si  Si34  1  0.663116  0.035710  0.959350  1
  Ge  Ge35  1  0.169712  0.464547  0.540259  1
