# generated using pymatgen
data_Ac3ErIn2Ir3
_symmetry_space_group_name_H-M   'P 1'
_cell_length_a   7.89917558
_cell_length_b   7.74132793
_cell_length_c   4.38261400
_cell_angle_alpha   90.00000000
_cell_angle_beta   90.00000000
_cell_angle_gamma   119.34114817
_symmetry_Int_Tables_number   1
_chemical_formula_structural   Ac3ErIn2Ir3
_chemical_formula_sum   'Ac3 Er1 In2 Ir3'
_cell_volume   233.61797852
_cell_formula_units_Z   1
loop_
 _symmetry_equiv_pos_site_id
 _symmetry_equiv_pos_as_xyz
  1  'x, y, z'
loop_
 _atom_site_type_symbol
 _atom_site_label
 _atom_site_symmetry_multiplicity
 _atom_site_fract_x
 _atom_site_fract_y
 _atom_site_fract_z
 _atom_site_occupancy
  Ac  Ac0  1  0.431324  0.418951  0.000000  1
  Ac  Ac1  1  0.568676  0.987627  0.000000  1
  Ac  Ac2  1  0.000000  0.600270  0.000000  1
  Er  Er3  1  0.000000  0.235912  0.500000  1
  In  In4  1  0.757425  0.759495  0.500000  1
  In  In5  1  0.242575  0.002069  0.500000  1
  Ir  Ir6  1  0.000000  0.003778  0.000000  1
  Ir  Ir7  1  0.323381  0.657640  0.500000  1
  Ir  Ir8  1  0.676619  0.334258  0.500000  1
