# generated using pymatgen
data_CeHo5(BePt5)2
_symmetry_space_group_name_H-M   'P 1'
_cell_length_a   8.07795468
_cell_length_b   8.07795499
_cell_length_c   8.07795500
_cell_angle_alpha   127.35490105
_cell_angle_beta   124.50275489
_cell_angle_gamma   80.02629143
_symmetry_Int_Tables_number   1
_chemical_formula_structural   CeHo5(BePt5)2
_chemical_formula_sum   'Ce1 Ho5 Be2 Pt10'
_cell_volume   333.39604589
_cell_formula_units_Z   1
loop_
 _symmetry_equiv_pos_site_id
 _symmetry_equiv_pos_as_xyz
  1  'x, y, z'
loop_
 _atom_site_type_symbol
 _atom_site_label
 _atom_site_symmetry_multiplicity
 _atom_site_fract_x
 _atom_site_fract_y
 _atom_site_fract_z
 _atom_site_occupancy
  Ce  Ce0  1  0.598169  0.750000  0.848169  1
  Ho  Ho1  1  0.223128  0.445458  0.777669  1
  Ho  Ho2  1  0.777279  0.552797  0.224482  1
  Ho  Ho3  1  0.832211  0.054542  0.777669  1
  Ho  Ho4  1  0.171685  0.947203  0.224482  1
  Ho  Ho5  1  0.405605  0.250000  0.155605  1
  Be  Be6  1  0.792420  0.250000  0.542420  1
  Be  Be7  1  0.203921  0.750000  0.453921  1
  Pt  Pt8  1  0.170749  0.404289  0.353903  1
  Pt  Pt9  1  0.828295  0.182426  0.231308  1
  Pt  Pt10  1  0.449613  0.095711  0.766460  1
  Pt  Pt11  1  0.548881  0.317574  0.645869  1
  Pt  Pt12  1  0.000251  0.498573  0.998825  1
  Pt  Pt13  1  0.000251  0.001427  0.501678  1
  Pt  Pt14  1  0.449613  0.683153  0.353903  1
  Pt  Pt15  1  0.548881  0.903013  0.231308  1
  Pt  Pt16  1  0.170749  0.816847  0.766460  1
  Pt  Pt17  1  0.828295  0.596987  0.645869  1
