# generated using pymatgen
data_Sc5V3(Fe4P3)4
_symmetry_space_group_name_H-M   'P 1'
_cell_length_a   11.90359600
_cell_length_b   11.90359640
_cell_length_c   3.62345300
_cell_angle_alpha   90.00000000
_cell_angle_beta   90.00000000
_cell_angle_gamma   119.99999887
_symmetry_Int_Tables_number   1
_chemical_formula_structural   Sc5V3(Fe4P3)4
_chemical_formula_sum   'Sc5 V3 Fe16 P12'
_cell_volume   444.64113847
_cell_formula_units_Z   1
loop_
 _symmetry_equiv_pos_site_id
 _symmetry_equiv_pos_as_xyz
  1  'x, y, z'
loop_
 _atom_site_type_symbol
 _atom_site_label
 _atom_site_symmetry_multiplicity
 _atom_site_fract_x
 _atom_site_fract_y
 _atom_site_fract_z
 _atom_site_occupancy
  Sc  Sc0  1  0.818912  0.000000  0.500000  1
  Sc  Sc1  1  0.000000  0.818912  0.500000  1
  Sc  Sc2  1  0.181088  0.181088  0.500000  1
  Sc  Sc3  1  0.333333  0.666667  0.000000  1
  Sc  Sc4  1  0.666667  0.333333  0.000000  1
  V  V5  1  0.441513  0.000000  0.000000  1
  V  V6  1  0.000000  0.441513  0.000000  1
  V  V7  1  0.558487  0.558487  0.000000  1
  Fe  Fe8  1  0.283533  0.000000  0.500000  1
  Fe  Fe9  1  0.000000  0.283533  0.500000  1
  Fe  Fe10  1  0.716467  0.716467  0.500000  1
  Fe  Fe11  1  0.620028  0.800381  0.000000  1
  Fe  Fe12  1  0.199619  0.819647  0.000000  1
  Fe  Fe13  1  0.180353  0.379972  0.000000  1
  Fe  Fe14  1  0.379972  0.180353  0.000000  1
  Fe  Fe15  1  0.800381  0.620028  0.000000  1
  Fe  Fe16  1  0.819647  0.199619  0.000000  1
  Fe  Fe17  1  0.523081  0.875877  0.500000  1
  Fe  Fe18  1  0.124123  0.647204  0.500000  1
  Fe  Fe19  1  0.352796  0.476919  0.500000  1
  Fe  Fe20  1  0.476919  0.352796  0.500000  1
  Fe  Fe21  1  0.875877  0.523081  0.500000  1
  Fe  Fe22  1  0.647204  0.124123  0.500000  1
  Fe  Fe23  1  0.000000  0.000000  0.000000  1
  P  P24  1  0.181157  0.000000  0.000000  1
  P  P25  1  0.000000  0.181157  0.000000  1
  P  P26  1  0.818843  0.818843  0.000000  1
  P  P27  1  0.515474  0.682424  0.500000  1
  P  P28  1  0.317576  0.833050  0.500000  1
  P  P29  1  0.166950  0.484526  0.500000  1
  P  P30  1  0.484526  0.166950  0.500000  1
  P  P31  1  0.682424  0.515474  0.500000  1
  P  P32  1  0.833050  0.317576  0.500000  1
  P  P33  1  0.642806  0.000000  0.000000  1
  P  P34  1  0.000000  0.642806  0.000000  1
  P  P35  1  0.357194  0.357194  0.000000  1
