# generated using pymatgen
data_Hf7Zr3Zn2(SnSb2)2
_symmetry_space_group_name_H-M   'P 1'
_cell_length_a   8.63977952
_cell_length_b   8.64516561
_cell_length_c   5.80493800
_cell_angle_alpha   90.00000000
_cell_angle_beta   90.00000000
_cell_angle_gamma   120.00771092
_symmetry_Int_Tables_number   1
_chemical_formula_structural   Hf7Zr3Zn2(SnSb2)2
_chemical_formula_sum   'Hf7 Zr3 Zn2 Sn2 Sb4'
_cell_volume   375.46585154
_cell_formula_units_Z   1
loop_
 _symmetry_equiv_pos_site_id
 _symmetry_equiv_pos_as_xyz
  1  'x, y, z'
loop_
 _atom_site_type_symbol
 _atom_site_label
 _atom_site_symmetry_multiplicity
 _atom_site_fract_x
 _atom_site_fract_y
 _atom_site_fract_z
 _atom_site_occupancy
  Hf  Hf0  1  0.999785  0.270404  0.250000  1
  Hf  Hf1  1  0.269121  0.269926  0.750000  1
  Hf  Hf2  1  0.270132  0.999530  0.250000  1
  Hf  Hf3  1  0.332285  0.665830  0.499896  1
  Hf  Hf4  1  0.666536  0.332975  0.000102  1
  Hf  Hf5  1  0.666536  0.332975  0.499898  1
  Hf  Hf6  1  0.332285  0.665830  0.000104  1
  Zr  Zr7  1  0.730918  0.730801  0.250000  1
  Zr  Zr8  1  0.731728  0.000343  0.750000  1
  Zr  Zr9  1  0.999113  0.729667  0.750000  1
  Zn  Zn10  1  0.003671  0.002653  0.001316  1
  Zn  Zn11  1  0.003671  0.002653  0.498684  1
  Sn  Sn12  1  0.383774  0.000540  0.750000  1
  Sn  Sn13  1  0.383131  0.382738  0.250000  1
  Sb  Sb14  1  0.000640  0.614699  0.250000  1
  Sb  Sb15  1  0.000581  0.385457  0.750000  1
  Sb  Sb16  1  0.612415  0.612679  0.750000  1
  Sb  Sb17  1  0.613677  0.000299  0.250000  1
