# generated using pymatgen
data_Y16In6CoRu
_symmetry_space_group_name_H-M   'P 1'
_cell_length_a   10.41341300
_cell_length_b   10.41341394
_cell_length_c   7.07731500
_cell_angle_alpha   90.00000000
_cell_angle_beta   90.00000000
_cell_angle_gamma   120.00000018
_symmetry_Int_Tables_number   1
_chemical_formula_structural   Y16In6CoRu
_chemical_formula_sum   'Y16 In6 Co1 Ru1'
_cell_volume   664.63832773
_cell_formula_units_Z   1
loop_
 _symmetry_equiv_pos_site_id
 _symmetry_equiv_pos_as_xyz
  1  'x, y, z'
loop_
 _atom_site_type_symbol
 _atom_site_label
 _atom_site_symmetry_multiplicity
 _atom_site_fract_x
 _atom_site_fract_y
 _atom_site_fract_z
 _atom_site_occupancy
  Y  Y0  1  0.465923  0.534077  0.480647  1
  Y  Y1  1  0.068155  0.534077  0.480647  1
  Y  Y2  1  0.465923  0.931845  0.480647  1
  Y  Y3  1  0.535664  0.464336  0.981286  1
  Y  Y4  1  0.928671  0.464336  0.981286  1
  Y  Y5  1  0.535664  0.071329  0.981286  1
  Y  Y6  1  0.822192  0.177808  0.275869  1
  Y  Y7  1  0.355615  0.177808  0.275869  1
  Y  Y8  1  0.822192  0.644385  0.275869  1
  Y  Y9  1  0.176543  0.823457  0.776608  1
  Y  Y10  1  0.646914  0.823457  0.776608  1
  Y  Y11  1  0.176543  0.353086  0.776608  1
  Y  Y12  1  0.333333  0.666667  0.101650  1
  Y  Y13  1  0.666667  0.333333  0.592413  1
  Y  Y14  1  0.000000  0.000000  0.496092  1
  Y  Y15  1  0.000000  0.000000  0.998332  1
  In  In16  1  0.162466  0.837534  0.233311  1
  In  In17  1  0.675069  0.837534  0.233311  1
  In  In18  1  0.162466  0.324931  0.233311  1
  In  In19  1  0.836461  0.163539  0.733171  1
  In  In20  1  0.327076  0.163539  0.733171  1
  In  In21  1  0.836461  0.672924  0.733171  1
  Co  Co22  1  0.666667  0.333333  0.207615  1
  Ru  Ru23  1  0.333333  0.666667  0.705772  1
