# generated using pymatgen
data_Mn2Cr5Re6
_symmetry_space_group_name_H-M   'P 1'
_cell_length_a   9.19420013
_cell_length_b   9.18915880
_cell_length_c   9.19420086
_cell_angle_alpha   29.66824428
_cell_angle_beta   29.84601584
_cell_angle_gamma   29.66824033
_symmetry_Int_Tables_number   1
_chemical_formula_structural   Mn2Cr5Re6
_chemical_formula_sum   'Mn2 Cr5 Re6'
_cell_volume   169.11828754
_cell_formula_units_Z   1
loop_
 _symmetry_equiv_pos_site_id
 _symmetry_equiv_pos_as_xyz
  1  'x, y, z'
loop_
 _atom_site_type_symbol
 _atom_site_label
 _atom_site_symmetry_multiplicity
 _atom_site_fract_x
 _atom_site_fract_y
 _atom_site_fract_z
 _atom_site_occupancy
  Mn  Mn0  1  0.411733  0.908690  0.905923  1
  Mn  Mn1  1  0.905923  0.908690  0.411733  1
  Cr  Cr2  1  0.004127  0.997578  0.004127  1
  Cr  Cr3  1  0.588515  0.092310  0.092282  1
  Cr  Cr4  1  0.092282  0.092310  0.588515  1
  Cr  Cr5  1  0.091593  0.590400  0.091593  1
  Cr  Cr6  1  0.907074  0.412665  0.907074  1
  Re  Re7  1  0.165569  0.164596  0.165569  1
  Re  Re8  1  0.832151  0.833748  0.832151  1
  Re  Re9  1  0.349414  0.347142  0.349414  1
  Re  Re10  1  0.651616  0.652712  0.651616  1
  Re  Re11  1  0.452149  0.451765  0.452149  1
  Re  Re12  1  0.547854  0.547396  0.547854  1
