# generated using pymatgen
data_La8ZnSi11Pt4
_symmetry_space_group_name_H-M   'P 1'
_cell_length_a   8.35649204
_cell_length_b   8.35649223
_cell_length_c   8.79731900
_cell_angle_alpha   90.00547829
_cell_angle_beta   89.99451485
_cell_angle_gamma   119.86122991
_symmetry_Int_Tables_number   1
_chemical_formula_structural   La8ZnSi11Pt4
_chemical_formula_sum   'La8 Zn1 Si11 Pt4'
_cell_volume   532.76364418
_cell_formula_units_Z   1
loop_
 _symmetry_equiv_pos_site_id
 _symmetry_equiv_pos_as_xyz
  1  'x, y, z'
loop_
 _atom_site_type_symbol
 _atom_site_label
 _atom_site_symmetry_multiplicity
 _atom_site_fract_x
 _atom_site_fract_y
 _atom_site_fract_z
 _atom_site_occupancy
  La  La0  1  0.996843  0.003157  0.248581  1
  La  La1  1  0.996772  0.003228  0.751348  1
  La  La2  1  0.500918  0.499082  0.252064  1
  La  La3  1  0.501676  0.000232  0.253530  1
  La  La4  1  0.999768  0.498324  0.253530  1
  La  La5  1  0.499961  0.500039  0.747834  1
  La  La6  1  0.501033  0.998839  0.746470  1
  La  La7  1  0.001161  0.498967  0.746470  1
  Zn  Zn8  1  0.162246  0.837754  0.500199  1
  Si  Si9  1  0.166258  0.330786  0.500077  1
  Si  Si10  1  0.669214  0.833742  0.500077  1
  Si  Si11  1  0.834279  0.165721  0.500151  1
  Si  Si12  1  0.833780  0.669335  0.500360  1
  Si  Si13  1  0.330665  0.166220  0.500360  1
  Si  Si14  1  0.834910  0.165090  0.001805  1
  Si  Si15  1  0.834277  0.668152  0.001682  1
  Si  Si16  1  0.331848  0.165723  0.001682  1
  Si  Si17  1  0.165495  0.834505  0.997488  1
  Si  Si18  1  0.166883  0.332098  0.997969  1
  Si  Si19  1  0.667902  0.833117  0.997969  1
  Pt  Pt20  1  0.337500  0.662500  0.499086  1
  Pt  Pt21  1  0.666081  0.333919  0.500236  1
  Pt  Pt22  1  0.667453  0.332547  0.997415  1
  Pt  Pt23  1  0.333072  0.666928  0.003616  1
