# generated using pymatgen
data_Ca16In5Ga
_symmetry_space_group_name_H-M   'P 1'
_cell_length_a   9.58389583
_cell_length_b   9.69134690
_cell_length_c   9.71743424
_cell_angle_alpha   99.05000108
_cell_angle_beta   101.04189650
_cell_angle_gamma   119.84032429
_symmetry_Int_Tables_number   1
_chemical_formula_structural   Ca16In5Ga
_chemical_formula_sum   'Ca16 In5 Ga1'
_cell_volume   733.80369542
_cell_formula_units_Z   1
loop_
 _symmetry_equiv_pos_site_id
 _symmetry_equiv_pos_as_xyz
  1  'x, y, z'
loop_
 _atom_site_type_symbol
 _atom_site_label
 _atom_site_symmetry_multiplicity
 _atom_site_fract_x
 _atom_site_fract_y
 _atom_site_fract_z
 _atom_site_occupancy
  Ca  Ca0  1  0.923620  0.766504  0.394454  1
  Ca  Ca1  1  0.707510  0.499647  0.607991  1
  Ca  Ca2  1  0.467375  0.297653  0.848302  1
  Ca  Ca3  1  0.532625  0.702347  0.151698  1
  Ca  Ca4  1  0.117497  0.596668  0.844457  1
  Ca  Ca5  1  0.292490  0.500353  0.392009  1
  Ca  Ca6  1  0.327566  0.870861  0.607788  1
  Ca  Ca7  1  0.076380  0.233496  0.605546  1
  Ca  Ca8  1  0.672434  0.129139  0.392212  1
  Ca  Ca9  1  0.882503  0.403332  0.155543  1
  Ca  Ca10  1  0.458630  0.293307  0.203190  1
  Ca  Ca11  1  0.771823  0.154534  0.800061  1
  Ca  Ca12  1  0.041789  0.940429  0.829490  1
  Ca  Ca13  1  0.958211  0.059571  0.170510  1
  Ca  Ca14  1  0.541370  0.706693  0.796810  1
  Ca  Ca15  1  0.228177  0.845466  0.199939  1
  In  In16  1  0.826259  0.661389  0.001125  1
  In  In17  1  0.676667  0.840130  0.525677  1
  In  In18  1  0.173741  0.338611  0.998875  1
  In  In19  1  0.500000  0.000000  0.000000  1
  In  In20  1  0.323333  0.159870  0.474323  1
  Ga  Ga21  1  0.000000  0.500000  0.500000  1
