# generated using pymatgen
data_TbNdAg2(Rh2O7)2
_symmetry_space_group_name_H-M   'P 1'
_cell_length_a   7.40187774
_cell_length_b   7.23052212
_cell_length_c   7.23052236
_cell_angle_alpha   59.06100048
_cell_angle_beta   59.15908269
_cell_angle_gamma   59.15908900
_symmetry_Int_Tables_number   1
_chemical_formula_structural   TbNdAg2(Rh2O7)2
_chemical_formula_sum   'Tb1 Nd1 Ag2 Rh4 O14'
_cell_volume   268.18232272
_cell_formula_units_Z   1
loop_
 _symmetry_equiv_pos_site_id
 _symmetry_equiv_pos_as_xyz
  1  'x, y, z'
loop_
 _atom_site_type_symbol
 _atom_site_label
 _atom_site_symmetry_multiplicity
 _atom_site_fract_x
 _atom_site_fract_y
 _atom_site_fract_z
 _atom_site_occupancy
  Tb  Tb0  1  0.625000  0.125000  0.125000  1
  Nd  Nd1  1  0.125000  0.125000  0.125000  1
  Ag  Ag2  1  0.125000  0.625000  0.125000  1
  Ag  Ag3  1  0.125000  0.125000  0.625000  1
  Rh  Rh4  1  0.125000  0.625000  0.625000  1
  Rh  Rh5  1  0.625000  0.125000  0.625000  1
  Rh  Rh6  1  0.625000  0.625000  0.125000  1
  Rh  Rh7  1  0.625000  0.625000  0.625000  1
  O  O8  1  0.694610  0.712185  0.294643  1
  O  O9  1  0.299209  0.294369  0.703855  1
  O  O10  1  0.694610  0.294643  0.712185  1
  O  O11  1  0.299209  0.703855  0.294369  1
  O  O12  1  0.305224  0.695062  0.695062  1
  O  O13  1  0.709306  0.285960  0.285960  1
  O  O14  1  0.555390  0.537815  0.955357  1
  O  O15  1  0.950791  0.955631  0.546145  1
  O  O16  1  0.555390  0.955357  0.537815  1
  O  O17  1  0.950791  0.546145  0.955631  1
  O  O18  1  0.944776  0.554938  0.554938  1
  O  O19  1  0.540694  0.964040  0.964040  1
  O  O20  1  0.243067  0.264303  0.264303  1
  O  O21  1  0.006933  0.985697  0.985697  1
