# generated using pymatgen
data_Nd3Th(ReB2)6
_symmetry_space_group_name_H-M   'P 1'
_cell_length_a   6.33260646
_cell_length_b   6.33282949
_cell_length_c   7.62735001
_cell_angle_alpha   90.53244149
_cell_angle_beta   90.72993470
_cell_angle_gamma   114.79242278
_symmetry_Int_Tables_number   1
_chemical_formula_structural   Nd3Th(ReB2)6
_chemical_formula_sum   'Nd3 Th1 Re6 B12'
_cell_volume   277.63116587
_cell_formula_units_Z   1
loop_
 _symmetry_equiv_pos_site_id
 _symmetry_equiv_pos_as_xyz
  1  'x, y, z'
loop_
 _atom_site_type_symbol
 _atom_site_label
 _atom_site_symmetry_multiplicity
 _atom_site_fract_x
 _atom_site_fract_y
 _atom_site_fract_z
 _atom_site_occupancy
  Nd  Nd0  1  0.559259  0.905254  0.173235  1
  Nd  Nd1  1  0.904681  0.559960  0.677147  1
  Nd  Nd2  1  0.440128  0.093542  0.824933  1
  Th  Th3  1  0.091089  0.438883  0.327106  1
  Re  Re4  1  0.586372  0.415445  0.250730  1
  Re  Re5  1  0.414835  0.584955  0.748821  1
  Re  Re6  1  0.990222  0.804629  0.087750  1
  Re  Re7  1  0.194781  0.010112  0.411675  1
  Re  Re8  1  0.010264  0.195786  0.913514  1
  Re  Re9  1  0.805841  0.990777  0.587291  1
  B  B10  1  0.244688  0.151318  0.131091  1
  B  B11  1  0.847464  0.754743  0.369348  1
  B  B12  1  0.756107  0.848155  0.867704  1
  B  B13  1  0.152881  0.243885  0.633912  1
  B  B14  1  0.585302  0.158968  0.478856  1
  B  B15  1  0.840437  0.415335  0.018429  1
  B  B16  1  0.416692  0.840552  0.519209  1
  B  B17  1  0.160110  0.585641  0.979897  1
  B  B18  1  0.440906  0.349718  0.533758  1
  B  B19  1  0.649840  0.558949  0.966489  1
  B  B20  1  0.558010  0.650939  0.465978  1
  B  B21  1  0.350091  0.442454  0.033128  1
