# generated using pymatgen
data_Dy2Er4Zn23As
_symmetry_space_group_name_H-M   'P 1'
_cell_length_a   9.04921028
_cell_length_b   9.04935340
_cell_length_c   9.04027100
_cell_angle_alpha   60.03215303
_cell_angle_beta   60.03371423
_cell_angle_gamma   59.95480731
_symmetry_Int_Tables_number   1
_chemical_formula_structural   Dy2Er4Zn23As
_chemical_formula_sum   'Dy2 Er4 Zn23 As1'
_cell_volume   523.55461471
_cell_formula_units_Z   1
loop_
 _symmetry_equiv_pos_site_id
 _symmetry_equiv_pos_as_xyz
  1  'x, y, z'
loop_
 _atom_site_type_symbol
 _atom_site_label
 _atom_site_symmetry_multiplicity
 _atom_site_fract_x
 _atom_site_fract_y
 _atom_site_fract_z
 _atom_site_occupancy
  Dy  Dy0  1  0.715704  0.284296  0.284139  1
  Dy  Dy1  1  0.715706  0.284294  0.715858  1
  Er  Er2  1  0.715030  0.715548  0.284722  1
  Er  Er3  1  0.284207  0.715793  0.715671  1
  Er  Er4  1  0.284195  0.715805  0.284329  1
  Er  Er5  1  0.284452  0.284970  0.715299  1
  Zn  Zn6  1  0.622441  0.125149  0.126204  1
  Zn  Zn7  1  0.125663  0.622985  0.125676  1
  Zn  Zn8  1  0.126467  0.125406  0.622718  1
  Zn  Zn9  1  0.126466  0.125403  0.125412  1
  Zn  Zn10  1  0.377015  0.874337  0.874323  1
  Zn  Zn11  1  0.874851  0.377559  0.873792  1
  Zn  Zn12  1  0.874597  0.873534  0.377280  1
  Zn  Zn13  1  0.874594  0.873533  0.874590  1
  Zn  Zn14  1  0.499731  0.999892  0.000256  1
  Zn  Zn15  1  0.499731  0.999893  0.500120  1
  Zn  Zn16  1  0.499622  0.500378  0.999998  1
  Zn  Zn17  1  0.000108  0.500269  0.499879  1
  Zn  Zn18  1  0.000107  0.500269  0.999744  1
  Zn  Zn19  1  0.000383  0.999617  0.499999  1
  Zn  Zn20  1  0.000060  0.999940  0.999999  1
  Zn  Zn21  1  0.010211  0.330125  0.329830  1
  Zn  Zn22  1  0.330257  0.009045  0.330347  1
  Zn  Zn23  1  0.329908  0.330270  0.009631  1
  Zn  Zn24  1  0.329909  0.330271  0.330187  1
  Zn  Zn25  1  0.990955  0.669743  0.669651  1
  Zn  Zn26  1  0.669875  0.989789  0.670168  1
  Zn  Zn27  1  0.669729  0.670091  0.990369  1
  Zn  Zn28  1  0.669730  0.670092  0.669811  1
  As  As29  1  0.498297  0.501703  0.499999  1
