# generated using pymatgen
data_DyY4Tm7Ru4
_symmetry_space_group_name_H-M   'P 1'
_cell_length_a   6.26380104
_cell_length_b   7.30200530
_cell_length_c   9.04355715
_cell_angle_alpha   89.96505117
_cell_angle_beta   89.78008030
_cell_angle_gamma   89.82619817
_symmetry_Int_Tables_number   1
_chemical_formula_structural   DyY4Tm7Ru4
_chemical_formula_sum   'Dy1 Y4 Tm7 Ru4'
_cell_volume   413.63198198
_cell_formula_units_Z   1
loop_
 _symmetry_equiv_pos_site_id
 _symmetry_equiv_pos_as_xyz
  1  'x, y, z'
loop_
 _atom_site_type_symbol
 _atom_site_label
 _atom_site_symmetry_multiplicity
 _atom_site_fract_x
 _atom_site_fract_y
 _atom_site_fract_z
 _atom_site_occupancy
  Dy  Dy0  1  0.632456  0.040877  0.251050  1
  Y  Y1  1  0.368996  0.959147  0.748823  1
  Y  Y2  1  0.130457  0.459849  0.748897  1
  Y  Y3  1  0.868700  0.541034  0.250486  1
  Y  Y4  1  0.168024  0.176327  0.063676  1
  Tm  Tm5  1  0.831087  0.823867  0.934912  1
  Tm  Tm6  1  0.668060  0.324802  0.935145  1
  Tm  Tm7  1  0.831973  0.824143  0.564000  1
  Tm  Tm8  1  0.332659  0.675450  0.064524  1
  Tm  Tm9  1  0.167802  0.175173  0.436492  1
  Tm  Tm10  1  0.332390  0.676151  0.435424  1
  Tm  Tm11  1  0.667227  0.324469  0.564187  1
  Ru  Ru12  1  0.459140  0.385769  0.251851  1
  Ru  Ru13  1  0.543706  0.614407  0.750622  1
  Ru  Ru14  1  0.955159  0.114115  0.747749  1
  Ru  Ru15  1  0.042162  0.884419  0.252160  1
