# generated using pymatgen
data_Ce2Si2IrPt2Rh
_symmetry_space_group_name_H-M   'P 1'
_cell_length_a   9.46606820
_cell_length_b   9.46606777
_cell_length_c   4.08019600
_cell_angle_alpha   90.00000000
_cell_angle_beta   90.00000000
_cell_angle_gamma   155.42892899
_symmetry_Int_Tables_number   1
_chemical_formula_structural   Ce2Si2IrPt2Rh
_chemical_formula_sum   'Ce2 Si2 Ir1 Pt2 Rh1'
_cell_volume   152.02932683
_cell_formula_units_Z   1
loop_
 _symmetry_equiv_pos_site_id
 _symmetry_equiv_pos_as_xyz
  1  'x, y, z'
loop_
 _atom_site_type_symbol
 _atom_site_label
 _atom_site_symmetry_multiplicity
 _atom_site_fract_x
 _atom_site_fract_y
 _atom_site_fract_z
 _atom_site_occupancy
  Ce  Ce0  1  0.105003  0.894997  0.750000  1
  Ce  Ce1  1  0.894891  0.105109  0.250000  1
  Si  Si2  1  0.319062  0.680938  0.750000  1
  Si  Si3  1  0.680895  0.319105  0.250000  1
  Ir  Ir4  1  0.250055  0.749945  0.250000  1
  Pt  Pt5  1  0.551013  0.448987  0.250000  1
  Pt  Pt6  1  0.449044  0.550956  0.750000  1
  Rh  Rh7  1  0.750038  0.249962  0.750000  1
