# generated using pymatgen
data_DyTm3C2Br3
_symmetry_space_group_name_H-M   'P 1'
_cell_length_a   3.65069800
_cell_length_b   10.59449300
_cell_length_c   20.28587600
_cell_angle_alpha   90.00000000
_cell_angle_beta   90.00000000
_cell_angle_gamma   90.00000000
_symmetry_Int_Tables_number   1
_chemical_formula_structural   DyTm3C2Br3
_chemical_formula_sum   'Dy4 Tm12 C8 Br12'
_cell_volume   784.60279834
_cell_formula_units_Z   4
loop_
 _symmetry_equiv_pos_site_id
 _symmetry_equiv_pos_as_xyz
  1  'x, y, z'
loop_
 _atom_site_type_symbol
 _atom_site_label
 _atom_site_symmetry_multiplicity
 _atom_site_fract_x
 _atom_site_fract_y
 _atom_site_fract_z
 _atom_site_occupancy
  Dy  Dy0  1  0.250000  0.866353  0.580702  1
  Dy  Dy1  1  0.750000  0.133647  0.419298  1
  Dy  Dy2  1  0.750000  0.633647  0.080702  1
  Dy  Dy3  1  0.250000  0.366353  0.919298  1
  Tm  Tm4  1  0.250000  0.865790  0.744107  1
  Tm  Tm5  1  0.750000  0.134210  0.255893  1
  Tm  Tm6  1  0.750000  0.634210  0.244107  1
  Tm  Tm7  1  0.250000  0.365790  0.755893  1
  Tm  Tm8  1  0.250000  0.867024  0.169974  1
  Tm  Tm9  1  0.750000  0.132976  0.830026  1
  Tm  Tm10  1  0.750000  0.632976  0.669974  1
  Tm  Tm11  1  0.250000  0.367024  0.330026  1
  Tm  Tm12  1  0.250000  0.900929  0.327083  1
  Tm  Tm13  1  0.750000  0.099071  0.672917  1
  Tm  Tm14  1  0.750000  0.599071  0.827083  1
  Tm  Tm15  1  0.250000  0.400929  0.172917  1
  C  C16  1  0.250000  0.615059  0.750242  1
  C  C17  1  0.750000  0.384941  0.249758  1
  C  C18  1  0.750000  0.884941  0.250242  1
  C  C19  1  0.250000  0.115059  0.749758  1
  C  C20  1  0.250000  0.632835  0.158102  1
  C  C21  1  0.750000  0.367165  0.841898  1
  C  C22  1  0.750000  0.867165  0.658102  1
  C  C23  1  0.250000  0.132835  0.341898  1
  Br  Br24  1  0.250000  0.610063  0.556535  1
  Br  Br25  1  0.750000  0.389937  0.443465  1
  Br  Br26  1  0.750000  0.889937  0.056535  1
  Br  Br27  1  0.250000  0.110063  0.943465  1
  Br  Br28  1  0.250000  0.629994  0.952335  1
  Br  Br29  1  0.750000  0.370006  0.047665  1
  Br  Br30  1  0.750000  0.870006  0.452335  1
  Br  Br31  1  0.250000  0.129994  0.547665  1
  Br  Br32  1  0.250000  0.636093  0.356101  1
  Br  Br33  1  0.750000  0.363907  0.643899  1
  Br  Br34  1  0.750000  0.863907  0.856101  1
  Br  Br35  1  0.250000  0.136093  0.143899  1
