# generated using pymatgen
data_Y2HoSn3Pd2Pt
_symmetry_space_group_name_H-M   'P 1'
_cell_length_a   7.63761733
_cell_length_b   7.64708451
_cell_length_c   3.91738200
_cell_angle_alpha   90.00000000
_cell_angle_beta   90.00000000
_cell_angle_gamma   120.02668374
_symmetry_Int_Tables_number   1
_chemical_formula_structural   Y2HoSn3Pd2Pt
_chemical_formula_sum   'Y2 Ho1 Sn3 Pd2 Pt1'
_cell_volume   198.09043371
_cell_formula_units_Z   1
loop_
 _symmetry_equiv_pos_site_id
 _symmetry_equiv_pos_as_xyz
  1  'x, y, z'
loop_
 _atom_site_type_symbol
 _atom_site_label
 _atom_site_symmetry_multiplicity
 _atom_site_fract_x
 _atom_site_fract_y
 _atom_site_fract_z
 _atom_site_occupancy
  Y  Y0  1  0.402991  0.406980  0.500000  1
  Y  Y1  1  0.593012  0.996004  0.500000  1
  Ho  Ho2  1  0.004278  0.597002  0.500000  1
  Sn  Sn3  1  0.996245  0.258618  0.000000  1
  Sn  Sn4  1  0.741861  0.737860  0.000000  1
  Sn  Sn5  1  0.261865  0.003484  0.000000  1
  Pd  Pd6  1  0.667588  0.334076  0.000000  1
  Pd  Pd7  1  0.999999  0.999541  0.500000  1
  Pt  Pt8  1  0.332160  0.666436  0.000000  1
