# generated using pymatgen
data_Pr8Nd2B2Br15
_symmetry_space_group_name_H-M   'P 1'
_cell_length_a   9.44936389
_cell_length_b   10.30658326
_cell_length_c   11.13909798
_cell_angle_alpha   91.25770622
_cell_angle_beta   114.41796931
_cell_angle_gamma   110.75708174
_symmetry_Int_Tables_number   1
_chemical_formula_structural   Pr8Nd2B2Br15
_chemical_formula_sum   'Pr8 Nd2 B2 Br15'
_cell_volume   905.43306795
_cell_formula_units_Z   1
loop_
 _symmetry_equiv_pos_site_id
 _symmetry_equiv_pos_as_xyz
  1  'x, y, z'
loop_
 _atom_site_type_symbol
 _atom_site_label
 _atom_site_symmetry_multiplicity
 _atom_site_fract_x
 _atom_site_fract_y
 _atom_site_fract_z
 _atom_site_occupancy
  Pr  Pr0  1  0.802837  0.410097  0.277062  1
  Pr  Pr1  1  0.197163  0.589903  0.722938  1
  Pr  Pr2  1  0.676335  0.746029  0.819923  1
  Pr  Pr3  1  0.323665  0.253971  0.180077  1
  Pr  Pr4  1  0.526077  0.704967  0.096114  1
  Pr  Pr5  1  0.473923  0.295033  0.903886  1
  Pr  Pr6  1  0.587467  0.038773  0.325555  1
  Pr  Pr7  1  0.412533  0.961227  0.674445  1
  Nd  Nd8  1  0.724039  0.073878  0.047360  1
  Nd  Nd9  1  0.275961  0.926122  0.952640  1
  B  B10  1  0.466040  0.817777  0.874963  1
  B  B11  1  0.533960  0.182223  0.125037  1
  Br  Br12  1  0.000000  0.000000  0.000000  1
  Br  Br13  1  0.635877  0.881968  0.583767  1
  Br  Br14  1  0.364123  0.118032  0.416233  1
  Br  Br15  1  0.882877  0.298757  0.527133  1
  Br  Br16  1  0.117123  0.701243  0.472867  1
  Br  Br17  1  0.286975  0.763844  0.176436  1
  Br  Br18  1  0.713025  0.236156  0.823564  1
  Br  Br19  1  0.050741  0.338033  0.222615  1
  Br  Br20  1  0.161638  0.055133  0.706753  1
  Br  Br21  1  0.838362  0.944867  0.293247  1
  Br  Br22  1  0.231657  0.410834  0.944379  1
  Br  Br23  1  0.768343  0.589166  0.055621  1
  Br  Br24  1  0.408584  0.463870  0.660150  1
  Br  Br25  1  0.591416  0.536130  0.339850  1
  Br  Br26  1  0.949259  0.661967  0.777385  1
