# generated using pymatgen
data_Sc22Co2ReIr5
_symmetry_space_group_name_H-M   'P 1'
_cell_length_a   9.44431083
_cell_length_b   9.47476116
_cell_length_c   9.47458366
_cell_angle_alpha   59.59551594
_cell_angle_beta   59.70304117
_cell_angle_gamma   59.70317254
_symmetry_Int_Tables_number   1
_chemical_formula_structural   Sc22Co2ReIr5
_chemical_formula_sum   'Sc22 Co2 Re1 Ir5'
_cell_volume   594.95878813
_cell_formula_units_Z   1
loop_
 _symmetry_equiv_pos_site_id
 _symmetry_equiv_pos_as_xyz
  1  'x, y, z'
loop_
 _atom_site_type_symbol
 _atom_site_label
 _atom_site_symmetry_multiplicity
 _atom_site_fract_x
 _atom_site_fract_y
 _atom_site_fract_z
 _atom_site_occupancy
  Sc  Sc0  1  0.807214  0.806510  0.194017  1
  Sc  Sc1  1  0.192771  0.805977  0.193498  1
  Sc  Sc2  1  0.807237  0.193069  0.193068  1
  Sc  Sc3  1  0.192786  0.193490  0.805983  1
  Sc  Sc4  1  0.807229  0.194023  0.806502  1
  Sc  Sc5  1  0.192763  0.806931  0.806932  1
  Sc  Sc6  1  0.615870  0.614237  0.154169  1
  Sc  Sc7  1  0.615871  0.154174  0.614250  1
  Sc  Sc8  1  0.153577  0.613893  0.613901  1
  Sc  Sc9  1  0.618579  0.613029  0.613025  1
  Sc  Sc10  1  0.384130  0.385763  0.845831  1
  Sc  Sc11  1  0.384129  0.845826  0.385750  1
  Sc  Sc12  1  0.846423  0.386107  0.386099  1
  Sc  Sc13  1  0.381421  0.386971  0.386975  1
  Sc  Sc14  1  0.841414  0.843134  0.472599  1
  Sc  Sc15  1  0.841453  0.472554  0.843119  1
  Sc  Sc16  1  0.475421  0.840305  0.840308  1
  Sc  Sc17  1  0.841178  0.841967  0.841970  1
  Sc  Sc18  1  0.158586  0.156866  0.527401  1
  Sc  Sc19  1  0.158547  0.527446  0.156881  1
  Sc  Sc20  1  0.524579  0.159695  0.159692  1
  Sc  Sc21  1  0.158822  0.158033  0.158030  1
  Co  Co22  1  0.000000  0.000000  0.000000  1
  Co  Co23  1  0.500000  0.500000  0.500000  1
  Re  Re24  1  0.000000  0.500000  0.500000  1
  Ir  Ir25  1  0.000000  0.000000  0.500000  1
  Ir  Ir26  1  0.500000  0.000000  0.500000  1
  Ir  Ir27  1  0.500000  0.500000  0.000000  1
  Ir  Ir28  1  0.000000  0.500000  0.000000  1
  Ir  Ir29  1  0.500000  0.000000  0.000000  1
