# generated using pymatgen
data_Ca4YbIr
_symmetry_space_group_name_H-M   'P 1'
_cell_length_a   6.74792000
_cell_length_b   7.55162600
_cell_length_c   15.84090900
_cell_angle_alpha   90.00000000
_cell_angle_beta   90.00000000
_cell_angle_gamma   90.00000000
_symmetry_Int_Tables_number   1
_chemical_formula_structural   Ca4YbIr
_chemical_formula_sum   'Ca16 Yb4 Ir4'
_cell_volume   807.21736760
_cell_formula_units_Z   4
loop_
 _symmetry_equiv_pos_site_id
 _symmetry_equiv_pos_as_xyz
  1  'x, y, z'
loop_
 _atom_site_type_symbol
 _atom_site_label
 _atom_site_symmetry_multiplicity
 _atom_site_fract_x
 _atom_site_fract_y
 _atom_site_fract_z
 _atom_site_occupancy
  Ca  Ca0  1  0.856844  0.192500  0.566888  1
  Ca  Ca1  1  0.823897  0.465399  0.145393  1
  Ca  Ca2  1  0.176103  0.534601  0.645393  1
  Ca  Ca3  1  0.356844  0.307500  0.066888  1
  Ca  Ca4  1  0.823897  0.465399  0.354607  1
  Ca  Ca5  1  0.323897  0.034601  0.854607  1
  Ca  Ca6  1  0.143156  0.807500  0.066888  1
  Ca  Ca7  1  0.643156  0.692500  0.566888  1
  Ca  Ca8  1  0.676103  0.965399  0.354607  1
  Ca  Ca9  1  0.643156  0.692500  0.933112  1
  Ca  Ca10  1  0.323897  0.034601  0.645393  1
  Ca  Ca11  1  0.143156  0.807500  0.433112  1
  Ca  Ca12  1  0.176103  0.534601  0.854607  1
  Ca  Ca13  1  0.356844  0.307500  0.433112  1
  Ca  Ca14  1  0.676103  0.965399  0.145393  1
  Ca  Ca15  1  0.856844  0.192500  0.933112  1
  Yb  Yb16  1  0.154681  0.092916  0.250000  1
  Yb  Yb17  1  0.845319  0.907084  0.750000  1
  Yb  Yb18  1  0.345319  0.592916  0.250000  1
  Yb  Yb19  1  0.654681  0.407084  0.750000  1
  Ir  Ir20  1  0.031141  0.239203  0.750000  1
  Ir  Ir21  1  0.468859  0.739203  0.750000  1
  Ir  Ir22  1  0.531141  0.260797  0.250000  1
  Ir  Ir23  1  0.968859  0.760797  0.250000  1
