# generated using pymatgen
data_LaPr2(HgPd)3
_symmetry_space_group_name_H-M   'P 1'
_cell_length_a   7.87689294
_cell_length_b   7.93472488
_cell_length_c   3.99031400
_cell_angle_alpha   90.00000000
_cell_angle_beta   90.00000000
_cell_angle_gamma   120.24317206
_symmetry_Int_Tables_number   1
_chemical_formula_structural   LaPr2(HgPd)3
_chemical_formula_sum   'La1 Pr2 Hg3 Pd3'
_cell_volume   215.45427553
_cell_formula_units_Z   1
loop_
 _symmetry_equiv_pos_site_id
 _symmetry_equiv_pos_as_xyz
  1  'x, y, z'
loop_
 _atom_site_type_symbol
 _atom_site_label
 _atom_site_symmetry_multiplicity
 _atom_site_fract_x
 _atom_site_fract_y
 _atom_site_fract_z
 _atom_site_occupancy
  La  La0  1  0.000000  0.598856  0.500000  1
  Pr  Pr1  1  0.397767  0.398535  0.500000  1
  Pr  Pr2  1  0.602233  0.000768  0.500000  1
  Hg  Hg3  1  0.732915  0.737020  0.000000  1
  Hg  Hg4  1  0.267085  0.004105  0.000000  1
  Hg  Hg5  1  0.000000  0.259446  0.000000  1
  Pd  Pd6  1  0.670081  0.337061  0.000000  1
  Pd  Pd7  1  0.329919  0.666980  0.000000  1
  Pd  Pd8  1  0.000000  0.997229  0.500000  1
