# generated using pymatgen
data_TbErFe3Re14C3
_symmetry_space_group_name_H-M   'P 1'
_cell_length_a   6.92686840
_cell_length_b   6.92686821
_cell_length_c   6.92686712
_cell_angle_alpha   82.49029876
_cell_angle_beta   82.49029654
_cell_angle_gamma   82.49030024
_symmetry_Int_Tables_number   1
_chemical_formula_structural   TbErFe3Re14C3
_chemical_formula_sum   'Tb1 Er1 Fe3 Re14 C3'
_cell_volume   324.49479330
_cell_formula_units_Z   1
loop_
 _symmetry_equiv_pos_site_id
 _symmetry_equiv_pos_as_xyz
  1  'x, y, z'
loop_
 _atom_site_type_symbol
 _atom_site_label
 _atom_site_symmetry_multiplicity
 _atom_site_fract_x
 _atom_site_fract_y
 _atom_site_fract_z
 _atom_site_occupancy
  Tb  Tb0  1  0.648571  0.648571  0.648571  1
  Er  Er1  1  0.351046  0.351046  0.351046  1
  Fe  Fe2  1  0.000055  0.000055  0.500212  1
  Fe  Fe3  1  0.500212  0.000055  0.000055  1
  Fe  Fe4  1  0.000055  0.500212  0.000055  1
  Re  Re5  1  0.722126  0.277825  0.000044  1
  Re  Re6  1  0.000044  0.722126  0.277825  1
  Re  Re7  1  0.277825  0.000044  0.722126  1
  Re  Re8  1  0.000044  0.277825  0.722126  1
  Re  Re9  1  0.722126  0.000044  0.277825  1
  Re  Re10  1  0.277825  0.722126  0.000044  1
  Re  Re11  1  0.346361  0.861318  0.346361  1
  Re  Re12  1  0.346361  0.346361  0.861318  1
  Re  Re13  1  0.861318  0.346361  0.346361  1
  Re  Re14  1  0.653063  0.139636  0.653063  1
  Re  Re15  1  0.653063  0.653063  0.139636  1
  Re  Re16  1  0.139636  0.653063  0.653063  1
  Re  Re17  1  0.897694  0.897694  0.897694  1
  Re  Re18  1  0.102463  0.102463  0.102463  1
  C  C19  1  0.498876  0.498876  0.002358  1
  C  C20  1  0.002358  0.498876  0.498876  1
  C  C21  1  0.498876  0.002358  0.498876  1
