# generated using pymatgen
data_Yb2ErSc(CuSe3)2
_symmetry_space_group_name_H-M   'P 1'
_cell_length_a   6.78654530
_cell_length_b   6.78654504
_cell_length_c   10.35615122
_cell_angle_alpha   87.43987351
_cell_angle_beta   92.56012550
_cell_angle_gamma   146.22221672
_symmetry_Int_Tables_number   1
_chemical_formula_structural   Yb2ErSc(CuSe3)2
_chemical_formula_sum   'Yb2 Er1 Sc1 Cu2 Se6'
_cell_volume   264.89645262
_cell_formula_units_Z   1
loop_
 _symmetry_equiv_pos_site_id
 _symmetry_equiv_pos_as_xyz
  1  'x, y, z'
loop_
 _atom_site_type_symbol
 _atom_site_label
 _atom_site_symmetry_multiplicity
 _atom_site_fract_x
 _atom_site_fract_y
 _atom_site_fract_z
 _atom_site_occupancy
  Yb  Yb0  1  0.241117  0.758885  0.270849  1
  Yb  Yb1  1  0.758885  0.241117  0.729151  1
  Er  Er2  1  0.000000  0.000000  0.000000  1
  Sc  Sc3  1  0.000000  0.000000  0.500000  1
  Cu  Cu4  1  0.526474  0.473528  0.251013  1
  Cu  Cu5  1  0.473528  0.526474  0.748987  1
  Se  Se6  1  0.646222  0.353780  0.078472  1
  Se  Se7  1  0.912058  0.087944  0.252102  1
  Se  Se8  1  0.639061  0.360941  0.446385  1
  Se  Se9  1  0.360941  0.639061  0.553615  1
  Se  Se10  1  0.087944  0.912058  0.747898  1
  Se  Se11  1  0.353780  0.646222  0.921528  1
