# generated using pymatgen
data_Dy4Sc4Ti11Si16Ir
_symmetry_space_group_name_H-M   'P 1'
_cell_length_a   6.94931014
_cell_length_b   6.94242036
_cell_length_c   12.70761202
_cell_angle_alpha   89.96656598
_cell_angle_beta   90.10241228
_cell_angle_gamma   89.93073719
_symmetry_Int_Tables_number   1
_chemical_formula_structural   Dy4Sc4Ti11Si16Ir
_chemical_formula_sum   'Dy4 Sc4 Ti11 Si16 Ir1'
_cell_volume   613.07761910
_cell_formula_units_Z   1
loop_
 _symmetry_equiv_pos_site_id
 _symmetry_equiv_pos_as_xyz
  1  'x, y, z'
loop_
 _atom_site_type_symbol
 _atom_site_label
 _atom_site_symmetry_multiplicity
 _atom_site_fract_x
 _atom_site_fract_y
 _atom_site_fract_z
 _atom_site_occupancy
  Dy  Dy0  1  0.841533  0.497566  0.283291  1
  Dy  Dy1  1  0.505329  0.158320  0.216480  1
  Dy  Dy2  1  0.497530  0.839825  0.715857  1
  Dy  Dy3  1  0.340577  0.002688  0.470317  1
  Sc  Sc4  1  0.998876  0.658924  0.031343  1
  Sc  Sc5  1  0.999783  0.342732  0.532595  1
  Sc  Sc6  1  0.658082  0.997964  0.966185  1
  Sc  Sc7  1  0.155188  0.501444  0.783271  1
  Ti  Ti8  1  0.341718  0.504025  0.376410  1
  Ti  Ti9  1  0.851044  0.996990  0.374890  1
  Ti  Ti10  1  0.006317  0.148880  0.122256  1
  Ti  Ti11  1  0.000287  0.851698  0.628463  1
  Ti  Ti12  1  0.506764  0.345792  0.627207  1
  Ti  Ti13  1  0.147727  0.007159  0.875252  1
  Ti  Ti14  1  0.826591  0.174354  0.749360  1
  Ti  Ti15  1  0.171632  0.824441  0.251306  1
  Ti  Ti16  1  0.325616  0.327884  0.999001  1
  Ti  Ti17  1  0.495212  0.650349  0.124637  1
  Ti  Ti18  1  0.649589  0.496170  0.872076  1
  Si  Si19  1  0.042826  0.707625  0.438608  1
  Si  Si20  1  0.953353  0.298176  0.933073  1
  Si  Si21  1  0.718092  0.051098  0.564967  1
  Si  Si22  1  0.205601  0.455758  0.181703  1
  Si  Si23  1  0.799321  0.547214  0.682292  1
  Si  Si24  1  0.451881  0.207576  0.817599  1
  Si  Si25  1  0.550283  0.789406  0.317357  1
  Si  Si26  1  0.294168  0.949491  0.063285  1
  Si  Si27  1  0.799267  0.863246  0.179049  1
  Si  Si28  1  0.287282  0.621877  0.570696  1
  Si  Si29  1  0.707967  0.368109  0.063555  1
  Si  Si30  1  0.632595  0.300966  0.435849  1
  Si  Si31  1  0.362411  0.703835  0.931045  1
  Si  Si32  1  0.132373  0.204692  0.316627  1
  Si  Si33  1  0.200329  0.142731  0.683431  1
  Si  Si34  1  0.866743  0.794756  0.820898  1
  Ir  Ir35  1  0.676111  0.666238  0.499768  1
