# generated using pymatgen
data_Y8Hf12Si15Au
_symmetry_space_group_name_H-M   'P 1'
_cell_length_a   7.29008130
_cell_length_b   7.32836554
_cell_length_c   13.42423101
_cell_angle_alpha   89.93520629
_cell_angle_beta   89.96605265
_cell_angle_gamma   89.99317216
_symmetry_Int_Tables_number   1
_chemical_formula_structural   Y8Hf12Si15Au
_chemical_formula_sum   'Y8 Hf12 Si15 Au1'
_cell_volume   717.18063709
_cell_formula_units_Z   1
loop_
 _symmetry_equiv_pos_site_id
 _symmetry_equiv_pos_as_xyz
  1  'x, y, z'
loop_
 _atom_site_type_symbol
 _atom_site_label
 _atom_site_symmetry_multiplicity
 _atom_site_fract_x
 _atom_site_fract_y
 _atom_site_fract_z
 _atom_site_occupancy
  Y  Y0  1  0.991505  0.346775  0.214006  1
  Y  Y1  1  0.004219  0.655440  0.715386  1
  Y  Y2  1  0.154600  0.498870  0.467039  1
  Y  Y3  1  0.504404  0.842864  0.033438  1
  Y  Y4  1  0.843924  0.502684  0.964918  1
  Y  Y5  1  0.497434  0.154139  0.537636  1
  Y  Y6  1  0.343091  0.997652  0.784846  1
  Y  Y7  1  0.662346  0.997015  0.283641  1
  Hf  Hf8  1  0.174938  0.176347  0.998879  1
  Hf  Hf9  1  0.826255  0.825205  0.500563  1
  Hf  Hf10  1  0.325307  0.680407  0.249211  1
  Hf  Hf11  1  0.675391  0.324575  0.750217  1
  Hf  Hf12  1  0.146599  0.996760  0.374707  1
  Hf  Hf13  1  0.851050  0.003796  0.874515  1
  Hf  Hf14  1  0.504756  0.650207  0.624898  1
  Hf  Hf15  1  0.351143  0.495293  0.874945  1
  Hf  Hf16  1  0.495035  0.350475  0.121756  1
  Hf  Hf17  1  0.652174  0.509929  0.380012  1
  Hf  Hf18  1  0.995686  0.148625  0.626520  1
  Hf  Hf19  1  0.001638  0.849446  0.123712  1
  Si  Si20  1  0.637425  0.705866  0.817981  1
  Si  Si21  1  0.204788  0.863090  0.567907  1
  Si  Si22  1  0.137539  0.795619  0.932177  1
  Si  Si23  1  0.795277  0.137344  0.066377  1
  Si  Si24  1  0.860546  0.201071  0.434978  1
  Si  Si25  1  0.295674  0.363081  0.682938  1
  Si  Si26  1  0.704497  0.638226  0.181791  1
  Si  Si27  1  0.292426  0.045123  0.181967  1
  Si  Si28  1  0.705328  0.950809  0.685844  1
  Si  Si29  1  0.448863  0.794807  0.435715  1
  Si  Si30  1  0.204786  0.549706  0.063767  1
  Si  Si31  1  0.548699  0.204681  0.934614  1
  Si  Si32  1  0.794653  0.450018  0.566564  1
  Si  Si33  1  0.048068  0.295533  0.814934  1
  Si  Si34  1  0.951704  0.704541  0.313495  1
  Au  Au35  1  0.368233  0.293983  0.318104  1
