# generated using pymatgen
data_CeYTm(InRh)3
_symmetry_space_group_name_H-M   'P 1'
_cell_length_a   7.50371986
_cell_length_b   7.51265128
_cell_length_c   3.86878700
_cell_angle_alpha   90.00000000
_cell_angle_beta   90.00000000
_cell_angle_gamma   117.44990066
_symmetry_Int_Tables_number   1
_chemical_formula_structural   CeYTm(InRh)3
_chemical_formula_sum   'Ce1 Y1 Tm1 In3 Rh3'
_cell_volume   193.54014324
_cell_formula_units_Z   1
loop_
 _symmetry_equiv_pos_site_id
 _symmetry_equiv_pos_as_xyz
  1  'x, y, z'
loop_
 _atom_site_type_symbol
 _atom_site_label
 _atom_site_symmetry_multiplicity
 _atom_site_fract_x
 _atom_site_fract_y
 _atom_site_fract_z
 _atom_site_occupancy
  Ce  Ce0  1  0.582623  0.582346  0.500000  1
  Y  Y1  1  0.404647  0.999358  0.500000  1
  Tm  Tm2  1  0.999687  0.404158  0.500000  1
  In  In3  1  0.742315  0.007618  0.000000  1
  In  In4  1  0.007019  0.741136  0.000000  1
  In  In5  1  0.247483  0.248784  0.000000  1
  Rh  Rh6  1  0.350417  0.663409  0.000000  1
  Rh  Rh7  1  0.668998  0.353727  0.000000  1
  Rh  Rh8  1  0.996808  0.999463  0.500000  1
