# generated using pymatgen
data_Pr2ThCo8P6W
_symmetry_space_group_name_H-M   'P 1'
_cell_length_a   3.81646300
_cell_length_b   10.75433200
_cell_length_c   12.45085200
_cell_angle_alpha   90.00000000
_cell_angle_beta   90.00000000
_cell_angle_gamma   90.00000000
_symmetry_Int_Tables_number   1
_chemical_formula_structural   Pr2ThCo8P6W
_chemical_formula_sum   'Pr4 Th2 Co16 P12 W2'
_cell_volume   511.02667066
_cell_formula_units_Z   2
loop_
 _symmetry_equiv_pos_site_id
 _symmetry_equiv_pos_as_xyz
  1  'x, y, z'
loop_
 _atom_site_type_symbol
 _atom_site_label
 _atom_site_symmetry_multiplicity
 _atom_site_fract_x
 _atom_site_fract_y
 _atom_site_fract_z
 _atom_site_occupancy
  Pr  Pr0  1  0.500000  0.817841  0.204772  1
  Pr  Pr1  1  0.500000  0.182159  0.204772  1
  Pr  Pr2  1  0.000000  0.682159  0.795228  1
  Pr  Pr3  1  0.000000  0.317841  0.795228  1
  Th  Th4  1  0.000000  0.500000  0.525392  1
  Th  Th5  1  0.500000  0.000000  0.474608  1
  Co  Co6  1  0.500000  0.500000  0.697847  1
  Co  Co7  1  0.000000  0.000000  0.302153  1
  Co  Co8  1  0.000000  0.500000  0.987515  1
  Co  Co9  1  0.500000  0.000000  0.012485  1
  Co  Co10  1  0.500000  0.332965  0.992446  1
  Co  Co11  1  0.500000  0.667035  0.992446  1
  Co  Co12  1  0.000000  0.167035  0.007554  1
  Co  Co13  1  0.000000  0.832965  0.007554  1
  Co  Co14  1  0.500000  0.298017  0.431473  1
  Co  Co15  1  0.500000  0.701983  0.431473  1
  Co  Co16  1  0.000000  0.201983  0.568527  1
  Co  Co17  1  0.000000  0.798017  0.568527  1
  Co  Co18  1  0.500000  0.881984  0.710073  1
  Co  Co19  1  0.500000  0.118016  0.710073  1
  Co  Co20  1  0.000000  0.618016  0.289927  1
  Co  Co21  1  0.000000  0.381984  0.289927  1
  P  P22  1  0.500000  0.500000  0.884552  1
  P  P23  1  0.000000  0.000000  0.115448  1
  P  P24  1  0.500000  0.500000  0.343449  1
  P  P25  1  0.000000  0.000000  0.656551  1
  P  P26  1  0.500000  0.304462  0.614297  1
  P  P27  1  0.500000  0.695538  0.614297  1
  P  P28  1  0.000000  0.195538  0.385703  1
  P  P29  1  0.000000  0.804462  0.385703  1
  P  P30  1  0.500000  0.846696  0.896161  1
  P  P31  1  0.500000  0.153304  0.896161  1
  P  P32  1  0.000000  0.653304  0.103839  1
  P  P33  1  0.000000  0.346696  0.103839  1
  W  W34  1  0.500000  0.500000  0.152647  1
  W  W35  1  0.000000  0.000000  0.847353  1
