# generated using pymatgen
data_Nd3Al12Ir3Ru
_symmetry_space_group_name_H-M   'P 1'
_cell_length_a   8.92401000
_cell_length_b   8.92401019
_cell_length_c   9.60983400
_cell_angle_alpha   90.00000000
_cell_angle_beta   90.00000000
_cell_angle_gamma   120.00000673
_symmetry_Int_Tables_number   1
_chemical_formula_structural   Nd3Al12Ir3Ru
_chemical_formula_sum   'Nd6 Al24 Ir6 Ru2'
_cell_volume   662.77572514
_cell_formula_units_Z   2
loop_
 _symmetry_equiv_pos_site_id
 _symmetry_equiv_pos_as_xyz
  1  'x, y, z'
loop_
 _atom_site_type_symbol
 _atom_site_label
 _atom_site_symmetry_multiplicity
 _atom_site_fract_x
 _atom_site_fract_y
 _atom_site_fract_z
 _atom_site_occupancy
  Nd  Nd0  1  0.189770  0.379539  0.250000  1
  Nd  Nd1  1  0.810230  0.620461  0.750000  1
  Nd  Nd2  1  0.620461  0.810230  0.250000  1
  Nd  Nd3  1  0.379539  0.189770  0.750000  1
  Nd  Nd4  1  0.189770  0.810230  0.250000  1
  Nd  Nd5  1  0.810230  0.189770  0.750000  1
  Al  Al6  1  0.333333  0.666667  0.015640  1
  Al  Al7  1  0.666667  0.333333  0.984360  1
  Al  Al8  1  0.666667  0.333333  0.515640  1
  Al  Al9  1  0.333333  0.666667  0.484360  1
  Al  Al10  1  0.162942  0.325884  0.575159  1
  Al  Al11  1  0.837058  0.674116  0.424841  1
  Al  Al12  1  0.674116  0.837058  0.575159  1
  Al  Al13  1  0.837058  0.674116  0.075159  1
  Al  Al14  1  0.325884  0.162942  0.424841  1
  Al  Al15  1  0.162942  0.325884  0.924841  1
  Al  Al16  1  0.162942  0.837058  0.575159  1
  Al  Al17  1  0.325884  0.162942  0.075159  1
  Al  Al18  1  0.837058  0.162942  0.424841  1
  Al  Al19  1  0.674116  0.837058  0.924841  1
  Al  Al20  1  0.837058  0.162942  0.075159  1
  Al  Al21  1  0.162942  0.837058  0.924841  1
  Al  Al22  1  0.562627  0.125254  0.250000  1
  Al  Al23  1  0.437373  0.874746  0.750000  1
  Al  Al24  1  0.874746  0.437373  0.250000  1
  Al  Al25  1  0.125254  0.562627  0.750000  1
  Al  Al26  1  0.562627  0.437373  0.250000  1
  Al  Al27  1  0.437373  0.562627  0.750000  1
  Al  Al28  1  0.000000  0.000000  0.250000  1
  Al  Al29  1  0.000000  0.000000  0.750000  1
  Ir  Ir30  1  0.500000  0.000000  0.000000  1
  Ir  Ir31  1  0.000000  0.500000  0.000000  1
  Ir  Ir32  1  0.500000  0.000000  0.500000  1
  Ir  Ir33  1  0.500000  0.500000  0.000000  1
  Ir  Ir34  1  0.000000  0.500000  0.500000  1
  Ir  Ir35  1  0.500000  0.500000  0.500000  1
  Ru  Ru36  1  0.000000  0.000000  0.000000  1
  Ru  Ru37  1  0.000000  0.000000  0.500000  1
