# generated using pymatgen
data_Ca3ZnPRh2
_symmetry_space_group_name_H-M   'P 1'
_cell_length_a   5.70083200
_cell_length_b   7.67613000
_cell_length_c   13.64206300
_cell_angle_alpha   90.00000000
_cell_angle_beta   90.00000000
_cell_angle_gamma   90.00000000
_symmetry_Int_Tables_number   1
_chemical_formula_structural   Ca3ZnPRh2
_chemical_formula_sum   'Ca12 Zn4 P4 Rh8'
_cell_volume   596.98114520
_cell_formula_units_Z   4
loop_
 _symmetry_equiv_pos_site_id
 _symmetry_equiv_pos_as_xyz
  1  'x, y, z'
loop_
 _atom_site_type_symbol
 _atom_site_label
 _atom_site_symmetry_multiplicity
 _atom_site_fract_x
 _atom_site_fract_y
 _atom_site_fract_z
 _atom_site_occupancy
  Ca  Ca0  1  0.140965  0.605044  0.103767  1
  Ca  Ca1  1  0.140965  0.894956  0.896233  1
  Ca  Ca2  1  0.859035  0.105044  0.396233  1
  Ca  Ca3  1  0.859035  0.394956  0.603767  1
  Ca  Ca4  1  0.859035  0.394956  0.896233  1
  Ca  Ca5  1  0.859035  0.105044  0.103767  1
  Ca  Ca6  1  0.140965  0.894956  0.603767  1
  Ca  Ca7  1  0.140965  0.605044  0.396233  1
  Ca  Ca8  1  0.361620  0.251807  0.250000  1
  Ca  Ca9  1  0.361620  0.248193  0.750000  1
  Ca  Ca10  1  0.638380  0.751807  0.250000  1
  Ca  Ca11  1  0.638380  0.748193  0.750000  1
  Zn  Zn12  1  0.385785  0.250000  0.000000  1
  Zn  Zn13  1  0.614215  0.750000  0.500000  1
  Zn  Zn14  1  0.614215  0.750000  0.000000  1
  Zn  Zn15  1  0.385785  0.250000  0.500000  1
  P  P16  1  0.844759  0.400240  0.250000  1
  P  P17  1  0.844759  0.099760  0.750000  1
  P  P18  1  0.155241  0.900240  0.250000  1
  P  P19  1  0.155241  0.599760  0.750000  1
  Rh  Rh20  1  0.641130  0.468726  0.099029  1
  Rh  Rh21  1  0.641130  0.031274  0.900971  1
  Rh  Rh22  1  0.358870  0.968726  0.400971  1
  Rh  Rh23  1  0.358870  0.531274  0.599029  1
  Rh  Rh24  1  0.358870  0.531274  0.900971  1
  Rh  Rh25  1  0.358870  0.968726  0.099029  1
  Rh  Rh26  1  0.641130  0.031274  0.599029  1
  Rh  Rh27  1  0.641130  0.468726  0.400971  1
