# generated using pymatgen
data_ErTm7In2IrRu
_symmetry_space_group_name_H-M   'P 1'
_cell_length_a   9.53497810
_cell_length_b   9.52311271
_cell_length_c   9.52545826
_cell_angle_alpha   59.92190820
_cell_angle_beta   59.96694217
_cell_angle_gamma   59.95877590
_symmetry_Int_Tables_number   1
_chemical_formula_structural   ErTm7In2IrRu
_chemical_formula_sum   'Er2 Tm14 In4 Ir2 Ru2'
_cell_volume   610.89811691
_cell_formula_units_Z   2
loop_
 _symmetry_equiv_pos_site_id
 _symmetry_equiv_pos_as_xyz
  1  'x, y, z'
loop_
 _atom_site_type_symbol
 _atom_site_label
 _atom_site_symmetry_multiplicity
 _atom_site_fract_x
 _atom_site_fract_y
 _atom_site_fract_z
 _atom_site_occupancy
  Er  Er0  1  0.439938  0.441821  0.059738  1
  Er  Er1  1  0.058503  0.441821  0.059738  1
  Tm  Tm2  1  0.058520  0.059228  0.442270  1
  Tm  Tm3  1  0.652127  0.043864  0.651882  1
  Tm  Tm4  1  0.193115  0.808776  0.191115  1
  Tm  Tm5  1  0.439982  0.059228  0.442270  1
  Tm  Tm6  1  0.193222  0.191059  0.808420  1
  Tm  Tm7  1  0.650807  0.651603  0.651424  1
  Tm  Tm8  1  0.046167  0.651603  0.651424  1
  Tm  Tm9  1  0.442455  0.057287  0.057804  1
  Tm  Tm10  1  0.652125  0.651991  0.043759  1
  Tm  Tm11  1  0.191285  0.809010  0.808421  1
  Tm  Tm12  1  0.807300  0.191059  0.808420  1
  Tm  Tm13  1  0.806989  0.192960  0.193062  1
  Tm  Tm14  1  0.806995  0.808776  0.191115  1
  Tm  Tm15  1  0.059453  0.440312  0.440781  1
  In  In16  1  0.748325  0.417046  0.417134  1
  In  In17  1  0.416775  0.416546  0.749904  1
  In  In18  1  0.416604  0.750317  0.416475  1
  In  In19  1  0.417494  0.417046  0.417134  1
  Ir  Ir20  1  0.860295  0.858414  0.420996  1
  Ir  Ir21  1  0.860456  0.420915  0.858174  1
  Ru  Ru22  1  0.862094  0.859661  0.859270  1
  Ru  Ru23  1  0.418976  0.859661  0.859270  1
