# generated using pymatgen
data_Th(AgBr3)2
_symmetry_space_group_name_H-M   'P 1'
_cell_length_a   7.13603500
_cell_length_b   7.13603474
_cell_length_c   28.56811000
_cell_angle_alpha   90.00000000
_cell_angle_beta   90.00000000
_cell_angle_gamma   120.00000585
_symmetry_Int_Tables_number   1
_chemical_formula_structural   Th(AgBr3)2
_chemical_formula_sum   'Th4 Ag8 Br24'
_cell_volume   1259.87089276
_cell_formula_units_Z   4
loop_
 _symmetry_equiv_pos_site_id
 _symmetry_equiv_pos_as_xyz
  1  'x, y, z'
loop_
 _atom_site_type_symbol
 _atom_site_label
 _atom_site_symmetry_multiplicity
 _atom_site_fract_x
 _atom_site_fract_y
 _atom_site_fract_z
 _atom_site_occupancy
  Th  Th0  1  0.000000  0.000000  0.000000  1
  Th  Th1  1  0.000000  0.000000  0.500000  1
  Th  Th2  1  0.333333  0.666667  0.750000  1
  Th  Th3  1  0.666667  0.333333  0.250000  1
  Ag  Ag4  1  0.000000  0.000000  0.250000  1
  Ag  Ag5  1  0.000000  0.000000  0.750000  1
  Ag  Ag6  1  0.333333  0.666667  0.001246  1
  Ag  Ag7  1  0.333333  0.666667  0.498754  1
  Ag  Ag8  1  0.333333  0.666667  0.250000  1
  Ag  Ag9  1  0.666667  0.333333  0.750000  1
  Ag  Ag10  1  0.666667  0.333333  0.998754  1
  Ag  Ag11  1  0.666667  0.333333  0.501246  1
  Br  Br12  1  0.340232  0.006844  0.308486  1
  Br  Br13  1  0.333388  0.993156  0.808486  1
  Br  Br14  1  0.998303  0.325539  0.058554  1
  Br  Br15  1  0.001697  0.327236  0.558554  1
  Br  Br16  1  0.993156  0.333388  0.308486  1
  Br  Br17  1  0.006844  0.340232  0.808486  1
  Br  Br18  1  0.340232  0.333388  0.191514  1
  Br  Br19  1  0.333388  0.340232  0.691514  1
  Br  Br20  1  0.327236  0.325539  0.441446  1
  Br  Br21  1  0.325539  0.327236  0.941446  1
  Br  Br22  1  0.674461  0.001697  0.441446  1
  Br  Br23  1  0.327236  0.001697  0.058554  1
  Br  Br24  1  0.325539  0.998303  0.558554  1
  Br  Br25  1  0.674461  0.672764  0.058554  1
  Br  Br26  1  0.672764  0.674461  0.558554  1
  Br  Br27  1  0.666612  0.659768  0.308486  1
  Br  Br28  1  0.659768  0.666612  0.808486  1
  Br  Br29  1  0.993156  0.659768  0.191514  1
  Br  Br30  1  0.006844  0.666612  0.691514  1
  Br  Br31  1  0.998303  0.672764  0.441446  1
  Br  Br32  1  0.001697  0.674461  0.941446  1
  Br  Br33  1  0.672764  0.998303  0.941446  1
  Br  Br34  1  0.666612  0.006844  0.191514  1
  Br  Br35  1  0.659768  0.993156  0.691514  1
