# generated using pymatgen
data_Hf18CuRe7PdW
_symmetry_space_group_name_H-M   'P 1'
_cell_length_a   8.50765701
_cell_length_b   8.66953582
_cell_length_c   8.66953302
_cell_angle_alpha   119.99963319
_cell_angle_beta   89.99987769
_cell_angle_gamma   90.00019394
_symmetry_Int_Tables_number   1
_chemical_formula_structural   Hf18CuRe7PdW
_chemical_formula_sum   'Hf18 Cu1 Re7 Pd1 W1'
_cell_volume   553.77552853
_cell_formula_units_Z   1
loop_
 _symmetry_equiv_pos_site_id
 _symmetry_equiv_pos_as_xyz
  1  'x, y, z'
loop_
 _atom_site_type_symbol
 _atom_site_label
 _atom_site_symmetry_multiplicity
 _atom_site_fract_x
 _atom_site_fract_y
 _atom_site_fract_z
 _atom_site_occupancy
  Hf  Hf0  1  0.553434  0.803745  0.607491  1
  Hf  Hf1  1  0.553435  0.803740  0.196257  1
  Hf  Hf2  1  0.553431  0.392513  0.196259  1
  Hf  Hf3  1  0.448805  0.195454  0.390913  1
  Hf  Hf4  1  0.448801  0.195458  0.804542  1
  Hf  Hf5  1  0.448804  0.609088  0.804544  1
  Hf  Hf6  1  0.051739  0.194167  0.388329  1
  Hf  Hf7  1  0.051745  0.194173  0.805828  1
  Hf  Hf8  1  0.051741  0.611667  0.805832  1
  Hf  Hf9  1  0.946106  0.805574  0.611153  1
  Hf  Hf10  1  0.946104  0.805570  0.194430  1
  Hf  Hf11  1  0.946108  0.388855  0.194427  1
  Hf  Hf12  1  0.750630  0.458836  0.917687  1
  Hf  Hf13  1  0.750627  0.458841  0.541160  1
  Hf  Hf14  1  0.750632  0.082314  0.541163  1
  Hf  Hf15  1  0.249280  0.542639  0.085266  1
  Hf  Hf16  1  0.249278  0.542635  0.457366  1
  Hf  Hf17  1  0.249278  0.914731  0.457361  1
  Cu  Cu18  1  0.751684  0.666662  0.333339  1
  Re  Re19  1  0.749156  0.110757  0.221519  1
  Re  Re20  1  0.749160  0.110755  0.889246  1
  Re  Re21  1  0.749160  0.778478  0.889242  1
  Re  Re22  1  0.250809  0.888946  0.777894  1
  Re  Re23  1  0.250806  0.888950  0.111050  1
  Re  Re24  1  0.250808  0.222109  0.111054  1
  Re  Re25  1  0.999691  0.000002  0.999997  1
  Pd  Pd26  1  0.248723  0.333337  0.666656  1
  W  W27  1  0.500022  0.000001  0.000000  1
