# generated using pymatgen
data_Zr2Sc6Al12V2Os7
_symmetry_space_group_name_H-M   'P 1'
_cell_length_a   8.89550225
_cell_length_b   8.87328000
_cell_length_c   8.87328208
_cell_angle_alpha   59.80150223
_cell_angle_beta   59.91712712
_cell_angle_gamma   59.91712713
_symmetry_Int_Tables_number   1
_chemical_formula_structural   Zr2Sc6Al12V2Os7
_chemical_formula_sum   'Zr2 Sc6 Al12 V2 Os7'
_cell_volume   493.88370062
_cell_formula_units_Z   1
loop_
 _symmetry_equiv_pos_site_id
 _symmetry_equiv_pos_as_xyz
  1  'x, y, z'
loop_
 _atom_site_type_symbol
 _atom_site_label
 _atom_site_symmetry_multiplicity
 _atom_site_fract_x
 _atom_site_fract_y
 _atom_site_fract_z
 _atom_site_occupancy
  Zr  Zr0  1  0.358193  0.879454  0.879454  1
  Zr  Zr1  1  0.882897  0.879454  0.879454  1
  Sc  Sc2  1  0.709955  0.711623  0.293936  1
  Sc  Sc3  1  0.284486  0.711623  0.293936  1
  Sc  Sc4  1  0.715653  0.284347  0.284347  1
  Sc  Sc5  1  0.284486  0.293936  0.711623  1
  Sc  Sc6  1  0.709955  0.293936  0.711623  1
  Sc  Sc7  1  0.294749  0.705251  0.705251  1
  Al  Al8  1  0.118345  0.124888  0.638422  1
  Al  Al9  1  0.118345  0.638422  0.124888  1
  Al  Al10  1  0.635298  0.121984  0.121984  1
  Al  Al11  1  0.120734  0.121984  0.121984  1
  Al  Al12  1  0.666248  0.659273  0.008233  1
  Al  Al13  1  0.666248  0.008233  0.659273  1
  Al  Al14  1  0.003331  0.662724  0.662724  1
  Al  Al15  1  0.671224  0.662724  0.662724  1
  Al  Al16  1  0.334407  0.335067  0.996117  1
  Al  Al17  1  0.334407  0.996117  0.335067  1
  Al  Al18  1  0.993836  0.335225  0.335225  1
  Al  Al19  1  0.335713  0.335225  0.335225  1
  V  V20  1  0.879077  0.879929  0.361915  1
  V  V21  1  0.879077  0.361915  0.879929  1
  Os  Os22  1  0.986520  0.013480  0.013480  1
  Os  Os23  1  0.999507  0.997554  0.493623  1
  Os  Os24  1  0.509316  0.997554  0.493623  1
  Os  Os25  1  0.998656  0.501344  0.501344  1
  Os  Os26  1  0.509316  0.493623  0.997554  1
  Os  Os27  1  0.999507  0.493623  0.997554  1
  Os  Os28  1  0.500512  0.999488  0.999488  1
