# generated using pymatgen
data_Nd10Ir2I15
_symmetry_space_group_name_H-M   'P 1'
_cell_length_a   10.16699142
_cell_length_b   10.95066206
_cell_length_c   11.91317700
_cell_angle_alpha   91.59510900
_cell_angle_beta   114.41230149
_cell_angle_gamma   110.49298410
_symmetry_Int_Tables_number   1
_chemical_formula_structural   Nd10Ir2I15
_chemical_formula_sum   'Nd10 Ir2 I15'
_cell_volume   1107.95510379
_cell_formula_units_Z   1
loop_
 _symmetry_equiv_pos_site_id
 _symmetry_equiv_pos_as_xyz
  1  'x, y, z'
loop_
 _atom_site_type_symbol
 _atom_site_label
 _atom_site_symmetry_multiplicity
 _atom_site_fract_x
 _atom_site_fract_y
 _atom_site_fract_z
 _atom_site_occupancy
  Nd  Nd0  1  0.794179  0.396644  0.269356  1
  Nd  Nd1  1  0.205821  0.603356  0.730644  1
  Nd  Nd2  1  0.668278  0.752757  0.824574  1
  Nd  Nd3  1  0.331722  0.247243  0.175426  1
  Nd  Nd4  1  0.526695  0.706341  0.097313  1
  Nd  Nd5  1  0.473305  0.293659  0.902687  1
  Nd  Nd6  1  0.588315  0.043586  0.330770  1
  Nd  Nd7  1  0.411685  0.956414  0.669230  1
  Nd  Nd8  1  0.723751  0.075479  0.048308  1
  Nd  Nd9  1  0.276249  0.924521  0.951692  1
  Ir  Ir10  1  0.468546  0.830224  0.882500  1
  Ir  Ir11  1  0.531454  0.169776  0.117500  1
  I  I12  1  0.000000  0.000000  0.000000  1
  I  I13  1  0.640944  0.885397  0.584364  1
  I  I14  1  0.359056  0.114603  0.415636  1
  I  I15  1  0.887522  0.301538  0.530057  1
  I  I16  1  0.112478  0.698462  0.469943  1
  I  I17  1  0.292217  0.760079  0.185203  1
  I  I18  1  0.707783  0.239921  0.814797  1
  I  I19  1  0.060671  0.340711  0.224588  1
  I  I20  1  0.163175  0.059407  0.697437  1
  I  I21  1  0.836825  0.940593  0.302563  1
  I  I22  1  0.238077  0.412926  0.944876  1
  I  I23  1  0.761923  0.587074  0.055124  1
  I  I24  1  0.408930  0.466819  0.666548  1
  I  I25  1  0.591070  0.533181  0.333452  1
  I  I26  1  0.939329  0.659289  0.775412  1
