# generated using pymatgen
data_Lu2ZnGa3Ag2
_symmetry_space_group_name_H-M   'P 1'
_cell_length_a   4.29930300
_cell_length_b   6.90052654
_cell_length_c   10.14966088
_cell_angle_alpha   89.90705270
_cell_angle_beta   90.00000000
_cell_angle_gamma   90.00000000
_symmetry_Int_Tables_number   1
_chemical_formula_structural   Lu2ZnGa3Ag2
_chemical_formula_sum   'Lu4 Zn2 Ga6 Ag4'
_cell_volume   301.11420587
_cell_formula_units_Z   2
loop_
 _symmetry_equiv_pos_site_id
 _symmetry_equiv_pos_as_xyz
  1  'x, y, z'
loop_
 _atom_site_type_symbol
 _atom_site_label
 _atom_site_symmetry_multiplicity
 _atom_site_fract_x
 _atom_site_fract_y
 _atom_site_fract_z
 _atom_site_occupancy
  Lu  Lu0  1  0.250000  0.784139  0.828590  1
  Lu  Lu1  1  0.750000  0.215861  0.171410  1
  Lu  Lu2  1  0.750000  0.720509  0.327666  1
  Lu  Lu3  1  0.250000  0.279491  0.672334  1
  Zn  Zn4  1  0.250000  0.923987  0.150221  1
  Zn  Zn5  1  0.750000  0.076013  0.849779  1
  Ga  Ga6  1  0.750000  0.574754  0.654401  1
  Ga  Ga7  1  0.250000  0.425246  0.345599  1
  Ga  Ga8  1  0.250000  0.704518  0.535699  1
  Ga  Ga9  1  0.750000  0.295482  0.464301  1
  Ga  Ga10  1  0.750000  0.799389  0.037475  1
  Ga  Ga11  1  0.250000  0.200611  0.962525  1
  Ag  Ag12  1  0.250000  0.541297  0.097496  1
  Ag  Ag13  1  0.750000  0.458703  0.902504  1
  Ag  Ag14  1  0.750000  0.958615  0.600717  1
  Ag  Ag15  1  0.250000  0.041385  0.399283  1
