# generated using pymatgen
data_Dy4Er3Tm(B6Ru)4
_symmetry_space_group_name_H-M   'P 1'
_cell_length_a   3.64362700
_cell_length_b   9.11000701
_cell_length_c   11.48940402
_cell_angle_alpha   90.00630263
_cell_angle_beta   90.00000000
_cell_angle_gamma   90.00000000
_symmetry_Int_Tables_number   1
_chemical_formula_structural   Dy4Er3Tm(B6Ru)4
_chemical_formula_sum   'Dy4 Er3 Tm1 B24 Ru4'
_cell_volume   381.37315683
_cell_formula_units_Z   1
loop_
 _symmetry_equiv_pos_site_id
 _symmetry_equiv_pos_as_xyz
  1  'x, y, z'
loop_
 _atom_site_type_symbol
 _atom_site_label
 _atom_site_symmetry_multiplicity
 _atom_site_fract_x
 _atom_site_fract_y
 _atom_site_fract_z
 _atom_site_occupancy
  Dy  Dy0  1  0.000000  0.322238  0.414227  1
  Dy  Dy1  1  0.000000  0.677755  0.585867  1
  Dy  Dy2  1  0.000000  0.822137  0.085708  1
  Dy  Dy3  1  0.000000  0.177892  0.914181  1
  Er  Er4  1  0.000000  0.943746  0.372231  1
  Er  Er5  1  0.000000  0.056226  0.627837  1
  Er  Er6  1  0.000000  0.443851  0.127615  1
  Tm  Tm7  1  0.000000  0.556251  0.872172  1
  B  B8  1  0.500000  0.554421  0.432886  1
  B  B9  1  0.500000  0.445606  0.567194  1
  B  B10  1  0.500000  0.054396  0.067095  1
  B  B11  1  0.500000  0.945461  0.932860  1
  B  B12  1  0.500000  0.748753  0.419418  1
  B  B13  1  0.500000  0.251289  0.580616  1
  B  B14  1  0.500000  0.248819  0.080553  1
  B  B15  1  0.500000  0.750899  0.919380  1
  B  B16  1  0.500000  0.791328  0.265917  1
  B  B17  1  0.500000  0.208794  0.734121  1
  B  B18  1  0.500000  0.291366  0.234052  1
  B  B19  1  0.500000  0.708357  0.766027  1
  B  B20  1  0.500000  0.631369  0.184632  1
  B  B21  1  0.500000  0.368899  0.815439  1
  B  B22  1  0.500000  0.131395  0.315316  1
  B  B23  1  0.500000  0.868524  0.684742  1
  B  B24  1  0.500000  0.983435  0.213046  1
  B  B25  1  0.500000  0.016497  0.786979  1
  B  B26  1  0.500000  0.483419  0.286927  1
  B  B27  1  0.500000  0.516749  0.713300  1
  B  B28  1  0.500000  0.605879  0.028807  1
  B  B29  1  0.500000  0.394374  0.970673  1
  B  B30  1  0.500000  0.106100  0.470858  1
  B  B31  1  0.500000  0.893883  0.529179  1
  Ru  Ru32  1  0.000000  0.638186  0.320607  1
  Ru  Ru33  1  0.000000  0.362032  0.679537  1
  Ru  Ru34  1  0.000000  0.138241  0.179303  1
  Ru  Ru35  1  0.000000  0.861435  0.820697  1
