# generated using pymatgen
data_Gd3Dy5Tm2(SiB4)4
_symmetry_space_group_name_H-M   'P 1'
_cell_length_a   7.23110712
_cell_length_b   7.23110712
_cell_length_c   8.09239604
_cell_angle_alpha   90.00707606
_cell_angle_beta   90.00707606
_cell_angle_gamma   90.02037914
_symmetry_Int_Tables_number   1
_chemical_formula_structural   Gd3Dy5Tm2(SiB4)4
_chemical_formula_sum   'Gd3 Dy5 Tm2 Si4 B16'
_cell_volume   423.14253707
_cell_formula_units_Z   1
loop_
 _symmetry_equiv_pos_site_id
 _symmetry_equiv_pos_as_xyz
  1  'x, y, z'
loop_
 _atom_site_type_symbol
 _atom_site_label
 _atom_site_symmetry_multiplicity
 _atom_site_fract_x
 _atom_site_fract_y
 _atom_site_fract_z
 _atom_site_occupancy
  Gd  Gd0  1  0.680508  0.180508  0.226889  1
  Gd  Gd1  1  0.319452  0.819452  0.773209  1
  Gd  Gd2  1  0.319353  0.819353  0.226824  1
  Dy  Dy3  1  0.819805  0.680185  0.223984  1
  Dy  Dy4  1  0.819611  0.680263  0.775908  1
  Dy  Dy5  1  0.680373  0.180373  0.775236  1
  Dy  Dy6  1  0.180263  0.319611  0.775908  1
  Dy  Dy7  1  0.180185  0.319805  0.223984  1
  Tm  Tm8  1  0.000152  0.000048  0.500096  1
  Tm  Tm9  1  0.500048  0.500152  0.500096  1
  Si  Si10  1  0.114609  0.614609  0.500624  1
  Si  Si11  1  0.884176  0.384176  0.500849  1
  Si  Si12  1  0.384701  0.116360  0.500948  1
  Si  Si13  1  0.616360  0.884701  0.500948  1
  B  B14  1  0.172344  0.039547  0.999610  1
  B  B15  1  0.827402  0.960815  0.999721  1
  B  B16  1  0.960745  0.172653  0.999724  1
  B  B17  1  0.327668  0.538870  0.999655  1
  B  B18  1  0.038870  0.827668  0.999655  1
  B  B19  1  0.672653  0.460745  0.999724  1
  B  B20  1  0.539547  0.672344  0.999610  1
  B  B21  1  0.460815  0.327402  0.999721  1
  B  B22  1  0.089741  0.589741  0.999811  1
  B  B23  1  0.910275  0.410275  0.999900  1
  B  B24  1  0.410100  0.090137  0.999416  1
  B  B25  1  0.590137  0.910100  0.999416  1
  B  B26  1  0.000048  0.000124  0.161962  1
  B  B27  1  0.999584  0.000352  0.837305  1
  B  B28  1  0.500352  0.499584  0.837305  1
  B  B29  1  0.500124  0.500048  0.161962  1
