# generated using pymatgen
data_Th2Al2(SiPd)3
_symmetry_space_group_name_H-M   'P 1'
_cell_length_a   8.41287538
_cell_length_b   8.41287476
_cell_length_c   8.41287400
_cell_angle_alpha   137.31116404
_cell_angle_beta   106.20615313
_cell_angle_gamma   89.18975954
_symmetry_Int_Tables_number   1
_chemical_formula_structural   Th2Al2(SiPd)3
_chemical_formula_sum   'Th4 Al4 Si6 Pd6'
_cell_volume   370.61356367
_cell_formula_units_Z   2
loop_
 _symmetry_equiv_pos_site_id
 _symmetry_equiv_pos_as_xyz
  1  'x, y, z'
loop_
 _atom_site_type_symbol
 _atom_site_label
 _atom_site_symmetry_multiplicity
 _atom_site_fract_x
 _atom_site_fract_y
 _atom_site_fract_z
 _atom_site_occupancy
  Th  Th0  1  0.638534  0.372496  0.265930  1
  Th  Th1  1  0.361466  0.627504  0.734070  1
  Th  Th2  1  0.106581  0.872597  0.234050  1
  Th  Th3  1  0.893419  0.127403  0.765950  1
  Al  Al4  1  0.268965  0.518977  0.250021  1
  Al  Al5  1  0.731035  0.481023  0.749979  1
  Al  Al6  1  0.731024  0.981000  0.250003  1
  Al  Al7  1  0.268976  0.019000  0.749997  1
  Si  Si8  1  0.464941  0.113538  0.351505  1
  Si  Si9  1  0.535059  0.886462  0.648495  1
  Si  Si10  1  0.762044  0.613583  0.148636  1
  Si  Si11  1  0.237956  0.386417  0.851364  1
  Si  Si12  1  0.999996  0.250021  0.249978  1
  Si  Si13  1  0.000004  0.749979  0.750022  1
  Pd  Pd14  1  0.243952  0.130752  0.113199  1
  Pd  Pd15  1  0.756048  0.869248  0.886801  1
  Pd  Pd16  1  0.017564  0.630736  0.386782  1
  Pd  Pd17  1  0.982436  0.369264  0.613218  1
  Pd  Pd18  1  0.500025  0.250002  0.750008  1
  Pd  Pd19  1  0.499975  0.749998  0.249992  1
