# generated using pymatgen
data_SrTlV4(SeO3)8
_symmetry_space_group_name_H-M   'P 1'
_cell_length_a   9.10949553
_cell_length_b   9.13410932
_cell_length_c   9.24742937
_cell_angle_alpha   109.41936086
_cell_angle_beta   111.72767111
_cell_angle_gamma   106.77363624
_symmetry_Int_Tables_number   1
_chemical_formula_structural   SrTlV4(SeO3)8
_chemical_formula_sum   'Sr1 Tl1 V4 Se8 O24'
_cell_volume   595.06382786
_cell_formula_units_Z   1
loop_
 _symmetry_equiv_pos_site_id
 _symmetry_equiv_pos_as_xyz
  1  'x, y, z'
loop_
 _atom_site_type_symbol
 _atom_site_label
 _atom_site_symmetry_multiplicity
 _atom_site_fract_x
 _atom_site_fract_y
 _atom_site_fract_z
 _atom_site_occupancy
  Sr  Sr0  1  0.249954  0.749833  0.499946  1
  Tl  Tl1  1  0.749949  0.250024  0.499961  1
  V  V2  1  0.750064  0.750091  0.499992  1
  V  V3  1  0.250098  0.249887  0.500127  1
  V  V4  1  0.497818  0.992333  0.987090  1
  V  V5  1  0.002221  0.507560  0.012668  1
  Se  Se6  1  0.841518  0.917543  0.261300  1
  Se  Se7  1  0.347393  0.438844  0.285582  1
  Se  Se8  1  0.658487  0.582488  0.738583  1
  Se  Se9  1  0.152543  0.061162  0.714533  1
  Se  Se10  1  0.699066  0.410758  0.109690  1
  Se  Se11  1  0.199989  0.910341  0.115180  1
  Se  Se12  1  0.300221  0.589679  0.885049  1
  Se  Se13  1  0.800769  0.089333  0.890156  1
  O  O14  1  0.819166  0.596867  0.919160  1
  O  O15  1  0.320812  0.084695  0.896913  1
  O  O16  1  0.681227  0.903653  0.080841  1
  O  O17  1  0.178747  0.415047  0.103227  1
  O  O18  1  0.666336  0.549085  0.256824  1
  O  O19  1  0.219030  0.095870  0.270045  1
  O  O20  1  0.281295  0.404118  0.730424  1
  O  O21  1  0.833434  0.951031  0.742991  1
  O  O22  1  0.814582  0.255802  0.834690  1
  O  O23  1  0.315611  0.731495  0.796555  1
  O  O24  1  0.081784  0.524190  0.837584  1
  O  O25  1  0.567729  0.983855  0.799207  1
  O  O26  1  0.418296  0.975715  0.162356  1
  O  O27  1  0.932041  0.516133  0.200482  1
  O  O28  1  0.685042  0.244123  0.165026  1
  O  O29  1  0.184450  0.768357  0.203509  1
  O  O30  1  0.506711  0.353062  0.609611  1
  O  O31  1  0.019081  0.832878  0.583545  1
  O  O32  1  0.750148  0.587332  0.605165  1
  O  O33  1  0.249141  0.070839  0.579103  1
  O  O34  1  0.749723  0.912691  0.394541  1
  O  O35  1  0.251174  0.429143  0.421355  1
  O  O36  1  0.993567  0.147089  0.390767  1
  O  O37  1  0.480780  0.667050  0.416219  1
