# generated using pymatgen
data_SmSb12IrOs2Ru
_symmetry_space_group_name_H-M   'P 1'
_cell_length_a   8.14306395
_cell_length_b   8.14319727
_cell_length_c   8.14589134
_cell_angle_alpha   109.42375319
_cell_angle_beta   109.43893291
_cell_angle_gamma   109.38449856
_symmetry_Int_Tables_number   1
_chemical_formula_structural   SmSb12IrOs2Ru
_chemical_formula_sum   'Sm1 Sb12 Ir1 Os2 Ru1'
_cell_volume   416.66644570
_cell_formula_units_Z   1
loop_
 _symmetry_equiv_pos_site_id
 _symmetry_equiv_pos_as_xyz
  1  'x, y, z'
loop_
 _atom_site_type_symbol
 _atom_site_label
 _atom_site_symmetry_multiplicity
 _atom_site_fract_x
 _atom_site_fract_y
 _atom_site_fract_z
 _atom_site_occupancy
  Sm  Sm0  1  0.000000  0.000000  0.000000  1
  Sb  Sb1  1  0.154131  0.494836  0.338208  1
  Sb  Sb2  1  0.505071  0.661663  0.845672  1
  Sb  Sb3  1  0.337904  0.842851  0.181370  1
  Sb  Sb4  1  0.819327  0.663044  0.158227  1
  Sb  Sb5  1  0.662751  0.845971  0.505053  1
  Sb  Sb6  1  0.180673  0.336956  0.841773  1
  Sb  Sb7  1  0.662096  0.157149  0.818630  1
  Sb  Sb8  1  0.337249  0.154029  0.494947  1
  Sb  Sb9  1  0.494929  0.338337  0.154328  1
  Sb  Sb10  1  0.845869  0.505164  0.661792  1
  Sb  Sb11  1  0.842995  0.180449  0.338110  1
  Sb  Sb12  1  0.157005  0.819551  0.661890  1
  Ir  Ir13  1  0.500000  0.500000  0.500000  1
  Os  Os14  1  0.500000  0.000000  0.000000  1
  Os  Os15  1  0.000000  0.500000  0.000000  1
  Ru  Ru16  1  0.000000  0.000000  0.500000  1
