# generated using pymatgen
data_Th10AlSn5Bi2
_symmetry_space_group_name_H-M   'P 1'
_cell_length_a   9.69815744
_cell_length_b   9.69077428
_cell_length_c   6.57151066
_cell_angle_alpha   90.04074033
_cell_angle_beta   89.91858134
_cell_angle_gamma   120.02520925
_symmetry_Int_Tables_number   1
_chemical_formula_structural   Th10AlSn5Bi2
_chemical_formula_sum   'Th10 Al1 Sn5 Bi2'
_cell_volume   534.72777201
_cell_formula_units_Z   1
loop_
 _symmetry_equiv_pos_site_id
 _symmetry_equiv_pos_as_xyz
  1  'x, y, z'
loop_
 _atom_site_type_symbol
 _atom_site_label
 _atom_site_symmetry_multiplicity
 _atom_site_fract_x
 _atom_site_fract_y
 _atom_site_fract_z
 _atom_site_occupancy
  Th  Th0  1  0.002848  0.726466  0.755657  1
  Th  Th1  1  0.276382  0.273534  0.755657  1
  Th  Th2  1  0.333513  0.668944  0.497481  1
  Th  Th3  1  0.664570  0.331056  0.497481  1
  Th  Th4  1  0.725135  0.724915  0.244381  1
  Th  Th5  1  0.723196  0.000000  0.755868  1
  Th  Th6  1  0.000220  0.275085  0.244381  1
  Th  Th7  1  0.276835  0.000000  0.244437  1
  Th  Th8  1  0.333516  0.668647  0.002619  1
  Th  Th9  1  0.664870  0.331353  0.002619  1
  Al  Al10  1  0.999964  0.000000  0.000678  1
  Sn  Sn11  1  0.379857  0.000000  0.748173  1
  Sn  Sn12  1  0.619952  0.000000  0.251627  1
  Sn  Sn13  1  0.379812  0.379707  0.251634  1
  Sn  Sn14  1  0.000105  0.620293  0.251634  1
  Sn  Sn15  1  0.999781  0.000000  0.499816  1
  Bi  Bi16  1  0.619299  0.619155  0.747928  1
  Bi  Bi17  1  0.000144  0.380845  0.747928  1
