# generated using pymatgen
data_Ho16CdIn3Pd4
_symmetry_space_group_name_H-M   'P 1'
_cell_length_a   9.68433029
_cell_length_b   9.68547089
_cell_length_c   9.68547200
_cell_angle_alpha   60.00000303
_cell_angle_beta   59.99610689
_cell_angle_gamma   59.99610221
_symmetry_Int_Tables_number   1
_chemical_formula_structural   Ho16CdIn3Pd4
_chemical_formula_sum   'Ho16 Cd1 In3 Pd4'
_cell_volume   642.34827359
_cell_formula_units_Z   1
loop_
 _symmetry_equiv_pos_site_id
 _symmetry_equiv_pos_as_xyz
  1  'x, y, z'
loop_
 _atom_site_type_symbol
 _atom_site_label
 _atom_site_symmetry_multiplicity
 _atom_site_fract_x
 _atom_site_fract_y
 _atom_site_fract_z
 _atom_site_occupancy
  Ho  Ho0  1  0.352070  0.352641  0.352641  1
  Ho  Ho1  1  0.352070  0.352641  0.942649  1
  Ho  Ho2  1  0.352070  0.942649  0.352641  1
  Ho  Ho3  1  0.942974  0.352342  0.352342  1
  Ho  Ho4  1  0.810736  0.189322  0.189322  1
  Ho  Ho5  1  0.188925  0.811055  0.811055  1
  Ho  Ho6  1  0.188925  0.811055  0.188964  1
  Ho  Ho7  1  0.810736  0.189322  0.810620  1
  Ho  Ho8  1  0.188925  0.188964  0.811055  1
  Ho  Ho9  1  0.810736  0.810620  0.189322  1
  Ho  Ho10  1  0.936134  0.565097  0.565097  1
  Ho  Ho11  1  0.565223  0.934927  0.934927  1
  Ho  Ho12  1  0.565223  0.934927  0.564923  1
  Ho  Ho13  1  0.936134  0.565097  0.933672  1
  Ho  Ho14  1  0.565223  0.564923  0.934927  1
  Ho  Ho15  1  0.936134  0.933672  0.565097  1
  Cd  Cd16  1  0.251317  0.582894  0.582894  1
  In  In17  1  0.582029  0.583047  0.583047  1
  In  In18  1  0.582029  0.583047  0.251877  1
  In  In19  1  0.582029  0.251877  0.583047  1
  Pd  Pd20  1  0.144124  0.143842  0.143842  1
  Pd  Pd21  1  0.144124  0.143842  0.568192  1
  Pd  Pd22  1  0.144124  0.568192  0.143842  1
  Pd  Pd23  1  0.567988  0.144004  0.144004  1
