# generated using pymatgen
data_La(PrSi2)2
_symmetry_space_group_name_H-M   'P 1'
_cell_length_a   3.99231701
_cell_length_b   4.40228582
_cell_length_c   9.47683400
_cell_angle_alpha   76.56950020
_cell_angle_beta   77.84039869
_cell_angle_gamma   89.99999003
_symmetry_Int_Tables_number   1
_chemical_formula_structural   La(PrSi2)2
_chemical_formula_sum   'La1 Pr2 Si4'
_cell_volume   158.15904239
_cell_formula_units_Z   1
loop_
 _symmetry_equiv_pos_site_id
 _symmetry_equiv_pos_as_xyz
  1  'x, y, z'
loop_
 _atom_site_type_symbol
 _atom_site_label
 _atom_site_symmetry_multiplicity
 _atom_site_fract_x
 _atom_site_fract_y
 _atom_site_fract_z
 _atom_site_occupancy
  La  La0  1  0.000001  0.000001  0.000000  1
  Pr  Pr1  1  0.682839  0.182839  0.634323  1
  Pr  Pr2  1  0.317162  0.817162  0.365676  1
  Si  Si3  1  0.856251  0.356251  0.287497  1
  Si  Si4  1  0.143748  0.643748  0.712504  1
  Si  Si5  1  0.565474  0.565474  0.869052  1
  Si  Si6  1  0.434527  0.434527  0.130949  1
