# generated using pymatgen
data_Y12CdCo5
_symmetry_space_group_name_H-M   'P 1'
_cell_length_a   8.31107500
_cell_length_b   8.31107532
_cell_length_c   8.31107445
_cell_angle_alpha   110.22746845
_cell_angle_beta   110.63269759
_cell_angle_gamma   107.57032297
_symmetry_Int_Tables_number   1
_chemical_formula_structural   Y12CdCo5
_chemical_formula_sum   'Y12 Cd1 Co5'
_cell_volume   441.55710109
_cell_formula_units_Z   1
loop_
 _symmetry_equiv_pos_site_id
 _symmetry_equiv_pos_as_xyz
  1  'x, y, z'
loop_
 _atom_site_type_symbol
 _atom_site_label
 _atom_site_symmetry_multiplicity
 _atom_site_fract_x
 _atom_site_fract_y
 _atom_site_fract_z
 _atom_site_occupancy
  Y  Y0  1  0.291537  0.184862  0.476400  1
  Y  Y1  1  0.708463  0.815138  0.523600  1
  Y  Y2  1  0.291537  0.815138  0.106676  1
  Y  Y3  1  0.708463  0.184862  0.893324  1
  Y  Y4  1  0.618871  0.315168  0.303703  1
  Y  Y5  1  0.381129  0.684832  0.696297  1
  Y  Y6  1  0.011465  0.315168  0.696297  1
  Y  Y7  1  0.988535  0.684832  0.303703  1
  Y  Y8  1  0.208972  0.402214  0.193242  1
  Y  Y9  1  0.791028  0.597786  0.806758  1
  Y  Y10  1  0.208972  0.015730  0.806758  1
  Y  Y11  1  0.791028  0.984270  0.193242  1
  Cd  Cd12  1  0.500000  0.500000  0.000000  1
  Co  Co13  1  0.000000  0.380186  0.380186  1
  Co  Co14  1  0.000000  0.619814  0.619814  1
  Co  Co15  1  0.387959  0.887959  0.500000  1
  Co  Co16  1  0.612041  0.112041  0.500000  1
  Co  Co17  1  0.000000  0.000000  0.000000  1
