# generated using pymatgen
data_TaTi(GaPt6)2
_symmetry_space_group_name_H-M   'P 1'
_cell_length_a   5.60398490
_cell_length_b   5.60398571
_cell_length_c   7.93817300
_cell_angle_alpha   90.00000000
_cell_angle_beta   90.00000000
_cell_angle_gamma   89.93626279
_symmetry_Int_Tables_number   1
_chemical_formula_structural   TaTi(GaPt6)2
_chemical_formula_sum   'Ta1 Ti1 Ga2 Pt12'
_cell_volume   249.29540077
_cell_formula_units_Z   1
loop_
 _symmetry_equiv_pos_site_id
 _symmetry_equiv_pos_as_xyz
  1  'x, y, z'
loop_
 _atom_site_type_symbol
 _atom_site_label
 _atom_site_symmetry_multiplicity
 _atom_site_fract_x
 _atom_site_fract_y
 _atom_site_fract_z
 _atom_site_occupancy
  Ta  Ta0  1  0.000000  0.500000  0.750123  1
  Ti  Ti1  1  0.500000  0.000000  0.750057  1
  Ga  Ga2  1  0.500000  0.000000  0.249967  1
  Ga  Ga3  1  0.000000  0.500000  0.250063  1
  Pt  Pt4  1  0.246159  0.253841  0.995548  1
  Pt  Pt5  1  0.754803  0.254803  0.504352  1
  Pt  Pt6  1  0.745189  0.245189  0.995156  1
  Pt  Pt7  1  0.753841  0.746159  0.995548  1
  Pt  Pt8  1  0.500000  0.500000  0.749943  1
  Pt  Pt9  1  0.255785  0.244215  0.504881  1
  Pt  Pt10  1  0.744215  0.755785  0.504881  1
  Pt  Pt11  1  0.245197  0.745197  0.504352  1
  Pt  Pt12  1  0.500000  0.500000  0.250015  1
  Pt  Pt13  1  0.000000  0.000000  0.749943  1
  Pt  Pt14  1  0.000000  0.000000  0.250015  1
  Pt  Pt15  1  0.254811  0.754811  0.995156  1
