# generated using pymatgen
data_TiH4F8
_symmetry_space_group_name_H-M   'P 1'
_cell_length_a   3.93643302
_cell_length_b   6.74037191
_cell_length_c   7.15479540
_cell_angle_alpha   105.43813254
_cell_angle_beta   84.46406972
_cell_angle_gamma   99.94888112
_symmetry_Int_Tables_number   1
_chemical_formula_structural   TiH4F8
_chemical_formula_sum   'Ti1 H4 F8'
_cell_volume   179.98202318
_cell_formula_units_Z   1
loop_
 _symmetry_equiv_pos_site_id
 _symmetry_equiv_pos_as_xyz
  1  'x, y, z'
loop_
 _atom_site_type_symbol
 _atom_site_label
 _atom_site_symmetry_multiplicity
 _atom_site_fract_x
 _atom_site_fract_y
 _atom_site_fract_z
 _atom_site_occupancy
  Ti  Ti0  1  0.416140  0.149535  0.873179  1
  H  H1  1  0.075040  0.570912  0.479384  1
  H  H2  1  0.083852  0.003565  0.212620  1
  H  H3  1  0.254800  0.705050  0.746159  1
  H  H4  1  0.980607  0.724952  0.283972  1
  F  F5  1  0.109519  0.546506  0.610566  1
  F  F6  1  0.389100  0.052670  0.616342  1
  F  F7  1  0.355456  0.824424  0.858788  1
  F  F8  1  0.895858  0.135193  0.878895  1
  F  F9  1  0.896979  0.904840  0.260752  1
  F  F10  1  0.486029  0.420649  0.901352  1
  F  F11  1  0.024811  0.586598  0.300401  1
  F  F12  1  0.322971  0.145731  0.136052  1
