# generated using pymatgen
data_Li2La2Si2Sb
_symmetry_space_group_name_H-M   'P 1'
_cell_length_a   9.90718201
_cell_length_b   9.90718189
_cell_length_c   6.98457800
_cell_angle_alpha   90.00000000
_cell_angle_beta   90.00000000
_cell_angle_gamma   153.02950412
_symmetry_Int_Tables_number   1
_chemical_formula_structural   Li2La2Si2Sb
_chemical_formula_sum   'Li4 La4 Si4 Sb2'
_cell_volume   310.91954392
_cell_formula_units_Z   2
loop_
 _symmetry_equiv_pos_site_id
 _symmetry_equiv_pos_as_xyz
  1  'x, y, z'
loop_
 _atom_site_type_symbol
 _atom_site_label
 _atom_site_symmetry_multiplicity
 _atom_site_fract_x
 _atom_site_fract_y
 _atom_site_fract_z
 _atom_site_occupancy
  Li  Li0  1  0.815318  0.184682  0.441217  1
  Li  Li1  1  0.184682  0.815318  0.558783  1
  Li  Li2  1  0.815318  0.184682  0.058783  1
  Li  Li3  1  0.184682  0.815318  0.941217  1
  La  La4  1  0.545957  0.454043  0.750000  1
  La  La5  1  0.454043  0.545957  0.250000  1
  La  La6  1  0.350416  0.649584  0.750000  1
  La  La7  1  0.649584  0.350416  0.250000  1
  Si  Si8  1  0.942832  0.057168  0.923588  1
  Si  Si9  1  0.057168  0.942832  0.076412  1
  Si  Si10  1  0.942832  0.057168  0.576412  1
  Si  Si11  1  0.057168  0.942832  0.423588  1
  Sb  Sb12  1  0.718965  0.281035  0.750000  1
  Sb  Sb13  1  0.281035  0.718965  0.250000  1
