# generated using pymatgen
data_Ce3Sm3Co4(Si2Rh)2
_symmetry_space_group_name_H-M   'P 1'
_cell_length_a   5.72808900
_cell_length_b   7.40457494
_cell_length_c   14.37906180
_cell_angle_alpha   90.72396717
_cell_angle_beta   90.00000000
_cell_angle_gamma   90.00000000
_symmetry_Int_Tables_number   1
_chemical_formula_structural   Ce3Sm3Co4(Si2Rh)2
_chemical_formula_sum   'Ce6 Sm6 Co8 Si8 Rh4'
_cell_volume   609.82576572
_cell_formula_units_Z   2
loop_
 _symmetry_equiv_pos_site_id
 _symmetry_equiv_pos_as_xyz
  1  'x, y, z'
loop_
 _atom_site_type_symbol
 _atom_site_label
 _atom_site_symmetry_multiplicity
 _atom_site_fract_x
 _atom_site_fract_y
 _atom_site_fract_z
 _atom_site_occupancy
  Ce  Ce0  1  0.161536  0.489653  0.900522  1
  Ce  Ce1  1  0.661536  0.010348  0.099478  1
  Ce  Ce2  1  0.166718  0.486753  0.602936  1
  Ce  Ce3  1  0.666718  0.013248  0.397064  1
  Ce  Ce4  1  0.340988  0.988921  0.899828  1
  Ce  Ce5  1  0.840988  0.511079  0.100172  1
  Sm  Sm6  1  0.875119  0.851385  0.749732  1
  Sm  Sm7  1  0.851047  0.513000  0.395667  1
  Sm  Sm8  1  0.351047  0.987000  0.604333  1
  Sm  Sm9  1  0.128093  0.146212  0.249965  1
  Sm  Sm10  1  0.375119  0.648615  0.250268  1
  Sm  Sm11  1  0.628093  0.353788  0.750035  1
  Co  Co12  1  0.602500  0.351367  0.965963  1
  Co  Co13  1  0.084747  0.156163  0.460203  1
  Co  Co14  1  0.102500  0.148633  0.034037  1
  Co  Co15  1  0.898582  0.853256  0.965215  1
  Co  Co16  1  0.886942  0.854053  0.530864  1
  Co  Co17  1  0.584747  0.343837  0.539797  1
  Co  Co18  1  0.386942  0.645947  0.469136  1
  Co  Co19  1  0.398582  0.646744  0.034785  1
  Si  Si20  1  0.647039  0.641992  0.906909  1
  Si  Si21  1  0.857467  0.141791  0.593819  1
  Si  Si22  1  0.147039  0.858008  0.093091  1
  Si  Si23  1  0.149377  0.861196  0.407529  1
  Si  Si24  1  0.649377  0.638804  0.592471  1
  Si  Si25  1  0.855901  0.142584  0.905515  1
  Si  Si26  1  0.355901  0.357416  0.094485  1
  Si  Si27  1  0.357467  0.358209  0.406181  1
  Rh  Rh28  1  0.401169  0.707441  0.756430  1
  Rh  Rh29  1  0.592776  0.290743  0.247291  1
  Rh  Rh30  1  0.901169  0.792559  0.243570  1
  Rh  Rh31  1  0.092776  0.209257  0.752709  1
