# generated using pymatgen
data_Pr3Y(LuPt)4
_symmetry_space_group_name_H-M   'P 1'
_cell_length_a   4.77931800
_cell_length_b   7.20752869
_cell_length_c   8.83289786
_cell_angle_alpha   90.18710607
_cell_angle_beta   90.00000000
_cell_angle_gamma   90.00000000
_symmetry_Int_Tables_number   1
_chemical_formula_structural   Pr3Y(LuPt)4
_chemical_formula_sum   'Pr3 Y1 Lu4 Pt4'
_cell_volume   304.26584282
_cell_formula_units_Z   1
loop_
 _symmetry_equiv_pos_site_id
 _symmetry_equiv_pos_as_xyz
  1  'x, y, z'
loop_
 _atom_site_type_symbol
 _atom_site_label
 _atom_site_symmetry_multiplicity
 _atom_site_fract_x
 _atom_site_fract_y
 _atom_site_fract_z
 _atom_site_occupancy
  Pr  Pr0  1  0.250000  0.987348  0.324862  1
  Pr  Pr1  1  0.250000  0.487817  0.172303  1
  Pr  Pr2  1  0.750000  0.012845  0.676263  1
  Y  Y3  1  0.750000  0.512511  0.827932  1
  Lu  Lu4  1  0.250000  0.359546  0.579025  1
  Lu  Lu5  1  0.250000  0.855506  0.923498  1
  Lu  Lu6  1  0.750000  0.641568  0.427719  1
  Lu  Lu7  1  0.750000  0.141579  0.073853  1
  Pt  Pt8  1  0.250000  0.249216  0.902948  1
  Pt  Pt9  1  0.250000  0.745057  0.594981  1
  Pt  Pt10  1  0.750000  0.752728  0.090920  1
  Pt  Pt11  1  0.750000  0.254278  0.405699  1
