# generated using pymatgen
data_Tm3Sc3CrSb2
_symmetry_space_group_name_H-M   'P 1'
_cell_length_a   7.78756500
_cell_length_b   7.78756564
_cell_length_c   4.20051500
_cell_angle_alpha   90.00000000
_cell_angle_beta   90.00000000
_cell_angle_gamma   120.00001001
_symmetry_Int_Tables_number   1
_chemical_formula_structural   Tm3Sc3CrSb2
_chemical_formula_sum   'Tm3 Sc3 Cr1 Sb2'
_cell_volume   220.61575957
_cell_formula_units_Z   1
loop_
 _symmetry_equiv_pos_site_id
 _symmetry_equiv_pos_as_xyz
  1  'x, y, z'
loop_
 _atom_site_type_symbol
 _atom_site_label
 _atom_site_symmetry_multiplicity
 _atom_site_fract_x
 _atom_site_fract_y
 _atom_site_fract_z
 _atom_site_occupancy
  Tm  Tm0  1  0.606272  0.000000  0.500000  1
  Tm  Tm1  1  0.393728  0.393728  0.500000  1
  Tm  Tm2  1  0.000000  0.606272  0.500000  1
  Sc  Sc3  1  0.230788  0.000000  0.000000  1
  Sc  Sc4  1  0.769212  0.769212  0.000000  1
  Sc  Sc5  1  0.000000  0.230788  0.000000  1
  Cr  Cr6  1  0.000000  0.000000  0.500000  1
  Sb  Sb7  1  0.333333  0.666667  0.000000  1
  Sb  Sb8  1  0.666667  0.333333  0.000000  1
