# generated using pymatgen
data_LiNd6Dy10Cd3Pt4
_symmetry_space_group_name_H-M   'P 1'
_cell_length_a   9.80233990
_cell_length_b   9.80233969
_cell_length_c   9.80233884
_cell_angle_alpha   60.11107480
_cell_angle_beta   60.11107467
_cell_angle_gamma   60.11107788
_symmetry_Int_Tables_number   1
_chemical_formula_structural   LiNd6Dy10Cd3Pt4
_chemical_formula_sum   'Li1 Nd6 Dy10 Cd3 Pt4'
_cell_volume   667.67603833
_cell_formula_units_Z   1
loop_
 _symmetry_equiv_pos_site_id
 _symmetry_equiv_pos_as_xyz
  1  'x, y, z'
loop_
 _atom_site_type_symbol
 _atom_site_label
 _atom_site_symmetry_multiplicity
 _atom_site_fract_x
 _atom_site_fract_y
 _atom_site_fract_z
 _atom_site_occupancy
  Li  Li0  1  0.571906  0.571906  0.571906  1
  Nd  Nd1  1  0.936893  0.562918  0.562918  1
  Nd  Nd2  1  0.561424  0.938007  0.938007  1
  Nd  Nd3  1  0.562918  0.936893  0.562918  1
  Nd  Nd4  1  0.938007  0.561424  0.938007  1
  Nd  Nd5  1  0.562918  0.562918  0.936893  1
  Nd  Nd6  1  0.938007  0.938007  0.561424  1
  Dy  Dy7  1  0.349963  0.349963  0.349963  1
  Dy  Dy8  1  0.349658  0.349658  0.950767  1
  Dy  Dy9  1  0.349658  0.950767  0.349658  1
  Dy  Dy10  1  0.950767  0.349658  0.349658  1
  Dy  Dy11  1  0.811630  0.189945  0.189945  1
  Dy  Dy12  1  0.185455  0.813843  0.813843  1
  Dy  Dy13  1  0.189945  0.811630  0.189945  1
  Dy  Dy14  1  0.813843  0.185455  0.813843  1
  Dy  Dy15  1  0.189945  0.189945  0.811630  1
  Dy  Dy16  1  0.813843  0.813843  0.185455  1
  Cd  Cd17  1  0.581143  0.581143  0.259734  1
  Cd  Cd18  1  0.581143  0.259734  0.581143  1
  Cd  Cd19  1  0.259734  0.581143  0.581143  1
  Pt  Pt20  1  0.143214  0.143214  0.143214  1
  Pt  Pt21  1  0.143130  0.143130  0.571730  1
  Pt  Pt22  1  0.143130  0.571730  0.143130  1
  Pt  Pt23  1  0.571730  0.143130  0.143130  1
