# generated using pymatgen
data_Cs2KScAs2
_symmetry_space_group_name_H-M   'P 1'
_cell_length_a   9.76014283
_cell_length_b   9.76014357
_cell_length_c   9.76014215
_cell_angle_alpha   137.00620479
_cell_angle_beta   132.33404328
_cell_angle_gamma   66.11642926
_symmetry_Int_Tables_number   1
_chemical_formula_structural   Cs2KScAs2
_chemical_formula_sum   'Cs4 K2 Sc2 As4'
_cell_volume   461.53791024
_cell_formula_units_Z   2
loop_
 _symmetry_equiv_pos_site_id
 _symmetry_equiv_pos_as_xyz
  1  'x, y, z'
loop_
 _atom_site_type_symbol
 _atom_site_label
 _atom_site_symmetry_multiplicity
 _atom_site_fract_x
 _atom_site_fract_y
 _atom_site_fract_z
 _atom_site_occupancy
  Cs  Cs0  1  0.579630  0.316563  0.263065  1
  Cs  Cs1  1  0.420370  0.683437  0.736935  1
  Cs  Cs2  1  0.053499  0.816563  0.236935  1
  Cs  Cs3  1  0.946501  0.183437  0.763065  1
  K  K4  1  0.500000  0.250000  0.750000  1
  K  K5  1  0.500000  0.750000  0.250000  1
  Sc  Sc6  1  0.000000  0.250000  0.250000  1
  Sc  Sc7  1  0.000000  0.750000  0.750000  1
  As  As8  1  0.274408  0.087164  0.187243  1
  As  As9  1  0.725592  0.912836  0.812757  1
  As  As10  1  0.899922  0.587164  0.312757  1
  As  As11  1  0.100078  0.412836  0.687243  1
