# generated using pymatgen
data_KSm6OsI12
_symmetry_space_group_name_H-M   'P 1'
_cell_length_a   9.97838143
_cell_length_b   9.97838096
_cell_length_c   9.97837967
_cell_angle_alpha   105.51584203
_cell_angle_beta   105.51583601
_cell_angle_gamma   105.51583910
_symmetry_Int_Tables_number   1
_chemical_formula_structural   KSm6OsI12
_chemical_formula_sum   'K1 Sm6 Os1 I12'
_cell_volume   858.72051597
_cell_formula_units_Z   1
loop_
 _symmetry_equiv_pos_site_id
 _symmetry_equiv_pos_as_xyz
  1  'x, y, z'
loop_
 _atom_site_type_symbol
 _atom_site_label
 _atom_site_symmetry_multiplicity
 _atom_site_fract_x
 _atom_site_fract_y
 _atom_site_fract_z
 _atom_site_occupancy
  K  K0  1  0.500000  0.500000  0.500000  1
  Sm  Sm1  1  0.019928  0.093710  0.297147  1
  Sm  Sm2  1  0.297148  0.019927  0.093709  1
  Sm  Sm3  1  0.093709  0.297148  0.019927  1
  Sm  Sm4  1  0.980072  0.906290  0.702853  1
  Sm  Sm5  1  0.702852  0.980073  0.906291  1
  Sm  Sm6  1  0.906291  0.702852  0.980073  1
  Os  Os7  1  0.000000  0.000000  0.000000  1
  I  I8  1  0.565441  0.646095  0.880302  1
  I  I9  1  0.880303  0.565441  0.646094  1
  I  I10  1  0.646093  0.880303  0.565442  1
  I  I11  1  0.434559  0.353905  0.119698  1
  I  I12  1  0.119697  0.434559  0.353906  1
  I  I13  1  0.353907  0.119697  0.434558  1
  I  I14  1  0.076430  0.223570  0.679786  1
  I  I15  1  0.679787  0.076430  0.223570  1
  I  I16  1  0.223571  0.679786  0.076430  1
  I  I17  1  0.923570  0.776430  0.320214  1
  I  I18  1  0.320213  0.923570  0.776430  1
  I  I19  1  0.776429  0.320214  0.923570  1
