# generated using pymatgen
data_Tb2Ho2SiBr6
_symmetry_space_group_name_H-M   'P 1'
_cell_length_a   4.06512300
_cell_length_b   13.22860600
_cell_length_c   14.01311300
_cell_angle_alpha   90.00000000
_cell_angle_beta   90.00000000
_cell_angle_gamma   90.00000000
_symmetry_Int_Tables_number   1
_chemical_formula_structural   Tb2Ho2SiBr6
_chemical_formula_sum   'Tb4 Ho4 Si2 Br12'
_cell_volume   753.56791063
_cell_formula_units_Z   2
loop_
 _symmetry_equiv_pos_site_id
 _symmetry_equiv_pos_as_xyz
  1  'x, y, z'
loop_
 _atom_site_type_symbol
 _atom_site_label
 _atom_site_symmetry_multiplicity
 _atom_site_fract_x
 _atom_site_fract_y
 _atom_site_fract_z
 _atom_site_occupancy
  Tb  Tb0  1  0.000000  0.118536  0.578794  1
  Tb  Tb1  1  0.000000  0.881464  0.421206  1
  Tb  Tb2  1  0.000000  0.618536  0.921206  1
  Tb  Tb3  1  0.000000  0.381464  0.078794  1
  Ho  Ho4  1  0.500000  0.117660  0.341604  1
  Ho  Ho5  1  0.500000  0.882340  0.658396  1
  Ho  Ho6  1  0.500000  0.617660  0.158396  1
  Ho  Ho7  1  0.500000  0.382340  0.841604  1
  Si  Si8  1  0.500000  0.000000  0.500000  1
  Si  Si9  1  0.500000  0.500000  0.000000  1
  Br  Br10  1  0.500000  0.242260  0.164135  1
  Br  Br11  1  0.500000  0.757740  0.835865  1
  Br  Br12  1  0.500000  0.742260  0.335865  1
  Br  Br13  1  0.500000  0.257740  0.664135  1
  Br  Br14  1  0.000000  0.255001  0.409727  1
  Br  Br15  1  0.000000  0.744999  0.590273  1
  Br  Br16  1  0.000000  0.755001  0.090273  1
  Br  Br17  1  0.000000  0.244999  0.909727  1
  Br  Br18  1  0.000000  0.003490  0.242730  1
  Br  Br19  1  0.000000  0.996510  0.757270  1
  Br  Br20  1  0.000000  0.503490  0.257270  1
  Br  Br21  1  0.000000  0.496510  0.742730  1
