# generated using pymatgen
data_CeNd7(CdIr)2
_symmetry_space_group_name_H-M   'P 1'
_cell_length_a   9.93808994
_cell_length_b   9.93808987
_cell_length_c   10.00825800
_cell_angle_alpha   59.76616356
_cell_angle_beta   59.76616380
_cell_angle_gamma   59.70110586
_symmetry_Int_Tables_number   1
_chemical_formula_structural   CeNd7(CdIr)2
_chemical_formula_sum   'Ce2 Nd14 Cd4 Ir4'
_cell_volume   694.89885690
_cell_formula_units_Z   2
loop_
 _symmetry_equiv_pos_site_id
 _symmetry_equiv_pos_as_xyz
  1  'x, y, z'
loop_
 _atom_site_type_symbol
 _atom_site_label
 _atom_site_symmetry_multiplicity
 _atom_site_fract_x
 _atom_site_fract_y
 _atom_site_fract_z
 _atom_site_occupancy
  Ce  Ce0  1  0.343991  0.343991  0.345824  1
  Ce  Ce1  1  0.343991  0.343991  0.966194  1
  Nd  Nd2  1  0.349913  0.950944  0.349571  1
  Nd  Nd3  1  0.950944  0.349913  0.349571  1
  Nd  Nd4  1  0.810044  0.190009  0.191068  1
  Nd  Nd5  1  0.190009  0.810044  0.808879  1
  Nd  Nd6  1  0.190009  0.810044  0.191068  1
  Nd  Nd7  1  0.810044  0.190009  0.808879  1
  Nd  Nd8  1  0.190931  0.190931  0.809069  1
  Nd  Nd9  1  0.810005  0.810005  0.189995  1
  Nd  Nd10  1  0.941313  0.560153  0.562183  1
  Nd  Nd11  1  0.560153  0.941313  0.936352  1
  Nd  Nd12  1  0.560153  0.941313  0.562183  1
  Nd  Nd13  1  0.941313  0.560153  0.936352  1
  Nd  Nd14  1  0.559922  0.559922  0.940078  1
  Nd  Nd15  1  0.937830  0.937830  0.562170  1
  Cd  Cd16  1  0.578266  0.578266  0.582844  1
  Cd  Cd17  1  0.578266  0.578266  0.260626  1
  Cd  Cd18  1  0.577106  0.260065  0.581415  1
  Cd  Cd19  1  0.260065  0.577106  0.581415  1
  Ir  Ir20  1  0.147443  0.147443  0.135249  1
  Ir  Ir21  1  0.147443  0.147443  0.569865  1
  Ir  Ir22  1  0.152422  0.568425  0.139576  1
  Ir  Ir23  1  0.568425  0.152422  0.139576  1
