# generated using pymatgen
data_Sm7ZrGaPd24
_symmetry_space_group_name_H-M   'P 1'
_cell_length_a   8.41069093
_cell_length_b   8.41069093
_cell_length_c   8.41069093
_cell_angle_alpha   89.75003192
_cell_angle_beta   89.75003192
_cell_angle_gamma   89.75003192
_symmetry_Int_Tables_number   1
_chemical_formula_structural   Sm7ZrGaPd24
_chemical_formula_sum   'Sm7 Zr1 Ga1 Pd24'
_cell_volume   594.95300110
_cell_formula_units_Z   1
loop_
 _symmetry_equiv_pos_site_id
 _symmetry_equiv_pos_as_xyz
  1  'x, y, z'
loop_
 _atom_site_type_symbol
 _atom_site_label
 _atom_site_symmetry_multiplicity
 _atom_site_fract_x
 _atom_site_fract_y
 _atom_site_fract_z
 _atom_site_occupancy
  Sm  Sm0  1  0.747361  0.747361  0.747361  1
  Sm  Sm1  1  0.748097  0.748097  0.251631  1
  Sm  Sm2  1  0.748097  0.251631  0.748097  1
  Sm  Sm3  1  0.252367  0.252367  0.749442  1
  Sm  Sm4  1  0.252367  0.749442  0.252367  1
  Sm  Sm5  1  0.251631  0.748097  0.748097  1
  Sm  Sm6  1  0.749442  0.252367  0.252367  1
  Zr  Zr7  1  0.255192  0.255192  0.255192  1
  Ga  Ga8  1  0.997187  0.997187  0.997187  1
  Pd  Pd9  1  0.260177  0.495799  0.007299  1
  Pd  Pd10  1  0.739871  0.498117  0.000459  1
  Pd  Pd11  1  0.007299  0.260177  0.495799  1
  Pd  Pd12  1  0.495799  0.260177  0.007299  1
  Pd  Pd13  1  0.000459  0.739871  0.498117  1
  Pd  Pd14  1  0.498117  0.739871  0.000459  1
  Pd  Pd15  1  0.495799  0.007299  0.260177  1
  Pd  Pd16  1  0.260177  0.007299  0.495799  1
  Pd  Pd17  1  0.498117  0.000459  0.739871  1
  Pd  Pd18  1  0.739871  0.000459  0.498117  1
  Pd  Pd19  1  0.007299  0.495799  0.260177  1
  Pd  Pd20  1  0.000459  0.498117  0.739871  1
  Pd  Pd21  1  0.253394  0.495156  0.495156  1
  Pd  Pd22  1  0.747170  0.498926  0.498926  1
  Pd  Pd23  1  0.495156  0.253394  0.495156  1
  Pd  Pd24  1  0.498926  0.747170  0.498926  1
  Pd  Pd25  1  0.495156  0.495156  0.253394  1
  Pd  Pd26  1  0.498926  0.498926  0.747170  1
  Pd  Pd27  1  0.288811  0.005737  0.005737  1
  Pd  Pd28  1  0.705704  0.000049  0.000049  1
  Pd  Pd29  1  0.005737  0.288811  0.005737  1
  Pd  Pd30  1  0.000049  0.705704  0.000049  1
  Pd  Pd31  1  0.005737  0.005737  0.288811  1
  Pd  Pd32  1  0.000049  0.000049  0.705704  1
