# generated using pymatgen
data_SmTh7(PbAu2)4
_symmetry_space_group_name_H-M   'P 1'
_cell_length_a   8.17733000
_cell_length_b   8.17733076
_cell_length_c   7.86906500
_cell_angle_alpha   90.00000000
_cell_angle_beta   90.00000000
_cell_angle_gamma   90.43966525
_symmetry_Int_Tables_number   1
_chemical_formula_structural   SmTh7(PbAu2)4
_chemical_formula_sum   'Sm1 Th7 Pb4 Au8'
_cell_volume   526.17890730
_cell_formula_units_Z   1
loop_
 _symmetry_equiv_pos_site_id
 _symmetry_equiv_pos_as_xyz
  1  'x, y, z'
loop_
 _atom_site_type_symbol
 _atom_site_label
 _atom_site_symmetry_multiplicity
 _atom_site_fract_x
 _atom_site_fract_y
 _atom_site_fract_z
 _atom_site_occupancy
  Sm  Sm0  1  0.661985  0.661985  0.000000  1
  Th  Th1  1  0.836040  0.160724  0.500000  1
  Th  Th2  1  0.160724  0.836040  0.500000  1
  Th  Th3  1  0.337285  0.337285  0.000000  1
  Th  Th4  1  0.685751  0.685751  0.500000  1
  Th  Th5  1  0.317708  0.317708  0.500000  1
  Th  Th6  1  0.184400  0.816004  0.000000  1
  Th  Th7  1  0.816004  0.184400  0.000000  1
  Pb  Pb8  1  0.500419  0.998321  0.247891  1
  Pb  Pb9  1  0.998321  0.500419  0.752109  1
  Pb  Pb10  1  0.500419  0.998321  0.752109  1
  Pb  Pb11  1  0.998321  0.500419  0.247891  1
  Au  Au12  1  0.625190  0.376014  0.273087  1
  Au  Au13  1  0.376014  0.625190  0.273087  1
  Au  Au14  1  0.124814  0.124814  0.770324  1
  Au  Au15  1  0.875294  0.875294  0.776104  1
  Au  Au16  1  0.376014  0.625190  0.726913  1
  Au  Au17  1  0.625190  0.376014  0.726913  1
  Au  Au18  1  0.875294  0.875294  0.223896  1
  Au  Au19  1  0.124814  0.124814  0.229676  1
