# generated using pymatgen
data_LaYb3TmIr2
_symmetry_space_group_name_H-M   'P 1'
_cell_length_a   6.52595436
_cell_length_b   7.37181722
_cell_length_c   8.65484261
_cell_angle_alpha   97.12546879
_cell_angle_beta   112.14869999
_cell_angle_gamma   89.99999892
_symmetry_Int_Tables_number   1
_chemical_formula_structural   LaYb3TmIr2
_chemical_formula_sum   'La2 Yb6 Tm2 Ir4'
_cell_volume   382.16987086
_cell_formula_units_Z   2
loop_
 _symmetry_equiv_pos_site_id
 _symmetry_equiv_pos_as_xyz
  1  'x, y, z'
loop_
 _atom_site_type_symbol
 _atom_site_label
 _atom_site_symmetry_multiplicity
 _atom_site_fract_x
 _atom_site_fract_y
 _atom_site_fract_z
 _atom_site_occupancy
  La  La0  1  0.982042  0.920020  0.180698  1
  La  La1  1  0.801343  0.579980  0.819302  1
  Yb  Yb2  1  0.023643  0.079295  0.822417  1
  Yb  Yb3  1  0.201227  0.420705  0.177583  1
  Yb  Yb4  1  0.635193  0.818907  0.430406  1
  Yb  Yb5  1  0.204787  0.681093  0.569594  1
  Yb  Yb6  1  0.365898  0.184172  0.570245  1
  Yb  Yb7  1  0.795654  0.315828  0.429755  1
  Tm  Tm8  1  0.428073  0.750000  0.000000  1
  Tm  Tm9  1  0.561590  0.250000  0.000000  1
  Ir  Ir10  1  0.808075  0.578073  0.200759  1
  Ir  Ir11  1  0.607316  0.921927  0.799241  1
  Ir  Ir12  1  0.187704  0.426421  0.790248  1
  Ir  Ir13  1  0.397455  0.073579  0.209752  1
