# generated using pymatgen
data_Yb6Ho2Zn3Si12Pd
_symmetry_space_group_name_H-M   'P 1'
_cell_length_a   8.19034100
_cell_length_b   8.19034043
_cell_length_c   8.19378000
_cell_angle_alpha   90.00000000
_cell_angle_beta   90.00000000
_cell_angle_gamma   119.99999827
_symmetry_Int_Tables_number   1
_chemical_formula_structural   Yb6Ho2Zn3Si12Pd
_chemical_formula_sum   'Yb6 Ho2 Zn3 Si12 Pd1'
_cell_volume   476.01306794
_cell_formula_units_Z   1
loop_
 _symmetry_equiv_pos_site_id
 _symmetry_equiv_pos_as_xyz
  1  'x, y, z'
loop_
 _atom_site_type_symbol
 _atom_site_label
 _atom_site_symmetry_multiplicity
 _atom_site_fract_x
 _atom_site_fract_y
 _atom_site_fract_z
 _atom_site_occupancy
  Yb  Yb0  1  0.499455  0.998908  0.254039  1
  Yb  Yb1  1  0.497497  0.994996  0.745830  1
  Yb  Yb2  1  0.001092  0.500545  0.254039  1
  Yb  Yb3  1  0.005004  0.502503  0.745830  1
  Yb  Yb4  1  0.499455  0.500545  0.254039  1
  Yb  Yb5  1  0.497497  0.502503  0.745830  1
  Ho  Ho6  1  0.000000  0.000000  0.251280  1
  Ho  Ho7  1  0.000000  0.000000  0.748605  1
  Zn  Zn8  1  0.333333  0.666667  0.006394  1
  Zn  Zn9  1  0.666667  0.333333  0.994001  1
  Zn  Zn10  1  0.666667  0.333333  0.503172  1
  Si  Si11  1  0.164744  0.329485  0.998866  1
  Si  Si12  1  0.835964  0.671928  0.001093  1
  Si  Si13  1  0.670515  0.835256  0.998866  1
  Si  Si14  1  0.838555  0.677111  0.500907  1
  Si  Si15  1  0.328072  0.164036  0.001093  1
  Si  Si16  1  0.165851  0.331701  0.498841  1
  Si  Si17  1  0.164744  0.835256  0.998866  1
  Si  Si18  1  0.322889  0.161445  0.500907  1
  Si  Si19  1  0.835964  0.164036  0.001093  1
  Si  Si20  1  0.668299  0.834149  0.498841  1
  Si  Si21  1  0.838555  0.161445  0.500907  1
  Si  Si22  1  0.165851  0.834149  0.498841  1
  Pd  Pd23  1  0.333333  0.666667  0.497822  1
