# generated using pymatgen
data_Ce4CuRh3Pb2
_symmetry_space_group_name_H-M   'P 1'
_cell_length_a   7.78271470
_cell_length_b   7.78271467
_cell_length_c   3.73187600
_cell_angle_alpha   90.00000000
_cell_angle_beta   90.00000000
_cell_angle_gamma   89.61539728
_symmetry_Int_Tables_number   1
_chemical_formula_structural   Ce4CuRh3Pb2
_chemical_formula_sum   'Ce4 Cu1 Rh3 Pb2'
_cell_volume   226.03705455
_cell_formula_units_Z   1
loop_
 _symmetry_equiv_pos_site_id
 _symmetry_equiv_pos_as_xyz
  1  'x, y, z'
loop_
 _atom_site_type_symbol
 _atom_site_label
 _atom_site_symmetry_multiplicity
 _atom_site_fract_x
 _atom_site_fract_y
 _atom_site_fract_z
 _atom_site_occupancy
  Ce  Ce0  1  0.675640  0.175640  0.500000  1
  Ce  Ce1  1  0.337814  0.837814  0.500000  1
  Ce  Ce2  1  0.168602  0.317390  0.500000  1
  Ce  Ce3  1  0.817390  0.668602  0.500000  1
  Cu  Cu4  1  0.124549  0.624549  0.000000  1
  Rh  Rh5  1  0.880092  0.380092  0.000000  1
  Rh  Rh6  1  0.633663  0.867798  0.000000  1
  Rh  Rh7  1  0.367798  0.133663  0.000000  1
  Pb  Pb8  1  0.000142  0.994310  0.000000  1
  Pb  Pb9  1  0.494310  0.500142  0.000000  1
