# generated using pymatgen
data_Ho12Ni3BiOs2
_symmetry_space_group_name_H-M   'P 1'
_cell_length_a   8.33946084
_cell_length_b   8.33946167
_cell_length_c   8.33946047
_cell_angle_alpha   110.24267935
_cell_angle_beta   112.28848935
_cell_angle_gamma   105.94607288
_symmetry_Int_Tables_number   1
_chemical_formula_structural   Ho12Ni3BiOs2
_chemical_formula_sum   'Ho12 Ni3 Bi1 Os2'
_cell_volume   445.06058507
_cell_formula_units_Z   1
loop_
 _symmetry_equiv_pos_site_id
 _symmetry_equiv_pos_as_xyz
  1  'x, y, z'
loop_
 _atom_site_type_symbol
 _atom_site_label
 _atom_site_symmetry_multiplicity
 _atom_site_fract_x
 _atom_site_fract_y
 _atom_site_fract_z
 _atom_site_occupancy
  Ho  Ho0  1  0.272287  0.181668  0.453954  1
  Ho  Ho1  1  0.722996  0.825821  0.548817  1
  Ho  Ho2  1  0.277004  0.825821  0.102824  1
  Ho  Ho3  1  0.727713  0.181668  0.909382  1
  Ho  Ho4  1  0.632952  0.317841  0.309746  1
  Ho  Ho5  1  0.367048  0.676794  0.684889  1
  Ho  Ho6  1  0.008095  0.317841  0.684889  1
  Ho  Ho7  1  0.991905  0.676794  0.309746  1
  Ho  Ho8  1  0.224565  0.412870  0.188306  1
  Ho  Ho9  1  0.781476  0.588723  0.807246  1
  Ho  Ho10  1  0.218524  0.025770  0.807246  1
  Ho  Ho11  1  0.775435  0.963741  0.188306  1
  Ni  Ni12  1  0.000000  0.650658  0.650658  1
  Ni  Ni13  1  0.384210  0.886603  0.502392  1
  Ni  Ni14  1  0.615790  0.118183  0.502392  1
  Bi  Bi15  1  0.500000  0.498666  0.998666  1
  Os  Os16  1  0.000000  0.351044  0.351044  1
  Os  Os17  1  0.000000  0.999497  0.999497  1
