# generated using pymatgen
data_CeThSi2PtRh3
_symmetry_space_group_name_H-M   'P 1'
_cell_length_a   9.46971081
_cell_length_b   9.46971114
_cell_length_c   4.06836600
_cell_angle_alpha   90.00000000
_cell_angle_beta   90.00000000
_cell_angle_gamma   155.58503733
_symmetry_Int_Tables_number   1
_chemical_formula_structural   CeThSi2PtRh3
_chemical_formula_sum   'Ce1 Th1 Si2 Pt1 Rh3'
_cell_volume   150.80066322
_cell_formula_units_Z   1
loop_
 _symmetry_equiv_pos_site_id
 _symmetry_equiv_pos_as_xyz
  1  'x, y, z'
loop_
 _atom_site_type_symbol
 _atom_site_label
 _atom_site_symmetry_multiplicity
 _atom_site_fract_x
 _atom_site_fract_y
 _atom_site_fract_z
 _atom_site_occupancy
  Ce  Ce0  1  0.895998  0.104002  0.250000  1
  Th  Th1  1  0.102156  0.897844  0.750000  1
  Si  Si2  1  0.319296  0.680704  0.750000  1
  Si  Si3  1  0.680205  0.319795  0.250000  1
  Pt  Pt4  1  0.450102  0.549898  0.750000  1
  Rh  Rh5  1  0.551571  0.448429  0.250000  1
  Rh  Rh6  1  0.250548  0.749452  0.250000  1
  Rh  Rh7  1  0.750125  0.249875  0.750000  1
