# generated using pymatgen
data_Ta12Zn3Cu9N2
_symmetry_space_group_name_H-M   'P 1'
_cell_length_a   8.04383504
_cell_length_b   8.04410161
_cell_length_c   8.04410200
_cell_angle_alpha   60.00000664
_cell_angle_beta   59.99891037
_cell_angle_gamma   59.99891566
_symmetry_Int_Tables_number   1
_chemical_formula_structural   Ta12Zn3Cu9N2
_chemical_formula_sum   'Ta12 Zn3 Cu9 N2'
_cell_volume   368.04096521
_cell_formula_units_Z   1
loop_
 _symmetry_equiv_pos_site_id
 _symmetry_equiv_pos_as_xyz
  1  'x, y, z'
loop_
 _atom_site_type_symbol
 _atom_site_label
 _atom_site_symmetry_multiplicity
 _atom_site_fract_x
 _atom_site_fract_y
 _atom_site_fract_z
 _atom_site_occupancy
  Ta  Ta0  1  0.191533  0.807768  0.192931  1
  Ta  Ta1  1  0.441431  0.058453  0.441663  1
  Ta  Ta2  1  0.441431  0.058453  0.058453  1
  Ta  Ta3  1  0.441431  0.441663  0.058453  1
  Ta  Ta4  1  0.191533  0.807768  0.807768  1
  Ta  Ta5  1  0.058467  0.442232  0.057069  1
  Ta  Ta6  1  0.808569  0.808337  0.191547  1
  Ta  Ta7  1  0.058467  0.442232  0.442232  1
  Ta  Ta8  1  0.191533  0.192931  0.807768  1
  Ta  Ta9  1  0.808569  0.191547  0.191547  1
  Ta  Ta10  1  0.808569  0.191547  0.808337  1
  Ta  Ta11  1  0.058467  0.057069  0.442232  1
  Zn  Zn12  1  0.625000  0.125000  0.625000  1
  Zn  Zn13  1  0.625000  0.625000  0.125000  1
  Zn  Zn14  1  0.625000  0.625000  0.625000  1
  Cu  Cu15  1  0.834121  0.502308  0.831787  1
  Cu  Cu16  1  0.415879  0.418213  0.747692  1
  Cu  Cu17  1  0.748776  0.417074  0.417074  1
  Cu  Cu18  1  0.415879  0.418213  0.418213  1
  Cu  Cu19  1  0.834121  0.831787  0.502308  1
  Cu  Cu20  1  0.415879  0.747692  0.418213  1
  Cu  Cu21  1  0.834121  0.831787  0.831787  1
  Cu  Cu22  1  0.501224  0.832926  0.832926  1
  Cu  Cu23  1  0.125000  0.625000  0.625000  1
  N  N24  1  0.000344  0.999885  0.999885  1
  N  N25  1  0.249656  0.250115  0.250115  1
