# generated using pymatgen
data_Dy4Th6Bi5PbC2
_symmetry_space_group_name_H-M   'P 1'
_cell_length_a   9.29904600
_cell_length_b   9.29904698
_cell_length_c   6.46001900
_cell_angle_alpha   90.00000000
_cell_angle_beta   90.00000000
_cell_angle_gamma   119.83393699
_symmetry_Int_Tables_number   1
_chemical_formula_structural   Dy4Th6Bi5PbC2
_chemical_formula_sum   'Dy4 Th6 Bi5 Pb1 C2'
_cell_volume   484.58009067
_cell_formula_units_Z   1
loop_
 _symmetry_equiv_pos_site_id
 _symmetry_equiv_pos_as_xyz
  1  'x, y, z'
loop_
 _atom_site_type_symbol
 _atom_site_label
 _atom_site_symmetry_multiplicity
 _atom_site_fract_x
 _atom_site_fract_y
 _atom_site_fract_z
 _atom_site_occupancy
  Dy  Dy0  1  0.666195  0.333567  0.999212  1
  Dy  Dy1  1  0.333567  0.666195  0.999212  1
  Dy  Dy2  1  0.333567  0.666195  0.500788  1
  Dy  Dy3  1  0.666195  0.333567  0.500788  1
  Th  Th4  1  0.778246  0.778246  0.750000  1
  Th  Th5  1  0.221254  0.001176  0.750000  1
  Th  Th6  1  0.001176  0.221254  0.750000  1
  Th  Th7  1  0.221426  0.221426  0.250000  1
  Th  Th8  1  0.779079  0.999727  0.250000  1
  Th  Th9  1  0.999727  0.779079  0.250000  1
  Bi  Bi10  1  0.593867  0.999937  0.750000  1
  Bi  Bi11  1  0.999937  0.593867  0.750000  1
  Bi  Bi12  1  0.592884  0.592884  0.250000  1
  Bi  Bi13  1  0.406392  0.000295  0.250000  1
  Bi  Bi14  1  0.000295  0.406392  0.250000  1
  Pb  Pb15  1  0.407033  0.407033  0.750000  1
  C  C16  1  0.999578  0.999578  0.000308  1
  C  C17  1  0.999578  0.999578  0.499692  1
