# generated using pymatgen
data_Tm2Lu2Hf3O12
_symmetry_space_group_name_H-M   'P 1'
_cell_length_a   6.28508992
_cell_length_b   6.31915775
_cell_length_c   6.51384800
_cell_angle_alpha   99.91321630
_cell_angle_beta   98.46716501
_cell_angle_gamma   99.61358091
_symmetry_Int_Tables_number   1
_chemical_formula_structural   Tm2Lu2Hf3O12
_chemical_formula_sum   'Tm2 Lu2 Hf3 O12'
_cell_volume   247.10594453
_cell_formula_units_Z   1
loop_
 _symmetry_equiv_pos_site_id
 _symmetry_equiv_pos_as_xyz
  1  'x, y, z'
loop_
 _atom_site_type_symbol
 _atom_site_label
 _atom_site_symmetry_multiplicity
 _atom_site_fract_x
 _atom_site_fract_y
 _atom_site_fract_z
 _atom_site_occupancy
  Tm  Tm0  1  0.612682  0.300613  0.133718  1
  Tm  Tm1  1  0.305491  0.134726  0.611235  1
  Lu  Lu2  1  0.387657  0.700118  0.866790  1
  Lu  Lu3  1  0.693268  0.864855  0.388921  1
  Hf  Hf4  1  0.999281  0.999191  0.999737  1
  Hf  Hf5  1  0.848687  0.397116  0.668590  1
  Hf  Hf6  1  0.151848  0.603725  0.331407  1
  O  O7  1  0.027053  0.678398  0.881844  1
  O  O8  1  0.683925  0.929787  0.059946  1
  O  O9  1  0.917978  0.083917  0.693942  1
  O  O10  1  0.974775  0.321790  0.117803  1
  O  O11  1  0.314980  0.067842  0.940493  1
  O  O12  1  0.080934  0.915261  0.305087  1
  O  O13  1  0.588625  0.186633  0.432529  1
  O  O14  1  0.172109  0.428370  0.574578  1
  O  O15  1  0.414123  0.584789  0.178563  1
  O  O16  1  0.413736  0.810862  0.568416  1
  O  O17  1  0.827219  0.574025  0.425985  1
  O  O18  1  0.585629  0.417979  0.820413  1
