# generated using pymatgen
data_CuAg3F6
_symmetry_space_group_name_H-M   'P 1'
_cell_length_a   5.77535812
_cell_length_b   5.95599200
_cell_length_c   8.26747645
_cell_angle_alpha   90.00000000
_cell_angle_beta   89.55736566
_cell_angle_gamma   90.00000000
_symmetry_Int_Tables_number   1
_chemical_formula_structural   CuAg3F6
_chemical_formula_sum   'Cu2 Ag6 F12'
_cell_volume   284.37605945
_cell_formula_units_Z   2
loop_
 _symmetry_equiv_pos_site_id
 _symmetry_equiv_pos_as_xyz
  1  'x, y, z'
loop_
 _atom_site_type_symbol
 _atom_site_label
 _atom_site_symmetry_multiplicity
 _atom_site_fract_x
 _atom_site_fract_y
 _atom_site_fract_z
 _atom_site_occupancy
  Cu  Cu0  1  0.000000  0.000000  0.000000  1
  Cu  Cu1  1  0.500000  0.500000  0.500000  1
  Ag  Ag2  1  0.000000  0.000000  0.500000  1
  Ag  Ag3  1  0.500000  0.500000  0.000000  1
  Ag  Ag4  1  0.018263  0.442952  0.253629  1
  Ag  Ag5  1  0.981737  0.557048  0.746371  1
  Ag  Ag6  1  0.481737  0.942952  0.246371  1
  Ag  Ag7  1  0.518263  0.057048  0.753629  1
  F  F8  1  0.162020  0.724884  0.069671  1
  F  F9  1  0.837980  0.275116  0.930329  1
  F  F10  1  0.337980  0.224884  0.430329  1
  F  F11  1  0.662020  0.775116  0.569671  1
  F  F12  1  0.886800  0.053622  0.222643  1
  F  F13  1  0.113200  0.946378  0.777357  1
  F  F14  1  0.613200  0.553622  0.277357  1
  F  F15  1  0.386800  0.446378  0.722643  1
  F  F16  1  0.280791  0.175028  0.051403  1
  F  F17  1  0.719209  0.824972  0.948597  1
  F  F18  1  0.219209  0.675028  0.448597  1
  F  F19  1  0.780791  0.324972  0.551403  1
