# generated using pymatgen
data_DyEr4In4IrPt
_symmetry_space_group_name_H-M   'P 1'
_cell_length_a   3.60251300
_cell_length_b   8.10664181
_cell_length_c   18.17127654
_cell_angle_alpha   89.97919205
_cell_angle_beta   90.00000000
_cell_angle_gamma   90.00000000
_symmetry_Int_Tables_number   1
_chemical_formula_structural   DyEr4In4IrPt
_chemical_formula_sum   'Dy2 Er8 In8 Ir2 Pt2'
_cell_volume   530.67905827
_cell_formula_units_Z   2
loop_
 _symmetry_equiv_pos_site_id
 _symmetry_equiv_pos_as_xyz
  1  'x, y, z'
loop_
 _atom_site_type_symbol
 _atom_site_label
 _atom_site_symmetry_multiplicity
 _atom_site_fract_x
 _atom_site_fract_y
 _atom_site_fract_z
 _atom_site_occupancy
  Dy  Dy0  1  0.000000  0.000000  0.000000  1
  Dy  Dy1  1  0.000000  0.500000  0.500000  1
  Er  Er2  1  0.000000  0.114986  0.412169  1
  Er  Er3  1  0.000000  0.885014  0.587831  1
  Er  Er4  1  0.000000  0.383102  0.913015  1
  Er  Er5  1  0.000000  0.616898  0.086985  1
  Er  Er6  1  0.000000  0.234352  0.222301  1
  Er  Er7  1  0.000000  0.765648  0.777699  1
  Er  Er8  1  0.000000  0.249373  0.720642  1
  Er  Er9  1  0.000000  0.750627  0.279358  1
  In  In10  1  0.500000  0.422990  0.350998  1
  In  In11  1  0.500000  0.577010  0.649002  1
  In  In12  1  0.500000  0.073315  0.850907  1
  In  In13  1  0.500000  0.926685  0.149093  1
  In  In14  1  0.500000  0.294424  0.066206  1
  In  In15  1  0.500000  0.705576  0.933794  1
  In  In16  1  0.500000  0.206166  0.567694  1
  In  In17  1  0.500000  0.793834  0.432306  1
  Ir  Ir18  1  0.500000  0.019994  0.304137  1
  Ir  Ir19  1  0.500000  0.980006  0.695863  1
  Pt  Pt20  1  0.500000  0.479520  0.802821  1
  Pt  Pt21  1  0.500000  0.520480  0.197179  1
