# generated using pymatgen
data_Ho9Er(In2Bi)2
_symmetry_space_group_name_H-M   'P 1'
_cell_length_a   9.01374454
_cell_length_b   9.00797462
_cell_length_c   6.58341700
_cell_angle_alpha   89.99966623
_cell_angle_beta   90.00281446
_cell_angle_gamma   119.96671518
_symmetry_Int_Tables_number   1
_chemical_formula_structural   Ho9Er(In2Bi)2
_chemical_formula_sum   'Ho9 Er1 In4 Bi2'
_cell_volume   463.08419639
_cell_formula_units_Z   1
loop_
 _symmetry_equiv_pos_site_id
 _symmetry_equiv_pos_as_xyz
  1  'x, y, z'
loop_
 _atom_site_type_symbol
 _atom_site_label
 _atom_site_symmetry_multiplicity
 _atom_site_fract_x
 _atom_site_fract_y
 _atom_site_fract_z
 _atom_site_occupancy
  Ho  Ho0  1  0.670816  0.338123  0.006462  1
  Ho  Ho1  1  0.329163  0.667305  0.006496  1
  Ho  Ho2  1  0.329210  0.667308  0.493548  1
  Ho  Ho3  1  0.769797  0.760976  0.749965  1
  Ho  Ho4  1  0.230240  0.991271  0.749968  1
  Ho  Ho5  1  0.999954  0.241610  0.749945  1
  Ho  Ho6  1  0.237022  0.237407  0.250045  1
  Ho  Ho7  1  0.763041  0.000537  0.250029  1
  Ho  Ho8  1  0.999939  0.761476  0.250039  1
  Er  Er9  1  0.670848  0.338150  0.493492  1
  In  In10  1  0.999850  0.597460  0.749881  1
  In  In11  1  0.604797  0.606583  0.250120  1
  In  In12  1  0.395339  0.002031  0.250096  1
  In  In13  1  0.999871  0.396041  0.250120  1
  Bi  Bi14  1  0.395222  0.394327  0.749892  1
  Bi  Bi15  1  0.604891  0.999393  0.749902  1
