# generated using pymatgen
data_Nd5Cu6Pt13
_symmetry_space_group_name_H-M   'P 1'
_cell_length_a   5.45848435
_cell_length_b   5.45848518
_cell_length_c   17.15115659
_cell_angle_alpha   80.84367666
_cell_angle_beta   80.84367677
_cell_angle_gamma   59.99999310
_symmetry_Int_Tables_number   1
_chemical_formula_structural   Nd5Cu6Pt13
_chemical_formula_sum   'Nd5 Cu6 Pt13'
_cell_volume   435.02092592
_cell_formula_units_Z   1
loop_
 _symmetry_equiv_pos_site_id
 _symmetry_equiv_pos_as_xyz
  1  'x, y, z'
loop_
 _atom_site_type_symbol
 _atom_site_label
 _atom_site_symmetry_multiplicity
 _atom_site_fract_x
 _atom_site_fract_y
 _atom_site_fract_z
 _atom_site_occupancy
  Nd  Nd0  1  0.000000  0.000000  0.000000  1
  Nd  Nd1  1  0.076580  0.076580  0.770260  1
  Nd  Nd2  1  0.923420  0.923420  0.229740  1
  Nd  Nd3  1  0.151571  0.151571  0.545287  1
  Nd  Nd4  1  0.848429  0.848429  0.454713  1
  Cu  Cu5  1  0.251607  0.251607  0.245178  1
  Cu  Cu6  1  0.748393  0.748393  0.754822  1
  Cu  Cu7  1  0.333353  0.333353  0.999940  1
  Cu  Cu8  1  0.666647  0.666647  0.000060  1
  Cu  Cu9  1  0.415045  0.415045  0.754865  1
  Cu  Cu10  1  0.584955  0.584955  0.245135  1
  Pt  Pt11  1  0.500000  0.500000  0.500000  1
  Pt  Pt12  1  0.119766  0.624020  0.632194  1
  Pt  Pt13  1  0.624020  0.624020  0.632194  1
  Pt  Pt14  1  0.624020  0.119766  0.632194  1
  Pt  Pt15  1  0.880234  0.375980  0.367806  1
  Pt  Pt16  1  0.375980  0.375980  0.367806  1
  Pt  Pt17  1  0.375980  0.880234  0.367806  1
  Pt  Pt18  1  0.040590  0.540832  0.877745  1
  Pt  Pt19  1  0.540832  0.540832  0.877745  1
  Pt  Pt20  1  0.540832  0.040590  0.877745  1
  Pt  Pt21  1  0.959410  0.459168  0.122255  1
  Pt  Pt22  1  0.459168  0.459168  0.122255  1
  Pt  Pt23  1  0.459168  0.959410  0.122255  1
