# generated using pymatgen
data_La11Hg9Rh4
_symmetry_space_group_name_H-M   'P 1'
_cell_length_a   13.61154957
_cell_length_b   13.61154978
_cell_length_c   3.88797300
_cell_angle_alpha   90.00000000
_cell_angle_beta   90.00000000
_cell_angle_gamma   113.47421238
_symmetry_Int_Tables_number   1
_chemical_formula_structural   La11Hg9Rh4
_chemical_formula_sum   'La11 Hg9 Rh4'
_cell_volume   660.72556456
_cell_formula_units_Z   1
loop_
 _symmetry_equiv_pos_site_id
 _symmetry_equiv_pos_as_xyz
  1  'x, y, z'
loop_
 _atom_site_type_symbol
 _atom_site_label
 _atom_site_symmetry_multiplicity
 _atom_site_fract_x
 _atom_site_fract_y
 _atom_site_fract_z
 _atom_site_occupancy
  La  La0  1  0.309877  0.309877  0.000000  1
  La  La1  1  0.690123  0.690123  0.000000  1
  La  La2  1  0.000000  0.000000  0.000000  1
  La  La3  1  0.082524  0.418388  0.000000  1
  La  La4  1  0.917476  0.581612  0.000000  1
  La  La5  1  0.418388  0.082524  0.000000  1
  La  La6  1  0.581612  0.917476  0.000000  1
  La  La7  1  0.834055  0.165945  0.000000  1
  La  La8  1  0.165945  0.834055  0.000000  1
  La  La9  1  0.625925  0.374075  0.000000  1
  La  La10  1  0.374075  0.625925  0.000000  1
  Hg  Hg11  1  0.841543  0.366478  0.500000  1
  Hg  Hg12  1  0.158457  0.633522  0.500000  1
  Hg  Hg13  1  0.366478  0.841543  0.500000  1
  Hg  Hg14  1  0.633522  0.158457  0.500000  1
  Hg  Hg15  1  0.071731  0.215244  0.500000  1
  Hg  Hg16  1  0.928269  0.784756  0.500000  1
  Hg  Hg17  1  0.215244  0.071731  0.500000  1
  Hg  Hg18  1  0.784756  0.928269  0.500000  1
  Hg  Hg19  1  0.500000  0.500000  0.500000  1
  Rh  Rh20  1  0.246974  0.448221  0.500000  1
  Rh  Rh21  1  0.753026  0.551779  0.500000  1
  Rh  Rh22  1  0.448221  0.246974  0.500000  1
  Rh  Rh23  1  0.551779  0.753026  0.500000  1
