# generated using pymatgen
data_Er6Zn16Cu7C
_symmetry_space_group_name_H-M   'P 1'
_cell_length_a   8.78405544
_cell_length_b   8.78405364
_cell_length_c   8.78405400
_cell_angle_alpha   59.99999113
_cell_angle_beta   59.99999790
_cell_angle_gamma   59.99999401
_symmetry_Int_Tables_number   1
_chemical_formula_structural   Er6Zn16Cu7C
_chemical_formula_sum   'Er6 Zn16 Cu7 C1'
_cell_volume   479.25868418
_cell_formula_units_Z   1
loop_
 _symmetry_equiv_pos_site_id
 _symmetry_equiv_pos_as_xyz
  1  'x, y, z'
loop_
 _atom_site_type_symbol
 _atom_site_label
 _atom_site_symmetry_multiplicity
 _atom_site_fract_x
 _atom_site_fract_y
 _atom_site_fract_z
 _atom_site_occupancy
  Er  Er0  1  0.696959  0.303041  0.303041  1
  Er  Er1  1  0.303041  0.696959  0.696959  1
  Er  Er2  1  0.303041  0.696959  0.303041  1
  Er  Er3  1  0.696959  0.303041  0.696959  1
  Er  Er4  1  0.303041  0.303041  0.696959  1
  Er  Er5  1  0.696959  0.696959  0.303041  1
  Zn  Zn6  1  0.119225  0.119225  0.119225  1
  Zn  Zn7  1  0.880775  0.880775  0.880775  1
  Zn  Zn8  1  0.119225  0.119225  0.642327  1
  Zn  Zn9  1  0.119225  0.642327  0.119225  1
  Zn  Zn10  1  0.880775  0.880775  0.357673  1
  Zn  Zn11  1  0.880775  0.357673  0.880775  1
  Zn  Zn12  1  0.642327  0.119225  0.119225  1
  Zn  Zn13  1  0.357673  0.880775  0.880775  1
  Zn  Zn14  1  0.327942  0.327942  0.327942  1
  Zn  Zn15  1  0.672058  0.672058  0.672058  1
  Zn  Zn16  1  0.327942  0.327942  0.016175  1
  Zn  Zn17  1  0.327942  0.016175  0.327942  1
  Zn  Zn18  1  0.672058  0.672058  0.983825  1
  Zn  Zn19  1  0.672058  0.983825  0.672058  1
  Zn  Zn20  1  0.016175  0.327942  0.327942  1
  Zn  Zn21  1  0.983825  0.672058  0.672058  1
  Cu  Cu22  1  0.500000  0.000000  0.000000  1
  Cu  Cu23  1  0.000000  0.500000  0.500000  1
  Cu  Cu24  1  0.000000  0.500000  0.000000  1
  Cu  Cu25  1  0.500000  0.000000  0.500000  1
  Cu  Cu26  1  0.000000  0.000000  0.500000  1
  Cu  Cu27  1  0.500000  0.500000  0.000000  1
  Cu  Cu28  1  0.000000  0.000000  0.000000  1
  C  C29  1  0.500000  0.500000  0.500000  1
