# generated using pymatgen
data_Cs3K(PuSe3)2
_symmetry_space_group_name_H-M   'P 1'
_cell_length_a   7.67854986
_cell_length_b   7.67855059
_cell_length_c   8.76925100
_cell_angle_alpha   81.68466472
_cell_angle_beta   81.68465638
_cell_angle_gamma   119.95674820
_symmetry_Int_Tables_number   1
_chemical_formula_structural   Cs3K(PuSe3)2
_chemical_formula_sum   'Cs3 K1 Pu2 Se6'
_cell_volume   428.83938856
_cell_formula_units_Z   1
loop_
 _symmetry_equiv_pos_site_id
 _symmetry_equiv_pos_as_xyz
  1  'x, y, z'
loop_
 _atom_site_type_symbol
 _atom_site_label
 _atom_site_symmetry_multiplicity
 _atom_site_fract_x
 _atom_site_fract_y
 _atom_site_fract_z
 _atom_site_occupancy
  Cs  Cs0  1  0.652994  0.347006  0.500000  1
  Cs  Cs1  1  0.347006  0.652994  0.500000  1
  Cs  Cs2  1  0.000000  0.000000  0.500000  1
  K  K3  1  0.500000  0.500000  0.000000  1
  Pu  Pu4  1  0.832344  0.167656  0.000000  1
  Pu  Pu5  1  0.167656  0.832344  0.000000  1
  Se  Se6  1  0.815805  0.815805  0.182691  1
  Se  Se7  1  0.184195  0.184195  0.817309  1
  Se  Se8  1  0.436639  0.056997  0.188971  1
  Se  Se9  1  0.563361  0.943003  0.811029  1
  Se  Se10  1  0.943003  0.563361  0.811029  1
  Se  Se11  1  0.056997  0.436639  0.188971  1
