# generated using pymatgen
data_Zn5SiPd10
_symmetry_space_group_name_H-M   'P 1'
_cell_length_a   4.10777800
_cell_length_b   5.44487578
_cell_length_c   10.52597508
_cell_angle_alpha   90.03993131
_cell_angle_beta   90.00000000
_cell_angle_gamma   90.00000000
_symmetry_Int_Tables_number   1
_chemical_formula_structural   Zn5SiPd10
_chemical_formula_sum   'Zn5 Si1 Pd10'
_cell_volume   235.42749023
_cell_formula_units_Z   1
loop_
 _symmetry_equiv_pos_site_id
 _symmetry_equiv_pos_as_xyz
  1  'x, y, z'
loop_
 _atom_site_type_symbol
 _atom_site_label
 _atom_site_symmetry_multiplicity
 _atom_site_fract_x
 _atom_site_fract_y
 _atom_site_fract_z
 _atom_site_occupancy
  Zn  Zn0  1  0.000000  0.000000  0.000000  1
  Zn  Zn1  1  0.500000  0.147975  0.357778  1
  Zn  Zn2  1  0.500000  0.852025  0.642222  1
  Zn  Zn3  1  0.500000  0.667127  0.136895  1
  Zn  Zn4  1  0.500000  0.332873  0.863105  1
  Si  Si5  1  0.000000  0.500000  0.500000  1
  Pd  Pd6  1  0.500000  0.186313  0.111805  1
  Pd  Pd7  1  0.500000  0.813687  0.888195  1
  Pd  Pd8  1  0.500000  0.672668  0.399362  1
  Pd  Pd9  1  0.500000  0.327332  0.600638  1
  Pd  Pd10  1  0.000000  0.000000  0.500000  1
  Pd  Pd11  1  0.000000  0.500000  0.000000  1
  Pd  Pd12  1  0.000000  0.896848  0.237587  1
  Pd  Pd13  1  0.000000  0.103152  0.762413  1
  Pd  Pd14  1  0.000000  0.401382  0.274095  1
  Pd  Pd15  1  0.000000  0.598618  0.725905  1
