# generated using pymatgen
data_CaYbHo2Al14(Si2Ir3)2
_symmetry_space_group_name_H-M   'P 1'
_cell_length_a   7.50126570
_cell_length_b   7.47719242
_cell_length_c   9.43051810
_cell_angle_alpha   89.97075794
_cell_angle_beta   90.03214868
_cell_angle_gamma   119.85458653
_symmetry_Int_Tables_number   1
_chemical_formula_structural   CaYbHo2Al14(Si2Ir3)2
_chemical_formula_sum   'Ca1 Yb1 Ho2 Al14 Si4 Ir6'
_cell_volume   458.74749748
_cell_formula_units_Z   1
loop_
 _symmetry_equiv_pos_site_id
 _symmetry_equiv_pos_as_xyz
  1  'x, y, z'
loop_
 _atom_site_type_symbol
 _atom_site_label
 _atom_site_symmetry_multiplicity
 _atom_site_fract_x
 _atom_site_fract_y
 _atom_site_fract_z
 _atom_site_occupancy
  Ca  Ca0  1  0.669762  0.000754  0.249991  1
  Yb  Yb1  1  0.319714  0.990936  0.745324  1
  Ho  Ho2  1  0.001038  0.669167  0.249933  1
  Ho  Ho3  1  0.005225  0.341528  0.754566  1
  Al  Al4  1  0.130945  0.126545  0.250109  1
  Al  Al5  1  0.871924  0.872121  0.750041  1
  Al  Al6  1  0.000431  0.328064  0.427823  1
  Al  Al7  1  0.668690  0.000121  0.576447  1
  Al  Al8  1  0.662365  0.997708  0.923386  1
  Al  Al9  1  0.340417  0.004729  0.070751  1
  Al  Al10  1  0.332830  0.333546  0.558470  1
  Al  Al11  1  0.663555  0.668210  0.441254  1
  Al  Al12  1  0.662976  0.668128  0.058594  1
  Al  Al13  1  0.336625  0.332212  0.941701  1
  Al  Al14  1  0.337150  0.546626  0.250364  1
  Al  Al15  1  0.660244  0.450835  0.751177  1
  Al  Al16  1  0.549384  0.345173  0.249675  1
  Al  Al17  1  0.454795  0.659085  0.748970  1
  Si  Si18  1  0.001102  0.327211  0.076632  1
  Si  Si19  1  0.997744  0.672298  0.930914  1
  Si  Si20  1  0.991863  0.659932  0.569047  1
  Si  Si21  1  0.340741  0.007093  0.424571  1
  Ir  Ir22  1  0.689996  0.339274  0.001992  1
  Ir  Ir23  1  0.309851  0.661016  0.998186  1
  Ir  Ir24  1  0.317763  0.676988  0.499924  1
  Ir  Ir25  1  0.673367  0.330378  0.500170  1
  Ir  Ir26  1  0.001453  0.999530  0.000325  1
  Ir  Ir27  1  0.008052  0.990791  0.499662  1
