# generated using pymatgen
data_TbYPa(InRh)3
_symmetry_space_group_name_H-M   'P 1'
_cell_length_a   7.59085786
_cell_length_b   7.86860614
_cell_length_c   3.80908000
_cell_angle_alpha   90.00000000
_cell_angle_beta   90.00000000
_cell_angle_gamma   121.20742854
_symmetry_Int_Tables_number   1
_chemical_formula_structural   TbYPa(InRh)3
_chemical_formula_sum   'Tb1 Y1 Pa1 In3 Rh3'
_cell_volume   194.59234641
_cell_formula_units_Z   1
loop_
 _symmetry_equiv_pos_site_id
 _symmetry_equiv_pos_as_xyz
  1  'x, y, z'
loop_
 _atom_site_type_symbol
 _atom_site_label
 _atom_site_symmetry_multiplicity
 _atom_site_fract_x
 _atom_site_fract_y
 _atom_site_fract_z
 _atom_site_occupancy
  Tb  Tb0  1  0.403778  0.405001  0.500000  1
  Y  Y1  1  0.596438  0.001412  0.500000  1
  Pa  Pa2  1  0.999935  0.582609  0.500000  1
  In  In3  1  0.999485  0.242081  0.000000  1
  In  In4  1  0.270714  0.011454  0.000000  1
  In  In5  1  0.729903  0.741705  0.000000  1
  Rh  Rh6  1  0.293205  0.660754  0.000000  1
  Rh  Rh7  1  0.000445  0.986869  0.500000  1
  Rh  Rh8  1  0.706096  0.368118  0.000000  1
