# generated using pymatgen
data_LaHo5(Ir7Rh2)2
_symmetry_space_group_name_H-M   'P 1'
_cell_length_a   5.31652700
_cell_length_b   5.31652587
_cell_length_c   17.47519900
_cell_angle_alpha   90.00000000
_cell_angle_beta   90.00000000
_cell_angle_gamma   119.99998838
_symmetry_Int_Tables_number   1
_chemical_formula_structural   LaHo5(Ir7Rh2)2
_chemical_formula_sum   'La1 Ho5 Ir14 Rh4'
_cell_volume   427.76846723
_cell_formula_units_Z   1
loop_
 _symmetry_equiv_pos_site_id
 _symmetry_equiv_pos_as_xyz
  1  'x, y, z'
loop_
 _atom_site_type_symbol
 _atom_site_label
 _atom_site_symmetry_multiplicity
 _atom_site_fract_x
 _atom_site_fract_y
 _atom_site_fract_z
 _atom_site_occupancy
  La  La0  1  0.666667  0.333333  0.250000  1
  Ho  Ho1  1  0.333333  0.666667  0.541571  1
  Ho  Ho2  1  0.666667  0.333333  0.039621  1
  Ho  Ho3  1  0.666667  0.333333  0.460379  1
  Ho  Ho4  1  0.333333  0.666667  0.958429  1
  Ho  Ho5  1  0.333333  0.666667  0.750000  1
  Ir  Ir6  1  0.167625  0.335252  0.123850  1
  Ir  Ir7  1  0.832589  0.665178  0.625834  1
  Ir  Ir8  1  0.664748  0.832375  0.123850  1
  Ir  Ir9  1  0.167625  0.832375  0.123850  1
  Ir  Ir10  1  0.832589  0.167411  0.625834  1
  Ir  Ir11  1  0.334822  0.167411  0.625834  1
  Ir  Ir12  1  0.832589  0.665178  0.874166  1
  Ir  Ir13  1  0.832589  0.167411  0.874166  1
  Ir  Ir14  1  0.334822  0.167411  0.874166  1
  Ir  Ir15  1  0.664748  0.832375  0.376150  1
  Ir  Ir16  1  0.167625  0.832375  0.376150  1
  Ir  Ir17  1  0.167625  0.335252  0.376150  1
  Ir  Ir18  1  0.000000  0.000000  0.999178  1
  Ir  Ir19  1  0.000000  0.000000  0.500822  1
  Rh  Rh20  1  0.000000  0.000000  0.250000  1
  Rh  Rh21  1  0.000000  0.000000  0.750000  1
  Rh  Rh22  1  0.333333  0.666667  0.250000  1
  Rh  Rh23  1  0.666667  0.333333  0.750000  1
