# generated using pymatgen
data_Er3CdP6N13
_symmetry_space_group_name_H-M   'P 1'
_cell_length_a   7.30401783
_cell_length_b   7.30401878
_cell_length_c   7.30401953
_cell_angle_alpha   108.89598854
_cell_angle_beta   108.89599467
_cell_angle_gamma   108.89598979
_symmetry_Int_Tables_number   1
_chemical_formula_structural   Er3CdP6N13
_chemical_formula_sum   'Er3 Cd1 P6 N13'
_cell_volume   306.18198133
_cell_formula_units_Z   1
loop_
 _symmetry_equiv_pos_site_id
 _symmetry_equiv_pos_as_xyz
  1  'x, y, z'
loop_
 _atom_site_type_symbol
 _atom_site_label
 _atom_site_symmetry_multiplicity
 _atom_site_fract_x
 _atom_site_fract_y
 _atom_site_fract_z
 _atom_site_occupancy
  Er  Er0  1  0.699674  0.005639  0.005639  1
  Er  Er1  1  0.005639  0.005639  0.699674  1
  Er  Er2  1  0.005639  0.699674  0.005639  1
  Cd  Cd3  1  0.267144  0.267144  0.267144  1
  P  P4  1  0.257411  0.760673  0.510371  1
  P  P5  1  0.760673  0.257411  0.510371  1
  P  P6  1  0.760673  0.510371  0.257411  1
  P  P7  1  0.257411  0.510371  0.760673  1
  P  P8  1  0.510371  0.760673  0.257411  1
  P  P9  1  0.510371  0.257411  0.760673  1
  N  N10  1  0.848156  0.848156  0.848156  1
  N  N11  1  0.743531  0.306269  0.306269  1
  N  N12  1  0.306269  0.743531  0.306269  1
  N  N13  1  0.284916  0.580680  0.580680  1
  N  N14  1  0.580680  0.580680  0.284916  1
  N  N15  1  0.417436  0.734551  0.005259  1
  N  N16  1  0.005259  0.734551  0.417436  1
  N  N17  1  0.580680  0.284916  0.580680  1
  N  N18  1  0.734551  0.005259  0.417436  1
  N  N19  1  0.417436  0.005259  0.734551  1
  N  N20  1  0.734551  0.417436  0.005259  1
  N  N21  1  0.306269  0.306269  0.743531  1
  N  N22  1  0.005259  0.417436  0.734551  1
