# generated using pymatgen
data_Al5CrCl18
_symmetry_space_group_name_H-M   'P 1'
_cell_length_a   6.05335002
_cell_length_b   6.05230637
_cell_length_c   21.19425901
_cell_angle_alpha   90.00351748
_cell_angle_beta   90.00002991
_cell_angle_gamma   119.99702937
_symmetry_Int_Tables_number   1
_chemical_formula_structural   Al5CrCl18
_chemical_formula_sum   'Al5 Cr1 Cl18'
_cell_volume   672.47873853
_cell_formula_units_Z   1
loop_
 _symmetry_equiv_pos_site_id
 _symmetry_equiv_pos_as_xyz
  1  'x, y, z'
loop_
 _atom_site_type_symbol
 _atom_site_label
 _atom_site_symmetry_multiplicity
 _atom_site_fract_x
 _atom_site_fract_y
 _atom_site_fract_z
 _atom_site_occupancy
  Al  Al0  1  0.222306  0.777573  0.666640  1
  Al  Al1  1  0.888907  0.110863  0.666652  1
  Al  Al2  1  0.222297  0.444724  0.333309  1
  Al  Al3  1  0.888901  0.778010  0.333302  1
  Al  Al4  1  0.222125  0.111026  0.999919  1
  Cr  Cr5  1  0.555620  0.778029  0.000017  1
  Cl  Cl6  1  0.252563  0.442145  0.936755  1
  Cl  Cl7  1  0.188739  0.077392  0.603315  1
  Cl  Cl8  1  0.252125  0.810443  0.063395  1
  Cl  Cl9  1  0.555577  0.478134  0.269977  1
  Cl  Cl10  1  0.555620  0.077476  0.729972  1
  Cl  Cl11  1  0.188844  0.444204  0.729965  1
  Cl  Cl12  1  0.555655  0.744560  0.396637  1
  Cl  Cl13  1  0.922383  0.111396  0.269980  1
  Cl  Cl14  1  0.922377  0.810958  0.729966  1
  Cl  Cl15  1  0.522597  0.080479  0.936679  1
  Cl  Cl16  1  0.188711  0.111366  0.396643  1
  Cl  Cl17  1  0.522556  0.441582  0.063461  1
  Cl  Cl18  1  0.891640  0.081112  0.063455  1
  Cl  Cl19  1  0.922499  0.478275  0.396645  1
  Cl  Cl20  1  0.922480  0.444207  0.603304  1
  Cl  Cl21  1  0.555628  0.811085  0.603310  1
  Cl  Cl22  1  0.188820  0.744638  0.269990  1
  Cl  Cl23  1  0.891031  0.810324  0.936712  1
