# generated using pymatgen
data_EuHo2(Co3P2)3
_symmetry_space_group_name_H-M   'P 1'
_cell_length_a   3.69149200
_cell_length_b   10.50733600
_cell_length_c   12.14353700
_cell_angle_alpha   90.00000000
_cell_angle_beta   90.00000000
_cell_angle_gamma   90.00000000
_symmetry_Int_Tables_number   1
_chemical_formula_structural   EuHo2(Co3P2)3
_chemical_formula_sum   'Eu2 Ho4 Co18 P12'
_cell_volume   471.02043823
_cell_formula_units_Z   2
loop_
 _symmetry_equiv_pos_site_id
 _symmetry_equiv_pos_as_xyz
  1  'x, y, z'
loop_
 _atom_site_type_symbol
 _atom_site_label
 _atom_site_symmetry_multiplicity
 _atom_site_fract_x
 _atom_site_fract_y
 _atom_site_fract_z
 _atom_site_occupancy
  Eu  Eu0  1  0.000000  0.500000  0.524123  1
  Eu  Eu1  1  0.500000  0.000000  0.475877  1
  Ho  Ho2  1  0.500000  0.817430  0.204282  1
  Ho  Ho3  1  0.500000  0.182570  0.204282  1
  Ho  Ho4  1  0.000000  0.682570  0.795718  1
  Ho  Ho5  1  0.000000  0.317430  0.795718  1
  Co  Co6  1  0.000000  0.500000  0.985904  1
  Co  Co7  1  0.500000  0.000000  0.014096  1
  Co  Co8  1  0.500000  0.296353  0.429355  1
  Co  Co9  1  0.500000  0.703647  0.429355  1
  Co  Co10  1  0.000000  0.203647  0.570645  1
  Co  Co11  1  0.000000  0.796353  0.570645  1
  Co  Co12  1  0.500000  0.879554  0.711949  1
  Co  Co13  1  0.500000  0.120446  0.711949  1
  Co  Co14  1  0.000000  0.620446  0.288051  1
  Co  Co15  1  0.000000  0.379554  0.288051  1
  Co  Co16  1  0.500000  0.333344  0.994143  1
  Co  Co17  1  0.500000  0.666656  0.994143  1
  Co  Co18  1  0.000000  0.166656  0.005857  1
  Co  Co19  1  0.000000  0.833344  0.005857  1
  Co  Co20  1  0.500000  0.500000  0.157182  1
  Co  Co21  1  0.000000  0.000000  0.842818  1
  Co  Co22  1  0.500000  0.500000  0.704174  1
  Co  Co23  1  0.000000  0.000000  0.295826  1
  P  P24  1  0.500000  0.307555  0.617570  1
  P  P25  1  0.500000  0.692445  0.617570  1
  P  P26  1  0.000000  0.192445  0.382430  1
  P  P27  1  0.000000  0.807555  0.382430  1
  P  P28  1  0.500000  0.500000  0.882629  1
  P  P29  1  0.000000  0.000000  0.117371  1
  P  P30  1  0.500000  0.847037  0.893983  1
  P  P31  1  0.500000  0.152963  0.893983  1
  P  P32  1  0.000000  0.652963  0.106017  1
  P  P33  1  0.000000  0.347037  0.106017  1
  P  P34  1  0.500000  0.500000  0.340771  1
  P  P35  1  0.000000  0.000000  0.659229  1
