# generated using pymatgen
data_Y4Ho16Co3Bi8Os
_symmetry_space_group_name_H-M   'P 1'
_cell_length_a   7.96799206
_cell_length_b   8.90983000
_cell_length_c   12.43734510
_cell_angle_alpha   90.00000000
_cell_angle_beta   89.73412135
_cell_angle_gamma   90.00000000
_symmetry_Int_Tables_number   1
_chemical_formula_structural   Y4Ho16Co3Bi8Os
_chemical_formula_sum   'Y4 Ho16 Co3 Bi8 Os1'
_cell_volume   882.96058931
_cell_formula_units_Z   1
loop_
 _symmetry_equiv_pos_site_id
 _symmetry_equiv_pos_as_xyz
  1  'x, y, z'
loop_
 _atom_site_type_symbol
 _atom_site_label
 _atom_site_symmetry_multiplicity
 _atom_site_fract_x
 _atom_site_fract_y
 _atom_site_fract_z
 _atom_site_occupancy
  Y  Y0  1  0.653205  0.250000  0.299636  1
  Y  Y1  1  0.847198  0.250000  0.798625  1
  Y  Y2  1  0.116365  0.250000  0.190513  1
  Y  Y3  1  0.383396  0.250000  0.689398  1
  Ho  Ho4  1  0.346130  0.750000  0.700650  1
  Ho  Ho5  1  0.155003  0.750000  0.206162  1
  Ho  Ho6  1  0.880973  0.750000  0.805588  1
  Ho  Ho7  1  0.614819  0.750000  0.313072  1
  Ho  Ho8  1  0.675315  0.537748  0.562854  1
  Ho  Ho9  1  0.324309  0.462314  0.437034  1
  Ho  Ho10  1  0.176523  0.457978  0.935527  1
  Ho  Ho11  1  0.324309  0.037686  0.437034  1
  Ho  Ho12  1  0.824200  0.538210  0.063463  1
  Ho  Ho13  1  0.675315  0.962252  0.562854  1
  Ho  Ho14  1  0.824200  0.961790  0.063463  1
  Ho  Ho15  1  0.176523  0.042022  0.935527  1
  Ho  Ho16  1  0.052626  0.750000  0.497926  1
  Ho  Ho17  1  0.947711  0.250000  0.502580  1
  Ho  Ho18  1  0.554437  0.250000  0.003098  1
  Ho  Ho19  1  0.443950  0.750000  0.996724  1
  Co  Co20  1  0.929890  0.250000  0.009138  1
  Co  Co21  1  0.565406  0.250000  0.508079  1
  Co  Co22  1  0.433625  0.750000  0.492470  1
  Bi  Bi23  1  0.571509  0.509237  0.826581  1
  Bi  Bi24  1  0.429621  0.491573  0.173111  1
  Bi  Bi25  1  0.072021  0.491079  0.671895  1
  Bi  Bi26  1  0.429621  0.008427  0.173111  1
  Bi  Bi27  1  0.927912  0.509500  0.327757  1
  Bi  Bi28  1  0.571509  0.990763  0.826581  1
  Bi  Bi29  1  0.927912  0.990500  0.327757  1
  Bi  Bi30  1  0.072021  0.008921  0.671895  1
  Os  Os31  1  0.072449  0.750000  0.989898  1
