# generated using pymatgen
data_Pa4Al24Pt4Rh5
_symmetry_space_group_name_H-M   'P 1'
_cell_length_a   7.55157211
_cell_length_b   7.58143672
_cell_length_c   13.03621277
_cell_angle_alpha   84.31620972
_cell_angle_beta   78.82671206
_cell_angle_gamma   59.84103239
_symmetry_Int_Tables_number   1
_chemical_formula_structural   Pa4Al24Pt4Rh5
_chemical_formula_sum   'Pa4 Al24 Pt4 Rh5'
_cell_volume   633.08407352
_cell_formula_units_Z   1
loop_
 _symmetry_equiv_pos_site_id
 _symmetry_equiv_pos_as_xyz
  1  'x, y, z'
loop_
 _atom_site_type_symbol
 _atom_site_label
 _atom_site_symmetry_multiplicity
 _atom_site_fract_x
 _atom_site_fract_y
 _atom_site_fract_z
 _atom_site_occupancy
  Pa  Pa0  1  0.392911  0.170494  0.805089  1
  Pa  Pa1  1  0.607089  0.829506  0.194911  1
  Pa  Pa2  1  0.736832  0.498319  0.804608  1
  Pa  Pa3  1  0.263168  0.501681  0.195392  1
  Al  Al4  1  0.682869  0.834237  0.946240  1
  Al  Al5  1  0.317131  0.165763  0.053760  1
  Al  Al6  1  0.145528  0.829373  0.560920  1
  Al  Al7  1  0.854472  0.170627  0.439080  1
  Al  Al8  1  0.477605  0.170616  0.557562  1
  Al  Al9  1  0.522395  0.829384  0.442438  1
  Al  Al10  1  0.209857  0.168630  0.332032  1
  Al  Al11  1  0.790143  0.831370  0.667968  1
  Al  Al12  1  0.431901  0.510831  0.668127  1
  Al  Al13  1  0.568099  0.489169  0.331873  1
  Al  Al14  1  0.110607  0.157803  0.665953  1
  Al  Al15  1  0.889393  0.842197  0.334047  1
  Al  Al16  1  0.352752  0.499240  0.946364  1
  Al  Al17  1  0.647248  0.500760  0.053636  1
  Al  Al18  1  0.014130  0.168342  0.957249  1
  Al  Al19  1  0.985870  0.831658  0.042751  1
  Al  Al20  1  0.181280  0.500715  0.444742  1
  Al  Al21  1  0.818720  0.499285  0.555258  1
  Al  Al22  1  0.737672  0.163158  0.178489  1
  Al  Al23  1  0.262328  0.836842  0.821511  1
  Al  Al24  1  0.060481  0.631777  0.818085  1
  Al  Al25  1  0.939519  0.368223  0.181915  1
  Al  Al26  1  0.855601  0.040558  0.821167  1
  Al  Al27  1  0.144399  0.959442  0.178833  1
  Pt  Pt28  1  0.536956  0.166854  0.358133  1
  Pt  Pt29  1  0.463044  0.833146  0.641867  1
  Pt  Pt30  1  0.775754  0.175337  0.640814  1
  Pt  Pt31  1  0.224246  0.824663  0.359186  1
  Rh  Rh32  1  0.119663  0.488917  0.643412  1
  Rh  Rh33  1  0.880337  0.511083  0.356588  1
  Rh  Rh34  1  0.654755  0.172444  0.000044  1
  Rh  Rh35  1  0.345245  0.827556  0.999956  1
  Rh  Rh36  1  0.000000  0.500000  0.000000  1
