# generated using pymatgen
data_ZrBe9Nb2
_symmetry_space_group_name_H-M   'P 1'
_cell_length_a   7.61128248
_cell_length_b   7.61128252
_cell_length_c   7.61128238
_cell_angle_alpha   35.39943487
_cell_angle_beta   35.39943245
_cell_angle_gamma   35.39943623
_symmetry_Int_Tables_number   1
_chemical_formula_structural   ZrBe9Nb2
_chemical_formula_sum   'Zr1 Be9 Nb2'
_cell_volume   132.20005202
_cell_formula_units_Z   1
loop_
 _symmetry_equiv_pos_site_id
 _symmetry_equiv_pos_as_xyz
  1  'x, y, z'
loop_
 _atom_site_type_symbol
 _atom_site_label
 _atom_site_symmetry_multiplicity
 _atom_site_fract_x
 _atom_site_fract_y
 _atom_site_fract_z
 _atom_site_occupancy
  Zr  Zr0  1  0.000000  0.000000  0.000000  1
  Be  Be1  1  0.500000  0.500000  0.500000  1
  Be  Be2  1  0.335086  0.335086  0.335087  1
  Be  Be3  1  0.664914  0.664914  0.664913  1
  Be  Be4  1  0.076761  0.585744  0.585744  1
  Be  Be5  1  0.585744  0.585744  0.076761  1
  Be  Be6  1  0.585744  0.076761  0.585744  1
  Be  Be7  1  0.414256  0.923239  0.414256  1
  Be  Be8  1  0.923239  0.414256  0.414256  1
  Be  Be9  1  0.414256  0.414256  0.923239  1
  Nb  Nb10  1  0.142748  0.142748  0.142748  1
  Nb  Nb11  1  0.857252  0.857252  0.857252  1
