# generated using pymatgen
data_Cs3TmI6
_symmetry_space_group_name_H-M   'P 1'
_cell_length_a   10.65528400
_cell_length_b   10.65528400
_cell_length_c   8.85724000
_cell_angle_alpha   90.00000000
_cell_angle_beta   90.00000000
_cell_angle_gamma   90.00000000
_symmetry_Int_Tables_number   1
_chemical_formula_structural   Cs3TmI6
_chemical_formula_sum   'Cs6 Tm2 I12'
_cell_volume   1005.60742648
_cell_formula_units_Z   2
loop_
 _symmetry_equiv_pos_site_id
 _symmetry_equiv_pos_as_xyz
  1  'x, y, z'
loop_
 _atom_site_type_symbol
 _atom_site_label
 _atom_site_symmetry_multiplicity
 _atom_site_fract_x
 _atom_site_fract_y
 _atom_site_fract_z
 _atom_site_occupancy
  Cs  Cs0  1  0.000000  0.000000  0.500000  1
  Cs  Cs1  1  0.000000  0.000000  0.000000  1
  Cs  Cs2  1  0.233025  0.587248  0.500000  1
  Cs  Cs3  1  0.766975  0.412752  0.500000  1
  Cs  Cs4  1  0.412752  0.233025  0.000000  1
  Cs  Cs5  1  0.587248  0.766975  0.000000  1
  Tm  Tm6  1  0.500000  0.000000  0.500000  1
  Tm  Tm7  1  0.000000  0.500000  0.000000  1
  I  I8  1  0.692589  0.058899  0.741934  1
  I  I9  1  0.307411  0.941101  0.741934  1
  I  I10  1  0.941101  0.692589  0.241934  1
  I  I11  1  0.058899  0.307411  0.241934  1
  I  I12  1  0.307411  0.941101  0.258066  1
  I  I13  1  0.692589  0.058899  0.258066  1
  I  I14  1  0.058899  0.307411  0.758066  1
  I  I15  1  0.941101  0.692589  0.758066  1
  I  I16  1  0.571058  0.728556  0.500000  1
  I  I17  1  0.428942  0.271444  0.500000  1
  I  I18  1  0.271444  0.571058  0.000000  1
  I  I19  1  0.728556  0.428942  0.000000  1
