# generated using pymatgen
data_TbDyTaRh3
_symmetry_space_group_name_H-M   'P 1'
_cell_length_a   5.22882451
_cell_length_b   5.22882257
_cell_length_c   5.22882201
_cell_angle_alpha   66.03501378
_cell_angle_beta   66.03502381
_cell_angle_gamma   66.03502972
_symmetry_Int_Tables_number   1
_chemical_formula_structural   TbDyTaRh3
_chemical_formula_sum   'Tb1 Dy1 Ta1 Rh3'
_cell_volume   114.28514715
_cell_formula_units_Z   1
loop_
 _symmetry_equiv_pos_site_id
 _symmetry_equiv_pos_as_xyz
  1  'x, y, z'
loop_
 _atom_site_type_symbol
 _atom_site_label
 _atom_site_symmetry_multiplicity
 _atom_site_fract_x
 _atom_site_fract_y
 _atom_site_fract_z
 _atom_site_occupancy
  Tb  Tb0  1  0.371905  0.371905  0.371905  1
  Dy  Dy1  1  0.628193  0.628193  0.628193  1
  Ta  Ta2  1  0.999998  0.999998  0.999998  1
  Rh  Rh3  1  0.500054  0.999925  0.999925  1
  Rh  Rh4  1  0.999925  0.500054  0.999925  1
  Rh  Rh5  1  0.999925  0.999925  0.500054  1
