# generated using pymatgen
data_Y4Lu8Tc3Rh
_symmetry_space_group_name_H-M   'P 1'
_cell_length_a   6.23421333
_cell_length_b   7.37570869
_cell_length_c   8.92355900
_cell_angle_alpha   90.00000000
_cell_angle_beta   90.00000000
_cell_angle_gamma   90.06766697
_symmetry_Int_Tables_number   1
_chemical_formula_structural   Y4Lu8Tc3Rh
_chemical_formula_sum   'Y4 Lu8 Tc3 Rh1'
_cell_volume   410.32049674
_cell_formula_units_Z   1
loop_
 _symmetry_equiv_pos_site_id
 _symmetry_equiv_pos_as_xyz
  1  'x, y, z'
loop_
 _atom_site_type_symbol
 _atom_site_label
 _atom_site_symmetry_multiplicity
 _atom_site_fract_x
 _atom_site_fract_y
 _atom_site_fract_z
 _atom_site_occupancy
  Y  Y0  1  0.628770  0.042422  0.250000  1
  Y  Y1  1  0.375947  0.960011  0.750000  1
  Y  Y2  1  0.122466  0.462526  0.750000  1
  Y  Y3  1  0.873975  0.539397  0.250000  1
  Lu  Lu4  1  0.159960  0.177212  0.061615  1
  Lu  Lu5  1  0.834803  0.823753  0.934149  1
  Lu  Lu6  1  0.659267  0.324051  0.936592  1
  Lu  Lu7  1  0.834803  0.823753  0.565851  1
  Lu  Lu8  1  0.341246  0.673419  0.061512  1
  Lu  Lu9  1  0.159960  0.177212  0.438385  1
  Lu  Lu10  1  0.341246  0.673419  0.438488  1
  Lu  Lu11  1  0.659267  0.324051  0.563408  1
  Tc  Tc12  1  0.453206  0.383843  0.250000  1
  Tc  Tc13  1  0.546056  0.615478  0.750000  1
  Tc  Tc14  1  0.956691  0.113751  0.750000  1
  Rh  Rh15  1  0.052333  0.885699  0.250000  1
