# generated using pymatgen
data_Pd(SeBr6)2
_symmetry_space_group_name_H-M   'P 1'
_cell_length_a   9.39676482
_cell_length_b   9.39676538
_cell_length_c   6.97412194
_cell_angle_alpha   72.33664706
_cell_angle_beta   72.33664659
_cell_angle_gamma   79.03301787
_symmetry_Int_Tables_number   1
_chemical_formula_structural   Pd(SeBr6)2
_chemical_formula_sum   'Pd1 Se2 Br12'
_cell_volume   555.83590848
_cell_formula_units_Z   1
loop_
 _symmetry_equiv_pos_site_id
 _symmetry_equiv_pos_as_xyz
  1  'x, y, z'
loop_
 _atom_site_type_symbol
 _atom_site_label
 _atom_site_symmetry_multiplicity
 _atom_site_fract_x
 _atom_site_fract_y
 _atom_site_fract_z
 _atom_site_occupancy
  Pd  Pd0  1  0.000000  0.000000  0.000000  1
  Se  Se1  1  0.272363  0.272363  0.736431  1
  Se  Se2  1  0.727637  0.727637  0.263569  1
  Br  Br3  1  0.957598  0.250998  0.753435  1
  Br  Br4  1  0.250998  0.957598  0.753435  1
  Br  Br5  1  0.042402  0.749002  0.246565  1
  Br  Br6  1  0.749002  0.042402  0.246565  1
  Br  Br7  1  0.214136  0.517781  0.795181  1
  Br  Br8  1  0.517781  0.214136  0.795181  1
  Br  Br9  1  0.785864  0.482219  0.204819  1
  Br  Br10  1  0.482219  0.785864  0.204819  1
  Br  Br11  1  0.124250  0.124250  0.168620  1
  Br  Br12  1  0.875750  0.875750  0.831380  1
  Br  Br13  1  0.652771  0.652771  0.640001  1
  Br  Br14  1  0.347229  0.347229  0.359999  1
