# generated using pymatgen
data_Nb4Al6FeCu
_symmetry_space_group_name_H-M   'P 1'
_cell_length_a   5.15976300
_cell_length_b   5.15976203
_cell_length_c   7.93845600
_cell_angle_alpha   90.00000000
_cell_angle_beta   90.00000000
_cell_angle_gamma   119.99999983
_symmetry_Int_Tables_number   1
_chemical_formula_structural   Nb4Al6FeCu
_chemical_formula_sum   'Nb4 Al6 Fe1 Cu1'
_cell_volume   183.03161017
_cell_formula_units_Z   1
loop_
 _symmetry_equiv_pos_site_id
 _symmetry_equiv_pos_as_xyz
  1  'x, y, z'
loop_
 _atom_site_type_symbol
 _atom_site_label
 _atom_site_symmetry_multiplicity
 _atom_site_fract_x
 _atom_site_fract_y
 _atom_site_fract_z
 _atom_site_occupancy
  Nb  Nb0  1  0.666666  0.333333  0.071522  1
  Nb  Nb1  1  0.666666  0.333333  0.432703  1
  Nb  Nb2  1  0.333333  0.666667  0.567298  1
  Nb  Nb3  1  0.333333  0.666667  0.928478  1
  Al  Al4  1  0.168435  0.336871  0.246846  1
  Al  Al5  1  0.168434  0.831564  0.246846  1
  Al  Al6  1  0.663130  0.831564  0.246846  1
  Al  Al7  1  0.336871  0.168434  0.753154  1
  Al  Al8  1  0.831564  0.168434  0.753154  1
  Al  Al9  1  0.831564  0.663129  0.753154  1
  Fe  Fe10  1  0.000000  0.000000  0.000000  1
  Cu  Cu11  1  0.000000  0.000000  0.500001  1
