# generated using pymatgen
data_Rb8TbTm5BBr20
_symmetry_space_group_name_H-M   'P 1'
_cell_length_a   12.26409180
_cell_length_b   12.28153322
_cell_length_c   12.28153337
_cell_angle_alpha   59.90606614
_cell_angle_beta   60.04696756
_cell_angle_gamma   60.04696943
_symmetry_Int_Tables_number   1
_chemical_formula_structural   Rb8TbTm5BBr20
_chemical_formula_sum   'Rb8 Tb1 Tm5 B1 Br20'
_cell_volume   1308.04846582
_cell_formula_units_Z   1
loop_
 _symmetry_equiv_pos_site_id
 _symmetry_equiv_pos_as_xyz
  1  'x, y, z'
loop_
 _atom_site_type_symbol
 _atom_site_label
 _atom_site_symmetry_multiplicity
 _atom_site_fract_x
 _atom_site_fract_y
 _atom_site_fract_z
 _atom_site_occupancy
  Rb  Rb0  1  0.359817  0.359464  0.359464  1
  Rb  Rb1  1  0.640235  0.640528  0.640528  1
  Rb  Rb2  1  0.359472  0.359765  0.921293  1
  Rb  Rb3  1  0.359472  0.921293  0.359765  1
  Rb  Rb4  1  0.640536  0.640183  0.078744  1
  Rb  Rb5  1  0.640536  0.078744  0.640183  1
  Rb  Rb6  1  0.921256  0.359464  0.359464  1
  Rb  Rb7  1  0.078707  0.640528  0.640528  1
  Tb  Tb8  1  0.850169  0.149831  0.149831  1
  Tm  Tm9  1  0.148858  0.851142  0.851142  1
  Tm  Tm10  1  0.149064  0.850936  0.148507  1
  Tm  Tm11  1  0.851493  0.148507  0.850936  1
  Tm  Tm12  1  0.149064  0.148507  0.850936  1
  Tm  Tm13  1  0.851493  0.850936  0.148507  1
  B  B14  1  0.001186  0.998814  0.998814  1
  Br  Br15  1  0.325392  0.999958  0.999958  1
  Br  Br16  1  0.674692  0.999958  0.999958  1
  Br  Br17  1  0.000042  0.325308  0.674608  1
  Br  Br18  1  0.000042  0.674608  0.325308  1
  Br  Br19  1  0.002919  0.327939  0.997081  1
  Br  Br20  1  0.672061  0.997081  0.327939  1
  Br  Br21  1  0.999918  0.674362  0.000082  1
  Br  Br22  1  0.325638  0.000082  0.674362  1
  Br  Br23  1  0.002919  0.997081  0.327939  1
  Br  Br24  1  0.999918  0.000082  0.674362  1
  Br  Br25  1  0.672061  0.327939  0.997081  1
  Br  Br26  1  0.325638  0.674362  0.000082  1
  Br  Br27  1  0.681646  0.318354  0.318354  1
  Br  Br28  1  0.315038  0.684962  0.684962  1
  Br  Br29  1  0.315034  0.684966  0.314668  1
  Br  Br30  1  0.685332  0.314668  0.684966  1
  Br  Br31  1  0.315034  0.314668  0.684966  1
  Br  Br32  1  0.685332  0.684966  0.314668  1
  Br  Br33  1  0.249992  0.250008  0.250008  1
  Br  Br34  1  0.749992  0.750008  0.750008  1
