# generated using pymatgen
data_PIrCl10
_symmetry_space_group_name_H-M   'P 1'
_cell_length_a   9.96523000
_cell_length_b   9.96523000
_cell_length_c   7.85455700
_cell_angle_alpha   90.00000000
_cell_angle_beta   90.00000000
_cell_angle_gamma   90.00000000
_symmetry_Int_Tables_number   1
_chemical_formula_structural   PIrCl10
_chemical_formula_sum   'P2 Ir2 Cl20'
_cell_volume   780.00313685
_cell_formula_units_Z   2
loop_
 _symmetry_equiv_pos_site_id
 _symmetry_equiv_pos_as_xyz
  1  'x, y, z'
loop_
 _atom_site_type_symbol
 _atom_site_label
 _atom_site_symmetry_multiplicity
 _atom_site_fract_x
 _atom_site_fract_y
 _atom_site_fract_z
 _atom_site_occupancy
  P  P0  1  0.000000  0.000000  0.000000  1
  P  P1  1  0.500000  0.500000  0.000000  1
  Ir  Ir2  1  0.000000  0.500000  0.617599  1
  Ir  Ir3  1  0.500000  0.000000  0.382401  1
  Cl  Cl4  1  0.346257  0.544706  0.144735  1
  Cl  Cl5  1  0.044706  0.153743  0.144735  1
  Cl  Cl6  1  0.955294  0.846257  0.144735  1
  Cl  Cl7  1  0.653743  0.455294  0.144735  1
  Cl  Cl8  1  0.153743  0.955294  0.855265  1
  Cl  Cl9  1  0.455294  0.346257  0.855265  1
  Cl  Cl10  1  0.544706  0.653743  0.855265  1
  Cl  Cl11  1  0.846257  0.044706  0.855265  1
  Cl  Cl12  1  0.000000  0.500000  0.913038  1
  Cl  Cl13  1  0.500000  0.000000  0.086962  1
  Cl  Cl14  1  0.000000  0.500000  0.320363  1
  Cl  Cl15  1  0.500000  0.000000  0.679637  1
  Cl  Cl16  1  0.213149  0.592705  0.617718  1
  Cl  Cl17  1  0.092705  0.286851  0.617718  1
  Cl  Cl18  1  0.907295  0.713149  0.617718  1
  Cl  Cl19  1  0.786851  0.407295  0.617718  1
  Cl  Cl20  1  0.286851  0.907295  0.382282  1
  Cl  Cl21  1  0.407295  0.213149  0.382282  1
  Cl  Cl22  1  0.592705  0.786851  0.382282  1
  Cl  Cl23  1  0.713149  0.092705  0.382282  1
