# generated using pymatgen
data_Y(VGa2)2
_symmetry_space_group_name_H-M   'P 1'
_cell_length_a   5.37654193
_cell_length_b   5.37654086
_cell_length_c   5.37654175
_cell_angle_alpha   103.80477739
_cell_angle_beta   103.80477228
_cell_angle_gamma   121.51831824
_symmetry_Int_Tables_number   1
_chemical_formula_structural   Y(VGa2)2
_chemical_formula_sum   'Y1 V2 Ga4'
_cell_volume   115.60910081
_cell_formula_units_Z   1
loop_
 _symmetry_equiv_pos_site_id
 _symmetry_equiv_pos_as_xyz
  1  'x, y, z'
loop_
 _atom_site_type_symbol
 _atom_site_label
 _atom_site_symmetry_multiplicity
 _atom_site_fract_x
 _atom_site_fract_y
 _atom_site_fract_z
 _atom_site_occupancy
  Y  Y0  1  0.000000  0.000000  0.000000  1
  V  V1  1  0.750000  0.250000  0.500000  1
  V  V2  1  0.250000  0.750000  0.500000  1
  Ga  Ga3  1  0.302929  0.302929  0.605858  1
  Ga  Ga4  1  0.697071  0.302929  0.000000  1
  Ga  Ga5  1  0.302929  0.697071  0.000000  1
  Ga  Ga6  1  0.697071  0.697071  0.394142  1
