# generated using pymatgen
data_Sc2(B2Rh7)3
_symmetry_space_group_name_H-M   'P 1'
_cell_length_a   8.09040453
_cell_length_b   8.09040480
_cell_length_c   8.09040500
_cell_angle_alpha   60.00000329
_cell_angle_beta   60.00000216
_cell_angle_gamma   60.00000021
_symmetry_Int_Tables_number   1
_chemical_formula_structural   Sc2(B2Rh7)3
_chemical_formula_sum   'Sc2 B6 Rh21'
_cell_volume   374.45167083
_cell_formula_units_Z   1
loop_
 _symmetry_equiv_pos_site_id
 _symmetry_equiv_pos_as_xyz
  1  'x, y, z'
loop_
 _atom_site_type_symbol
 _atom_site_label
 _atom_site_symmetry_multiplicity
 _atom_site_fract_x
 _atom_site_fract_y
 _atom_site_fract_z
 _atom_site_occupancy
  Sc  Sc0  1  0.750000  0.750000  0.750000  1
  Sc  Sc1  1  0.250000  0.250000  0.250000  1
  B  B2  1  0.722017  0.722017  0.277983  1
  B  B3  1  0.277983  0.722017  0.277983  1
  B  B4  1  0.722017  0.277983  0.277983  1
  B  B5  1  0.277983  0.277983  0.722017  1
  B  B6  1  0.722017  0.277983  0.722017  1
  B  B7  1  0.277983  0.722017  0.722017  1
  Rh  Rh8  1  0.000000  0.000000  0.000000  1
  Rh  Rh9  1  0.617118  0.617118  0.148647  1
  Rh  Rh10  1  0.617118  0.148647  0.617118  1
  Rh  Rh11  1  0.148647  0.617118  0.617118  1
  Rh  Rh12  1  0.617118  0.617118  0.617118  1
  Rh  Rh13  1  0.382882  0.382882  0.851353  1
  Rh  Rh14  1  0.382882  0.851353  0.382882  1
  Rh  Rh15  1  0.851353  0.382882  0.382882  1
  Rh  Rh16  1  0.382882  0.382882  0.382882  1
  Rh  Rh17  1  0.000000  0.000000  0.334943  1
  Rh  Rh18  1  0.665057  0.000000  0.334943  1
  Rh  Rh19  1  0.000000  0.665057  0.334943  1
  Rh  Rh20  1  0.665057  0.334943  0.000000  1
  Rh  Rh21  1  0.000000  0.334943  0.000000  1
  Rh  Rh22  1  0.000000  0.334943  0.665057  1
  Rh  Rh23  1  0.334943  0.665057  0.000000  1
  Rh  Rh24  1  0.334943  0.000000  0.665057  1
  Rh  Rh25  1  0.334943  0.000000  0.000000  1
  Rh  Rh26  1  0.000000  0.000000  0.665057  1
  Rh  Rh27  1  0.000000  0.665057  0.000000  1
  Rh  Rh28  1  0.665057  0.000000  0.000000  1
