# generated using pymatgen
data_Cs2Ga2Bi2O7
_symmetry_space_group_name_H-M   'P 1'
_cell_length_a   5.99703800
_cell_length_b   5.99703122
_cell_length_c   9.21766800
_cell_angle_alpha   90.00005330
_cell_angle_beta   89.99999378
_cell_angle_gamma   120.00001683
_symmetry_Int_Tables_number   1
_chemical_formula_structural   Cs2Ga2Bi2O7
_chemical_formula_sum   'Cs2 Ga2 Bi2 O7'
_cell_volume   287.09440574
_cell_formula_units_Z   1
loop_
 _symmetry_equiv_pos_site_id
 _symmetry_equiv_pos_as_xyz
  1  'x, y, z'
loop_
 _atom_site_type_symbol
 _atom_site_label
 _atom_site_symmetry_multiplicity
 _atom_site_fract_x
 _atom_site_fract_y
 _atom_site_fract_z
 _atom_site_occupancy
  Cs  Cs0  1  0.666667  0.333333  0.406961  1
  Cs  Cs1  1  0.333333  0.666667  0.593039  1
  Ga  Ga2  1  0.999999  0.999999  0.198147  1
  Ga  Ga3  1  0.000000  0.000001  0.801854  1
  Bi  Bi4  1  0.333333  0.666665  0.144966  1
  Bi  Bi5  1  0.666665  0.333333  0.855034  1
  O  O6  1  0.000000  0.000000  0.000000  1
  O  O7  1  0.167313  0.334631  0.274264  1
  O  O8  1  0.167314  0.832685  0.274263  1
  O  O9  1  0.665369  0.832685  0.274264  1
  O  O10  1  0.334629  0.167313  0.725737  1
  O  O11  1  0.832687  0.167316  0.725738  1
  O  O12  1  0.832686  0.665371  0.725738  1
