# generated using pymatgen
data_Ta2Nb10Al8Fe3RhC4
_symmetry_space_group_name_H-M   'P 1'
_cell_length_a   8.34252215
_cell_length_b   8.34268828
_cell_length_c   8.34252200
_cell_angle_alpha   59.99934291
_cell_angle_beta   60.00131705
_cell_angle_gamma   59.99933898
_symmetry_Int_Tables_number   1
_chemical_formula_structural   Ta2Nb10Al8Fe3RhC4
_chemical_formula_sum   'Ta2 Nb10 Al8 Fe3 Rh1 C4'
_cell_volume   410.56861204
_cell_formula_units_Z   1
loop_
 _symmetry_equiv_pos_site_id
 _symmetry_equiv_pos_as_xyz
  1  'x, y, z'
loop_
 _atom_site_type_symbol
 _atom_site_label
 _atom_site_symmetry_multiplicity
 _atom_site_fract_x
 _atom_site_fract_y
 _atom_site_fract_z
 _atom_site_occupancy
  Ta  Ta0  1  0.686217  0.310309  0.693164  1
  Ta  Ta1  1  0.942155  0.557640  0.942565  1
  Nb  Nb2  1  0.563900  0.939570  0.556961  1
  Nb  Nb3  1  0.310177  0.686198  0.693860  1
  Nb  Nb4  1  0.692664  0.307811  0.307699  1
  Nb  Nb5  1  0.308344  0.691984  0.307687  1
  Nb  Nb6  1  0.692664  0.691825  0.307699  1
  Nb  Nb7  1  0.310177  0.309764  0.693860  1
  Nb  Nb8  1  0.558031  0.557345  0.942744  1
  Nb  Nb9  1  0.939970  0.563746  0.556896  1
  Nb  Nb10  1  0.558031  0.941881  0.942744  1
  Nb  Nb11  1  0.939970  0.939390  0.556896  1
  Al  Al12  1  0.915468  0.915331  0.921815  1
  Al  Al13  1  0.002727  0.334683  0.327907  1
  Al  Al14  1  0.334483  0.002562  0.328264  1
  Al  Al15  1  0.331084  0.331567  0.005782  1
  Al  Al16  1  0.915468  0.247386  0.921815  1
  Al  Al17  1  0.918751  0.918509  0.244231  1
  Al  Al18  1  0.247416  0.915349  0.921886  1
  Al  Al19  1  0.334483  0.334690  0.328264  1
  Fe  Fe20  1  0.123660  0.127867  0.123683  1
  Fe  Fe21  1  0.625299  0.126431  0.121838  1
  Fe  Fe22  1  0.123660  0.624791  0.123683  1
  Rh  Rh23  1  0.122474  0.126118  0.625289  1
  C  C24  1  0.625635  0.622945  0.625708  1
  C  C25  1  0.124387  0.624272  0.627069  1
  C  C26  1  0.625635  0.125711  0.625708  1
  C  C27  1  0.627066  0.624326  0.124282  1
