# generated using pymatgen
data_Ho4Co2Ir5Ru
_symmetry_space_group_name_H-M   'P 1'
_cell_length_a   5.35203979
_cell_length_b   5.19159208
_cell_length_c   8.70178600
_cell_angle_alpha   90.00000000
_cell_angle_beta   90.00000000
_cell_angle_gamma   121.15959296
_symmetry_Int_Tables_number   1
_chemical_formula_structural   Ho4Co2Ir5Ru
_chemical_formula_sum   'Ho4 Co2 Ir5 Ru1'
_cell_volume   206.90202263
_cell_formula_units_Z   1
loop_
 _symmetry_equiv_pos_site_id
 _symmetry_equiv_pos_as_xyz
  1  'x, y, z'
loop_
 _atom_site_type_symbol
 _atom_site_label
 _atom_site_symmetry_multiplicity
 _atom_site_fract_x
 _atom_site_fract_y
 _atom_site_fract_z
 _atom_site_occupancy
  Ho  Ho0  1  0.668413  0.335399  0.567003  1
  Ho  Ho1  1  0.333454  0.664900  0.433599  1
  Ho  Ho2  1  0.333454  0.664900  0.066401  1
  Ho  Ho3  1  0.668413  0.335399  0.932997  1
  Co  Co4  1  0.167444  0.333508  0.750000  1
  Co  Co5  1  0.829748  0.665144  0.250000  1
  Ir  Ir6  1  0.003018  0.000948  0.498846  1
  Ir  Ir7  1  0.003018  0.000948  0.001154  1
  Ir  Ir8  1  0.169659  0.827784  0.750000  1
  Ir  Ir9  1  0.657428  0.826826  0.750000  1
  Ir  Ir10  1  0.825967  0.173025  0.250000  1
  Ru  Ru11  1  0.339983  0.171221  0.250000  1
