# generated using pymatgen
data_Dy3Y(GaRu)4
_symmetry_space_group_name_H-M   'P 1'
_cell_length_a   4.37096300
_cell_length_b   6.95893730
_cell_length_c   7.54691205
_cell_angle_alpha   89.97661275
_cell_angle_beta   90.00000000
_cell_angle_gamma   90.00000000
_symmetry_Int_Tables_number   1
_chemical_formula_structural   Dy3Y(GaRu)4
_chemical_formula_sum   'Dy3 Y1 Ga4 Ru4'
_cell_volume   229.55634769
_cell_formula_units_Z   1
loop_
 _symmetry_equiv_pos_site_id
 _symmetry_equiv_pos_as_xyz
  1  'x, y, z'
loop_
 _atom_site_type_symbol
 _atom_site_label
 _atom_site_symmetry_multiplicity
 _atom_site_fract_x
 _atom_site_fract_y
 _atom_site_fract_z
 _atom_site_occupancy
  Dy  Dy0  1  0.250000  0.510720  0.691852  1
  Dy  Dy1  1  0.750000  0.988721  0.192654  1
  Dy  Dy2  1  0.750000  0.488968  0.308115  1
  Y  Y3  1  0.250000  0.010992  0.808081  1
  Ga  Ga4  1  0.250000  0.176027  0.417300  1
  Ga  Ga5  1  0.250000  0.676754  0.082512  1
  Ga  Ga6  1  0.750000  0.824045  0.582738  1
  Ga  Ga7  1  0.750000  0.322626  0.917400  1
  Ru  Ru8  1  0.250000  0.795380  0.405689  1
  Ru  Ru9  1  0.250000  0.297855  0.094884  1
  Ru  Ru10  1  0.750000  0.205652  0.593059  1
  Ru  Ru11  1  0.750000  0.702261  0.905718  1
