# generated using pymatgen
data_Ba6SiBiI4
_symmetry_space_group_name_H-M   'P 1'
_cell_length_a   16.75121798
_cell_length_b   15.98493852
_cell_length_c   8.77330010
_cell_angle_alpha   79.33679547
_cell_angle_beta   69.65326982
_cell_angle_gamma   30.96061640
_symmetry_Int_Tables_number   1
_chemical_formula_structural   Ba6SiBiI4
_chemical_formula_sum   'Ba12 Si2 Bi2 I8'
_cell_volume   1101.53357157
_cell_formula_units_Z   2
loop_
 _symmetry_equiv_pos_site_id
 _symmetry_equiv_pos_as_xyz
  1  'x, y, z'
loop_
 _atom_site_type_symbol
 _atom_site_label
 _atom_site_symmetry_multiplicity
 _atom_site_fract_x
 _atom_site_fract_y
 _atom_site_fract_z
 _atom_site_occupancy
  Ba  Ba0  1  0.386391  0.942386  0.569971  1
  Ba  Ba1  1  0.570027  0.100933  0.385618  1
  Ba  Ba2  1  0.315886  0.870157  0.168933  1
  Ba  Ba3  1  0.942573  0.386194  0.101449  1
  Ba  Ba4  1  0.460766  0.038969  0.039391  1
  Ba  Ba5  1  0.869915  0.316196  0.645068  1
  Ba  Ba6  1  0.100792  0.570159  0.943319  1
  Ba  Ba7  1  0.644720  0.169200  0.870730  1
  Ba  Ba8  1  0.771824  0.228513  0.228032  1
  Ba  Ba9  1  0.228684  0.771616  0.771682  1
  Ba  Ba10  1  0.169399  0.644573  0.315199  1
  Ba  Ba11  1  0.038816  0.460928  0.460871  1
  Si  Si12  1  0.166571  0.166523  0.333537  1
  Si  Si13  1  0.333203  0.333333  0.166640  1
  Bi  Bi14  1  0.084029  0.084021  0.915911  1
  Bi  Bi15  1  0.916529  0.916222  0.083536  1
  I  I16  1  0.671341  0.671407  0.828860  1
  I  I17  1  0.748403  0.748621  0.251519  1
  I  I18  1  0.251594  0.251454  0.748365  1
  I  I19  1  0.580070  0.579909  0.419732  1
  I  I20  1  0.996628  0.997145  0.503237  1
  I  I21  1  0.829106  0.828873  0.670840  1
  I  I22  1  0.419434  0.419798  0.580547  1
  I  I23  1  0.503299  0.502868  0.997014  1
