# generated using pymatgen
data_ErTmPa2Ge6Ir7
_symmetry_space_group_name_H-M   'P 1'
_cell_length_a   7.28872447
_cell_length_b   7.29584640
_cell_length_c   7.28328855
_cell_angle_alpha   109.38839522
_cell_angle_beta   109.46726666
_cell_angle_gamma   109.41878299
_symmetry_Int_Tables_number   1
_chemical_formula_structural   ErTmPa2Ge6Ir7
_chemical_formula_sum   'Er1 Tm1 Pa2 Ge6 Ir7'
_cell_volume   298.65969594
_cell_formula_units_Z   1
loop_
 _symmetry_equiv_pos_site_id
 _symmetry_equiv_pos_as_xyz
  1  'x, y, z'
loop_
 _atom_site_type_symbol
 _atom_site_label
 _atom_site_symmetry_multiplicity
 _atom_site_fract_x
 _atom_site_fract_y
 _atom_site_fract_z
 _atom_site_occupancy
  Er  Er0  1  0.000000  0.000000  0.500000  1
  Tm  Tm1  1  0.500000  0.000000  0.000000  1
  Pa  Pa2  1  0.000000  0.500000  0.000000  1
  Pa  Pa3  1  0.500000  0.500000  0.500000  1
  Ge  Ge4  1  0.683183  0.688874  0.005709  1
  Ge  Ge5  1  0.316033  0.999842  0.315912  1
  Ge  Ge6  1  0.994174  0.311135  0.316695  1
  Ge  Ge7  1  0.316817  0.311126  0.994291  1
  Ge  Ge8  1  0.683967  0.000158  0.684088  1
  Ge  Ge9  1  0.005826  0.688865  0.683305  1
  Ir  Ir10  1  0.749225  0.252937  0.503160  1
  Ir  Ir11  1  0.749745  0.499421  0.249676  1
  Ir  Ir12  1  0.503770  0.252934  0.749843  1
  Ir  Ir13  1  0.250255  0.500579  0.750324  1
  Ir  Ir14  1  0.250775  0.747063  0.496840  1
  Ir  Ir15  1  0.496230  0.747066  0.250157  1
  Ir  Ir16  1  0.000000  0.000000  0.000000  1
