# generated using pymatgen
data_Sr4InSb7Pt6
_symmetry_space_group_name_H-M   'P 1'
_cell_length_a   14.90783493
_cell_length_b   14.95949310
_cell_length_c   4.61932700
_cell_angle_alpha   90.00000000
_cell_angle_beta   90.00000000
_cell_angle_gamma   120.57803091
_symmetry_Int_Tables_number   1
_chemical_formula_structural   Sr4InSb7Pt6
_chemical_formula_sum   'Sr8 In2 Sb14 Pt12'
_cell_volume   886.91419669
_cell_formula_units_Z   2
loop_
 _symmetry_equiv_pos_site_id
 _symmetry_equiv_pos_as_xyz
  1  'x, y, z'
loop_
 _atom_site_type_symbol
 _atom_site_label
 _atom_site_symmetry_multiplicity
 _atom_site_fract_x
 _atom_site_fract_y
 _atom_site_fract_z
 _atom_site_occupancy
  Sr  Sr0  1  0.577140  0.998374  0.000000  1
  Sr  Sr1  1  0.666590  0.333457  0.000000  1
  Sr  Sr2  1  0.423301  0.425082  0.000000  1
  Sr  Sr3  1  0.999366  0.579464  0.000000  1
  Sr  Sr4  1  0.331246  0.663484  0.000000  1
  Sr  Sr5  1  0.182955  0.004817  0.500001  1
  Sr  Sr6  1  0.998641  0.178983  0.500001  1
  Sr  Sr7  1  0.817885  0.816243  0.500001  1
  In  In8  1  0.199600  0.832461  0.000000  1
  In  In9  1  0.625681  0.800926  0.000000  1
  Sb  Sb10  1  0.999039  0.997852  0.000000  1
  Sb  Sb11  1  0.830171  0.190768  0.000000  1
  Sb  Sb12  1  0.364995  0.174830  0.000000  1
  Sb  Sb13  1  0.172351  0.366553  0.000000  1
  Sb  Sb14  1  0.810041  0.636347  0.000000  1
  Sb  Sb15  1  0.723422  0.989946  0.500001  1
  Sb  Sb16  1  0.520129  0.133302  0.500001  1
  Sb  Sb17  1  0.269054  0.270722  0.500001  1
  Sb  Sb18  1  0.867715  0.385364  0.500001  1
  Sb  Sb19  1  0.127592  0.510517  0.500001  1
  Sb  Sb20  1  0.615676  0.482459  0.500001  1
  Sb  Sb21  1  0.487954  0.621731  0.500001  1
  Sb  Sb22  1  0.008635  0.733308  0.500001  1
  Sb  Sb23  1  0.376045  0.871348  0.500001  1
  Pt  Pt24  1  0.387063  0.010480  0.000000  1
  Pt  Pt25  1  0.817350  0.996240  0.000000  1
  Pt  Pt26  1  0.176768  0.181125  0.000000  1
  Pt  Pt27  1  0.000847  0.384094  0.000000  1
  Pt  Pt28  1  0.625414  0.620249  0.000000  1
  Pt  Pt29  1  0.004116  0.820648  0.000000  1
  Pt  Pt30  1  0.729508  0.179606  0.500001  1
  Pt  Pt31  1  0.458695  0.276124  0.500001  1
  Pt  Pt32  1  0.279380  0.460799  0.500001  1
  Pt  Pt33  1  0.819094  0.542508  0.500001  1
  Pt  Pt34  1  0.181101  0.712789  0.500001  1
  Pt  Pt35  1  0.525349  0.816908  0.500001  1
