# generated using pymatgen
data_Y8Ho4Ru7
_symmetry_space_group_name_H-M   'P 1'
_cell_length_a   11.33475500
_cell_length_b   8.40406745
_cell_length_c   11.26472076
_cell_angle_alpha   56.38981946
_cell_angle_beta   90.00000000
_cell_angle_gamma   90.00000000
_symmetry_Int_Tables_number   1
_chemical_formula_structural   Y8Ho4Ru7
_chemical_formula_sum   'Y16 Ho8 Ru14'
_cell_volume   893.66501174
_cell_formula_units_Z   2
loop_
 _symmetry_equiv_pos_site_id
 _symmetry_equiv_pos_as_xyz
  1  'x, y, z'
loop_
 _atom_site_type_symbol
 _atom_site_label
 _atom_site_symmetry_multiplicity
 _atom_site_fract_x
 _atom_site_fract_y
 _atom_site_fract_z
 _atom_site_occupancy
  Y  Y0  1  0.705452  0.241408  0.532284  1
  Y  Y1  1  0.205452  0.758592  0.967716  1
  Y  Y2  1  0.844221  0.507830  0.655715  1
  Y  Y3  1  0.344221  0.492170  0.844285  1
  Y  Y4  1  0.155779  0.492170  0.344285  1
  Y  Y5  1  0.655779  0.507830  0.155715  1
  Y  Y6  1  0.005938  0.853919  0.360437  1
  Y  Y7  1  0.505938  0.146081  0.139563  1
  Y  Y8  1  0.994062  0.146081  0.639563  1
  Y  Y9  1  0.494062  0.853919  0.860437  1
  Y  Y10  1  0.794548  0.241408  0.032284  1
  Y  Y11  1  0.294548  0.758592  0.467716  1
  Y  Y12  1  0.930805  0.776877  0.089746  1
  Y  Y13  1  0.430805  0.223123  0.410254  1
  Y  Y14  1  0.069195  0.223123  0.910254  1
  Y  Y15  1  0.569195  0.776877  0.589746  1
  Ho  Ho16  1  0.301883  0.242516  0.675611  1
  Ho  Ho17  1  0.801883  0.757484  0.824389  1
  Ho  Ho18  1  0.698117  0.757484  0.324389  1
  Ho  Ho19  1  0.198117  0.242516  0.175611  1
  Ho  Ho20  1  0.925974  0.280078  0.294201  1
  Ho  Ho21  1  0.425974  0.719922  0.205799  1
  Ho  Ho22  1  0.074026  0.719922  0.705799  1
  Ho  Ho23  1  0.574026  0.280078  0.794201  1
  Ru  Ru24  1  0.500000  0.500000  0.500000  1
  Ru  Ru25  1  0.000000  0.500000  0.000000  1
  Ru  Ru26  1  0.648426  0.925414  0.033586  1
  Ru  Ru27  1  0.148426  0.074586  0.466414  1
  Ru  Ru28  1  0.351574  0.074586  0.966414  1
  Ru  Ru29  1  0.851574  0.925414  0.533586  1
  Ru  Ru30  1  0.397059  0.484944  0.104016  1
  Ru  Ru31  1  0.897059  0.515056  0.395984  1
  Ru  Ru32  1  0.602941  0.515056  0.895984  1
  Ru  Ru33  1  0.102941  0.484944  0.604016  1
  Ru  Ru34  1  0.816703  0.095852  0.849786  1
  Ru  Ru35  1  0.316703  0.904148  0.650214  1
  Ru  Ru36  1  0.183297  0.904148  0.150214  1
  Ru  Ru37  1  0.683297  0.095852  0.349786  1
