# generated using pymatgen
data_LiTb3Zn2Si2Au
_symmetry_space_group_name_H-M   'P 1'
_cell_length_a   6.98769026
_cell_length_b   6.98768968
_cell_length_c   4.28136300
_cell_angle_alpha   90.00000000
_cell_angle_beta   90.00000000
_cell_angle_gamma   119.89371298
_symmetry_Int_Tables_number   1
_chemical_formula_structural   LiTb3Zn2Si2Au
_chemical_formula_sum   'Li1 Tb3 Zn2 Si2 Au1'
_cell_volume   181.23583841
_cell_formula_units_Z   1
loop_
 _symmetry_equiv_pos_site_id
 _symmetry_equiv_pos_as_xyz
  1  'x, y, z'
loop_
 _atom_site_type_symbol
 _atom_site_label
 _atom_site_symmetry_multiplicity
 _atom_site_fract_x
 _atom_site_fract_y
 _atom_site_fract_z
 _atom_site_occupancy
  Li  Li0  1  0.765861  0.765861  0.500000  1
  Tb  Tb1  1  0.576908  0.995997  0.000000  1
  Tb  Tb2  1  0.995997  0.576908  0.000000  1
  Tb  Tb3  1  0.418921  0.418921  0.000000  1
  Zn  Zn4  1  0.249173  0.999056  0.500000  1
  Zn  Zn5  1  0.999056  0.249173  0.500000  1
  Si  Si6  1  0.328568  0.664521  0.500000  1
  Si  Si7  1  0.664521  0.328568  0.500000  1
  Au  Au8  1  0.000994  0.000994  0.000000  1
