# generated using pymatgen
data_Ho8Ti10NbSi16Pt
_symmetry_space_group_name_H-M   'P 1'
_cell_length_a   7.03603972
_cell_length_b   7.03604032
_cell_length_c   12.85306255
_cell_angle_alpha   90.23112292
_cell_angle_beta   89.76887876
_cell_angle_gamma   89.73108163
_symmetry_Int_Tables_number   1
_chemical_formula_structural   Ho8Ti10NbSi16Pt
_chemical_formula_sum   'Ho8 Ti10 Nb1 Si16 Pt1'
_cell_volume   636.28449384
_cell_formula_units_Z   1
loop_
 _symmetry_equiv_pos_site_id
 _symmetry_equiv_pos_as_xyz
  1  'x, y, z'
loop_
 _atom_site_type_symbol
 _atom_site_label
 _atom_site_symmetry_multiplicity
 _atom_site_fract_x
 _atom_site_fract_y
 _atom_site_fract_z
 _atom_site_occupancy
  Ho  Ho0  1  0.341121  0.002709  0.467411  1
  Ho  Ho1  1  0.497292  0.841177  0.717597  1
  Ho  Ho2  1  0.501216  0.158355  0.214552  1
  Ho  Ho3  1  0.841177  0.497292  0.282403  1
  Ho  Ho4  1  0.158355  0.501216  0.785448  1
  Ho  Ho5  1  0.657248  0.998897  0.968739  1
  Ho  Ho6  1  0.002709  0.341121  0.532589  1
  Ho  Ho7  1  0.998897  0.657248  0.031261  1
  Ti  Ti8  1  0.175529  0.826839  0.248432  1
  Ti  Ti9  1  0.826839  0.175529  0.751568  1
  Ti  Ti10  1  0.148833  0.004248  0.876759  1
  Ti  Ti11  1  0.493584  0.654384  0.124082  1
  Ti  Ti12  1  0.507708  0.350816  0.626558  1
  Ti  Ti13  1  0.654384  0.493584  0.875918  1
  Ti  Ti14  1  0.350816  0.507708  0.373442  1
  Ti  Ti15  1  0.848842  0.992314  0.375252  1
  Ti  Ti16  1  0.004248  0.148833  0.123241  1
  Ti  Ti17  1  0.992314  0.848842  0.624748  1
  Nb  Nb18  1  0.673184  0.673184  0.500000  1
  Si  Si19  1  0.201924  0.132831  0.685284  1
  Si  Si20  1  0.372303  0.708926  0.932660  1
  Si  Si21  1  0.631095  0.294668  0.433670  1
  Si  Si22  1  0.708926  0.372303  0.067340  1
  Si  Si23  1  0.294668  0.631095  0.566330  1
  Si  Si24  1  0.797070  0.868385  0.183261  1
  Si  Si25  1  0.132831  0.201924  0.314716  1
  Si  Si26  1  0.868385  0.797070  0.816739  1
  Si  Si27  1  0.286364  0.945135  0.064385  1
  Si  Si28  1  0.546437  0.792961  0.313868  1
  Si  Si29  1  0.450273  0.209573  0.815512  1
  Si  Si30  1  0.792961  0.546437  0.686132  1
  Si  Si31  1  0.209573  0.450273  0.184488  1
  Si  Si32  1  0.708535  0.048627  0.565475  1
  Si  Si33  1  0.945135  0.286364  0.935615  1
  Si  Si34  1  0.048627  0.708535  0.434525  1
  Pt  Pt35  1  0.330598  0.330598  0.000000  1
