# generated using pymatgen
data_Eu3InHg2Pt3
_symmetry_space_group_name_H-M   'P 1'
_cell_length_a   7.74987951
_cell_length_b   7.74987932
_cell_length_c   4.13515300
_cell_angle_alpha   90.00000000
_cell_angle_beta   90.00000000
_cell_angle_gamma   120.49390616
_symmetry_Int_Tables_number   1
_chemical_formula_structural   Eu3InHg2Pt3
_chemical_formula_sum   'Eu3 In1 Hg2 Pt3'
_cell_volume   214.00753604
_cell_formula_units_Z   1
loop_
 _symmetry_equiv_pos_site_id
 _symmetry_equiv_pos_as_xyz
  1  'x, y, z'
loop_
 _atom_site_type_symbol
 _atom_site_label
 _atom_site_symmetry_multiplicity
 _atom_site_fract_x
 _atom_site_fract_y
 _atom_site_fract_z
 _atom_site_occupancy
  Eu  Eu0  1  0.404260  0.995516  0.500000  1
  Eu  Eu1  1  0.995516  0.404260  0.500000  1
  Eu  Eu2  1  0.603160  0.603160  0.500000  1
  In  In3  1  0.255141  0.255141  0.000000  1
  Hg  Hg4  1  0.740417  0.001130  0.000000  1
  Hg  Hg5  1  0.001130  0.740417  0.000000  1
  Pt  Pt6  1  0.330692  0.650601  0.000000  1
  Pt  Pt7  1  0.650601  0.330692  0.000000  1
  Pt  Pt8  1  0.019083  0.019083  0.500000  1
