# generated using pymatgen
data_La8Ho12Ga13Ge3
_symmetry_space_group_name_H-M   'P 1'
_cell_length_a   7.67243772
_cell_length_b   8.03711815
_cell_length_c   15.25435300
_cell_angle_alpha   90.03227964
_cell_angle_beta   89.91872854
_cell_angle_gamma   90.05631412
_symmetry_Int_Tables_number   1
_chemical_formula_structural   La8Ho12Ga13Ge3
_chemical_formula_sum   'La8 Ho12 Ga13 Ge3'
_cell_volume   940.64727435
_cell_formula_units_Z   1
loop_
 _symmetry_equiv_pos_site_id
 _symmetry_equiv_pos_as_xyz
  1  'x, y, z'
loop_
 _atom_site_type_symbol
 _atom_site_label
 _atom_site_symmetry_multiplicity
 _atom_site_fract_x
 _atom_site_fract_y
 _atom_site_fract_z
 _atom_site_occupancy
  La  La0  1  0.979365  0.819175  0.094066  1
  La  La1  1  0.479198  0.681080  0.406550  1
  La  La2  1  0.520335  0.322390  0.905910  1
  La  La3  1  0.020088  0.180015  0.593519  1
  La  La4  1  0.020730  0.175903  0.905579  1
  La  La5  1  0.520302  0.322133  0.594416  1
  La  La6  1  0.479464  0.679342  0.095082  1
  La  La7  1  0.979595  0.821516  0.405534  1
  Ho  Ho8  1  0.654703  0.988732  0.250280  1
  Ho  Ho9  1  0.154488  0.510388  0.249248  1
  Ho  Ho10  1  0.845572  0.488676  0.750200  1
  Ho  Ho11  1  0.346373  0.011432  0.750839  1
  Ho  Ho12  1  0.680027  0.824445  0.876891  1
  Ho  Ho13  1  0.180273  0.674541  0.622515  1
  Ho  Ho14  1  0.819718  0.326428  0.122983  1
  Ho  Ho15  1  0.319676  0.173941  0.377765  1
  Ho  Ho16  1  0.319667  0.174521  0.122298  1
  Ho  Ho17  1  0.818531  0.324418  0.378671  1
  Ho  Ho18  1  0.180823  0.675140  0.877258  1
  Ho  Ho19  1  0.681141  0.825170  0.621589  1
  Ga  Ga20  1  0.768211  0.620457  0.251196  1
  Ga  Ga21  1  0.268101  0.880213  0.250553  1
  Ga  Ga22  1  0.731120  0.120571  0.749395  1
  Ga  Ga23  1  0.231497  0.379049  0.749164  1
  Ga  Ga24  1  0.022994  0.113909  0.249608  1
  Ga  Ga25  1  0.523578  0.386017  0.252543  1
  Ga  Ga26  1  0.476438  0.614113  0.749862  1
  Ga  Ga27  1  0.976779  0.886172  0.748079  1
  Ga  Ga28  1  0.851168  0.532403  0.957552  1
  Ga  Ga29  1  0.348579  0.968273  0.542489  1
  Ga  Ga30  1  0.651313  0.033442  0.041403  1
  Ga  Ga31  1  0.150464  0.467576  0.457700  1
  Ga  Ga32  1  0.149393  0.466980  0.040977  1
  Ge  Ge33  1  0.649553  0.031916  0.458394  1
  Ge  Ge34  1  0.350357  0.967440  0.958132  1
  Ge  Ge35  1  0.850381  0.532083  0.541761  1
