# generated using pymatgen
data_Zr18FeRe5NiMo3
_symmetry_space_group_name_H-M   'P 1'
_cell_length_a   8.71850403
_cell_length_b   8.74364796
_cell_length_c   8.53668000
_cell_angle_alpha   90.00000000
_cell_angle_beta   90.00000000
_cell_angle_gamma   120.09544825
_symmetry_Int_Tables_number   1
_chemical_formula_structural   Zr18FeRe5NiMo3
_chemical_formula_sum   'Zr18 Fe1 Re5 Ni1 Mo3'
_cell_volume   563.03547817
_cell_formula_units_Z   1
loop_
 _symmetry_equiv_pos_site_id
 _symmetry_equiv_pos_as_xyz
  1  'x, y, z'
loop_
 _atom_site_type_symbol
 _atom_site_label
 _atom_site_symmetry_multiplicity
 _atom_site_fract_x
 _atom_site_fract_y
 _atom_site_fract_z
 _atom_site_occupancy
  Zr  Zr0  1  0.201226  0.799064  0.441097  1
  Zr  Zr1  1  0.201226  0.402162  0.441097  1
  Zr  Zr2  1  0.598136  0.799068  0.440476  1
  Zr  Zr3  1  0.801931  0.199205  0.555764  1
  Zr  Zr4  1  0.801931  0.602726  0.555764  1
  Zr  Zr5  1  0.396089  0.198045  0.557195  1
  Zr  Zr6  1  0.801931  0.199205  0.944236  1
  Zr  Zr7  1  0.801931  0.602726  0.944236  1
  Zr  Zr8  1  0.396089  0.198045  0.942805  1
  Zr  Zr9  1  0.201226  0.799064  0.058903  1
  Zr  Zr10  1  0.201226  0.402162  0.058903  1
  Zr  Zr11  1  0.598136  0.799068  0.059524  1
  Zr  Zr12  1  0.541255  0.457941  0.250000  1
  Zr  Zr13  1  0.541255  0.083314  0.250000  1
  Zr  Zr14  1  0.917021  0.458511  0.250000  1
  Zr  Zr15  1  0.455626  0.540036  0.750000  1
  Zr  Zr16  1  0.455626  0.915591  0.750000  1
  Zr  Zr17  1  0.084190  0.542095  0.750000  1
  Fe  Fe18  1  0.332931  0.666466  0.250000  1
  Re  Re19  1  0.891031  0.109654  0.250000  1
  Re  Re20  1  0.891031  0.781378  0.250000  1
  Re  Re21  1  0.218155  0.109078  0.250000  1
  Re  Re22  1  0.110830  0.890793  0.750000  1
  Re  Re23  1  0.110830  0.220037  0.750000  1
  Ni  Ni24  1  0.666805  0.333402  0.750000  1
  Mo  Mo25  1  0.781038  0.890519  0.750000  1
  Mo  Mo26  1  0.000647  0.000323  0.500036  1
  Mo  Mo27  1  0.000647  0.000323  0.999964  1
