# generated using pymatgen
data_Er11TmInCo4Pt
_symmetry_space_group_name_H-M   'P 1'
_cell_length_a   8.21987565
_cell_length_b   8.22006342
_cell_length_c   8.21987733
_cell_angle_alpha   111.11636994
_cell_angle_beta   110.67776746
_cell_angle_gamma   106.65512272
_symmetry_Int_Tables_number   1
_chemical_formula_structural   Er11TmInCo4Pt
_chemical_formula_sum   'Er11 Tm1 In1 Co4 Pt1'
_cell_volume   426.77543535
_cell_formula_units_Z   1
loop_
 _symmetry_equiv_pos_site_id
 _symmetry_equiv_pos_as_xyz
  1  'x, y, z'
loop_
 _atom_site_type_symbol
 _atom_site_label
 _atom_site_symmetry_multiplicity
 _atom_site_fract_x
 _atom_site_fract_y
 _atom_site_fract_z
 _atom_site_occupancy
  Er  Er0  1  0.415342  0.216530  0.198579  1
  Er  Er1  1  0.584482  0.783367  0.801450  1
  Er  Er2  1  0.017950  0.216530  0.801187  1
  Er  Er3  1  0.981918  0.783367  0.198885  1
  Er  Er4  1  0.185800  0.290153  0.476354  1
  Er  Er5  1  0.813844  0.710002  0.523428  1
  Er  Er6  1  0.186574  0.710002  0.896159  1
  Er  Er7  1  0.813799  0.290153  0.104351  1
  Er  Er8  1  0.315144  0.619179  0.304035  1
  Er  Er9  1  0.685097  0.381057  0.695960  1
  Er  Er10  1  0.315172  0.011112  0.695941  1
  Tm  Tm11  1  0.684707  0.989060  0.304352  1
  In  In12  1  0.501058  0.501208  0.000150  1
  Co  Co13  1  0.378708  0.999858  0.377917  1
  Co  Co14  1  0.621941  0.999858  0.621149  1
  Co  Co15  1  0.111871  0.611985  0.500114  1
  Co  Co16  1  0.887042  0.386918  0.499876  1
  Pt  Pt17  1  0.999550  0.999662  0.000112  1
