# generated using pymatgen
data_Lu2U(AlRu)3
_symmetry_space_group_name_H-M   'P 1'
_cell_length_a   6.79969673
_cell_length_b   6.79969780
_cell_length_c   4.00159700
_cell_angle_alpha   90.00000000
_cell_angle_beta   90.00000000
_cell_angle_gamma   116.46633900
_symmetry_Int_Tables_number   1
_chemical_formula_structural   Lu2U(AlRu)3
_chemical_formula_sum   'Lu2 U1 Al3 Ru3'
_cell_volume   165.62687380
_cell_formula_units_Z   1
loop_
 _symmetry_equiv_pos_site_id
 _symmetry_equiv_pos_as_xyz
  1  'x, y, z'
loop_
 _atom_site_type_symbol
 _atom_site_label
 _atom_site_symmetry_multiplicity
 _atom_site_fract_x
 _atom_site_fract_y
 _atom_site_fract_z
 _atom_site_occupancy
  Lu  Lu0  1  0.415299  0.004354  0.500000  1
  Lu  Lu1  1  0.004354  0.415299  0.500000  1
  U  U2  1  0.602777  0.602777  0.500000  1
  Al  Al3  1  0.752304  0.022611  0.000000  1
  Al  Al4  1  0.022611  0.752304  0.000000  1
  Al  Al5  1  0.213945  0.213945  0.000000  1
  Ru  Ru6  1  0.374542  0.643970  0.000000  1
  Ru  Ru7  1  0.643970  0.374542  0.000000  1
  Ru  Ru8  1  0.970197  0.970197  0.500000  1
