# generated using pymatgen
data_Pr2Er18Si15Rh
_symmetry_space_group_name_H-M   'P 1'
_cell_length_a   7.41466449
_cell_length_b   7.64892569
_cell_length_c   14.51184338
_cell_angle_alpha   90.26534010
_cell_angle_beta   90.75893858
_cell_angle_gamma   90.18754852
_symmetry_Int_Tables_number   1
_chemical_formula_structural   Pr2Er18Si15Rh
_chemical_formula_sum   'Pr2 Er18 Si15 Rh1'
_cell_volume   822.94224209
_cell_formula_units_Z   1
loop_
 _symmetry_equiv_pos_site_id
 _symmetry_equiv_pos_as_xyz
  1  'x, y, z'
loop_
 _atom_site_type_symbol
 _atom_site_label
 _atom_site_symmetry_multiplicity
 _atom_site_fract_x
 _atom_site_fract_y
 _atom_site_fract_z
 _atom_site_occupancy
  Pr  Pr0  1  0.023575  0.821362  0.597520  1
  Pr  Pr1  1  0.520688  0.677854  0.594779  1
  Er  Er2  1  0.320714  0.819312  0.122352  1
  Er  Er3  1  0.816081  0.679153  0.122506  1
  Er  Er4  1  0.850013  0.505774  0.749891  1
  Er  Er5  1  0.468853  0.315204  0.100697  1
  Er  Er6  1  0.029103  0.817207  0.902340  1
  Er  Er7  1  0.475871  0.315783  0.399833  1
  Er  Er8  1  0.652323  0.011394  0.256631  1
  Er  Er9  1  0.531744  0.682836  0.901181  1
  Er  Er10  1  0.682072  0.179463  0.880279  1
  Er  Er11  1  0.177864  0.322371  0.625134  1
  Er  Er12  1  0.184328  0.322977  0.878984  1
  Er  Er13  1  0.818519  0.687621  0.379395  1
  Er  Er14  1  0.324088  0.825719  0.376131  1
  Er  Er15  1  0.351719  0.991187  0.748811  1
  Er  Er16  1  0.680398  0.166325  0.619115  1
  Er  Er17  1  0.148124  0.489934  0.251924  1
  Er  Er18  1  0.969836  0.182648  0.099505  1
  Er  Er19  1  0.973554  0.176076  0.398402  1
  Si  Si20  1  0.232905  0.626018  0.756137  1
  Si  Si21  1  0.344870  0.039632  0.537093  1
  Si  Si22  1  0.026595  0.893680  0.245340  1
  Si  Si23  1  0.733041  0.872631  0.755923  1
  Si  Si24  1  0.266105  0.128260  0.245647  1
  Si  Si25  1  0.854493  0.461983  0.537757  1
  Si  Si26  1  0.479716  0.388153  0.752720  1
  Si  Si27  1  0.150216  0.526349  0.458430  1
  Si  Si28  1  0.145494  0.527474  0.042185  1
  Si  Si29  1  0.976445  0.108916  0.754707  1
  Si  Si30  1  0.769170  0.375751  0.247807  1
  Si  Si31  1  0.353547  0.028360  0.960060  1
  Si  Si32  1  0.857127  0.472773  0.959412  1
  Si  Si33  1  0.644912  0.971308  0.041090  1
  Si  Si34  1  0.522132  0.603238  0.247486  1
  Rh  Rh35  1  0.643769  0.985273  0.452795  1
