# generated using pymatgen
data_Ca10LaPr(SnRh)8
_symmetry_space_group_name_H-M   'P 1'
_cell_length_a   5.94935355
_cell_length_b   8.25062858
_cell_length_c   14.15560677
_cell_angle_alpha   90.03648940
_cell_angle_beta   90.16974123
_cell_angle_gamma   89.66987800
_symmetry_Int_Tables_number   1
_chemical_formula_structural   Ca10LaPr(SnRh)8
_chemical_formula_sum   'Ca10 La1 Pr1 Sn8 Rh8'
_cell_volume   694.82607356
_cell_formula_units_Z   1
loop_
 _symmetry_equiv_pos_site_id
 _symmetry_equiv_pos_as_xyz
  1  'x, y, z'
loop_
 _atom_site_type_symbol
 _atom_site_label
 _atom_site_symmetry_multiplicity
 _atom_site_fract_x
 _atom_site_fract_y
 _atom_site_fract_z
 _atom_site_occupancy
  Ca  Ca0  1  0.374495  0.748364  0.748420  1
  Ca  Ca1  1  0.375184  0.751406  0.252909  1
  Ca  Ca2  1  0.628186  0.251082  0.747945  1
  Ca  Ca3  1  0.146454  0.399049  0.091768  1
  Ca  Ca4  1  0.841378  0.595486  0.900929  1
  Ca  Ca5  1  0.847394  0.604248  0.594930  1
  Ca  Ca6  1  0.849250  0.896210  0.407197  1
  Ca  Ca7  1  0.148751  0.399339  0.410029  1
  Ca  Ca8  1  0.155048  0.100002  0.594625  1
  Ca  Ca9  1  0.161242  0.107357  0.902650  1
  La  La10  1  0.838171  0.896067  0.087585  1
  Pr  Pr11  1  0.620958  0.259621  0.253734  1
  Sn  Sn12  1  0.126898  0.099554  0.251562  1
  Sn  Sn13  1  0.868435  0.903885  0.751599  1
  Sn  Sn14  1  0.873693  0.603724  0.251035  1
  Sn  Sn15  1  0.135493  0.402273  0.747945  1
  Sn  Sn16  1  0.634308  0.253153  0.998456  1
  Sn  Sn17  1  0.353534  0.745590  0.999151  1
  Sn  Sn18  1  0.369381  0.749712  0.498267  1
  Sn  Sn19  1  0.635444  0.247459  0.502892  1
  Rh  Rh20  1  0.371521  0.034571  0.093327  1
  Rh  Rh21  1  0.639094  0.959310  0.913094  1
  Rh  Rh22  1  0.633940  0.962802  0.592025  1
  Rh  Rh23  1  0.636459  0.526863  0.407624  1
  Rh  Rh24  1  0.367842  0.036930  0.408583  1
  Rh  Rh25  1  0.369425  0.466705  0.590966  1
  Rh  Rh26  1  0.366033  0.464050  0.907662  1
  Rh  Rh27  1  0.631989  0.535191  0.093092  1
