# generated using pymatgen
data_Ce2Nd(InRh)3
_symmetry_space_group_name_H-M   'P 1'
_cell_length_a   7.71291257
_cell_length_b   7.53996505
_cell_length_c   3.97416700
_cell_angle_alpha   90.00000000
_cell_angle_beta   90.00000000
_cell_angle_gamma   119.26099124
_symmetry_Int_Tables_number   1
_chemical_formula_structural   Ce2Nd(InRh)3
_chemical_formula_sum   'Ce2 Nd1 In3 Rh3'
_cell_volume   201.62790342
_cell_formula_units_Z   1
loop_
 _symmetry_equiv_pos_site_id
 _symmetry_equiv_pos_as_xyz
  1  'x, y, z'
loop_
 _atom_site_type_symbol
 _atom_site_label
 _atom_site_symmetry_multiplicity
 _atom_site_fract_x
 _atom_site_fract_y
 _atom_site_fract_z
 _atom_site_occupancy
  Ce  Ce0  1  0.586751  0.000773  0.500000  1
  Ce  Ce1  1  0.413249  0.414022  0.500000  1
  Nd  Nd2  1  0.000000  0.589707  0.500000  1
  In  In3  1  0.246467  0.995152  0.000000  1
  In  In4  1  0.753533  0.748685  0.000000  1
  In  In5  1  0.000000  0.257238  0.000000  1
  Rh  Rh6  1  0.000000  0.009480  0.500000  1
  Rh  Rh7  1  0.356649  0.670797  0.000000  1
  Rh  Rh8  1  0.643351  0.314147  0.000000  1
