# generated using pymatgen
data_NaYb(SmB12)2
_symmetry_space_group_name_H-M   'P 1'
_cell_length_a   7.14446868
_cell_length_b   7.14446894
_cell_length_c   5.84648100
_cell_angle_alpha   90.00000000
_cell_angle_beta   90.00000000
_cell_angle_gamma   109.33065167
_symmetry_Int_Tables_number   1
_chemical_formula_structural   NaYb(SmB12)2
_chemical_formula_sum   'Na1 Yb1 Sm2 B24'
_cell_volume   281.60049255
_cell_formula_units_Z   1
loop_
 _symmetry_equiv_pos_site_id
 _symmetry_equiv_pos_as_xyz
  1  'x, y, z'
loop_
 _atom_site_type_symbol
 _atom_site_label
 _atom_site_symmetry_multiplicity
 _atom_site_fract_x
 _atom_site_fract_y
 _atom_site_fract_z
 _atom_site_occupancy
  Na  Na0  1  0.749227  0.250773  0.500000  1
  Yb  Yb1  1  0.997794  0.002206  0.000000  1
  Sm  Sm2  1  0.501746  0.498254  0.000000  1
  Sm  Sm3  1  0.250435  0.749565  0.500000  1
  B  B4  1  0.175069  0.325074  0.649196  1
  B  B5  1  0.925774  0.575166  0.149771  1
  B  B6  1  0.674926  0.824931  0.649196  1
  B  B7  1  0.424834  0.074226  0.149771  1
  B  B8  1  0.175069  0.325074  0.350804  1
  B  B9  1  0.925774  0.575166  0.850229  1
  B  B10  1  0.674926  0.824931  0.350804  1
  B  B11  1  0.424834  0.074226  0.850229  1
  B  B12  1  0.400697  0.398558  0.500000  1
  B  B13  1  0.149097  0.650820  0.000000  1
  B  B14  1  0.898919  0.900481  0.500000  1
  B  B15  1  0.650044  0.148559  0.000000  1
  B  B16  1  0.324615  0.174650  0.649335  1
  B  B17  1  0.075312  0.425651  0.149636  1
  B  B18  1  0.825350  0.675385  0.649335  1
  B  B19  1  0.574349  0.924688  0.149636  1
  B  B20  1  0.099519  0.101081  0.500000  1
  B  B21  1  0.851441  0.349956  0.000000  1
  B  B22  1  0.601442  0.599303  0.500000  1
  B  B23  1  0.349180  0.850903  0.000000  1
  B  B24  1  0.324615  0.174650  0.350665  1
  B  B25  1  0.075312  0.425651  0.850364  1
  B  B26  1  0.825350  0.675385  0.350665  1
  B  B27  1  0.574349  0.924688  0.850364  1
