# generated using pymatgen
data_ScPaB6W
_symmetry_space_group_name_H-M   'P 1'
_cell_length_a   3.66055300
_cell_length_b   9.04921900
_cell_length_c   11.42358400
_cell_angle_alpha   90.00000000
_cell_angle_beta   90.00000000
_cell_angle_gamma   90.00000000
_symmetry_Int_Tables_number   1
_chemical_formula_structural   ScPaB6W
_chemical_formula_sum   'Sc4 Pa4 B24 W4'
_cell_volume   378.40788508
_cell_formula_units_Z   4
loop_
 _symmetry_equiv_pos_site_id
 _symmetry_equiv_pos_as_xyz
  1  'x, y, z'
loop_
 _atom_site_type_symbol
 _atom_site_label
 _atom_site_symmetry_multiplicity
 _atom_site_fract_x
 _atom_site_fract_y
 _atom_site_fract_z
 _atom_site_occupancy
  Sc  Sc0  1  0.000000  0.945997  0.374500  1
  Sc  Sc1  1  0.000000  0.054003  0.625500  1
  Sc  Sc2  1  0.000000  0.445997  0.125500  1
  Sc  Sc3  1  0.000000  0.554003  0.874500  1
  Pa  Pa4  1  0.000000  0.320026  0.413632  1
  Pa  Pa5  1  0.000000  0.679974  0.586368  1
  Pa  Pa6  1  0.000000  0.820026  0.086368  1
  Pa  Pa7  1  0.000000  0.179974  0.913632  1
  B  B8  1  0.500000  0.554050  0.433096  1
  B  B9  1  0.500000  0.445950  0.566904  1
  B  B10  1  0.500000  0.054050  0.066904  1
  B  B11  1  0.500000  0.945950  0.933096  1
  B  B12  1  0.500000  0.754106  0.419865  1
  B  B13  1  0.500000  0.245894  0.580135  1
  B  B14  1  0.500000  0.254106  0.080135  1
  B  B15  1  0.500000  0.745894  0.919865  1
  B  B16  1  0.500000  0.795530  0.264294  1
  B  B17  1  0.500000  0.204470  0.735706  1
  B  B18  1  0.500000  0.295530  0.235706  1
  B  B19  1  0.500000  0.704470  0.764294  1
  B  B20  1  0.500000  0.629865  0.182396  1
  B  B21  1  0.500000  0.370135  0.817604  1
  B  B22  1  0.500000  0.129865  0.317604  1
  B  B23  1  0.500000  0.870135  0.682396  1
  B  B24  1  0.500000  0.980571  0.214392  1
  B  B25  1  0.500000  0.019429  0.785608  1
  B  B26  1  0.500000  0.480571  0.285608  1
  B  B27  1  0.500000  0.519429  0.714392  1
  B  B28  1  0.500000  0.600306  0.027545  1
  B  B29  1  0.500000  0.399694  0.972455  1
  B  B30  1  0.500000  0.100306  0.472455  1
  B  B31  1  0.500000  0.899694  0.527545  1
  W  W32  1  0.000000  0.640456  0.319349  1
  W  W33  1  0.000000  0.359544  0.680651  1
  W  W34  1  0.000000  0.140456  0.180651  1
  W  W35  1  0.000000  0.859544  0.819349  1
