# generated using pymatgen
data_Rb4Ba2ZrSb4
_symmetry_space_group_name_H-M   'P 1'
_cell_length_a   11.49505793
_cell_length_b   11.49505716
_cell_length_c   8.69656448
_cell_angle_alpha   88.34715564
_cell_angle_beta   88.34715671
_cell_angle_gamma   119.60414159
_symmetry_Int_Tables_number   1
_chemical_formula_structural   Rb4Ba2ZrSb4
_chemical_formula_sum   'Rb8 Ba4 Zr2 Sb8'
_cell_volume   997.47955160
_cell_formula_units_Z   2
loop_
 _symmetry_equiv_pos_site_id
 _symmetry_equiv_pos_as_xyz
  1  'x, y, z'
loop_
 _atom_site_type_symbol
 _atom_site_label
 _atom_site_symmetry_multiplicity
 _atom_site_fract_x
 _atom_site_fract_y
 _atom_site_fract_z
 _atom_site_occupancy
  Rb  Rb0  1  0.054432  0.524369  0.620079  1
  Rb  Rb1  1  0.524369  0.054432  0.120079  1
  Rb  Rb2  1  0.279037  0.135125  0.833666  1
  Rb  Rb3  1  0.871842  0.730462  0.774065  1
  Rb  Rb4  1  0.859692  0.145112  0.808578  1
  Rb  Rb5  1  0.730462  0.871842  0.274065  1
  Rb  Rb6  1  0.135125  0.279037  0.333666  1
  Rb  Rb7  1  0.145112  0.859692  0.308578  1
  Ba  Ba8  1  0.468679  0.936178  0.612919  1
  Ba  Ba9  1  0.470891  0.522884  0.626987  1
  Ba  Ba10  1  0.936178  0.468679  0.112919  1
  Ba  Ba11  1  0.522884  0.470891  0.126987  1
  Zr  Zr12  1  0.665477  0.335217  0.514626  1
  Zr  Zr13  1  0.335217  0.665477  0.014626  1
  Sb  Sb14  1  0.599059  0.791064  0.877723  1
  Sb  Sb15  1  0.201754  0.394885  0.927532  1
  Sb  Sb16  1  0.195185  0.793370  0.907358  1
  Sb  Sb17  1  0.394885  0.201754  0.427532  1
  Sb  Sb18  1  0.791064  0.599059  0.377723  1
  Sb  Sb19  1  0.793370  0.195185  0.407358  1
  Sb  Sb20  1  0.669542  0.355304  0.842101  1
  Sb  Sb21  1  0.355304  0.669542  0.342101  1
