# generated using pymatgen
data_Sc12Mn(SiBr8)2
_symmetry_space_group_name_H-M   'P 1'
_cell_length_a   8.84865869
_cell_length_b   11.11974148
_cell_length_c   11.74177009
_cell_angle_alpha   116.85209548
_cell_angle_beta   101.63924716
_cell_angle_gamma   101.10519014
_symmetry_Int_Tables_number   1
_chemical_formula_structural   Sc12Mn(SiBr8)2
_chemical_formula_sum   'Sc12 Mn1 Si2 Br16'
_cell_volume   954.85777421
_cell_formula_units_Z   1
loop_
 _symmetry_equiv_pos_site_id
 _symmetry_equiv_pos_as_xyz
  1  'x, y, z'
loop_
 _atom_site_type_symbol
 _atom_site_label
 _atom_site_symmetry_multiplicity
 _atom_site_fract_x
 _atom_site_fract_y
 _atom_site_fract_z
 _atom_site_occupancy
  Sc  Sc0  1  0.074129  0.265267  0.356301  1
  Sc  Sc1  1  0.903996  0.745927  0.650799  1
  Sc  Sc2  1  0.764279  0.538387  0.317934  1
  Sc  Sc3  1  0.208411  0.463120  0.673627  1
  Sc  Sc4  1  0.264962  0.734708  0.643652  1
  Sc  Sc5  1  0.703750  0.253928  0.349463  1
  Sc  Sc6  1  0.131795  0.536611  0.326436  1
  Sc  Sc7  1  0.843530  0.461683  0.682433  1
  Sc  Sc8  1  0.410608  0.351661  0.262183  1
  Sc  Sc9  1  0.609711  0.648797  0.737860  1
  Sc  Sc10  1  0.466525  0.297317  0.522145  1
  Sc  Sc11  1  0.553649  0.703311  0.477653  1
  Mn  Mn12  1  0.660359  0.500136  0.500544  1
  Si  Si13  1  0.969334  0.499905  0.500229  1
  Si  Si14  1  0.372267  0.500357  0.499863  1
  Br  Br15  1  0.391576  0.733251  0.873256  1
  Br  Br16  1  0.601337  0.256060  0.108818  1
  Br  Br17  1  0.191204  0.964506  0.782778  1
  Br  Br18  1  0.814758  0.035742  0.216973  1
  Br  Br19  1  0.348335  0.090915  0.249546  1
  Br  Br20  1  0.677920  0.909063  0.750232  1
  Br  Br21  1  0.572450  0.436269  0.801872  1
  Br  Br22  1  0.450049  0.564280  0.197749  1
  Br  Br23  1  0.304200  0.818999  0.464012  1
  Br  Br24  1  0.691601  0.165612  0.538282  1
  Br  Br25  1  0.168455  0.180325  0.534165  1
  Br  Br26  1  0.836077  0.833820  0.463204  1
  Br  Br27  1  0.929812  0.575396  0.159495  1
  Br  Br28  1  0.077341  0.423541  0.839965  1
  Br  Br29  1  0.928105  0.743628  0.891628  1
  Br  Br30  1  0.079475  0.267478  0.126905  1
