# generated using pymatgen
data_Dy5Y15(Cd3Os)2
_symmetry_space_group_name_H-M   'P 1'
_cell_length_a   9.63717817
_cell_length_b   9.63644237
_cell_length_c   9.90290259
_cell_angle_alpha   89.99999749
_cell_angle_beta   89.94373569
_cell_angle_gamma   119.99747394
_symmetry_Int_Tables_number   1
_chemical_formula_structural   Dy5Y15(Cd3Os)2
_chemical_formula_sum   'Dy5 Y15 Cd6 Os2'
_cell_volume   796.47203239
_cell_formula_units_Z   1
loop_
 _symmetry_equiv_pos_site_id
 _symmetry_equiv_pos_as_xyz
  1  'x, y, z'
loop_
 _atom_site_type_symbol
 _atom_site_label
 _atom_site_symmetry_multiplicity
 _atom_site_fract_x
 _atom_site_fract_y
 _atom_site_fract_z
 _atom_site_occupancy
  Dy  Dy0  1  0.209762  0.789931  0.440230  1
  Dy  Dy1  1  0.209762  0.419831  0.440230  1
  Dy  Dy2  1  0.580126  0.790063  0.440291  1
  Dy  Dy3  1  0.790162  0.209969  0.559815  1
  Dy  Dy4  1  0.790162  0.580193  0.559815  1
  Y  Y5  1  0.999717  0.999858  0.499907  1
  Y  Y6  1  0.000022  0.000011  0.000072  1
  Y  Y7  1  0.419007  0.209503  0.559161  1
  Y  Y8  1  0.790380  0.209520  0.940426  1
  Y  Y9  1  0.790380  0.580860  0.940426  1
  Y  Y10  1  0.419389  0.209695  0.940432  1
  Y  Y11  1  0.209594  0.790358  0.059625  1
  Y  Y12  1  0.209594  0.419236  0.059625  1
  Y  Y13  1  0.580789  0.790394  0.059572  1
  Y  Y14  1  0.540099  0.459955  0.250300  1
  Y  Y15  1  0.540099  0.080144  0.250300  1
  Y  Y16  1  0.919742  0.459871  0.250460  1
  Y  Y17  1  0.459887  0.540244  0.749662  1
  Y  Y18  1  0.459887  0.919643  0.749662  1
  Y  Y19  1  0.080196  0.540098  0.749559  1
  Cd  Cd20  1  0.885514  0.114559  0.249857  1
  Cd  Cd21  1  0.885514  0.770957  0.249857  1
  Cd  Cd22  1  0.229096  0.114549  0.249931  1
  Cd  Cd23  1  0.114559  0.885478  0.750102  1
  Cd  Cd24  1  0.114559  0.229080  0.750102  1
  Cd  Cd25  1  0.770912  0.885455  0.750173  1
  Os  Os26  1  0.333444  0.666723  0.251526  1
  Os  Os27  1  0.667647  0.333823  0.748879  1
