# generated using pymatgen
data_Tb9Ho7MgCd3Pt4
_symmetry_space_group_name_H-M   'P 1'
_cell_length_a   9.70586287
_cell_length_b   9.70086180
_cell_length_c   9.71100963
_cell_angle_alpha   60.03612932
_cell_angle_beta   60.08603654
_cell_angle_gamma   60.09319605
_symmetry_Int_Tables_number   1
_chemical_formula_structural   Tb9Ho7MgCd3Pt4
_chemical_formula_sum   'Tb9 Ho7 Mg1 Cd3 Pt4'
_cell_volume   647.58914848
_cell_formula_units_Z   1
loop_
 _symmetry_equiv_pos_site_id
 _symmetry_equiv_pos_as_xyz
  1  'x, y, z'
loop_
 _atom_site_type_symbol
 _atom_site_label
 _atom_site_symmetry_multiplicity
 _atom_site_fract_x
 _atom_site_fract_y
 _atom_site_fract_z
 _atom_site_occupancy
  Tb  Tb0  1  0.811587  0.188281  0.811737  1
  Tb  Tb1  1  0.191425  0.190871  0.809993  1
  Tb  Tb2  1  0.812076  0.811859  0.188143  1
  Tb  Tb3  1  0.936084  0.566183  0.565809  1
  Tb  Tb4  1  0.562967  0.936737  0.936990  1
  Tb  Tb5  1  0.565941  0.935964  0.565987  1
  Tb  Tb6  1  0.936867  0.563107  0.936855  1
  Tb  Tb7  1  0.565767  0.566281  0.936014  1
  Tb  Tb8  1  0.937020  0.936818  0.562869  1
  Ho  Ho9  1  0.349491  0.349621  0.349124  1
  Ho  Ho10  1  0.351930  0.352593  0.945763  1
  Ho  Ho11  1  0.351945  0.945538  0.352508  1
  Ho  Ho12  1  0.945774  0.352219  0.352028  1
  Ho  Ho13  1  0.809857  0.191144  0.191587  1
  Ho  Ho14  1  0.188515  0.811387  0.811733  1
  Ho  Ho15  1  0.191216  0.809737  0.191207  1
  Mg  Mg16  1  0.575905  0.576110  0.576282  1
  Cd  Cd17  1  0.581317  0.581314  0.254011  1
  Cd  Cd18  1  0.581410  0.254081  0.581272  1
  Cd  Cd19  1  0.254115  0.581451  0.581276  1
  Pt  Pt20  1  0.143631  0.143683  0.144237  1
  Pt  Pt21  1  0.142183  0.141514  0.570793  1
  Pt  Pt22  1  0.142215  0.571334  0.141585  1
  Pt  Pt23  1  0.570764  0.142173  0.142194  1
