# generated using pymatgen
data_YbHfCo12P7
_symmetry_space_group_name_H-M   'P 1'
_cell_length_a   8.95386800
_cell_length_b   8.95386924
_cell_length_c   3.54374000
_cell_angle_alpha   90.00000000
_cell_angle_beta   90.00000000
_cell_angle_gamma   120.00000282
_symmetry_Int_Tables_number   1
_chemical_formula_structural   YbHfCo12P7
_chemical_formula_sum   'Yb1 Hf1 Co12 P7'
_cell_volume   246.04463815
_cell_formula_units_Z   1
loop_
 _symmetry_equiv_pos_site_id
 _symmetry_equiv_pos_as_xyz
  1  'x, y, z'
loop_
 _atom_site_type_symbol
 _atom_site_label
 _atom_site_symmetry_multiplicity
 _atom_site_fract_x
 _atom_site_fract_y
 _atom_site_fract_z
 _atom_site_occupancy
  Yb  Yb0  1  0.333333  0.666667  0.000000  1
  Hf  Hf1  1  0.666667  0.333333  0.500000  1
  Co  Co2  1  0.725940  0.880847  0.000000  1
  Co  Co3  1  0.932786  0.370124  0.000000  1
  Co  Co4  1  0.233924  0.101251  0.500000  1
  Co  Co5  1  0.898749  0.132673  0.500000  1
  Co  Co6  1  0.154907  0.274060  0.000000  1
  Co  Co7  1  0.387782  0.434955  0.500000  1
  Co  Co8  1  0.119153  0.845093  0.000000  1
  Co  Co9  1  0.437339  0.067214  0.000000  1
  Co  Co10  1  0.047173  0.612218  0.500000  1
  Co  Co11  1  0.565045  0.952827  0.500000  1
  Co  Co12  1  0.629876  0.562661  0.000000  1
  Co  Co13  1  0.867327  0.766076  0.500000  1
  P  P14  1  0.410851  0.295615  0.000000  1
  P  P15  1  0.289543  0.885169  0.500000  1
  P  P16  1  0.704385  0.115236  0.000000  1
  P  P17  1  0.595627  0.710457  0.500000  1
  P  P18  1  0.884764  0.589149  0.000000  1
  P  P19  1  0.114831  0.404373  0.500000  1
  P  P20  1  0.000000  0.000000  0.000000  1
