# generated using pymatgen
data_Ho2Lu6Cr3OsC8
_symmetry_space_group_name_H-M   'P 1'
_cell_length_a   4.94463100
_cell_length_b   6.40238509
_cell_length_c   9.58526100
_cell_angle_alpha   90.07903875
_cell_angle_beta   90.00000000
_cell_angle_gamma   90.00000000
_symmetry_Int_Tables_number   1
_chemical_formula_structural   Ho2Lu6Cr3OsC8
_chemical_formula_sum   'Ho2 Lu6 Cr3 Os1 C8'
_cell_volume   303.44445766
_cell_formula_units_Z   1
loop_
 _symmetry_equiv_pos_site_id
 _symmetry_equiv_pos_as_xyz
  1  'x, y, z'
loop_
 _atom_site_type_symbol
 _atom_site_label
 _atom_site_symmetry_multiplicity
 _atom_site_fract_x
 _atom_site_fract_y
 _atom_site_fract_z
 _atom_site_occupancy
  Ho  Ho0  1  0.750000  0.465481  0.784795  1
  Ho  Ho1  1  0.750000  0.968429  0.713384  1
  Lu  Lu2  1  0.250000  0.681089  0.556983  1
  Lu  Lu3  1  0.750000  0.323833  0.440233  1
  Lu  Lu4  1  0.750000  0.821778  0.058600  1
  Lu  Lu5  1  0.250000  0.174142  0.944597  1
  Lu  Lu6  1  0.250000  0.533311  0.217903  1
  Lu  Lu7  1  0.250000  0.033166  0.281242  1
  Cr  Cr8  1  0.250000  0.722591  0.864728  1
  Cr  Cr9  1  0.750000  0.274397  0.139073  1
  Cr  Cr10  1  0.750000  0.774977  0.362949  1
  Os  Os11  1  0.250000  0.222278  0.633965  1
  C  C12  1  0.250000  0.460408  0.764180  1
  C  C13  1  0.750000  0.545533  0.237963  1
  C  C14  1  0.750000  0.043768  0.262538  1
  C  C15  1  0.250000  0.948475  0.743293  1
  C  C16  1  0.250000  0.816330  0.045530  1
  C  C17  1  0.750000  0.183073  0.960063  1
  C  C18  1  0.750000  0.681584  0.542559  1
  C  C19  1  0.250000  0.325358  0.445429  1
