# generated using pymatgen
data_Y4Si7GeAu16
_symmetry_space_group_name_H-M   'P 1'
_cell_length_a   4.42749900
_cell_length_b   4.42438400
_cell_length_c   27.10958100
_cell_angle_alpha   90.00000000
_cell_angle_beta   90.00000000
_cell_angle_gamma   90.00000000
_symmetry_Int_Tables_number   1
_chemical_formula_structural   Y4Si7GeAu16
_chemical_formula_sum   'Y4 Si7 Ge1 Au16'
_cell_volume   531.04838222
_cell_formula_units_Z   1
loop_
 _symmetry_equiv_pos_site_id
 _symmetry_equiv_pos_as_xyz
  1  'x, y, z'
loop_
 _atom_site_type_symbol
 _atom_site_label
 _atom_site_symmetry_multiplicity
 _atom_site_fract_x
 _atom_site_fract_y
 _atom_site_fract_z
 _atom_site_occupancy
  Y  Y0  1  0.000000  0.500000  0.749877  1
  Y  Y1  1  0.500000  0.000000  0.250365  1
  Y  Y2  1  0.500000  0.500000  0.000200  1
  Y  Y3  1  0.500000  0.500000  0.499876  1
  Si  Si4  1  0.000000  0.000000  0.957228  1
  Si  Si5  1  0.000000  0.000000  0.456760  1
  Si  Si6  1  0.500000  0.000000  0.702695  1
  Si  Si7  1  0.000000  0.500000  0.207083  1
  Si  Si8  1  0.000000  0.500000  0.293687  1
  Si  Si9  1  0.000000  0.000000  0.043558  1
  Si  Si10  1  0.000000  0.000000  0.542807  1
  Ge  Ge11  1  0.500000  0.000000  0.790265  1
  Au  Au12  1  0.500000  0.000000  0.086040  1
  Au  Au13  1  0.500000  0.500000  0.662478  1
  Au  Au14  1  0.500000  0.500000  0.839280  1
  Au  Au15  1  0.000000  0.500000  0.085333  1
  Au  Au16  1  0.500000  0.000000  0.915968  1
  Au  Au17  1  0.000000  0.000000  0.663537  1
  Au  Au18  1  0.000000  0.500000  0.415084  1
  Au  Au19  1  0.500000  0.500000  0.336648  1
  Au  Au20  1  0.500000  0.000000  0.414394  1
  Au  Au21  1  0.000000  0.000000  0.335413  1
  Au  Au22  1  0.000000  0.000000  0.165235  1
  Au  Au23  1  0.500000  0.000000  0.584483  1
  Au  Au24  1  0.000000  0.000000  0.837939  1
  Au  Au25  1  0.500000  0.500000  0.164009  1
  Au  Au26  1  0.000000  0.500000  0.585213  1
  Au  Au27  1  0.000000  0.500000  0.914543  1
