# generated using pymatgen
data_Ca2Mg3Si12Ir19
_symmetry_space_group_name_H-M   'P 1'
_cell_length_a   12.74599600
_cell_length_b   12.74599621
_cell_length_c   3.98410900
_cell_angle_alpha   90.00000000
_cell_angle_beta   90.00000000
_cell_angle_gamma   120.00000464
_symmetry_Int_Tables_number   1
_chemical_formula_structural   Ca2Mg3Si12Ir19
_chemical_formula_sum   'Ca2 Mg3 Si12 Ir19'
_cell_volume   560.54358397
_cell_formula_units_Z   1
loop_
 _symmetry_equiv_pos_site_id
 _symmetry_equiv_pos_as_xyz
  1  'x, y, z'
loop_
 _atom_site_type_symbol
 _atom_site_label
 _atom_site_symmetry_multiplicity
 _atom_site_fract_x
 _atom_site_fract_y
 _atom_site_fract_z
 _atom_site_occupancy
  Ca  Ca0  1  0.666667  0.333333  0.000000  1
  Ca  Ca1  1  0.333333  0.666667  0.000000  1
  Mg  Mg2  1  0.000000  0.177738  0.500000  1
  Mg  Mg3  1  0.822262  0.822262  0.500000  1
  Mg  Mg4  1  0.177738  0.000000  0.500000  1
  Si  Si5  1  0.478068  0.313008  0.500000  1
  Si  Si6  1  0.820770  0.000000  0.000000  1
  Si  Si7  1  0.179230  0.179230  0.000000  1
  Si  Si8  1  0.000000  0.820770  0.000000  1
  Si  Si9  1  0.367746  0.000000  0.000000  1
  Si  Si10  1  0.686992  0.165061  0.500000  1
  Si  Si11  1  0.834939  0.521932  0.500000  1
  Si  Si12  1  0.521932  0.834939  0.500000  1
  Si  Si13  1  0.165061  0.686992  0.500000  1
  Si  Si14  1  0.313008  0.478068  0.500000  1
  Si  Si15  1  0.000000  0.367746  0.000000  1
  Si  Si16  1  0.632254  0.632254  0.000000  1
  Ir  Ir17  1  0.809688  0.183556  0.000000  1
  Ir  Ir18  1  0.373867  0.190312  0.000000  1
  Ir  Ir19  1  0.640050  0.514192  0.500000  1
  Ir  Ir20  1  0.874142  0.359950  0.500000  1
  Ir  Ir21  1  0.359950  0.874142  0.500000  1
  Ir  Ir22  1  0.514192  0.640050  0.500000  1
  Ir  Ir23  1  0.125858  0.485808  0.500000  1
  Ir  Ir24  1  0.816444  0.626133  0.000000  1
  Ir  Ir25  1  0.626133  0.816444  0.000000  1
  Ir  Ir26  1  0.183556  0.809688  0.000000  1
  Ir  Ir27  1  0.190312  0.373867  0.000000  1
  Ir  Ir28  1  0.000000  0.721763  0.500000  1
  Ir  Ir29  1  0.278237  0.278237  0.500000  1
  Ir  Ir30  1  0.721763  0.000000  0.500000  1
  Ir  Ir31  1  0.000000  0.552802  0.000000  1
  Ir  Ir32  1  0.447198  0.447198  0.000000  1
  Ir  Ir33  1  0.552802  0.000000  0.000000  1
  Ir  Ir34  1  0.000000  0.000000  0.000000  1
  Ir  Ir35  1  0.485808  0.125858  0.500000  1
