# generated using pymatgen
data_LiCo3P3Rh2
_symmetry_space_group_name_H-M   'P 1'
_cell_length_a   3.62407400
_cell_length_b   10.41974800
_cell_length_c   11.89962600
_cell_angle_alpha   90.00000000
_cell_angle_beta   90.00000000
_cell_angle_gamma   90.00000000
_symmetry_Int_Tables_number   1
_chemical_formula_structural   LiCo3P3Rh2
_chemical_formula_sum   'Li4 Co12 P12 Rh8'
_cell_volume   449.35293701
_cell_formula_units_Z   4
loop_
 _symmetry_equiv_pos_site_id
 _symmetry_equiv_pos_as_xyz
  1  'x, y, z'
loop_
 _atom_site_type_symbol
 _atom_site_label
 _atom_site_symmetry_multiplicity
 _atom_site_fract_x
 _atom_site_fract_y
 _atom_site_fract_z
 _atom_site_occupancy
  Li  Li0  1  0.250000  0.583918  0.710536  1
  Li  Li1  1  0.250000  0.916082  0.210536  1
  Li  Li2  1  0.750000  0.416082  0.289464  1
  Li  Li3  1  0.750000  0.083918  0.789464  1
  Co  Co4  1  0.250000  0.222551  0.178045  1
  Co  Co5  1  0.250000  0.277449  0.678045  1
  Co  Co6  1  0.750000  0.777449  0.821955  1
  Co  Co7  1  0.750000  0.722551  0.321955  1
  Co  Co8  1  0.250000  0.883202  0.698949  1
  Co  Co9  1  0.250000  0.616798  0.198949  1
  Co  Co10  1  0.750000  0.116798  0.301051  1
  Co  Co11  1  0.750000  0.383202  0.801051  1
  Co  Co12  1  0.250000  0.463585  0.930981  1
  Co  Co13  1  0.250000  0.036415  0.430981  1
  Co  Co14  1  0.750000  0.536415  0.069019  1
  Co  Co15  1  0.750000  0.963585  0.569019  1
  P  P16  1  0.250000  0.422160  0.115760  1
  P  P17  1  0.250000  0.077840  0.615760  1
  P  P18  1  0.750000  0.577840  0.884240  1
  P  P19  1  0.750000  0.922160  0.384240  1
  P  P20  1  0.250000  0.270139  0.860498  1
  P  P21  1  0.250000  0.229861  0.360498  1
  P  P22  1  0.750000  0.729861  0.139502  1
  P  P23  1  0.750000  0.770139  0.639502  1
  P  P24  1  0.250000  0.600471  0.379527  1
  P  P25  1  0.250000  0.899529  0.879527  1
  P  P26  1  0.750000  0.399529  0.620473  1
  P  P27  1  0.750000  0.100471  0.120473  1
  Rh  Rh28  1  0.250000  0.711166  0.985902  1
  Rh  Rh29  1  0.250000  0.788834  0.485902  1
  Rh  Rh30  1  0.750000  0.288834  0.014098  1
  Rh  Rh31  1  0.750000  0.211166  0.514098  1
  Rh  Rh32  1  0.250000  0.406818  0.478644  1
  Rh  Rh33  1  0.250000  0.093182  0.978644  1
  Rh  Rh34  1  0.750000  0.593182  0.521356  1
  Rh  Rh35  1  0.750000  0.906818  0.021356  1
