# generated using pymatgen
data_Li4TbCe3Ir4
_symmetry_space_group_name_H-M   'P 1'
_cell_length_a   7.02403660
_cell_length_b   3.91007900
_cell_length_c   8.51891773
_cell_angle_alpha   90.00000000
_cell_angle_beta   90.75457623
_cell_angle_gamma   90.00000000
_symmetry_Int_Tables_number   1
_chemical_formula_structural   Li4TbCe3Ir4
_chemical_formula_sum   'Li4 Tb1 Ce3 Ir4'
_cell_volume   233.94784973
_cell_formula_units_Z   1
loop_
 _symmetry_equiv_pos_site_id
 _symmetry_equiv_pos_as_xyz
  1  'x, y, z'
loop_
 _atom_site_type_symbol
 _atom_site_label
 _atom_site_symmetry_multiplicity
 _atom_site_fract_x
 _atom_site_fract_y
 _atom_site_fract_z
 _atom_site_occupancy
  Li  Li0  1  0.872140  0.250000  0.552499  1
  Li  Li1  1  0.378973  0.250000  0.946725  1
  Li  Li2  1  0.122694  0.750000  0.444110  1
  Li  Li3  1  0.631668  0.750000  0.051137  1
  Tb  Tb4  1  0.950392  0.250000  0.180909  1
  Ce  Ce5  1  0.450180  0.250000  0.311666  1
  Ce  Ce6  1  0.048782  0.750000  0.822435  1
  Ce  Ce7  1  0.541373  0.750000  0.682404  1
  Ir  Ir8  1  0.770653  0.250000  0.862485  1
  Ir  Ir9  1  0.263114  0.250000  0.638654  1
  Ir  Ir10  1  0.246995  0.750000  0.133574  1
  Ir  Ir11  1  0.723035  0.750000  0.373404  1
