# generated using pymatgen
data_YbNi3SnGe
_symmetry_space_group_name_H-M   'P 1'
_cell_length_a   3.98199500
_cell_length_b   9.21151984
_cell_length_c   9.21152032
_cell_angle_alpha   59.77897154
_cell_angle_beta   90.00000000
_cell_angle_gamma   90.00000000
_symmetry_Int_Tables_number   1
_chemical_formula_structural   YbNi3SnGe
_chemical_formula_sum   'Yb3 Ni9 Sn3 Ge3'
_cell_volume   291.95933113
_cell_formula_units_Z   3
loop_
 _symmetry_equiv_pos_site_id
 _symmetry_equiv_pos_as_xyz
  1  'x, y, z'
loop_
 _atom_site_type_symbol
 _atom_site_label
 _atom_site_symmetry_multiplicity
 _atom_site_fract_x
 _atom_site_fract_y
 _atom_site_fract_z
 _atom_site_occupancy
  Yb  Yb0  1  0.500000  0.333309  0.333335  1
  Yb  Yb1  1  0.500000  0.666665  0.666691  1
  Yb  Yb2  1  0.000000  0.999994  0.000006  1
  Ni  Ni3  1  0.000000  0.214118  0.155606  1
  Ni  Ni4  1  0.000000  0.155635  0.630213  1
  Ni  Ni5  1  0.000000  0.630289  0.214067  1
  Ni  Ni6  1  0.000000  0.844394  0.785882  1
  Ni  Ni7  1  0.000000  0.369787  0.844365  1
  Ni  Ni8  1  0.000000  0.785933  0.369711  1
  Ni  Ni9  1  0.500000  0.271899  0.728101  1
  Ni  Ni10  1  0.500000  0.727969  0.000038  1
  Ni  Ni11  1  0.500000  0.999962  0.272031  1
  Sn  Sn12  1  0.000000  0.461556  0.538444  1
  Sn  Sn13  1  0.000000  0.538440  0.000095  1
  Sn  Sn14  1  0.000000  0.999905  0.461560  1
  Ge  Ge15  1  0.500000  0.750752  0.249248  1
  Ge  Ge16  1  0.500000  0.249280  0.999990  1
  Ge  Ge17  1  0.500000  0.000010  0.750720  1
