# generated using pymatgen
data_SmPa3(GeIr)4
_symmetry_space_group_name_H-M   'P 1'
_cell_length_a   4.34502000
_cell_length_b   7.00191890
_cell_length_c   7.69012909
_cell_angle_alpha   89.60334423
_cell_angle_beta   90.00000000
_cell_angle_gamma   90.00000000
_symmetry_Int_Tables_number   1
_chemical_formula_structural   SmPa3(GeIr)4
_chemical_formula_sum   'Sm1 Pa3 Ge4 Ir4'
_cell_volume   233.95486419
_cell_formula_units_Z   1
loop_
 _symmetry_equiv_pos_site_id
 _symmetry_equiv_pos_as_xyz
  1  'x, y, z'
loop_
 _atom_site_type_symbol
 _atom_site_label
 _atom_site_symmetry_multiplicity
 _atom_site_fract_x
 _atom_site_fract_y
 _atom_site_fract_z
 _atom_site_occupancy
  Sm  Sm0  1  0.250000  0.990312  0.297536  1
  Pa  Pa1  1  0.250000  0.491279  0.199116  1
  Pa  Pa2  1  0.750000  0.507700  0.796422  1
  Pa  Pa3  1  0.750000  0.005886  0.705449  1
  Ge  Ge4  1  0.250000  0.823749  0.918510  1
  Ge  Ge5  1  0.750000  0.184569  0.088731  1
  Ge  Ge6  1  0.750000  0.680781  0.415087  1
  Ge  Ge7  1  0.250000  0.313113  0.580575  1
  Ir  Ir8  1  0.250000  0.720577  0.596391  1
  Ir  Ir9  1  0.750000  0.290809  0.414074  1
  Ir  Ir10  1  0.750000  0.761066  0.079199  1
  Ir  Ir11  1  0.250000  0.230159  0.908908  1
