# generated using pymatgen
data_Ti2NbSi4Mo9
_symmetry_space_group_name_H-M   'P 1'
_cell_length_a   4.95353600
_cell_length_b   4.96226212
_cell_length_c   9.76725199
_cell_angle_alpha   90.01304012
_cell_angle_beta   90.00000000
_cell_angle_gamma   90.00000000
_symmetry_Int_Tables_number   1
_chemical_formula_structural   Ti2NbSi4Mo9
_chemical_formula_sum   'Ti2 Nb1 Si4 Mo9'
_cell_volume   240.08631513
_cell_formula_units_Z   1
loop_
 _symmetry_equiv_pos_site_id
 _symmetry_equiv_pos_as_xyz
  1  'x, y, z'
loop_
 _atom_site_type_symbol
 _atom_site_label
 _atom_site_symmetry_multiplicity
 _atom_site_fract_x
 _atom_site_fract_y
 _atom_site_fract_z
 _atom_site_occupancy
  Ti  Ti0  1  0.000000  0.499188  0.376323  1
  Ti  Ti1  1  0.000000  0.503092  0.873915  1
  Nb  Nb2  1  0.500000  0.250573  0.000986  1
  Si  Si3  1  0.500000  0.500295  0.253129  1
  Si  Si4  1  0.500000  0.500137  0.750887  1
  Si  Si5  1  0.000000  0.000195  0.997750  1
  Si  Si6  1  0.000000  0.000140  0.497633  1
  Mo  Mo7  1  0.500000  0.247696  0.500912  1
  Mo  Mo8  1  0.749433  0.998898  0.250710  1
  Mo  Mo9  1  0.749557  0.999322  0.747282  1
  Mo  Mo10  1  0.000000  0.501605  0.126299  1
  Mo  Mo11  1  0.000000  0.498735  0.624643  1
  Mo  Mo12  1  0.500000  0.751937  0.000632  1
  Mo  Mo13  1  0.500000  0.749968  0.500905  1
  Mo  Mo14  1  0.250567  0.998898  0.250710  1
  Mo  Mo15  1  0.250443  0.999322  0.747282  1
