# generated using pymatgen
data_Nb10Ir3Os2
_symmetry_space_group_name_H-M   'P 1'
_cell_length_a   10.00051810
_cell_length_b   10.00223810
_cell_length_c   5.11740200
_cell_angle_alpha   90.00000000
_cell_angle_beta   90.00000000
_cell_angle_gamma   89.98356983
_symmetry_Int_Tables_number   1
_chemical_formula_structural   Nb10Ir3Os2
_chemical_formula_sum   'Nb20 Ir6 Os4'
_cell_volume   511.88123101
_cell_formula_units_Z   2
loop_
 _symmetry_equiv_pos_site_id
 _symmetry_equiv_pos_as_xyz
  1  'x, y, z'
loop_
 _atom_site_type_symbol
 _atom_site_label
 _atom_site_symmetry_multiplicity
 _atom_site_fract_x
 _atom_site_fract_y
 _atom_site_fract_z
 _atom_site_occupancy
  Nb  Nb0  1  0.395798  0.395257  0.000000  1
  Nb  Nb1  1  0.895498  0.104778  0.500000  1
  Nb  Nb2  1  0.104796  0.895583  0.500000  1
  Nb  Nb3  1  0.604857  0.604372  0.000000  1
  Nb  Nb4  1  0.127850  0.462671  0.000000  1
  Nb  Nb5  1  0.963276  0.371503  0.500000  1
  Nb  Nb6  1  0.037716  0.628191  0.500000  1
  Nb  Nb7  1  0.871154  0.537234  0.000000  1
  Nb  Nb8  1  0.371617  0.964356  0.500000  1
  Nb  Nb9  1  0.628233  0.038172  0.500000  1
  Nb  Nb10  1  0.461843  0.127747  0.000000  1
  Nb  Nb11  1  0.535247  0.871029  0.000000  1
  Nb  Nb12  1  0.180698  0.178288  0.249874  1
  Nb  Nb13  1  0.678723  0.320044  0.749274  1
  Nb  Nb14  1  0.321297  0.679798  0.750163  1
  Nb  Nb15  1  0.820797  0.821034  0.249491  1
  Nb  Nb16  1  0.321297  0.679798  0.249837  1
  Nb  Nb17  1  0.678723  0.320044  0.250726  1
  Nb  Nb18  1  0.180698  0.178288  0.750126  1
  Nb  Nb19  1  0.820797  0.821034  0.750509  1
  Ir  Ir20  1  0.569996  0.760871  0.500000  1
  Ir  Ir21  1  0.739477  0.069112  0.000000  1
  Ir  Ir22  1  0.238851  0.431191  0.500000  1
  Ir  Ir23  1  0.761284  0.568870  0.500000  1
  Ir  Ir24  1  0.930871  0.261035  0.000000  1
  Ir  Ir25  1  0.068493  0.738695  0.000000  1
  Os  Os26  1  0.000559  0.999964  0.000000  1
  Os  Os27  1  0.499982  0.500175  0.500000  1
  Os  Os28  1  0.259022  0.929577  0.000000  1
  Os  Os29  1  0.430548  0.241289  0.500000  1
