# generated using pymatgen
data_La2CdCuRh
_symmetry_space_group_name_H-M   'P 1'
_cell_length_a   7.79430500
_cell_length_b   7.75164700
_cell_length_c   3.99248200
_cell_angle_alpha   90.00000000
_cell_angle_beta   90.00000000
_cell_angle_gamma   90.00000000
_symmetry_Int_Tables_number   1
_chemical_formula_structural   La2CdCuRh
_chemical_formula_sum   'La4 Cd2 Cu2 Rh2'
_cell_volume   241.22057609
_cell_formula_units_Z   2
loop_
 _symmetry_equiv_pos_site_id
 _symmetry_equiv_pos_as_xyz
  1  'x, y, z'
loop_
 _atom_site_type_symbol
 _atom_site_label
 _atom_site_symmetry_multiplicity
 _atom_site_fract_x
 _atom_site_fract_y
 _atom_site_fract_z
 _atom_site_occupancy
  La  La0  1  0.824182  0.684690  0.500000  1
  La  La1  1  0.324182  0.815310  0.500000  1
  La  La2  1  0.673942  0.154975  0.500000  1
  La  La3  1  0.173942  0.345025  0.500000  1
  Cd  Cd4  1  0.004848  0.006662  0.000000  1
  Cd  Cd5  1  0.504848  0.493338  0.000000  1
  Cu  Cu6  1  0.872011  0.376705  0.000000  1
  Cu  Cu7  1  0.372011  0.123295  0.000000  1
  Rh  Rh8  1  0.625016  0.879447  0.000000  1
  Rh  Rh9  1  0.125016  0.620553  0.000000  1
