# generated using pymatgen
data_Tb3U2P12IrRu18
_symmetry_space_group_name_H-M   'P 1'
_cell_length_a   12.54193500
_cell_length_b   12.54193525
_cell_length_c   3.97906900
_cell_angle_alpha   90.00000000
_cell_angle_beta   90.00000000
_cell_angle_gamma   120.01774359
_symmetry_Int_Tables_number   1
_chemical_formula_structural   Tb3U2P12IrRu18
_chemical_formula_sum   'Tb3 U2 P12 Ir1 Ru18'
_cell_volume   541.95537007
_cell_formula_units_Z   1
loop_
 _symmetry_equiv_pos_site_id
 _symmetry_equiv_pos_as_xyz
  1  'x, y, z'
loop_
 _atom_site_type_symbol
 _atom_site_label
 _atom_site_symmetry_multiplicity
 _atom_site_fract_x
 _atom_site_fract_y
 _atom_site_fract_z
 _atom_site_occupancy
  Tb  Tb0  1  0.333812  0.668249  0.500000  1
  Tb  Tb1  1  0.668249  0.333812  0.500000  1
  Tb  Tb2  1  0.189625  0.189625  0.000000  1
  U  U3  1  0.814383  0.003040  0.000000  1
  U  U4  1  0.003040  0.814383  0.000000  1
  P  P5  1  0.307059  0.828028  0.000000  1
  P  P6  1  0.172440  0.478769  0.000000  1
  P  P7  1  0.520884  0.691891  0.000000  1
  P  P8  1  0.828028  0.307059  0.000000  1
  P  P9  1  0.478769  0.172440  0.000000  1
  P  P10  1  0.691891  0.520884  0.000000  1
  P  P11  1  0.373345  0.373345  0.500000  1
  P  P12  1  0.624241  0.999098  0.500000  1
  P  P13  1  0.999098  0.624241  0.500000  1
  P  P14  1  0.814097  0.814097  0.500000  1
  P  P15  1  0.186044  0.004435  0.500000  1
  P  P16  1  0.004435  0.186044  0.500000  1
  Ir  Ir17  1  0.996306  0.996306  0.500000  1
  Ru  Ru18  1  0.184646  0.815978  0.500000  1
  Ru  Ru19  1  0.184086  0.377872  0.500000  1
  Ru  Ru20  1  0.629275  0.813006  0.500000  1
  Ru  Ru21  1  0.815978  0.184646  0.500000  1
  Ru  Ru22  1  0.377872  0.184086  0.500000  1
  Ru  Ru23  1  0.813006  0.629275  0.500000  1
  Ru  Ru24  1  0.125200  0.634537  0.000000  1
  Ru  Ru25  1  0.365728  0.491384  0.000000  1
  Ru  Ru26  1  0.508923  0.872683  0.000000  1
  Ru  Ru27  1  0.634537  0.125200  0.000000  1
  Ru  Ru28  1  0.491384  0.365728  0.000000  1
  Ru  Ru29  1  0.872683  0.508923  0.000000  1
  Ru  Ru30  1  0.556325  0.556325  0.500000  1
  Ru  Ru31  1  0.441445  0.995764  0.500000  1
  Ru  Ru32  1  0.995764  0.441445  0.500000  1
  Ru  Ru33  1  0.718961  0.718961  0.000000  1
  Ru  Ru34  1  0.280620  0.997822  0.000000  1
  Ru  Ru35  1  0.997822  0.280620  0.000000  1
