# generated using pymatgen
data_Ba3Hg6Bi2Pb
_symmetry_space_group_name_H-M   'P 1'
_cell_length_a   5.39843600
_cell_length_b   9.15245300
_cell_length_c   15.72769200
_cell_angle_alpha   89.99992236
_cell_angle_beta   89.99834551
_cell_angle_gamma   89.99963803
_symmetry_Int_Tables_number   1
_chemical_formula_structural   Ba3Hg6Bi2Pb
_chemical_formula_sum   'Ba6 Hg12 Bi4 Pb2'
_cell_volume   777.08846066
_cell_formula_units_Z   2
loop_
 _symmetry_equiv_pos_site_id
 _symmetry_equiv_pos_as_xyz
  1  'x, y, z'
loop_
 _atom_site_type_symbol
 _atom_site_label
 _atom_site_symmetry_multiplicity
 _atom_site_fract_x
 _atom_site_fract_y
 _atom_site_fract_z
 _atom_site_occupancy
  Ba  Ba0  1  0.999998  0.499999  0.003732  1
  Ba  Ba1  1  0.499993  0.000000  0.166703  1
  Ba  Ba2  1  0.999988  0.500000  0.333297  1
  Ba  Ba3  1  0.499996  0.000000  0.496267  1
  Ba  Ba4  1  0.000002  0.500000  0.663033  1
  Ba  Ba5  1  0.499998  0.000000  0.836968  1
  Hg  Hg6  1  0.499999  0.259252  0.998345  1
  Hg  Hg7  1  0.499998  0.740748  0.998345  1
  Hg  Hg8  1  0.999994  0.243100  0.167119  1
  Hg  Hg9  1  0.999993  0.756899  0.167119  1
  Hg  Hg10  1  0.499987  0.256900  0.332880  1
  Hg  Hg11  1  0.499985  0.743101  0.332880  1
  Hg  Hg12  1  0.999997  0.240749  0.501654  1
  Hg  Hg13  1  0.999997  0.759251  0.501654  1
  Hg  Hg14  1  0.500001  0.253987  0.668607  1
  Hg  Hg15  1  0.500001  0.746013  0.668606  1
  Hg  Hg16  1  0.000000  0.246010  0.831397  1
  Hg  Hg17  1  0.999999  0.753991  0.831397  1
  Bi  Bi18  1  0.999999  0.000000  0.998455  1
  Bi  Bi19  1  0.499990  0.500000  0.166342  1
  Bi  Bi20  1  0.999993  0.000000  0.333654  1
  Bi  Bi21  1  0.499994  0.500001  0.501543  1
  Pb  Pb22  1  0.999972  0.999992  0.668785  1
  Pb  Pb23  1  0.500124  0.500005  0.831219  1
