# generated using pymatgen
data_Sm2HoMgCd2AgSn2
_symmetry_space_group_name_H-M   'P 1'
_cell_length_a   7.55510300
_cell_length_b   7.55510228
_cell_length_c   4.56740100
_cell_angle_alpha   90.00000000
_cell_angle_beta   90.00000000
_cell_angle_gamma   119.58507496
_symmetry_Int_Tables_number   1
_chemical_formula_structural   Sm2HoMgCd2AgSn2
_chemical_formula_sum   'Sm2 Ho1 Mg1 Cd2 Ag1 Sn2'
_cell_volume   226.71548361
_cell_formula_units_Z   1
loop_
 _symmetry_equiv_pos_site_id
 _symmetry_equiv_pos_as_xyz
  1  'x, y, z'
loop_
 _atom_site_type_symbol
 _atom_site_label
 _atom_site_symmetry_multiplicity
 _atom_site_fract_x
 _atom_site_fract_y
 _atom_site_fract_z
 _atom_site_occupancy
  Sm  Sm0  1  0.583340  0.000215  0.000000  1
  Sm  Sm1  1  0.000215  0.583340  0.000000  1
  Ho  Ho2  1  0.412205  0.412205  0.000000  1
  Mg  Mg3  1  0.767560  0.767560  0.500000  1
  Cd  Cd4  1  0.238043  0.998687  0.500000  1
  Cd  Cd5  1  0.998687  0.238043  0.500000  1
  Ag  Ag6  1  0.998976  0.998976  0.000000  1
  Sn  Sn7  1  0.337949  0.663026  0.500000  1
  Sn  Sn8  1  0.663026  0.337949  0.500000  1
