# generated using pymatgen
data_Th(Hg4Cl3)2
_symmetry_space_group_name_H-M   'P 1'
_cell_length_a   8.13759197
_cell_length_b   9.37594634
_cell_length_c   15.98625600
_cell_angle_alpha   96.01370100
_cell_angle_beta   91.20879693
_cell_angle_gamma   100.28976099
_symmetry_Int_Tables_number   1
_chemical_formula_structural   Th(Hg4Cl3)2
_chemical_formula_sum   'Th2 Hg16 Cl12'
_cell_volume   1192.50424467
_cell_formula_units_Z   2
loop_
 _symmetry_equiv_pos_site_id
 _symmetry_equiv_pos_as_xyz
  1  'x, y, z'
loop_
 _atom_site_type_symbol
 _atom_site_label
 _atom_site_symmetry_multiplicity
 _atom_site_fract_x
 _atom_site_fract_y
 _atom_site_fract_z
 _atom_site_occupancy
  Th  Th0  1  0.000000  0.000000  0.000000  1
  Th  Th1  1  0.000000  0.000000  0.500000  1
  Hg  Hg2  1  0.573865  0.292944  0.085601  1
  Hg  Hg3  1  0.331102  0.675973  0.078239  1
  Hg  Hg4  1  0.520972  0.290550  0.257779  1
  Hg  Hg5  1  0.205403  0.620381  0.238672  1
  Hg  Hg6  1  0.632774  0.752867  0.218773  1
  Hg  Hg7  1  0.909618  0.444289  0.319412  1
  Hg  Hg8  1  0.422421  0.700288  0.391345  1
  Hg  Hg9  1  0.510485  0.284146  0.432904  1
  Hg  Hg10  1  0.489516  0.715853  0.567096  1
  Hg  Hg11  1  0.577579  0.299712  0.608655  1
  Hg  Hg12  1  0.090381  0.555711  0.680588  1
  Hg  Hg13  1  0.367225  0.247134  0.781227  1
  Hg  Hg14  1  0.794598  0.379620  0.761328  1
  Hg  Hg15  1  0.479027  0.709449  0.742221  1
  Hg  Hg16  1  0.668898  0.324027  0.921760  1
  Hg  Hg17  1  0.426135  0.707056  0.914398  1
  Cl  Cl18  1  0.113798  0.283003  0.984305  1
  Cl  Cl19  1  0.267211  0.998989  0.105345  1
  Cl  Cl20  1  0.814894  0.076845  0.130020  1
  Cl  Cl21  1  0.140988  0.916602  0.356495  1
  Cl  Cl22  1  0.708092  0.005749  0.416665  1
  Cl  Cl23  1  0.117000  0.282186  0.478944  1
  Cl  Cl24  1  0.882999  0.717815  0.521056  1
  Cl  Cl25  1  0.291907  0.994250  0.583334  1
  Cl  Cl26  1  0.859011  0.083398  0.643505  1
  Cl  Cl27  1  0.185107  0.923155  0.869980  1
  Cl  Cl28  1  0.732790  0.001010  0.894655  1
  Cl  Cl29  1  0.886201  0.716997  0.015695  1
