# generated using pymatgen
data_LiMnCd2(SnO4)2
_symmetry_space_group_name_H-M   'P 1'
_cell_length_a   6.48760862
_cell_length_b   6.42689882
_cell_length_c   6.48760849
_cell_angle_alpha   122.54667377
_cell_angle_beta   121.06953818
_cell_angle_gamma   87.16309645
_symmetry_Int_Tables_number   1
_chemical_formula_structural   LiMnCd2(SnO4)2
_chemical_formula_sum   'Li1 Mn1 Cd2 Sn2 O8'
_cell_volume   185.30233075
_cell_formula_units_Z   1
loop_
 _symmetry_equiv_pos_site_id
 _symmetry_equiv_pos_as_xyz
  1  'x, y, z'
loop_
 _atom_site_type_symbol
 _atom_site_label
 _atom_site_symmetry_multiplicity
 _atom_site_fract_x
 _atom_site_fract_y
 _atom_site_fract_z
 _atom_site_occupancy
  Li  Li0  1  0.500000  0.000000  0.000000  1
  Mn  Mn1  1  0.500000  0.500000  0.500000  1
  Cd  Cd2  1  0.897039  0.163107  0.766068  1
  Cd  Cd3  1  0.102961  0.836893  0.233932  1
  Sn  Sn4  1  0.500000  0.500000  0.000000  1
  Sn  Sn5  1  0.000000  0.500000  0.500000  1
  O  O6  1  0.740663  0.269832  0.029169  1
  O  O7  1  0.758271  0.733156  0.474886  1
  O  O8  1  0.741034  0.301590  0.485954  1
  O  O9  1  0.315635  0.301590  0.060556  1
  O  O10  1  0.684365  0.698410  0.939444  1
  O  O11  1  0.258966  0.698410  0.514046  1
  O  O12  1  0.241729  0.266844  0.525114  1
  O  O13  1  0.259337  0.730168  0.970831  1
