# generated using pymatgen
data_Mn2Be3Tl2F12
_symmetry_space_group_name_H-M   'P 1'
_cell_length_a   10.42428800
_cell_length_b   10.42428800
_cell_length_c   10.42428800
_cell_angle_alpha   90.00000000
_cell_angle_beta   90.00000000
_cell_angle_gamma   90.00000000
_symmetry_Int_Tables_number   1
_chemical_formula_structural   Mn2Be3Tl2F12
_chemical_formula_sum   'Mn8 Be12 Tl8 F48'
_cell_volume   1132.76338966
_cell_formula_units_Z   4
loop_
 _symmetry_equiv_pos_site_id
 _symmetry_equiv_pos_as_xyz
  1  'x, y, z'
loop_
 _atom_site_type_symbol
 _atom_site_label
 _atom_site_symmetry_multiplicity
 _atom_site_fract_x
 _atom_site_fract_y
 _atom_site_fract_z
 _atom_site_occupancy
  Mn  Mn0  1  0.334708  0.334708  0.334708  1
  Mn  Mn1  1  0.165292  0.665292  0.834708  1
  Mn  Mn2  1  0.665292  0.834708  0.165292  1
  Mn  Mn3  1  0.834708  0.165292  0.665292  1
  Mn  Mn4  1  0.598100  0.598100  0.598100  1
  Mn  Mn5  1  0.901900  0.401900  0.098100  1
  Mn  Mn6  1  0.401900  0.098100  0.901900  1
  Mn  Mn7  1  0.098100  0.901900  0.401900  1
  Be  Be8  1  0.018684  0.215464  0.375772  1
  Be  Be9  1  0.481316  0.784536  0.875772  1
  Be  Be10  1  0.981316  0.715464  0.124228  1
  Be  Be11  1  0.375772  0.018684  0.215464  1
  Be  Be12  1  0.518684  0.284536  0.624228  1
  Be  Be13  1  0.875772  0.481316  0.784536  1
  Be  Be14  1  0.124228  0.981316  0.715464  1
  Be  Be15  1  0.624228  0.518684  0.284536  1
  Be  Be16  1  0.215464  0.375772  0.018684  1
  Be  Be17  1  0.715464  0.124228  0.981316  1
  Be  Be18  1  0.284536  0.624228  0.518684  1
  Be  Be19  1  0.784536  0.875772  0.481316  1
  Tl  Tl20  1  0.049168  0.049168  0.049168  1
  Tl  Tl21  1  0.450832  0.950832  0.549168  1
  Tl  Tl22  1  0.950832  0.549168  0.450832  1
  Tl  Tl23  1  0.549168  0.450832  0.950832  1
  Tl  Tl24  1  0.816091  0.816091  0.816091  1
  Tl  Tl25  1  0.683909  0.183909  0.316091  1
  Tl  Tl26  1  0.183909  0.316091  0.683909  1
  Tl  Tl27  1  0.316091  0.683909  0.183909  1
  F  F28  1  0.011609  0.073110  0.327315  1
  F  F29  1  0.488391  0.926890  0.827315  1
  F  F30  1  0.988391  0.573110  0.172685  1
  F  F31  1  0.327315  0.011609  0.073110  1
  F  F32  1  0.511609  0.426890  0.672685  1
  F  F33  1  0.827315  0.488391  0.926890  1
  F  F34  1  0.172685  0.988391  0.573110  1
  F  F35  1  0.672685  0.511609  0.426890  1
  F  F36  1  0.073110  0.327315  0.011609  1
  F  F37  1  0.573110  0.172685  0.988391  1
  F  F38  1  0.426890  0.672685  0.511609  1
  F  F39  1  0.926890  0.827315  0.488391  1
  F  F40  1  0.266293  0.498568  0.438630  1
  F  F41  1  0.233707  0.501432  0.938630  1
  F  F42  1  0.733707  0.998568  0.061370  1
  F  F43  1  0.438630  0.266293  0.498568  1
  F  F44  1  0.766293  0.001432  0.561370  1
  F  F45  1  0.938630  0.233707  0.501432  1
  F  F46  1  0.061370  0.733707  0.998568  1
  F  F47  1  0.561370  0.766293  0.001432  1
  F  F48  1  0.498568  0.438630  0.266293  1
  F  F49  1  0.998568  0.061370  0.733707  1
  F  F50  1  0.001432  0.561370  0.766293  1
  F  F51  1  0.501432  0.938630  0.233707  1
  F  F52  1  0.045127  0.805095  0.227400  1
  F  F53  1  0.454873  0.194905  0.727400  1
  F  F54  1  0.954873  0.305095  0.272600  1
  F  F55  1  0.227400  0.045127  0.805095  1
  F  F56  1  0.545127  0.694905  0.772600  1
  F  F57  1  0.727400  0.454873  0.194905  1
  F  F58  1  0.272600  0.954873  0.305095  1
  F  F59  1  0.772600  0.545127  0.694905  1
  F  F60  1  0.805095  0.227400  0.045127  1
  F  F61  1  0.305095  0.272600  0.954873  1
  F  F62  1  0.694905  0.772600  0.545127  1
  F  F63  1  0.194905  0.727400  0.454873  1
  F  F64  1  0.159803  0.254443  0.403540  1
  F  F65  1  0.340197  0.745557  0.903540  1
  F  F66  1  0.840197  0.754443  0.096460  1
  F  F67  1  0.403540  0.159803  0.254443  1
  F  F68  1  0.659803  0.245557  0.596460  1
  F  F69  1  0.903540  0.340197  0.745557  1
  F  F70  1  0.096460  0.840197  0.754443  1
  F  F71  1  0.596460  0.659803  0.245557  1
  F  F72  1  0.254443  0.403540  0.159803  1
  F  F73  1  0.754443  0.096460  0.840197  1
  F  F74  1  0.245557  0.596460  0.659803  1
  F  F75  1  0.745557  0.903540  0.340197  1
