# generated using pymatgen
data_Tb7Y3(Bi3S)2
_symmetry_space_group_name_H-M   'P 1'
_cell_length_a   9.22120500
_cell_length_b   9.22120544
_cell_length_c   6.58733300
_cell_angle_alpha   90.00000000
_cell_angle_beta   90.00000000
_cell_angle_gamma   120.00000202
_symmetry_Int_Tables_number   1
_chemical_formula_structural   Tb7Y3(Bi3S)2
_chemical_formula_sum   'Tb7 Y3 Bi6 S2'
_cell_volume   485.08250978
_cell_formula_units_Z   1
loop_
 _symmetry_equiv_pos_site_id
 _symmetry_equiv_pos_as_xyz
  1  'x, y, z'
loop_
 _atom_site_type_symbol
 _atom_site_label
 _atom_site_symmetry_multiplicity
 _atom_site_fract_x
 _atom_site_fract_y
 _atom_site_fract_z
 _atom_site_occupancy
  Tb  Tb0  1  0.666667  0.333333  0.000000  1
  Tb  Tb1  1  0.754141  0.754085  0.250032  1
  Tb  Tb2  1  0.245915  0.000056  0.250032  1
  Tb  Tb3  1  0.999944  0.245859  0.250032  1
  Tb  Tb4  1  0.245915  0.245859  0.749968  1
  Tb  Tb5  1  0.754141  0.000056  0.749968  1
  Tb  Tb6  1  0.999944  0.754085  0.749968  1
  Y  Y7  1  0.666667  0.333333  0.500000  1
  Y  Y8  1  0.333333  0.666667  0.500000  1
  Y  Y9  1  0.333333  0.666667  0.000000  1
  Bi  Bi10  1  0.396473  0.396569  0.250078  1
  Bi  Bi11  1  0.603431  0.999904  0.250078  1
  Bi  Bi12  1  0.000096  0.603527  0.250078  1
  Bi  Bi13  1  0.603431  0.603527  0.749922  1
  Bi  Bi14  1  0.396473  0.999904  0.749922  1
  Bi  Bi15  1  0.000096  0.396569  0.749922  1
  S  S16  1  0.000000  0.000000  0.500000  1
  S  S17  1  0.000000  0.000000  0.000000  1
