# generated using pymatgen
data_U4MnFe(SiNi2)2
_symmetry_space_group_name_H-M   'P 1'
_cell_length_a   5.28061825
_cell_length_b   5.07156866
_cell_length_c   7.59533000
_cell_angle_alpha   90.00000000
_cell_angle_beta   90.00000000
_cell_angle_gamma   59.10582945
_symmetry_Int_Tables_number   1
_chemical_formula_structural   U4MnFe(SiNi2)2
_chemical_formula_sum   'U4 Mn1 Fe1 Si2 Ni4'
_cell_volume   174.55018419
_cell_formula_units_Z   1
loop_
 _symmetry_equiv_pos_site_id
 _symmetry_equiv_pos_as_xyz
  1  'x, y, z'
loop_
 _atom_site_type_symbol
 _atom_site_label
 _atom_site_symmetry_multiplicity
 _atom_site_fract_x
 _atom_site_fract_y
 _atom_site_fract_z
 _atom_site_occupancy
  U  U0  1  0.344354  0.313487  0.561974  1
  U  U1  1  0.657196  0.684593  0.423334  1
  U  U2  1  0.657196  0.684593  0.076666  1
  U  U3  1  0.344354  0.313487  0.938026  1
  Mn  Mn4  1  0.662603  0.175378  0.250000  1
  Fe  Fe5  1  0.160847  0.175572  0.250000  1
  Si  Si6  1  0.998134  0.004189  0.498557  1
  Si  Si7  1  0.998134  0.004189  0.001443  1
  Ni  Ni8  1  0.834287  0.332709  0.750000  1
  Ni  Ni9  1  0.335672  0.820249  0.750000  1
  Ni  Ni10  1  0.843827  0.819558  0.750000  1
  Ni  Ni11  1  0.163399  0.671996  0.250000  1
