# generated using pymatgen
data_Ca3Np(NbN3)2
_symmetry_space_group_name_H-M   'P 1'
_cell_length_a   5.66090966
_cell_length_b   5.66090930
_cell_length_c   5.89830016
_cell_angle_alpha   99.13769728
_cell_angle_beta   99.13769766
_cell_angle_gamma   120.07349804
_symmetry_Int_Tables_number   1
_chemical_formula_structural   Ca3Np(NbN3)2
_chemical_formula_sum   'Ca3 Np1 Nb2 N6'
_cell_volume   155.08239572
_cell_formula_units_Z   1
loop_
 _symmetry_equiv_pos_site_id
 _symmetry_equiv_pos_as_xyz
  1  'x, y, z'
loop_
 _atom_site_type_symbol
 _atom_site_label
 _atom_site_symmetry_multiplicity
 _atom_site_fract_x
 _atom_site_fract_y
 _atom_site_fract_z
 _atom_site_occupancy
  Ca  Ca0  1  0.828893  0.171107  0.500000  1
  Ca  Ca1  1  0.171107  0.828893  0.500000  1
  Ca  Ca2  1  0.500000  0.500000  0.500000  1
  Np  Np3  1  0.000000  0.000000  0.000000  1
  Nb  Nb4  1  0.333447  0.666553  0.000000  1
  Nb  Nb5  1  0.666553  0.333447  0.000000  1
  N  N6  1  0.400304  0.070896  0.214541  1
  N  N7  1  0.929104  0.599696  0.785459  1
  N  N8  1  0.599696  0.929104  0.785459  1
  N  N9  1  0.070896  0.400304  0.214541  1
  N  N10  1  0.743441  0.743441  0.213005  1
  N  N11  1  0.256559  0.256559  0.786995  1
