# generated using pymatgen
data_Nd10(RuPt)3
_symmetry_space_group_name_H-M   'P 1'
_cell_length_a   11.29906893
_cell_length_b   11.30330100
_cell_length_c   6.62851082
_cell_angle_alpha   90.00000000
_cell_angle_beta   90.07631170
_cell_angle_gamma   90.00000000
_symmetry_Int_Tables_number   1
_chemical_formula_structural   Nd10(RuPt)3
_chemical_formula_sum   'Nd20 Ru6 Pt6'
_cell_volume   846.57128857
_cell_formula_units_Z   2
loop_
 _symmetry_equiv_pos_site_id
 _symmetry_equiv_pos_as_xyz
  1  'x, y, z'
loop_
 _atom_site_type_symbol
 _atom_site_label
 _atom_site_symmetry_multiplicity
 _atom_site_fract_x
 _atom_site_fract_y
 _atom_site_fract_z
 _atom_site_occupancy
  Nd  Nd0  1  0.296123  0.090669  0.373738  1
  Nd  Nd1  1  0.296123  0.909331  0.873738  1
  Nd  Nd2  1  0.702514  0.086107  0.872485  1
  Nd  Nd3  1  0.702514  0.913893  0.372485  1
  Nd  Nd4  1  0.583222  0.793007  0.873658  1
  Nd  Nd5  1  0.583222  0.206993  0.373658  1
  Nd  Nd6  1  0.410781  0.793966  0.379313  1
  Nd  Nd7  1  0.410781  0.206034  0.879313  1
  Nd  Nd8  1  0.209021  0.414097  0.621839  1
  Nd  Nd9  1  0.209021  0.585903  0.121839  1
  Nd  Nd10  1  0.796854  0.412890  0.124897  1
  Nd  Nd11  1  0.796854  0.587110  0.624897  1
  Nd  Nd12  1  0.914671  0.703144  0.127137  1
  Nd  Nd13  1  0.914671  0.296856  0.627137  1
  Nd  Nd14  1  0.091912  0.703635  0.627178  1
  Nd  Nd15  1  0.091912  0.296365  0.127178  1
  Nd  Nd16  1  0.999821  0.999161  0.499981  1
  Nd  Nd17  1  0.999821  0.000839  0.999981  1
  Nd  Nd18  1  0.495820  0.498932  0.000020  1
  Nd  Nd19  1  0.495820  0.501068  0.500020  1
  Ru  Ru20  1  0.346881  0.346074  0.250018  1
  Ru  Ru21  1  0.346881  0.653926  0.750018  1
  Ru  Ru22  1  0.500556  0.999985  0.121662  1
  Ru  Ru23  1  0.500556  0.000015  0.621662  1
  Ru  Ru24  1  0.998615  0.500285  0.878121  1
  Ru  Ru25  1  0.998615  0.499715  0.378121  1
  Pt  Pt26  1  0.845694  0.153494  0.250617  1
  Pt  Pt27  1  0.845694  0.846506  0.750617  1
  Pt  Pt28  1  0.152641  0.153596  0.749512  1
  Pt  Pt29  1  0.152641  0.846404  0.249512  1
  Pt  Pt30  1  0.654875  0.345921  0.749827  1
  Pt  Pt31  1  0.654875  0.654079  0.249827  1
