# generated using pymatgen
data_Tb2YbCe(B4Ru)4
_symmetry_space_group_name_H-M   'P 1'
_cell_length_a   3.58057400
_cell_length_b   5.98052328
_cell_length_c   11.57274093
_cell_angle_alpha   90.06004058
_cell_angle_beta   90.00000000
_cell_angle_gamma   90.00000000
_symmetry_Int_Tables_number   1
_chemical_formula_structural   Tb2YbCe(B4Ru)4
_chemical_formula_sum   'Tb2 Yb1 Ce1 B16 Ru4'
_cell_volume   247.81513791
_cell_formula_units_Z   1
loop_
 _symmetry_equiv_pos_site_id
 _symmetry_equiv_pos_as_xyz
  1  'x, y, z'
loop_
 _atom_site_type_symbol
 _atom_site_label
 _atom_site_symmetry_multiplicity
 _atom_site_fract_x
 _atom_site_fract_y
 _atom_site_fract_z
 _atom_site_occupancy
  Tb  Tb0  1  0.500000  0.370673  0.847641  1
  Tb  Tb1  1  0.500000  0.127408  0.352368  1
  Yb  Yb2  1  0.500000  0.870918  0.649774  1
  Ce  Ce3  1  0.500000  0.628523  0.150263  1
  B  B4  1  0.000000  0.976072  0.191145  1
  B  B5  1  0.000000  0.024534  0.807590  1
  B  B6  1  0.000000  0.475875  0.309960  1
  B  B7  1  0.000000  0.524490  0.690909  1
  B  B8  1  0.000000  0.787432  0.315846  1
  B  B9  1  0.000000  0.211765  0.684662  1
  B  B10  1  0.000000  0.287189  0.185313  1
  B  B11  1  0.000000  0.714565  0.813239  1
  B  B12  1  0.000000  0.862872  0.470458  1
  B  B13  1  0.000000  0.136162  0.530753  1
  B  B14  1  0.000000  0.363399  0.030281  1
  B  B15  1  0.000000  0.637111  0.968683  1
  B  B16  1  0.000000  0.889564  0.045721  1
  B  B17  1  0.000000  0.111339  0.952013  1
  B  B18  1  0.000000  0.387976  0.454973  1
  B  B19  1  0.000000  0.613302  0.547288  1
  Ru  Ru20  1  0.500000  0.638778  0.407963  1
  Ru  Ru21  1  0.500000  0.361111  0.591309  1
  Ru  Ru22  1  0.500000  0.139537  0.093114  1
  Ru  Ru23  1  0.500000  0.859403  0.908733  1
