# generated using pymatgen
data_Tb19Y(SnSb)8
_symmetry_space_group_name_H-M   'P 1'
_cell_length_a   8.12115000
_cell_length_b   8.17610900
_cell_length_c   15.49668700
_cell_angle_alpha   90.00000000
_cell_angle_beta   90.00000000
_cell_angle_gamma   89.99663903
_symmetry_Int_Tables_number   1
_chemical_formula_structural   Tb19Y(SnSb)8
_chemical_formula_sum   'Tb19 Y1 Sn8 Sb8'
_cell_volume   1028.97083576
_cell_formula_units_Z   1
loop_
 _symmetry_equiv_pos_site_id
 _symmetry_equiv_pos_as_xyz
  1  'x, y, z'
loop_
 _atom_site_type_symbol
 _atom_site_label
 _atom_site_symmetry_multiplicity
 _atom_site_fract_x
 _atom_site_fract_y
 _atom_site_fract_z
 _atom_site_occupancy
  Tb  Tb0  1  0.391051  0.838500  0.881108  1
  Tb  Tb1  1  0.891013  0.661473  0.618899  1
  Tb  Tb2  1  0.609056  0.161461  0.381137  1
  Tb  Tb3  1  0.108991  0.338583  0.118885  1
  Tb  Tb4  1  0.609056  0.161461  0.118863  1
  Tb  Tb5  1  0.108991  0.338583  0.381115  1
  Tb  Tb6  1  0.391051  0.838500  0.618892  1
  Tb  Tb7  1  0.891013  0.661473  0.881101  1
  Tb  Tb8  1  0.556749  0.329513  0.892081  1
  Tb  Tb9  1  0.056679  0.170504  0.607931  1
  Tb  Tb10  1  0.443281  0.670411  0.392105  1
  Tb  Tb11  1  0.943209  0.829517  0.107894  1
  Tb  Tb12  1  0.443281  0.670411  0.107895  1
  Tb  Tb13  1  0.943209  0.829517  0.392106  1
  Tb  Tb14  1  0.556749  0.329513  0.607919  1
  Tb  Tb15  1  0.056679  0.170504  0.892069  1
  Tb  Tb16  1  0.222299  0.499071  0.750000  1
  Tb  Tb17  1  0.722263  0.000922  0.750000  1
  Tb  Tb18  1  0.777692  0.500898  0.250000  1
  Y  Y19  1  0.277599  0.999142  0.250000  1
  Sn  Sn20  1  0.588130  0.627476  0.750000  1
  Sn  Sn21  1  0.088149  0.872537  0.750000  1
  Sn  Sn22  1  0.411876  0.372474  0.250000  1
  Sn  Sn23  1  0.911964  0.127477  0.250000  1
  Sn  Sn24  1  0.359395  0.142067  0.750000  1
  Sn  Sn25  1  0.859427  0.357909  0.750000  1
  Sn  Sn26  1  0.640451  0.857883  0.250000  1
  Sn  Sn27  1  0.140556  0.642214  0.250000  1
  Sb  Sb28  1  0.266957  0.017466  0.046956  1
  Sb  Sb29  1  0.766897  0.482535  0.453160  1
  Sb  Sb30  1  0.733128  0.982529  0.546830  1
  Sb  Sb31  1  0.233086  0.517474  0.953182  1
  Sb  Sb32  1  0.733128  0.982529  0.953170  1
  Sb  Sb33  1  0.233086  0.517474  0.546818  1
  Sb  Sb34  1  0.266957  0.017466  0.453044  1
  Sb  Sb35  1  0.766897  0.482535  0.046840  1
