# generated using pymatgen
data_TbDy3(Ti3Si4)2
_symmetry_space_group_name_H-M   'P 1'
_cell_length_a   7.05806511
_cell_length_b   7.05898411
_cell_length_c   12.96830200
_cell_angle_alpha   90.00000000
_cell_angle_beta   90.00000000
_cell_angle_gamma   89.97996664
_symmetry_Int_Tables_number   1
_chemical_formula_structural   TbDy3(Ti3Si4)2
_chemical_formula_sum   'Tb2 Dy6 Ti12 Si16'
_cell_volume   646.11668093
_cell_formula_units_Z   2
loop_
 _symmetry_equiv_pos_site_id
 _symmetry_equiv_pos_as_xyz
  1  'x, y, z'
loop_
 _atom_site_type_symbol
 _atom_site_label
 _atom_site_symmetry_multiplicity
 _atom_site_fract_x
 _atom_site_fract_y
 _atom_site_fract_z
 _atom_site_occupancy
  Tb  Tb0  1  0.997043  0.659852  0.033350  1
  Tb  Tb1  1  0.002957  0.340148  0.533350  1
  Dy  Dy2  1  0.659658  0.997465  0.966551  1
  Dy  Dy3  1  0.159731  0.502578  0.783396  1
  Dy  Dy4  1  0.840269  0.497422  0.283396  1
  Dy  Dy5  1  0.502521  0.159706  0.216627  1
  Dy  Dy6  1  0.497479  0.840294  0.716627  1
  Dy  Dy7  1  0.340342  0.002535  0.466551  1
  Ti  Ti8  1  0.347886  0.508668  0.373454  1
  Ti  Ti9  1  0.847733  0.991425  0.376486  1
  Ti  Ti10  1  0.008579  0.152320  0.123484  1
  Ti  Ti11  1  0.991421  0.847680  0.623484  1
  Ti  Ti12  1  0.508541  0.347830  0.626556  1
  Ti  Ti13  1  0.152267  0.008575  0.876486  1
  Ti  Ti14  1  0.672936  0.673177  0.499973  1
  Ti  Ti15  1  0.826748  0.173163  0.750076  1
  Ti  Ti16  1  0.173252  0.826837  0.250076  1
  Ti  Ti17  1  0.327064  0.326823  0.999973  1
  Ti  Ti18  1  0.491459  0.652170  0.126556  1
  Ti  Ti19  1  0.652114  0.491332  0.873454  1
  Si  Si20  1  0.047303  0.709499  0.434926  1
  Si  Si21  1  0.952697  0.290501  0.934926  1
  Si  Si22  1  0.708953  0.046860  0.564984  1
  Si  Si23  1  0.209398  0.452651  0.185258  1
  Si  Si24  1  0.790602  0.547349  0.685258  1
  Si  Si25  1  0.453039  0.209260  0.815000  1
  Si  Si26  1  0.546961  0.790740  0.315000  1
  Si  Si27  1  0.291047  0.953140  0.064984  1
  Si  Si28  1  0.797278  0.870194  0.184903  1
  Si  Si29  1  0.297775  0.630308  0.565221  1
  Si  Si30  1  0.702225  0.369692  0.065221  1
  Si  Si31  1  0.629583  0.297566  0.434579  1
  Si  Si32  1  0.370417  0.702434  0.934579  1
  Si  Si33  1  0.130160  0.202518  0.315176  1
  Si  Si34  1  0.202722  0.129806  0.684903  1
  Si  Si35  1  0.869840  0.797482  0.815176  1
