# generated using pymatgen
data_Nd10Y2Sc5In3(GaO4)12
_symmetry_space_group_name_H-M   'P 1'
_cell_length_a   11.08596835
_cell_length_b   11.08596953
_cell_length_c   11.07530300
_cell_angle_alpha   109.41962744
_cell_angle_beta   109.41963507
_cell_angle_gamma   109.61335230
_symmetry_Int_Tables_number   1
_chemical_formula_structural   Nd10Y2Sc5In3(GaO4)12
_chemical_formula_sum   'Nd10 Y2 Sc5 In3 Ga12 O48'
_cell_volume   1047.29937582
_cell_formula_units_Z   1
loop_
 _symmetry_equiv_pos_site_id
 _symmetry_equiv_pos_as_xyz
  1  'x, y, z'
loop_
 _atom_site_type_symbol
 _atom_site_label
 _atom_site_symmetry_multiplicity
 _atom_site_fract_x
 _atom_site_fract_y
 _atom_site_fract_z
 _atom_site_occupancy
  Nd  Nd0  1  0.248193  0.374514  0.124221  1
  Nd  Nd1  1  0.751807  0.625486  0.875779  1
  Nd  Nd2  1  0.749149  0.124851  0.374923  1
  Nd  Nd3  1  0.125502  0.250115  0.374931  1
  Nd  Nd4  1  0.373476  0.749829  0.124969  1
  Nd  Nd5  1  0.250851  0.875149  0.625077  1
  Nd  Nd6  1  0.874498  0.749885  0.625069  1
  Nd  Nd7  1  0.626524  0.250171  0.875031  1
  Nd  Nd8  1  0.374857  0.125032  0.249994  1
  Nd  Nd9  1  0.625143  0.874968  0.750006  1
  Y  Y10  1  0.124000  0.375746  0.751044  1
  Y  Y11  1  0.876000  0.624254  0.248956  1
  Sc  Sc12  1  0.000000  0.000000  0.000000  1
  Sc  Sc13  1  0.500000  0.000000  0.500000  1
  Sc  Sc14  1  0.500000  0.000000  0.000000  1
  Sc  Sc15  1  0.500000  0.500000  0.500000  1
  Sc  Sc16  1  0.000000  0.500000  0.000000  1
  In  In17  1  0.000000  0.500000  0.500000  1
  In  In18  1  0.500000  0.500000  0.000000  1
  In  In19  1  0.000000  0.000000  0.500000  1
  Ga  Ga20  1  0.249818  0.625303  0.373951  1
  Ga  Ga21  1  0.750182  0.374697  0.626049  1
  Ga  Ga22  1  0.749993  0.874990  0.124528  1
  Ga  Ga23  1  0.374959  0.250008  0.624646  1
  Ga  Ga24  1  0.625041  0.749992  0.375354  1
  Ga  Ga25  1  0.250007  0.125010  0.875472  1
  Ga  Ga26  1  0.125060  0.749401  0.875613  1
  Ga  Ga27  1  0.874940  0.250599  0.124387  1
  Ga  Ga28  1  0.625873  0.375973  0.250075  1
  Ga  Ga29  1  0.374127  0.624027  0.749925  1
  Ga  Ga30  1  0.876532  0.127094  0.751173  1
  Ga  Ga31  1  0.123468  0.872906  0.248827  1
  O  O32  1  0.474899  0.377584  0.290839  1
  O  O33  1  0.525101  0.622416  0.709161  1
  O  O34  1  0.586550  0.183973  0.209142  1
  O  O35  1  0.917665  0.132074  0.601463  1
  O  O36  1  0.290752  0.474978  0.378001  1
  O  O37  1  0.316014  0.913348  0.291002  1
  O  O38  1  0.413450  0.816027  0.790858  1
  O  O39  1  0.082335  0.867926  0.398537  1
  O  O40  1  0.709248  0.525022  0.621999  1
  O  O41  1  0.683986  0.086652  0.708998  1
  O  O42  1  0.028013  0.319764  0.900776  1
  O  O43  1  0.208411  0.585878  0.182456  1
  O  O44  1  0.122132  0.024438  0.208813  1
  O  O45  1  0.971987  0.680236  0.099224  1
  O  O46  1  0.791589  0.414122  0.817544  1
  O  O47  1  0.877868  0.975562  0.791187  1
  O  O48  1  0.596066  0.912185  0.121441  1
  O  O49  1  0.183211  0.468984  0.600856  1
  O  O50  1  0.403934  0.087815  0.878559  1
  O  O51  1  0.816789  0.531016  0.399144  1
  O  O52  1  0.902216  0.028896  0.313845  1
  O  O53  1  0.367770  0.582775  0.899473  1
  O  O54  1  0.097784  0.971104  0.686155  1
  O  O55  1  0.632230  0.417225  0.100527  1
  O  O56  1  0.377154  0.290833  0.473583  1
  O  O57  1  0.587329  0.903658  0.378208  1
  O  O58  1  0.622846  0.709167  0.526417  1
  O  O59  1  0.412671  0.096342  0.621792  1
  O  O60  1  0.121914  0.595230  0.911894  1
  O  O61  1  0.025268  0.209008  0.121460  1
  O  O62  1  0.878086  0.404770  0.088106  1
  O  O63  1  0.974732  0.790992  0.878540  1
  O  O64  1  0.316891  0.902970  0.026104  1
  O  O65  1  0.911424  0.285288  0.313375  1
  O  O66  1  0.683109  0.097030  0.973896  1
  O  O67  1  0.088576  0.714712  0.686625  1
  O  O68  1  0.186903  0.216742  0.591220  1
  O  O69  1  0.470458  0.597643  0.186145  1
  O  O70  1  0.813097  0.783258  0.408780  1
  O  O71  1  0.529542  0.402357  0.813855  1
  O  O72  1  0.282560  0.313212  0.908835  1
  O  O73  1  0.717440  0.686788  0.091165  1
  O  O74  1  0.209149  0.123099  0.026496  1
  O  O75  1  0.790851  0.876901  0.973504  1
  O  O76  1  0.904386  0.374585  0.591355  1
  O  O77  1  0.095614  0.625415  0.408645  1
  O  O78  1  0.596746  0.183234  0.474422  1
  O  O79  1  0.403254  0.816766  0.525578  1
