# generated using pymatgen
data_DyEr3(GaCo)4
_symmetry_space_group_name_H-M   'P 1'
_cell_length_a   4.39062300
_cell_length_b   6.89069863
_cell_length_c   6.96941466
_cell_angle_alpha   89.92100270
_cell_angle_beta   90.00000000
_cell_angle_gamma   90.00000000
_symmetry_Int_Tables_number   1
_chemical_formula_structural   DyEr3(GaCo)4
_chemical_formula_sum   'Dy1 Er3 Ga4 Co4'
_cell_volume   210.85567599
_cell_formula_units_Z   1
loop_
 _symmetry_equiv_pos_site_id
 _symmetry_equiv_pos_as_xyz
  1  'x, y, z'
loop_
 _atom_site_type_symbol
 _atom_site_label
 _atom_site_symmetry_multiplicity
 _atom_site_fract_x
 _atom_site_fract_y
 _atom_site_fract_z
 _atom_site_occupancy
  Dy  Dy0  1  0.750000  0.804822  0.479926  1
  Er  Er1  1  0.250000  0.196973  0.520222  1
  Er  Er2  1  0.250000  0.303387  0.020553  1
  Er  Er3  1  0.750000  0.696548  0.979484  1
  Ga  Ga4  1  0.250000  0.896480  0.194401  1
  Ga  Ga5  1  0.750000  0.395433  0.304385  1
  Ga  Ga6  1  0.250000  0.603109  0.696396  1
  Ga  Ga7  1  0.750000  0.104228  0.804963  1
  Co  Co8  1  0.250000  0.936219  0.843330  1
  Co  Co9  1  0.250000  0.563023  0.342297  1
  Co  Co10  1  0.750000  0.064464  0.156295  1
  Co  Co11  1  0.750000  0.435313  0.657749  1
