# generated using pymatgen
data_Ac3(SiRh)4
_symmetry_space_group_name_H-M   'P 1'
_cell_length_a   4.33388535
_cell_length_b   4.24164496
_cell_length_c   12.93729526
_cell_angle_alpha   80.56486851
_cell_angle_beta   80.35775194
_cell_angle_gamma   89.99999940
_symmetry_Int_Tables_number   1
_chemical_formula_structural   Ac3(SiRh)4
_chemical_formula_sum   'Ac3 Si4 Rh4'
_cell_volume   231.19989702
_cell_formula_units_Z   1
loop_
 _symmetry_equiv_pos_site_id
 _symmetry_equiv_pos_as_xyz
  1  'x, y, z'
loop_
 _atom_site_type_symbol
 _atom_site_label
 _atom_site_symmetry_multiplicity
 _atom_site_fract_x
 _atom_site_fract_y
 _atom_site_fract_z
 _atom_site_occupancy
  Ac  Ac0  1  0.000000  0.000000  0.000000  1
  Ac  Ac1  1  0.854586  0.354586  0.290829  1
  Ac  Ac2  1  0.145414  0.645414  0.709171  1
  Si  Si3  1  0.700755  0.200755  0.598490  1
  Si  Si4  1  0.299245  0.799245  0.401510  1
  Si  Si5  1  0.452135  0.452135  0.095730  1
  Si  Si6  1  0.547865  0.547865  0.904270  1
  Rh  Rh7  1  0.600072  0.100072  0.799855  1
  Rh  Rh8  1  0.399928  0.899928  0.200145  1
  Rh  Rh9  1  0.249307  0.249307  0.501386  1
  Rh  Rh10  1  0.750693  0.750693  0.498614  1
