# generated using pymatgen
data_Tm3ThHgRh
_symmetry_space_group_name_H-M   'P 1'
_cell_length_a   9.59924609
_cell_length_b   9.59924567
_cell_length_c   9.59924600
_cell_angle_alpha   59.99999885
_cell_angle_beta   60.00000032
_cell_angle_gamma   59.99999676
_symmetry_Int_Tables_number   1
_chemical_formula_structural   Tm3ThHgRh
_chemical_formula_sum   'Tm12 Th4 Hg4 Rh4'
_cell_volume   625.45539414
_cell_formula_units_Z   4
loop_
 _symmetry_equiv_pos_site_id
 _symmetry_equiv_pos_as_xyz
  1  'x, y, z'
loop_
 _atom_site_type_symbol
 _atom_site_label
 _atom_site_symmetry_multiplicity
 _atom_site_fract_x
 _atom_site_fract_y
 _atom_site_fract_z
 _atom_site_occupancy
  Tm  Tm0  1  0.063534  0.436466  0.436466  1
  Tm  Tm1  1  0.436466  0.063534  0.063534  1
  Tm  Tm2  1  0.436466  0.063534  0.436466  1
  Tm  Tm3  1  0.063534  0.436466  0.063534  1
  Tm  Tm4  1  0.436466  0.436466  0.063534  1
  Tm  Tm5  1  0.063534  0.063534  0.436466  1
  Tm  Tm6  1  0.184284  0.815716  0.815716  1
  Tm  Tm7  1  0.815716  0.184284  0.184284  1
  Tm  Tm8  1  0.815716  0.184284  0.815716  1
  Tm  Tm9  1  0.184284  0.815716  0.184284  1
  Tm  Tm10  1  0.815716  0.815716  0.184284  1
  Tm  Tm11  1  0.184284  0.184284  0.815716  1
  Th  Th12  1  0.602628  0.602628  0.602628  1
  Th  Th13  1  0.602628  0.602628  0.192116  1
  Th  Th14  1  0.602628  0.192116  0.602628  1
  Th  Th15  1  0.192116  0.602628  0.602628  1
  Hg  Hg16  1  0.838132  0.838132  0.838132  1
  Hg  Hg17  1  0.838132  0.838132  0.485605  1
  Hg  Hg18  1  0.838132  0.485605  0.838132  1
  Hg  Hg19  1  0.485605  0.838132  0.838132  1
  Rh  Rh20  1  0.393643  0.393643  0.393643  1
  Rh  Rh21  1  0.393643  0.393643  0.819070  1
  Rh  Rh22  1  0.393643  0.819070  0.393643  1
  Rh  Rh23  1  0.819070  0.393643  0.393643  1
