# generated using pymatgen
data_Tb3Ce4Er3Tc4
_symmetry_space_group_name_H-M   'P 1'
_cell_length_a   6.40516966
_cell_length_b   7.03098009
_cell_length_c   8.85432700
_cell_angle_alpha   95.43194281
_cell_angle_beta   111.07080106
_cell_angle_gamma   89.83933278
_symmetry_Int_Tables_number   1
_chemical_formula_structural   Tb3Ce4Er3Tc4
_chemical_formula_sum   'Tb3 Ce4 Er3 Tc4'
_cell_volume   370.20919683
_cell_formula_units_Z   1
loop_
 _symmetry_equiv_pos_site_id
 _symmetry_equiv_pos_as_xyz
  1  'x, y, z'
loop_
 _atom_site_type_symbol
 _atom_site_label
 _atom_site_symmetry_multiplicity
 _atom_site_fract_x
 _atom_site_fract_y
 _atom_site_fract_z
 _atom_site_occupancy
  Tb  Tb0  1  0.212841  0.691681  0.570612  1
  Tb  Tb1  1  0.642067  0.807424  0.429216  1
  Tb  Tb2  1  0.788831  0.309046  0.429832  1
  Ce  Ce3  1  0.793570  0.598286  0.810177  1
  Ce  Ce4  1  0.985500  0.903599  0.188513  1
  Ce  Ce5  1  0.203553  0.402210  0.190465  1
  Ce  Ce6  1  0.015262  0.097806  0.809792  1
  Er  Er7  1  0.359421  0.191074  0.572090  1
  Er  Er8  1  0.427051  0.749622  0.000439  1
  Er  Er9  1  0.571433  0.250166  0.999284  1
  Tc  Tc10  1  0.644898  0.907832  0.782557  1
  Tc  Tc11  1  0.865192  0.592704  0.215266  1
  Tc  Tc12  1  0.353043  0.092322  0.219476  1
  Tc  Tc13  1  0.137338  0.406229  0.782281  1
