# generated using pymatgen
data_Hf8MnMo3Ir4
_symmetry_space_group_name_H-M   'P 1'
_cell_length_a   6.49928100
_cell_length_b   4.61431700
_cell_length_c   9.26013000
_cell_angle_alpha   90.00000000
_cell_angle_beta   90.00042195
_cell_angle_gamma   90.00000000
_symmetry_Int_Tables_number   1
_chemical_formula_structural   Hf8MnMo3Ir4
_chemical_formula_sum   'Hf8 Mn1 Mo3 Ir4'
_cell_volume   277.70891705
_cell_formula_units_Z   1
loop_
 _symmetry_equiv_pos_site_id
 _symmetry_equiv_pos_as_xyz
  1  'x, y, z'
loop_
 _atom_site_type_symbol
 _atom_site_label
 _atom_site_symmetry_multiplicity
 _atom_site_fract_x
 _atom_site_fract_y
 _atom_site_fract_z
 _atom_site_occupancy
  Hf  Hf0  1  0.001354  0.750000  0.122413  1
  Hf  Hf1  1  0.498621  0.750000  0.122409  1
  Hf  Hf2  1  0.998849  0.250001  0.374981  1
  Hf  Hf3  1  0.501162  0.250001  0.374981  1
  Hf  Hf4  1  0.498633  0.750000  0.627587  1
  Hf  Hf5  1  0.001375  0.750000  0.627588  1
  Hf  Hf6  1  0.497381  0.250001  0.875002  1
  Hf  Hf7  1  0.002658  0.250001  0.875002  1
  Mn  Mn8  1  0.249945  0.750000  0.875023  1
  Mo  Mo9  1  0.749994  0.250001  0.123773  1
  Mo  Mo10  1  0.250005  0.750000  0.374982  1
  Mo  Mo11  1  0.750011  0.250001  0.626251  1
  Ir  Ir12  1  0.249996  0.250001  0.122769  1
  Ir  Ir13  1  0.749999  0.750000  0.375007  1
  Ir  Ir14  1  0.250013  0.250001  0.627223  1
  Ir  Ir15  1  0.750004  0.750000  0.875008  1
