# generated using pymatgen
data_Pr2Tm4CrCo17P12
_symmetry_space_group_name_H-M   'P 1'
_cell_length_a   3.69587500
_cell_length_b   10.53304800
_cell_length_c   12.20900500
_cell_angle_alpha   90.00000000
_cell_angle_beta   90.00000000
_cell_angle_gamma   90.00000000
_symmetry_Int_Tables_number   1
_chemical_formula_structural   Pr2Tm4CrCo17P12
_chemical_formula_sum   'Pr2 Tm4 Cr1 Co17 P12'
_cell_volume   475.28226518
_cell_formula_units_Z   1
loop_
 _symmetry_equiv_pos_site_id
 _symmetry_equiv_pos_as_xyz
  1  'x, y, z'
loop_
 _atom_site_type_symbol
 _atom_site_label
 _atom_site_symmetry_multiplicity
 _atom_site_fract_x
 _atom_site_fract_y
 _atom_site_fract_z
 _atom_site_occupancy
  Pr  Pr0  1  0.000000  0.500000  0.523051  1
  Pr  Pr1  1  0.500000  0.000000  0.477165  1
  Tm  Tm2  1  0.500000  0.817523  0.204350  1
  Tm  Tm3  1  0.500000  0.182477  0.204350  1
  Tm  Tm4  1  0.000000  0.681717  0.797296  1
  Tm  Tm5  1  0.000000  0.318283  0.797296  1
  Cr  Cr6  1  0.500000  0.500000  0.153141  1
  Co  Co7  1  0.000000  0.000000  0.843312  1
  Co  Co8  1  0.500000  0.500000  0.706836  1
  Co  Co9  1  0.000000  0.000000  0.292141  1
  Co  Co10  1  0.000000  0.500000  0.987268  1
  Co  Co11  1  0.500000  0.000000  0.014009  1
  Co  Co12  1  0.500000  0.332798  0.993351  1
  Co  Co13  1  0.500000  0.667202  0.993351  1
  Co  Co14  1  0.000000  0.167309  0.006276  1
  Co  Co15  1  0.000000  0.832691  0.006276  1
  Co  Co16  1  0.500000  0.295667  0.428475  1
  Co  Co17  1  0.500000  0.704333  0.428475  1
  Co  Co18  1  0.000000  0.204168  0.571308  1
  Co  Co19  1  0.000000  0.795832  0.571308  1
  Co  Co20  1  0.500000  0.878853  0.713025  1
  Co  Co21  1  0.500000  0.121147  0.713025  1
  Co  Co22  1  0.000000  0.620755  0.287042  1
  Co  Co23  1  0.000000  0.379245  0.287042  1
  P  P24  1  0.500000  0.500000  0.882988  1
  P  P25  1  0.000000  0.000000  0.116211  1
  P  P26  1  0.500000  0.500000  0.339139  1
  P  P27  1  0.000000  0.000000  0.661597  1
  P  P28  1  0.500000  0.307732  0.619506  1
  P  P29  1  0.500000  0.692268  0.619506  1
  P  P30  1  0.000000  0.192241  0.380989  1
  P  P31  1  0.000000  0.807759  0.380989  1
  P  P32  1  0.500000  0.847148  0.893424  1
  P  P33  1  0.500000  0.152852  0.893424  1
  P  P34  1  0.000000  0.653891  0.106530  1
  P  P35  1  0.000000  0.346109  0.106530  1
