# generated using pymatgen
data_Zr7Co16Re(Si5P)2
_symmetry_space_group_name_H-M   'P 1'
_cell_length_a   12.20607480
_cell_length_b   12.21770553
_cell_length_c   3.70508900
_cell_angle_alpha   90.00000000
_cell_angle_beta   90.00000000
_cell_angle_gamma   119.77203478
_symmetry_Int_Tables_number   1
_chemical_formula_structural   Zr7Co16Re(Si5P)2
_chemical_formula_sum   'Zr7 Co16 Re1 Si10 P2'
_cell_volume   479.60975856
_cell_formula_units_Z   1
loop_
 _symmetry_equiv_pos_site_id
 _symmetry_equiv_pos_as_xyz
  1  'x, y, z'
loop_
 _atom_site_type_symbol
 _atom_site_label
 _atom_site_symmetry_multiplicity
 _atom_site_fract_x
 _atom_site_fract_y
 _atom_site_fract_z
 _atom_site_occupancy
  Zr  Zr0  1  0.560730  0.000831  0.000000  1
  Zr  Zr1  1  0.000796  0.559524  0.000000  1
  Zr  Zr2  1  0.663101  0.335374  0.000000  1
  Zr  Zr3  1  0.335035  0.662997  0.000000  1
  Zr  Zr4  1  0.810688  0.810672  0.500000  1
  Zr  Zr5  1  0.181103  0.001293  0.500000  1
  Zr  Zr6  1  0.001932  0.180918  0.500000  1
  Co  Co7  1  0.198892  0.367878  0.000000  1
  Co  Co8  1  0.176169  0.808754  0.000000  1
  Co  Co9  1  0.820242  0.629214  0.000000  1
  Co  Co10  1  0.808497  0.179940  0.000000  1
  Co  Co11  1  0.368007  0.198621  0.000000  1
  Co  Co12  1  0.129223  0.480184  0.500000  1
  Co  Co13  1  0.358693  0.882938  0.500000  1
  Co  Co14  1  0.519110  0.639080  0.500000  1
  Co  Co15  1  0.640215  0.519504  0.500000  1
  Co  Co16  1  0.883797  0.360520  0.500000  1
  Co  Co17  1  0.479481  0.129157  0.500000  1
  Co  Co18  1  0.004542  0.999385  0.000000  1
  Co  Co19  1  0.722332  0.998657  0.500000  1
  Co  Co20  1  0.998232  0.726651  0.500000  1
  Co  Co21  1  0.625891  0.817154  0.000000  1
  Co  Co22  1  0.274226  0.274096  0.500000  1
  Re  Re23  1  0.440453  0.440039  0.000000  1
  Si  Si24  1  0.636701  0.636720  0.000000  1
  Si  Si25  1  0.349702  0.004835  0.000000  1
  Si  Si26  1  0.005345  0.349430  0.000000  1
  Si  Si27  1  0.478811  0.315501  0.500000  1
  Si  Si28  1  0.696880  0.180009  0.500000  1
  Si  Si29  1  0.822904  0.517847  0.500000  1
  Si  Si30  1  0.517514  0.822183  0.500000  1
  Si  Si31  1  0.179129  0.696755  0.500000  1
  Si  Si32  1  0.822169  0.997911  0.000000  1
  Si  Si33  1  0.315399  0.478543  0.500000  1
  P  P34  1  0.997461  0.820371  0.000000  1
  P  P35  1  0.176598  0.176511  0.000000  1
