# generated using pymatgen
data_Tm6Sc4(InPb)3
_symmetry_space_group_name_H-M   'P 1'
_cell_length_a   6.32475100
_cell_length_b   8.80720323
_cell_length_c   8.80743101
_cell_angle_alpha   119.99914408
_cell_angle_beta   89.99965222
_cell_angle_gamma   90.00069626
_symmetry_Int_Tables_number   1
_chemical_formula_structural   Tm6Sc4(InPb)3
_chemical_formula_sum   'Tm6 Sc4 In3 Pb3'
_cell_volume   424.87881504
_cell_formula_units_Z   1
loop_
 _symmetry_equiv_pos_site_id
 _symmetry_equiv_pos_as_xyz
  1  'x, y, z'
loop_
 _atom_site_type_symbol
 _atom_site_label
 _atom_site_symmetry_multiplicity
 _atom_site_fract_x
 _atom_site_fract_y
 _atom_site_fract_z
 _atom_site_occupancy
  Tm  Tm0  1  0.749982  0.237167  0.000000  1
  Tm  Tm1  1  0.749979  0.762783  0.762800  1
  Tm  Tm2  1  0.749979  0.999983  0.237200  1
  Tm  Tm3  1  0.250015  0.763572  0.000000  1
  Tm  Tm4  1  0.250007  0.236477  0.236463  1
  Tm  Tm5  1  0.250007  0.000014  0.763537  1
  Sc  Sc6  1  0.507299  0.333332  0.666701  1
  Sc  Sc7  1  0.507299  0.666631  0.333299  1
  Sc  Sc8  1  0.992692  0.666671  0.333309  1
  Sc  Sc9  1  0.992692  0.333362  0.666691  1
  In  In10  1  0.749969  0.599729  0.000000  1
  In  In11  1  0.749973  0.400260  0.400267  1
  In  In12  1  0.749973  0.999993  0.599733  1
  Pb  Pb13  1  0.250034  0.401542  0.000000  1
  Pb  Pb14  1  0.250051  0.598478  0.598471  1
  Pb  Pb15  1  0.250051  0.000007  0.401529  1
