# generated using pymatgen
data_TbY7(ThRu2)2
_symmetry_space_group_name_H-M   'P 1'
_cell_length_a   6.45686116
_cell_length_b   7.24666690
_cell_length_c   8.71556367
_cell_angle_alpha   96.33319677
_cell_angle_beta   111.79592053
_cell_angle_gamma   90.09732161
_symmetry_Int_Tables_number   1
_chemical_formula_structural   TbY7(ThRu2)2
_chemical_formula_sum   'Tb1 Y7 Th2 Ru4'
_cell_volume   375.94117305
_cell_formula_units_Z   1
loop_
 _symmetry_equiv_pos_site_id
 _symmetry_equiv_pos_as_xyz
  1  'x, y, z'
loop_
 _atom_site_type_symbol
 _atom_site_label
 _atom_site_symmetry_multiplicity
 _atom_site_fract_x
 _atom_site_fract_y
 _atom_site_fract_z
 _atom_site_occupancy
  Tb  Tb0  1  0.021887  0.085322  0.814502  1
  Y  Y1  1  0.208164  0.414501  0.185818  1
  Y  Y2  1  0.642812  0.816864  0.431680  1
  Y  Y3  1  0.209763  0.683319  0.567657  1
  Y  Y4  1  0.354486  0.187966  0.568097  1
  Y  Y5  1  0.786096  0.312457  0.432169  1
  Y  Y6  1  0.425626  0.749970  0.999258  1
  Y  Y7  1  0.579154  0.249886  0.000193  1
  Th  Th8  1  0.992415  0.906868  0.192484  1
  Th  Th9  1  0.799506  0.593675  0.806795  1
  Ru  Ru10  1  0.833733  0.588206  0.219117  1
  Ru  Ru11  1  0.615266  0.912753  0.782430  1
  Ru  Ru12  1  0.154290  0.428613  0.778269  1
  Ru  Ru13  1  0.376803  0.069598  0.221531  1
