# generated using pymatgen
data_MnZn3H5
_symmetry_space_group_name_H-M   'P 1'
_cell_length_a   4.80134538
_cell_length_b   7.08745000
_cell_length_c   4.85354149
_cell_angle_alpha   79.93494019
_cell_angle_beta   98.21186418
_cell_angle_gamma   137.89140487
_symmetry_Int_Tables_number   1
_chemical_formula_structural   MnZn3H5
_chemical_formula_sum   'Mn1 Zn3 H5'
_cell_volume   109.02164108
_cell_formula_units_Z   1
loop_
 _symmetry_equiv_pos_site_id
 _symmetry_equiv_pos_as_xyz
  1  'x, y, z'
loop_
 _atom_site_type_symbol
 _atom_site_label
 _atom_site_symmetry_multiplicity
 _atom_site_fract_x
 _atom_site_fract_y
 _atom_site_fract_z
 _atom_site_occupancy
  Mn  Mn0  1  0.730887  0.610199  0.482100  1
  Zn  Zn1  1  0.242761  0.608848  0.555306  1
  Zn  Zn2  1  0.192247  0.097151  0.563253  1
  Zn  Zn3  1  0.725758  0.651999  0.968364  1
  H  H4  1  0.753466  0.461394  0.284363  1
  H  H5  1  0.228725  0.868484  0.435159  1
  H  H6  1  0.757434  0.821838  0.256342  1
  H  H7  1  0.736719  0.437439  0.751901  1
  H  H8  1  0.256829  0.384631  0.365100  1
