# generated using pymatgen
data_Pa4TaNb3N8
_symmetry_space_group_name_H-M   'P 1'
_cell_length_a   3.29976700
_cell_length_b   5.72132139
_cell_length_c   11.09160910
_cell_angle_alpha   90.01364705
_cell_angle_beta   90.00000000
_cell_angle_gamma   90.00000000
_symmetry_Int_Tables_number   1
_chemical_formula_structural   Pa4TaNb3N8
_chemical_formula_sum   'Pa4 Ta1 Nb3 N8'
_cell_volume   209.39878756
_cell_formula_units_Z   1
loop_
 _symmetry_equiv_pos_site_id
 _symmetry_equiv_pos_as_xyz
  1  'x, y, z'
loop_
 _atom_site_type_symbol
 _atom_site_label
 _atom_site_symmetry_multiplicity
 _atom_site_fract_x
 _atom_site_fract_y
 _atom_site_fract_z
 _atom_site_occupancy
  Pa  Pa0  1  0.250000  0.575876  0.855277  1
  Pa  Pa1  1  0.750000  0.421868  0.145163  1
  Pa  Pa2  1  0.750000  0.923782  0.355263  1
  Pa  Pa3  1  0.250000  0.076833  0.645409  1
  Ta  Ta4  1  0.250000  0.925208  0.098518  1
  Nb  Nb5  1  0.750000  0.074517  0.901597  1
  Nb  Nb6  1  0.750000  0.574445  0.597663  1
  Nb  Nb7  1  0.250000  0.426428  0.401172  1
  N  N8  1  0.250000  0.664197  0.243259  1
  N  N9  1  0.750000  0.339173  0.754563  1
  N  N10  1  0.750000  0.838111  0.745265  1
  N  N11  1  0.250000  0.159973  0.253204  1
  N  N12  1  0.250000  0.765322  0.503295  1
  N  N13  1  0.750000  0.235137  0.496228  1
  N  N14  1  0.750000  0.737087  0.006266  1
  N  N15  1  0.250000  0.262042  0.997856  1
