# generated using pymatgen
data_Yb2Al20Fe3Pd
_symmetry_space_group_name_H-M   'P 1'
_cell_length_a   6.83421439
_cell_length_b   6.81870183
_cell_length_c   9.04773139
_cell_angle_alpha   90.13672014
_cell_angle_beta   89.98328728
_cell_angle_gamma   96.98079039
_symmetry_Int_Tables_number   1
_chemical_formula_structural   Yb2Al20Fe3Pd
_chemical_formula_sum   'Yb2 Al20 Fe3 Pd1'
_cell_volume   418.50179405
_cell_formula_units_Z   1
loop_
 _symmetry_equiv_pos_site_id
 _symmetry_equiv_pos_as_xyz
  1  'x, y, z'
loop_
 _atom_site_type_symbol
 _atom_site_label
 _atom_site_symmetry_multiplicity
 _atom_site_fract_x
 _atom_site_fract_y
 _atom_site_fract_z
 _atom_site_occupancy
  Yb  Yb0  1  0.877223  0.124466  0.248859  1
  Yb  Yb1  1  0.122777  0.875534  0.751141  1
  Al  Al2  1  0.219047  0.231924  0.495284  1
  Al  Al3  1  0.776436  0.773170  0.000612  1
  Al  Al4  1  0.780953  0.768076  0.504716  1
  Al  Al5  1  0.223564  0.226830  0.999388  1
  Al  Al6  1  0.370763  0.615642  0.550753  1
  Al  Al7  1  0.626353  0.376392  0.047676  1
  Al  Al8  1  0.587881  0.862143  0.756967  1
  Al  Al9  1  0.412119  0.137857  0.243033  1
  Al  Al10  1  0.866531  0.583678  0.248174  1
  Al  Al11  1  0.133469  0.416322  0.751826  1
  Al  Al12  1  0.477350  0.225843  0.759400  1
  Al  Al13  1  0.522650  0.774157  0.240600  1
  Al  Al14  1  0.220238  0.477459  0.248955  1
  Al  Al15  1  0.779762  0.522541  0.751045  1
  Al  Al16  1  0.151806  0.835723  0.399088  1
  Al  Al17  1  0.841057  0.157797  0.905185  1
  Al  Al18  1  0.848194  0.164277  0.600912  1
  Al  Al19  1  0.158943  0.842203  0.094815  1
  Al  Al20  1  0.373647  0.623608  0.952324  1
  Al  Al21  1  0.629237  0.384358  0.449247  1
  Fe  Fe22  1  0.000000  0.500000  0.500000  1
  Fe  Fe23  1  0.000000  0.500000  0.000000  1
  Fe  Fe24  1  0.500000  0.000000  0.000000  1
  Pd  Pd25  1  0.500000  0.000000  0.500000  1
