# generated using pymatgen
data_LiPrMgPt3
_symmetry_space_group_name_H-M   'P 1'
_cell_length_a   5.53929128
_cell_length_b   5.53929198
_cell_length_c   5.20483515
_cell_angle_alpha   57.85057973
_cell_angle_beta   57.85057791
_cell_angle_gamma   60.00000961
_symmetry_Int_Tables_number   1
_chemical_formula_structural   LiPrMgPt3
_chemical_formula_sum   'Li1 Pr1 Mg1 Pt3'
_cell_volume   109.11862084
_cell_formula_units_Z   1
loop_
 _symmetry_equiv_pos_site_id
 _symmetry_equiv_pos_as_xyz
  1  'x, y, z'
loop_
 _atom_site_type_symbol
 _atom_site_label
 _atom_site_symmetry_multiplicity
 _atom_site_fract_x
 _atom_site_fract_y
 _atom_site_fract_z
 _atom_site_occupancy
  Li  Li0  1  0.621410  0.621410  0.135770  1
  Pr  Pr1  1  0.003441  0.003441  0.989677  1
  Mg  Mg2  1  0.258560  0.258560  0.224321  1
  Pt  Pt3  1  0.621201  0.124188  0.633410  1
  Pt  Pt4  1  0.124188  0.621201  0.633410  1
  Pt  Pt5  1  0.621201  0.621201  0.633410  1
