# generated using pymatgen
data_Lu10In5PbO2
_symmetry_space_group_name_H-M   'P 1'
_cell_length_a   8.99164073
_cell_length_b   8.99164007
_cell_length_c   8.99164044
_cell_angle_alpha   127.67043739
_cell_angle_beta   127.67043305
_cell_angle_gamma   77.15951934
_symmetry_Int_Tables_number   1
_chemical_formula_structural   Lu10In5PbO2
_chemical_formula_sum   'Lu10 In5 Pb1 O2'
_cell_volume   442.00445971
_cell_formula_units_Z   1
loop_
 _symmetry_equiv_pos_site_id
 _symmetry_equiv_pos_as_xyz
  1  'x, y, z'
loop_
 _atom_site_type_symbol
 _atom_site_label
 _atom_site_symmetry_multiplicity
 _atom_site_fract_x
 _atom_site_fract_y
 _atom_site_fract_z
 _atom_site_occupancy
  Lu  Lu0  1  0.504892  0.309251  0.505115  1
  Lu  Lu1  1  0.804136  0.999776  0.494885  1
  Lu  Lu2  1  0.999776  0.504892  0.195641  1
  Lu  Lu3  1  0.309251  0.804136  0.804359  1
  Lu  Lu4  1  0.502717  0.698149  0.504820  1
  Lu  Lu5  1  0.193329  0.997896  0.495180  1
  Lu  Lu6  1  0.997896  0.502717  0.804568  1
  Lu  Lu7  1  0.698149  0.193329  0.195432  1
  Lu  Lu8  1  0.503989  0.503989  0.000000  1
  Lu  Lu9  1  0.998546  0.998546  0.000000  1
  In  In10  1  0.137582  0.365018  0.500132  1
  In  In11  1  0.864886  0.637451  0.499868  1
  In  In12  1  0.637451  0.137582  0.772563  1
  In  In13  1  0.365018  0.864886  0.227437  1
  In  In14  1  0.751657  0.751657  0.000000  1
  Pb  Pb15  1  0.250736  0.250736  0.000000  1
  O  O16  1  0.751413  0.251413  0.500000  1
  O  O17  1  0.251413  0.751413  0.500000  1
