# generated using pymatgen
data_LiY4(SiB4)2
_symmetry_space_group_name_H-M   'P 1'
_cell_length_a   7.16089100
_cell_length_b   7.16089100
_cell_length_c   7.88231100
_cell_angle_alpha   90.00000000
_cell_angle_beta   90.00000000
_cell_angle_gamma   90.00000000
_symmetry_Int_Tables_number   1
_chemical_formula_structural   LiY4(SiB4)2
_chemical_formula_sum   'Li2 Y8 Si4 B16'
_cell_volume   404.19198041
_cell_formula_units_Z   2
loop_
 _symmetry_equiv_pos_site_id
 _symmetry_equiv_pos_as_xyz
  1  'x, y, z'
loop_
 _atom_site_type_symbol
 _atom_site_label
 _atom_site_symmetry_multiplicity
 _atom_site_fract_x
 _atom_site_fract_y
 _atom_site_fract_z
 _atom_site_occupancy
  Li  Li0  1  0.000000  0.000000  0.500000  1
  Li  Li1  1  0.500000  0.500000  0.500000  1
  Y  Y2  1  0.683276  0.183276  0.235892  1
  Y  Y3  1  0.316724  0.816724  0.764108  1
  Y  Y4  1  0.316724  0.816724  0.235892  1
  Y  Y5  1  0.816724  0.683276  0.235892  1
  Y  Y6  1  0.816724  0.683276  0.764108  1
  Y  Y7  1  0.683276  0.183276  0.764108  1
  Y  Y8  1  0.183276  0.316724  0.764108  1
  Y  Y9  1  0.183276  0.316724  0.235892  1
  Si  Si10  1  0.114973  0.614973  0.500000  1
  Si  Si11  1  0.885027  0.385027  0.500000  1
  Si  Si12  1  0.385027  0.114973  0.500000  1
  Si  Si13  1  0.614973  0.885027  0.500000  1
  B  B14  1  0.173886  0.040121  0.000000  1
  B  B15  1  0.826114  0.959879  0.000000  1
  B  B16  1  0.959879  0.173886  0.000000  1
  B  B17  1  0.326114  0.540121  0.000000  1
  B  B18  1  0.040121  0.826114  0.000000  1
  B  B19  1  0.673886  0.459879  0.000000  1
  B  B20  1  0.540121  0.673886  0.000000  1
  B  B21  1  0.459879  0.326114  0.000000  1
  B  B22  1  0.088877  0.588877  0.000000  1
  B  B23  1  0.911123  0.411123  0.000000  1
  B  B24  1  0.411123  0.088877  0.000000  1
  B  B25  1  0.588877  0.911123  0.000000  1
  B  B26  1  0.000000  0.000000  0.159708  1
  B  B27  1  0.000000  0.000000  0.840292  1
  B  B28  1  0.500000  0.500000  0.840292  1
  B  B29  1  0.500000  0.500000  0.159708  1
