# generated using pymatgen
data_MgSc2Co4Ni5B6
_symmetry_space_group_name_H-M   'P 1'
_cell_length_a   4.85036052
_cell_length_b   4.87533308
_cell_length_c   8.84120000
_cell_angle_alpha   90.00000000
_cell_angle_beta   90.00000000
_cell_angle_gamma   120.17044884
_symmetry_Int_Tables_number   1
_chemical_formula_structural   MgSc2Co4Ni5B6
_chemical_formula_sum   'Mg1 Sc2 Co4 Ni5 B6'
_cell_volume   180.74723777
_cell_formula_units_Z   1
loop_
 _symmetry_equiv_pos_site_id
 _symmetry_equiv_pos_as_xyz
  1  'x, y, z'
loop_
 _atom_site_type_symbol
 _atom_site_label
 _atom_site_symmetry_multiplicity
 _atom_site_fract_x
 _atom_site_fract_y
 _atom_site_fract_z
 _atom_site_occupancy
  Mg  Mg0  1  0.000000  0.000000  0.333333  1
  Sc  Sc1  1  0.000000  0.000000  0.663938  1
  Sc  Sc2  1  0.000000  0.000000  0.002729  1
  Co  Co3  1  0.500000  0.000000  0.797851  1
  Co  Co4  1  0.500000  0.500000  0.868816  1
  Co  Co5  1  0.500000  0.500000  0.461294  1
  Co  Co6  1  0.500000  0.000000  0.205373  1
  Ni  Ni7  1  0.000000  0.500000  0.833333  1
  Ni  Ni8  1  0.000000  0.500000  0.130762  1
  Ni  Ni9  1  0.500000  0.500000  0.169560  1
  Ni  Ni10  1  0.000000  0.500000  0.535904  1
  Ni  Ni11  1  0.500000  0.000000  0.497107  1
  B  B12  1  0.604835  0.223712  0.000309  1
  B  B13  1  0.764015  0.382007  0.333333  1
  B  B14  1  0.235985  0.617993  0.333333  1
  B  B15  1  0.604835  0.381122  0.666358  1
  B  B16  1  0.395165  0.618878  0.666358  1
  B  B17  1  0.395165  0.776288  0.000309  1
