# generated using pymatgen
data_SmErReB6
_symmetry_space_group_name_H-M   'P 1'
_cell_length_a   3.69886400
_cell_length_b   9.20136900
_cell_length_c   11.63210700
_cell_angle_alpha   90.00000000
_cell_angle_beta   90.00000000
_cell_angle_gamma   90.00000000
_symmetry_Int_Tables_number   1
_chemical_formula_structural   SmErReB6
_chemical_formula_sum   'Sm4 Er4 Re4 B24'
_cell_volume   395.89425482
_cell_formula_units_Z   4
loop_
 _symmetry_equiv_pos_site_id
 _symmetry_equiv_pos_as_xyz
  1  'x, y, z'
loop_
 _atom_site_type_symbol
 _atom_site_label
 _atom_site_symmetry_multiplicity
 _atom_site_fract_x
 _atom_site_fract_y
 _atom_site_fract_z
 _atom_site_occupancy
  Sm  Sm0  1  0.000000  0.323107  0.414241  1
  Sm  Sm1  1  0.000000  0.676893  0.585759  1
  Sm  Sm2  1  0.000000  0.823107  0.085759  1
  Sm  Sm3  1  0.000000  0.176893  0.914241  1
  Er  Er4  1  0.000000  0.943155  0.369967  1
  Er  Er5  1  0.000000  0.056845  0.630033  1
  Er  Er6  1  0.000000  0.443155  0.130033  1
  Er  Er7  1  0.000000  0.556845  0.869967  1
  Re  Re8  1  0.000000  0.639139  0.319540  1
  Re  Re9  1  0.000000  0.360861  0.680460  1
  Re  Re10  1  0.000000  0.139139  0.180460  1
  Re  Re11  1  0.000000  0.860861  0.819540  1
  B  B12  1  0.500000  0.554316  0.431266  1
  B  B13  1  0.500000  0.445684  0.568734  1
  B  B14  1  0.500000  0.054316  0.068734  1
  B  B15  1  0.500000  0.945684  0.931266  1
  B  B16  1  0.500000  0.749768  0.416646  1
  B  B17  1  0.500000  0.250232  0.583354  1
  B  B18  1  0.500000  0.249768  0.083354  1
  B  B19  1  0.500000  0.750232  0.916646  1
  B  B20  1  0.500000  0.791749  0.265730  1
  B  B21  1  0.500000  0.208251  0.734270  1
  B  B22  1  0.500000  0.291749  0.234270  1
  B  B23  1  0.500000  0.708251  0.765730  1
  B  B24  1  0.500000  0.629620  0.185759  1
  B  B25  1  0.500000  0.370380  0.814241  1
  B  B26  1  0.500000  0.129620  0.314241  1
  B  B27  1  0.500000  0.870380  0.685759  1
  B  B28  1  0.500000  0.982858  0.212926  1
  B  B29  1  0.500000  0.017142  0.787074  1
  B  B30  1  0.500000  0.482858  0.287074  1
  B  B31  1  0.500000  0.517142  0.712926  1
  B  B32  1  0.500000  0.597227  0.026945  1
  B  B33  1  0.500000  0.402773  0.973055  1
  B  B34  1  0.500000  0.097227  0.473055  1
  B  B35  1  0.500000  0.902773  0.526945  1
