# generated using pymatgen
data_Tm6Co17Si12Tc
_symmetry_space_group_name_H-M   'P 1'
_cell_length_a   3.77170800
_cell_length_b   10.64347900
_cell_length_c   12.32648800
_cell_angle_alpha   90.00000000
_cell_angle_beta   90.00000000
_cell_angle_gamma   90.00000000
_symmetry_Int_Tables_number   1
_chemical_formula_structural   Tm6Co17Si12Tc
_chemical_formula_sum   'Tm6 Co17 Si12 Tc1'
_cell_volume   494.83570396
_cell_formula_units_Z   1
loop_
 _symmetry_equiv_pos_site_id
 _symmetry_equiv_pos_as_xyz
  1  'x, y, z'
loop_
 _atom_site_type_symbol
 _atom_site_label
 _atom_site_symmetry_multiplicity
 _atom_site_fract_x
 _atom_site_fract_y
 _atom_site_fract_z
 _atom_site_occupancy
  Tm  Tm0  1  0.000000  0.500000  0.526874  1
  Tm  Tm1  1  0.500000  0.000000  0.473275  1
  Tm  Tm2  1  0.500000  0.818219  0.206102  1
  Tm  Tm3  1  0.500000  0.181781  0.206102  1
  Tm  Tm4  1  0.000000  0.682163  0.796579  1
  Tm  Tm5  1  0.000000  0.317837  0.796579  1
  Co  Co6  1  0.000000  0.000000  0.846489  1
  Co  Co7  1  0.500000  0.500000  0.696488  1
  Co  Co8  1  0.000000  0.000000  0.303012  1
  Co  Co9  1  0.000000  0.500000  0.981425  1
  Co  Co10  1  0.500000  0.000000  0.018169  1
  Co  Co11  1  0.500000  0.328073  0.991946  1
  Co  Co12  1  0.500000  0.671927  0.991946  1
  Co  Co13  1  0.000000  0.166956  0.004272  1
  Co  Co14  1  0.000000  0.833044  0.004272  1
  Co  Co15  1  0.500000  0.300677  0.431791  1
  Co  Co16  1  0.500000  0.699323  0.431791  1
  Co  Co17  1  0.000000  0.198168  0.571253  1
  Co  Co18  1  0.000000  0.801832  0.571253  1
  Co  Co19  1  0.500000  0.883177  0.707142  1
  Co  Co20  1  0.500000  0.116823  0.707142  1
  Co  Co21  1  0.000000  0.619520  0.293536  1
  Co  Co22  1  0.000000  0.380480  0.293536  1
  Si  Si23  1  0.500000  0.500000  0.882357  1
  Si  Si24  1  0.000000  0.000000  0.117572  1
  Si  Si25  1  0.500000  0.500000  0.342617  1
  Si  Si26  1  0.000000  0.000000  0.659723  1
  Si  Si27  1  0.500000  0.304515  0.616111  1
  Si  Si28  1  0.500000  0.695485  0.616111  1
  Si  Si29  1  0.000000  0.194795  0.386758  1
  Si  Si30  1  0.000000  0.805205  0.386758  1
  Si  Si31  1  0.500000  0.854517  0.891193  1
  Si  Si32  1  0.500000  0.145483  0.891193  1
  Si  Si33  1  0.000000  0.652492  0.105140  1
  Si  Si34  1  0.000000  0.347508  0.105140  1
  Tc  Tc35  1  0.500000  0.500000  0.148347  1
