# generated using pymatgen
data_Y6Er10MgCd3Ir4
_symmetry_space_group_name_H-M   'P 1'
_cell_length_a   9.64971703
_cell_length_b   9.64971709
_cell_length_c   9.64971787
_cell_angle_alpha   59.67303717
_cell_angle_beta   59.67303698
_cell_angle_gamma   59.67303952
_symmetry_Int_Tables_number   1
_chemical_formula_structural   Y6Er10MgCd3Ir4
_chemical_formula_sum   'Y6 Er10 Mg1 Cd3 Ir4'
_cell_volume   630.65339027
_cell_formula_units_Z   1
loop_
 _symmetry_equiv_pos_site_id
 _symmetry_equiv_pos_as_xyz
  1  'x, y, z'
loop_
 _atom_site_type_symbol
 _atom_site_label
 _atom_site_symmetry_multiplicity
 _atom_site_fract_x
 _atom_site_fract_y
 _atom_site_fract_z
 _atom_site_occupancy
  Y  Y0  1  0.941420  0.561439  0.561439  1
  Y  Y1  1  0.560801  0.939090  0.939090  1
  Y  Y2  1  0.561439  0.941420  0.561439  1
  Y  Y3  1  0.939090  0.560801  0.939090  1
  Y  Y4  1  0.561439  0.561439  0.941420  1
  Y  Y5  1  0.939090  0.939090  0.560801  1
  Er  Er6  1  0.348439  0.348439  0.348439  1
  Er  Er7  1  0.348136  0.348136  0.956731  1
  Er  Er8  1  0.348136  0.956731  0.348136  1
  Er  Er9  1  0.956731  0.348136  0.348136  1
  Er  Er10  1  0.809365  0.189481  0.189481  1
  Er  Er11  1  0.186004  0.811852  0.811852  1
  Er  Er12  1  0.189481  0.809365  0.189481  1
  Er  Er13  1  0.811852  0.186004  0.811852  1
  Er  Er14  1  0.189481  0.189481  0.809365  1
  Er  Er15  1  0.811852  0.811852  0.186004  1
  Mg  Mg16  1  0.575694  0.575694  0.575694  1
  Cd  Cd17  1  0.580805  0.580805  0.258144  1
  Cd  Cd18  1  0.580805  0.258144  0.580805  1
  Cd  Cd19  1  0.258144  0.580805  0.580805  1
  Ir  Ir20  1  0.141682  0.141682  0.141682  1
  Ir  Ir21  1  0.142425  0.142425  0.575265  1
  Ir  Ir22  1  0.142425  0.575265  0.142425  1
  Ir  Ir23  1  0.575265  0.142425  0.142425  1
