# generated using pymatgen
data_Pr10ZnGeBi6
_symmetry_space_group_name_H-M   'P 1'
_cell_length_a   9.76039600
_cell_length_b   9.76039646
_cell_length_c   6.66558800
_cell_angle_alpha   90.00000000
_cell_angle_beta   90.00000000
_cell_angle_gamma   119.99999165
_symmetry_Int_Tables_number   1
_chemical_formula_structural   Pr10ZnGeBi6
_chemical_formula_sum   'Pr10 Zn1 Ge1 Bi6'
_cell_volume   549.92571968
_cell_formula_units_Z   1
loop_
 _symmetry_equiv_pos_site_id
 _symmetry_equiv_pos_as_xyz
  1  'x, y, z'
loop_
 _atom_site_type_symbol
 _atom_site_label
 _atom_site_symmetry_multiplicity
 _atom_site_fract_x
 _atom_site_fract_y
 _atom_site_fract_z
 _atom_site_occupancy
  Pr  Pr0  1  0.666667  0.333333  0.000000  1
  Pr  Pr1  1  0.333333  0.666667  0.000000  1
  Pr  Pr2  1  0.333333  0.666667  0.500000  1
  Pr  Pr3  1  0.666667  0.333333  0.500000  1
  Pr  Pr4  1  0.742905  0.742905  0.755018  1
  Pr  Pr5  1  0.257095  0.000000  0.755018  1
  Pr  Pr6  1  0.000000  0.257095  0.755018  1
  Pr  Pr7  1  0.257095  0.257095  0.244982  1
  Pr  Pr8  1  0.742905  0.000000  0.244982  1
  Pr  Pr9  1  0.000000  0.742905  0.244982  1
  Zn  Zn10  1  0.000000  0.000000  0.500000  1
  Ge  Ge11  1  0.000000  0.000000  0.000000  1
  Bi  Bi12  1  0.386516  0.386516  0.748912  1
  Bi  Bi13  1  0.613484  0.000000  0.748912  1
  Bi  Bi14  1  0.000000  0.613484  0.748912  1
  Bi  Bi15  1  0.613484  0.613484  0.251088  1
  Bi  Bi16  1  0.386516  0.000000  0.251088  1
  Bi  Bi17  1  0.000000  0.386516  0.251088  1
