# generated using pymatgen
data_Mg2(Ni7B2)3
_symmetry_space_group_name_H-M   'P 1'
_cell_length_a   7.42093600
_cell_length_b   7.42093588
_cell_length_c   7.42093600
_cell_angle_alpha   120.00000053
_cell_angle_beta   90.00000000
_cell_angle_gamma   120.00000053
_symmetry_Int_Tables_number   1
_chemical_formula_structural   Mg2(Ni7B2)3
_chemical_formula_sum   'Mg2 Ni21 B6'
_cell_volume   288.97551518
_cell_formula_units_Z   1
loop_
 _symmetry_equiv_pos_site_id
 _symmetry_equiv_pos_as_xyz
  1  'x, y, z'
loop_
 _atom_site_type_symbol
 _atom_site_label
 _atom_site_symmetry_multiplicity
 _atom_site_fract_x
 _atom_site_fract_y
 _atom_site_fract_z
 _atom_site_occupancy
  Mg  Mg0  1  0.750002  0.500001  0.250001  1
  Mg  Mg1  1  0.250001  0.500001  0.750002  1
  Ni  Ni2  1  0.000000  0.000000  0.000000  1
  Ni  Ni3  1  0.337176  0.000000  0.000000  1
  Ni  Ni4  1  0.662826  0.000000  0.000000  1
  Ni  Ni5  1  0.000000  0.337176  0.000000  1
  Ni  Ni6  1  0.337176  0.337176  0.000000  1
  Ni  Ni7  1  0.000000  0.662826  0.000000  1
  Ni  Ni8  1  0.662826  0.662826  0.000000  1
  Ni  Ni9  1  0.384852  0.769705  0.154554  1
  Ni  Ni10  1  0.000000  0.000000  0.337176  1
  Ni  Ni11  1  0.000000  0.337176  0.337176  1
  Ni  Ni12  1  0.337176  0.337176  0.337176  1
  Ni  Ni13  1  0.615150  0.230298  0.384852  1
  Ni  Ni14  1  0.154554  0.769705  0.384852  1
  Ni  Ni15  1  0.615150  0.769705  0.384852  1
  Ni  Ni16  1  0.845447  0.230298  0.615149  1
  Ni  Ni17  1  0.384852  0.230298  0.615150  1
  Ni  Ni18  1  0.384852  0.769705  0.615150  1
  Ni  Ni19  1  0.000000  0.000000  0.662826  1
  Ni  Ni20  1  0.000000  0.662826  0.662826  1
  Ni  Ni21  1  0.662826  0.662826  0.662826  1
  Ni  Ni22  1  0.615149  0.230298  0.845447  1
  B  B23  1  0.273212  0.000000  0.273212  1
  B  B24  1  0.273212  0.546425  0.273212  1
  B  B25  1  0.726788  0.000000  0.273214  1
  B  B26  1  0.273214  0.000000  0.726788  1
  B  B27  1  0.726788  0.000000  0.726788  1
  B  B28  1  0.726788  0.453574  0.726788  1
