# generated using pymatgen
data_TbDy5H18
_symmetry_space_group_name_H-M   'P 1'
_cell_length_a   6.34608201
_cell_length_b   6.34596142
_cell_length_c   6.57789301
_cell_angle_alpha   89.99443294
_cell_angle_beta   90.00277351
_cell_angle_gamma   119.99940046
_symmetry_Int_Tables_number   1
_chemical_formula_structural   TbDy5H18
_chemical_formula_sum   'Tb1 Dy5 H18'
_cell_volume   229.41571643
_cell_formula_units_Z   1
loop_
 _symmetry_equiv_pos_site_id
 _symmetry_equiv_pos_as_xyz
  1  'x, y, z'
loop_
 _atom_site_type_symbol
 _atom_site_label
 _atom_site_symmetry_multiplicity
 _atom_site_fract_x
 _atom_site_fract_y
 _atom_site_fract_z
 _atom_site_occupancy
  Tb  Tb0  1  0.000000  0.669522  0.250349  1
  Dy  Dy1  1  0.669470  0.669589  0.750290  1
  Dy  Dy2  1  0.330530  0.000118  0.750290  1
  Dy  Dy3  1  0.000000  0.330292  0.750247  1
  Dy  Dy4  1  0.330450  0.330452  0.250284  1
  Dy  Dy5  1  0.669550  0.000002  0.250284  1
  H  H6  1  0.305294  0.305286  0.592060  1
  H  H7  1  0.694706  0.999992  0.592060  1
  H  H8  1  0.000000  0.694751  0.592677  1
  H  H9  1  0.694143  0.694716  0.091829  1
  H  H10  1  0.305856  0.000573  0.091829  1
  H  H11  1  0.000000  0.304922  0.091939  1
  H  H12  1  0.355664  0.355669  0.907591  1
  H  H13  1  0.644336  0.000004  0.907591  1
  H  H14  1  0.000000  0.644299  0.906969  1
  H  H15  1  0.643904  0.644341  0.407739  1
  H  H16  1  0.356096  0.000437  0.407739  1
  H  H17  1  0.000000  0.355049  0.407832  1
  H  H18  1  0.000000  0.999994  0.820374  1
  H  H19  1  0.000000  0.000737  0.320559  1
  H  H20  1  0.333324  0.666672  0.703924  1
  H  H21  1  0.666676  0.333348  0.703924  1
  H  H22  1  0.665901  0.332568  0.203817  1
  H  H23  1  0.334099  0.666667  0.203817  1
