# generated using pymatgen
data_Rb4NpTiBr12
_symmetry_space_group_name_H-M   'P 1'
_cell_length_a   7.74315000
_cell_length_b   7.74315000
_cell_length_c   11.39682300
_cell_angle_alpha   90.00000000
_cell_angle_beta   90.00000000
_cell_angle_gamma   90.00000000
_symmetry_Int_Tables_number   1
_chemical_formula_structural   Rb4NpTiBr12
_chemical_formula_sum   'Rb4 Np1 Ti1 Br12'
_cell_volume   683.31215854
_cell_formula_units_Z   1
loop_
 _symmetry_equiv_pos_site_id
 _symmetry_equiv_pos_as_xyz
  1  'x, y, z'
loop_
 _atom_site_type_symbol
 _atom_site_label
 _atom_site_symmetry_multiplicity
 _atom_site_fract_x
 _atom_site_fract_y
 _atom_site_fract_z
 _atom_site_occupancy
  Rb  Rb0  1  0.500000  0.000000  0.766593  1
  Rb  Rb1  1  0.500000  0.000000  0.233407  1
  Rb  Rb2  1  0.000000  0.500000  0.233407  1
  Rb  Rb3  1  0.000000  0.500000  0.766593  1
  Np  Np4  1  0.500000  0.500000  0.500000  1
  Ti  Ti5  1  0.000000  0.000000  0.000000  1
  Br  Br6  1  0.783702  0.246523  0.000000  1
  Br  Br7  1  0.216298  0.753477  0.000000  1
  Br  Br8  1  0.500000  0.500000  0.254354  1
  Br  Br9  1  0.306390  0.200022  0.500000  1
  Br  Br10  1  0.246523  0.216298  0.000000  1
  Br  Br11  1  0.799978  0.306390  0.500000  1
  Br  Br12  1  0.000000  0.000000  0.222130  1
  Br  Br13  1  0.693610  0.799978  0.500000  1
  Br  Br14  1  0.200022  0.693610  0.500000  1
  Br  Br15  1  0.500000  0.500000  0.745646  1
  Br  Br16  1  0.753477  0.783702  0.000000  1
  Br  Br17  1  0.000000  0.000000  0.777870  1
