# generated using pymatgen
data_K8Li4Ho3TmAs8
_symmetry_space_group_name_H-M   'P 1'
_cell_length_a   10.31201095
_cell_length_b   10.31201202
_cell_length_c   6.74221126
_cell_angle_alpha   90.02406208
_cell_angle_beta   89.97593229
_cell_angle_gamma   98.44292013
_symmetry_Int_Tables_number   1
_chemical_formula_structural   K8Li4Ho3TmAs8
_chemical_formula_sum   'K8 Li4 Ho3 Tm1 As8'
_cell_volume   709.18046520
_cell_formula_units_Z   1
loop_
 _symmetry_equiv_pos_site_id
 _symmetry_equiv_pos_as_xyz
  1  'x, y, z'
loop_
 _atom_site_type_symbol
 _atom_site_label
 _atom_site_symmetry_multiplicity
 _atom_site_fract_x
 _atom_site_fract_y
 _atom_site_fract_z
 _atom_site_occupancy
  K  K0  1  0.566602  0.933724  0.750195  1
  K  K1  1  0.933724  0.566602  0.249805  1
  K  K2  1  0.433811  0.066240  0.249902  1
  K  K3  1  0.066240  0.433811  0.750098  1
  K  K4  1  0.680003  0.319980  0.792666  1
  K  K5  1  0.820028  0.179717  0.292470  1
  K  K6  1  0.319980  0.680003  0.207334  1
  K  K7  1  0.179717  0.820028  0.707530  1
  Li  Li8  1  0.617647  0.617647  0.000000  1
  Li  Li9  1  0.882664  0.882664  0.500000  1
  Li  Li10  1  0.382716  0.382716  0.000000  1
  Li  Li11  1  0.117182  0.117182  0.500000  1
  Ho  Ho12  1  0.632671  0.632671  0.500000  1
  Ho  Ho13  1  0.131866  0.131866  0.000000  1
  Ho  Ho14  1  0.367601  0.367601  0.500000  1
  Tm  Tm15  1  0.868047  0.868047  0.000000  1
  As  As16  1  0.348823  0.151063  0.749944  1
  As  As17  1  0.151063  0.348823  0.250056  1
  As  As18  1  0.652673  0.848775  0.248361  1
  As  As19  1  0.848775  0.652673  0.751639  1
  As  As20  1  0.904820  0.093197  0.763879  1
  As  As21  1  0.594750  0.405398  0.262739  1
  As  As22  1  0.093197  0.904820  0.236121  1
  As  As23  1  0.405398  0.594750  0.737261  1
