# generated using pymatgen
data_TbAuBr6
_symmetry_space_group_name_H-M   'P 1'
_cell_length_a   8.31250336
_cell_length_b   10.46225274
_cell_length_c   14.88358337
_cell_angle_alpha   103.43657531
_cell_angle_beta   96.44122379
_cell_angle_gamma   112.66225838
_symmetry_Int_Tables_number   1
_chemical_formula_structural   TbAuBr6
_chemical_formula_sum   'Tb4 Au4 Br24'
_cell_volume   1132.03612877
_cell_formula_units_Z   4
loop_
 _symmetry_equiv_pos_site_id
 _symmetry_equiv_pos_as_xyz
  1  'x, y, z'
loop_
 _atom_site_type_symbol
 _atom_site_label
 _atom_site_symmetry_multiplicity
 _atom_site_fract_x
 _atom_site_fract_y
 _atom_site_fract_z
 _atom_site_occupancy
  Tb  Tb0  1  0.579773  0.924101  0.621866  1
  Tb  Tb1  1  0.420227  0.075899  0.378134  1
  Tb  Tb2  1  0.975650  0.313045  0.870963  1
  Tb  Tb3  1  0.024350  0.686955  0.129037  1
  Au  Au4  1  0.295430  0.631904  0.762547  1
  Au  Au5  1  0.704570  0.368096  0.237453  1
  Au  Au6  1  0.500000  0.500000  0.500000  1
  Au  Au7  1  0.000000  0.000000  0.000000  1
  Br  Br8  1  0.610378  0.737361  0.747929  1
  Br  Br9  1  0.389622  0.262639  0.252071  1
  Br  Br10  1  0.278779  0.849617  0.732498  1
  Br  Br11  1  0.721221  0.150383  0.267502  1
  Br  Br12  1  0.978134  0.529806  0.772895  1
  Br  Br13  1  0.021866  0.470194  0.227105  1
  Br  Br14  1  0.309909  0.410709  0.788420  1
  Br  Br15  1  0.690091  0.589291  0.211580  1
  Br  Br16  1  0.686436  0.363850  0.506294  1
  Br  Br17  1  0.313564  0.636150  0.493706  1
  Br  Br18  1  0.763829  0.732943  0.527447  1
  Br  Br19  1  0.236171  0.267057  0.472553  1
  Br  Br20  1  0.790787  0.112488  0.976690  1
  Br  Br21  1  0.209213  0.887512  0.023310  1
  Br  Br22  1  0.768899  0.792036  0.032809  1
  Br  Br23  1  0.231101  0.207964  0.967191  1
  Br  Br24  1  0.620401  0.192677  0.746294  1
  Br  Br25  1  0.379599  0.807323  0.253706  1
  Br  Br26  1  0.945624  0.057414  0.727566  1
  Br  Br27  1  0.054376  0.942586  0.272434  1
  Br  Br28  1  0.721809  0.046781  0.481134  1
  Br  Br29  1  0.278191  0.953219  0.518866  1
  Br  Br30  1  0.767136  0.437347  0.976806  1
  Br  Br31  1  0.232864  0.562653  0.023194  1
