# generated using pymatgen
data_Tb16MgCd3PdRu3
_symmetry_space_group_name_H-M   'P 1'
_cell_length_a   9.71378509
_cell_length_b   9.75466756
_cell_length_c   9.75466666
_cell_angle_alpha   59.62891814
_cell_angle_beta   59.40748678
_cell_angle_gamma   59.40748261
_symmetry_Int_Tables_number   1
_chemical_formula_structural   Tb16MgCd3PdRu3
_chemical_formula_sum   'Tb16 Mg1 Cd3 Pd1 Ru3'
_cell_volume   645.86195184
_cell_formula_units_Z   1
loop_
 _symmetry_equiv_pos_site_id
 _symmetry_equiv_pos_as_xyz
  1  'x, y, z'
loop_
 _atom_site_type_symbol
 _atom_site_label
 _atom_site_symmetry_multiplicity
 _atom_site_fract_x
 _atom_site_fract_y
 _atom_site_fract_z
 _atom_site_occupancy
  Tb  Tb0  1  0.345762  0.352181  0.352181  1
  Tb  Tb1  1  0.343949  0.350937  0.957217  1
  Tb  Tb2  1  0.343949  0.957217  0.350937  1
  Tb  Tb3  1  0.967129  0.344241  0.344241  1
  Tb  Tb4  1  0.815395  0.190110  0.190110  1
  Tb  Tb5  1  0.184118  0.812162  0.812162  1
  Tb  Tb6  1  0.187667  0.811185  0.189162  1
  Tb  Tb7  1  0.816809  0.188700  0.805027  1
  Tb  Tb8  1  0.187667  0.189162  0.811185  1
  Tb  Tb9  1  0.816809  0.805027  0.188700  1
  Tb  Tb10  1  0.936698  0.562395  0.562395  1
  Tb  Tb11  1  0.557293  0.938429  0.938429  1
  Tb  Tb12  1  0.557602  0.937810  0.567480  1
  Tb  Tb13  1  0.936292  0.561972  0.938425  1
  Tb  Tb14  1  0.557602  0.567480  0.937810  1
  Tb  Tb15  1  0.936292  0.938425  0.561972  1
  Mg  Mg16  1  0.575600  0.574114  0.574114  1
  Cd  Cd17  1  0.581753  0.580317  0.256087  1
  Cd  Cd18  1  0.581753  0.256087  0.580317  1
  Cd  Cd19  1  0.254697  0.581267  0.581267  1
  Pd  Pd20  1  0.575118  0.143407  0.143407  1
  Ru  Ru21  1  0.146109  0.138301  0.138301  1
  Ru  Ru22  1  0.146969  0.140393  0.578683  1
  Ru  Ru23  1  0.146969  0.578683  0.140393  1
