# generated using pymatgen
data_Dy2ThAlIn2Pt3
_symmetry_space_group_name_H-M   'P 1'
_cell_length_a   7.64573081
_cell_length_b   7.57196838
_cell_length_c   3.97037900
_cell_angle_alpha   90.00000000
_cell_angle_beta   90.00000000
_cell_angle_gamma   120.86689421
_symmetry_Int_Tables_number   1
_chemical_formula_structural   Dy2ThAlIn2Pt3
_chemical_formula_sum   'Dy2 Th1 Al1 In2 Pt3'
_cell_volume   197.30131716
_cell_formula_units_Z   1
loop_
 _symmetry_equiv_pos_site_id
 _symmetry_equiv_pos_as_xyz
  1  'x, y, z'
loop_
 _atom_site_type_symbol
 _atom_site_label
 _atom_site_symmetry_multiplicity
 _atom_site_fract_x
 _atom_site_fract_y
 _atom_site_fract_z
 _atom_site_occupancy
  Dy  Dy0  1  0.418176  0.416011  0.500000  1
  Dy  Dy1  1  0.995996  0.593148  0.500000  1
  Th  Th2  1  0.589324  0.998802  0.500000  1
  Al  Al3  1  0.749745  0.741211  0.000000  1
  In  In4  1  0.012693  0.262378  0.000000  1
  In  In5  1  0.242705  0.000438  0.000000  1
  Pt  Pt6  1  0.357663  0.677163  0.000000  1
  Pt  Pt7  1  0.670951  0.343825  0.000000  1
  Pt  Pt8  1  0.962746  0.967025  0.500000  1
