# generated using pymatgen
data_Tm6Co16MoP12W
_symmetry_space_group_name_H-M   'P 1'
_cell_length_a   3.70017700
_cell_length_b   10.52645600
_cell_length_c   12.19625100
_cell_angle_alpha   90.00000000
_cell_angle_beta   90.00000000
_cell_angle_gamma   90.00000000
_symmetry_Int_Tables_number   1
_chemical_formula_structural   Tm6Co16MoP12W
_chemical_formula_sum   'Tm6 Co16 Mo1 P12 W1'
_cell_volume   475.04093205
_cell_formula_units_Z   1
loop_
 _symmetry_equiv_pos_site_id
 _symmetry_equiv_pos_as_xyz
  1  'x, y, z'
loop_
 _atom_site_type_symbol
 _atom_site_label
 _atom_site_symmetry_multiplicity
 _atom_site_fract_x
 _atom_site_fract_y
 _atom_site_fract_z
 _atom_site_occupancy
  Tm  Tm0  1  0.000000  0.500000  0.525011  1
  Tm  Tm1  1  0.500000  0.000000  0.474991  1
  Tm  Tm2  1  0.500000  0.819810  0.205198  1
  Tm  Tm3  1  0.500000  0.180190  0.205198  1
  Tm  Tm4  1  0.000000  0.680078  0.794709  1
  Tm  Tm5  1  0.000000  0.319922  0.794709  1
  Co  Co6  1  0.500000  0.500000  0.700966  1
  Co  Co7  1  0.000000  0.000000  0.299132  1
  Co  Co8  1  0.000000  0.500000  0.986693  1
  Co  Co9  1  0.500000  0.000000  0.013035  1
  Co  Co10  1  0.500000  0.332413  0.989971  1
  Co  Co11  1  0.500000  0.667587  0.989971  1
  Co  Co12  1  0.000000  0.167214  0.009853  1
  Co  Co13  1  0.000000  0.832786  0.009853  1
  Co  Co14  1  0.500000  0.296109  0.431754  1
  Co  Co15  1  0.500000  0.703891  0.431754  1
  Co  Co16  1  0.000000  0.203953  0.568227  1
  Co  Co17  1  0.000000  0.796047  0.568227  1
  Co  Co18  1  0.500000  0.877388  0.706684  1
  Co  Co19  1  0.500000  0.122612  0.706684  1
  Co  Co20  1  0.000000  0.622727  0.293846  1
  Co  Co21  1  0.000000  0.377273  0.293846  1
  Mo  Mo22  1  0.500000  0.500000  0.157454  1
  P  P23  1  0.500000  0.500000  0.880015  1
  P  P24  1  0.000000  0.000000  0.120412  1
  P  P25  1  0.500000  0.500000  0.351314  1
  P  P26  1  0.000000  0.000000  0.647983  1
  P  P27  1  0.500000  0.312557  0.616251  1
  P  P28  1  0.500000  0.687443  0.616251  1
  P  P29  1  0.000000  0.187471  0.383673  1
  P  P30  1  0.000000  0.812529  0.383673  1
  P  P31  1  0.500000  0.843323  0.891771  1
  P  P32  1  0.500000  0.156677  0.891771  1
  P  P33  1  0.000000  0.656333  0.108270  1
  P  P34  1  0.000000  0.343667  0.108270  1
  W  W35  1  0.000000  0.000000  0.842581  1
