# generated using pymatgen
data_Dy16Er3ThSn16
_symmetry_space_group_name_H-M   'P 1'
_cell_length_a   8.06052243
_cell_length_b   8.18026515
_cell_length_c   15.47449773
_cell_angle_alpha   90.03112600
_cell_angle_beta   89.67752430
_cell_angle_gamma   89.85388029
_symmetry_Int_Tables_number   1
_chemical_formula_structural   Dy16Er3ThSn16
_chemical_formula_sum   'Dy16 Er3 Th1 Sn16'
_cell_volume   1020.32558090
_cell_formula_units_Z   1
loop_
 _symmetry_equiv_pos_site_id
 _symmetry_equiv_pos_as_xyz
  1  'x, y, z'
loop_
 _atom_site_type_symbol
 _atom_site_label
 _atom_site_symmetry_multiplicity
 _atom_site_fract_x
 _atom_site_fract_y
 _atom_site_fract_z
 _atom_site_occupancy
  Dy  Dy0  1  0.366570  0.836433  0.876789  1
  Dy  Dy1  1  0.868986  0.663577  0.621243  1
  Dy  Dy2  1  0.629893  0.161934  0.377296  1
  Dy  Dy3  1  0.133024  0.337414  0.123513  1
  Dy  Dy4  1  0.633530  0.162352  0.123602  1
  Dy  Dy5  1  0.131301  0.338611  0.377914  1
  Dy  Dy6  1  0.370365  0.838341  0.622393  1
  Dy  Dy7  1  0.867147  0.661329  0.877394  1
  Dy  Dy8  1  0.523649  0.322370  0.903194  1
  Dy  Dy9  1  0.026273  0.178559  0.598630  1
  Dy  Dy10  1  0.476847  0.678058  0.401979  1
  Dy  Dy11  1  0.978916  0.821365  0.097978  1
  Dy  Dy12  1  0.478785  0.677816  0.097526  1
  Dy  Dy13  1  0.976307  0.821776  0.401996  1
  Dy  Dy14  1  0.522523  0.323452  0.595905  1
  Dy  Dy15  1  0.198468  0.501640  0.748966  1
  Er  Er16  1  0.698538  0.996364  0.748652  1
  Er  Er17  1  0.800975  0.497213  0.250913  1
  Er  Er18  1  0.301197  0.002781  0.250276  1
  Th  Th19  1  0.017057  0.179524  0.903890  1
  Sn  Sn20  1  0.295322  0.035237  0.042887  1
  Sn  Sn21  1  0.790975  0.463106  0.457871  1
  Sn  Sn22  1  0.710131  0.966709  0.541974  1
  Sn  Sn23  1  0.208353  0.536511  0.958421  1
  Sn  Sn24  1  0.702174  0.958635  0.959364  1
  Sn  Sn25  1  0.208670  0.538257  0.541410  1
  Sn  Sn26  1  0.291129  0.036251  0.458110  1
  Sn  Sn27  1  0.793723  0.461715  0.041914  1
  Sn  Sn28  1  0.565572  0.619477  0.749521  1
  Sn  Sn29  1  0.064792  0.879662  0.750449  1
  Sn  Sn30  1  0.434787  0.382180  0.250169  1
  Sn  Sn31  1  0.934930  0.118430  0.250954  1
  Sn  Sn32  1  0.334545  0.149311  0.749924  1
  Sn  Sn33  1  0.828029  0.353726  0.747400  1
  Sn  Sn34  1  0.668433  0.850369  0.249610  1
  Sn  Sn35  1  0.168087  0.649518  0.249975  1
