# generated using pymatgen
data_Ca4EuU5O18
_symmetry_space_group_name_H-M   'P 1'
_cell_length_a   6.84909608
_cell_length_b   7.56707821
_cell_length_c   8.49184100
_cell_angle_alpha   99.50272426
_cell_angle_beta   98.48207835
_cell_angle_gamma   107.76204470
_symmetry_Int_Tables_number   1
_chemical_formula_structural   Ca4EuU5O18
_chemical_formula_sum   'Ca4 Eu1 U5 O18'
_cell_volume   404.10482543
_cell_formula_units_Z   1
loop_
 _symmetry_equiv_pos_site_id
 _symmetry_equiv_pos_as_xyz
  1  'x, y, z'
loop_
 _atom_site_type_symbol
 _atom_site_label
 _atom_site_symmetry_multiplicity
 _atom_site_fract_x
 _atom_site_fract_y
 _atom_site_fract_z
 _atom_site_occupancy
  Ca  Ca0  1  0.594104  0.697060  0.192825  1
  Ca  Ca1  1  0.403654  0.301044  0.805469  1
  Ca  Ca2  1  0.203282  0.895436  0.419443  1
  Ca  Ca3  1  0.002051  0.504731  0.004277  1
  Eu  Eu4  1  0.796442  0.100184  0.580258  1
  U  U5  1  0.001502  0.000557  0.002520  1
  U  U6  1  0.790116  0.578334  0.589015  1
  U  U7  1  0.626664  0.203839  0.190660  1
  U  U8  1  0.372112  0.796173  0.807221  1
  U  U9  1  0.211877  0.422357  0.411489  1
  O  O10  1  0.821322  0.790708  0.466424  1
  O  O11  1  0.003005  0.249438  0.169081  1
  O  O12  1  0.672575  0.415408  0.064570  1
  O  O13  1  0.456227  0.000472  0.679013  1
  O  O14  1  0.860158  0.341868  0.424363  1
  O  O15  1  0.502435  0.399169  0.344309  1
  O  O16  1  0.254462  0.621298  0.279571  1
  O  O17  1  0.987916  0.834865  0.164082  1
  O  O18  1  0.661282  0.931756  0.999761  1
  O  O19  1  0.340216  0.067968  0.998125  1
  O  O20  1  0.018211  0.167472  0.840653  1
  O  O21  1  0.747292  0.381345  0.724542  1
  O  O22  1  0.495580  0.599502  0.651867  1
  O  O23  1  0.137046  0.656344  0.577239  1
  O  O24  1  0.540063  0.998453  0.317030  1
  O  O25  1  0.326397  0.585141  0.933979  1
  O  O26  1  0.995932  0.753458  0.832314  1
  O  O27  1  0.178072  0.205616  0.529896  1
