# generated using pymatgen
data_Y8ErLuIr4
_symmetry_space_group_name_H-M   'P 1'
_cell_length_a   8.51283981
_cell_length_b   8.51284002
_cell_length_c   7.22685928
_cell_angle_alpha   83.29056331
_cell_angle_beta   83.29056471
_cell_angle_gamma   44.98079387
_symmetry_Int_Tables_number   1
_chemical_formula_structural   Y8ErLuIr4
_chemical_formula_sum   'Y8 Er1 Lu1 Ir4'
_cell_volume   367.22957518
_cell_formula_units_Z   1
loop_
 _symmetry_equiv_pos_site_id
 _symmetry_equiv_pos_as_xyz
  1  'x, y, z'
loop_
 _atom_site_type_symbol
 _atom_site_label
 _atom_site_symmetry_multiplicity
 _atom_site_fract_x
 _atom_site_fract_y
 _atom_site_fract_z
 _atom_site_occupancy
  Y  Y0  1  0.348081  0.212040  0.317036  1
  Y  Y1  1  0.210423  0.970742  0.081994  1
  Y  Y2  1  0.788400  0.030208  0.919052  1
  Y  Y3  1  0.969792  0.211600  0.580948  1
  Y  Y4  1  0.653476  0.787449  0.682364  1
  Y  Y5  1  0.212551  0.346524  0.817636  1
  Y  Y6  1  0.787960  0.651919  0.182964  1
  Y  Y7  1  0.029258  0.789577  0.418006  1
  Er  Er8  1  0.429527  0.570473  0.750000  1
  Lu  Lu9  1  0.569205  0.430795  0.250000  1
  Ir  Ir10  1  0.395133  0.820197  0.427871  1
  Ir  Ir11  1  0.179803  0.604867  0.072129  1
  Ir  Ir12  1  0.820727  0.394337  0.928468  1
  Ir  Ir13  1  0.605663  0.179273  0.571532  1
