# generated using pymatgen
data_LiLa4Al3Rh4
_symmetry_space_group_name_H-M   'P 1'
_cell_length_a   4.18536100
_cell_length_b   7.40600160
_cell_length_c   16.57437118
_cell_angle_alpha   89.54990411
_cell_angle_beta   90.00000000
_cell_angle_gamma   90.00000000
_symmetry_Int_Tables_number   1
_chemical_formula_structural   LiLa4Al3Rh4
_chemical_formula_sum   'Li2 La8 Al6 Rh8'
_cell_volume   513.73645497
_cell_formula_units_Z   2
loop_
 _symmetry_equiv_pos_site_id
 _symmetry_equiv_pos_as_xyz
  1  'x, y, z'
loop_
 _atom_site_type_symbol
 _atom_site_label
 _atom_site_symmetry_multiplicity
 _atom_site_fract_x
 _atom_site_fract_y
 _atom_site_fract_z
 _atom_site_occupancy
  Li  Li0  1  0.250000  0.653155  0.350680  1
  Li  Li1  1  0.750000  0.346845  0.649320  1
  La  La2  1  0.250000  0.524993  0.782835  1
  La  La3  1  0.750000  0.475007  0.217165  1
  La  La4  1  0.750000  0.978077  0.279312  1
  La  La5  1  0.250000  0.021923  0.720688  1
  La  La6  1  0.250000  0.664983  0.561052  1
  La  La7  1  0.750000  0.335017  0.438948  1
  La  La8  1  0.750000  0.841591  0.059110  1
  La  La9  1  0.250000  0.158409  0.940890  1
  Al  Al10  1  0.750000  0.848886  0.852079  1
  Al  Al11  1  0.250000  0.151114  0.147921  1
  Al  Al12  1  0.250000  0.505268  0.059481  1
  Al  Al13  1  0.750000  0.494732  0.940519  1
  Al  Al14  1  0.750000  0.002688  0.562831  1
  Al  Al15  1  0.250000  0.997312  0.437169  1
  Rh  Rh16  1  0.250000  0.777777  0.170944  1
  Rh  Rh17  1  0.750000  0.222223  0.829056  1
  Rh  Rh18  1  0.750000  0.755203  0.685383  1
  Rh  Rh19  1  0.250000  0.244797  0.314617  1
  Rh  Rh20  1  0.250000  0.710480  0.925390  1
  Rh  Rh21  1  0.750000  0.289520  0.074610  1
  Rh  Rh22  1  0.750000  0.790338  0.438332  1
  Rh  Rh23  1  0.250000  0.209662  0.561668  1
