# generated using pymatgen
data_La4Y6Ru3Pt
_symmetry_space_group_name_H-M   'P 1'
_cell_length_a   6.56864527
_cell_length_b   7.26876023
_cell_length_c   8.95683908
_cell_angle_alpha   96.28416141
_cell_angle_beta   111.74157225
_cell_angle_gamma   90.18928832
_symmetry_Int_Tables_number   1
_chemical_formula_structural   La4Y6Ru3Pt
_chemical_formula_sum   'La4 Y6 Ru3 Pt1'
_cell_volume   394.39852845
_cell_formula_units_Z   1
loop_
 _symmetry_equiv_pos_site_id
 _symmetry_equiv_pos_as_xyz
  1  'x, y, z'
loop_
 _atom_site_type_symbol
 _atom_site_label
 _atom_site_symmetry_multiplicity
 _atom_site_fract_x
 _atom_site_fract_y
 _atom_site_fract_z
 _atom_site_occupancy
  La  La0  1  0.988858  0.921980  0.191137  1
  La  La1  1  0.785934  0.595047  0.803026  1
  La  La2  1  0.017141  0.093772  0.805382  1
  La  La3  1  0.219684  0.404270  0.193477  1
  Y  Y4  1  0.635108  0.817983  0.431258  1
  Y  Y5  1  0.212268  0.684405  0.572842  1
  Y  Y6  1  0.363314  0.185229  0.571560  1
  Y  Y7  1  0.794892  0.313331  0.435933  1
  Y  Y8  1  0.427503  0.750699  0.999573  1
  Y  Y9  1  0.568149  0.245687  0.994276  1
  Ru  Ru10  1  0.610131  0.915524  0.777441  1
  Ru  Ru11  1  0.167640  0.416969  0.774071  1
  Ru  Ru12  1  0.393854  0.081552  0.223940  1
  Pt  Pt13  1  0.815524  0.573553  0.226085  1
