# generated using pymatgen
data_Sm7Er13Pb16
_symmetry_space_group_name_H-M   'P 1'
_cell_length_a   8.19456499
_cell_length_b   8.31391404
_cell_length_c   15.64266917
_cell_angle_alpha   90.02409861
_cell_angle_beta   89.62725117
_cell_angle_gamma   90.24969691
_symmetry_Int_Tables_number   1
_chemical_formula_structural   Sm7Er13Pb16
_chemical_formula_sum   'Sm7 Er13 Pb16'
_cell_volume   1065.68522838
_cell_formula_units_Z   1
loop_
 _symmetry_equiv_pos_site_id
 _symmetry_equiv_pos_as_xyz
  1  'x, y, z'
loop_
 _atom_site_type_symbol
 _atom_site_label
 _atom_site_symmetry_multiplicity
 _atom_site_fract_x
 _atom_site_fract_y
 _atom_site_fract_z
 _atom_site_occupancy
  Sm  Sm0  1  0.521647  0.321553  0.401690  1
  Sm  Sm1  1  0.476598  0.678299  0.903176  1
  Sm  Sm2  1  0.978970  0.822125  0.596108  1
  Sm  Sm3  1  0.976405  0.823587  0.903764  1
  Sm  Sm4  1  0.479009  0.677809  0.596503  1
  Sm  Sm5  1  0.522823  0.321216  0.097511  1
  Sm  Sm6  1  0.019836  0.177326  0.403886  1
  Er  Er7  1  0.864464  0.658012  0.122343  1
  Er  Er8  1  0.361915  0.841240  0.377058  1
  Er  Er9  1  0.633680  0.157923  0.878968  1
  Er  Er10  1  0.137258  0.341394  0.623145  1
  Er  Er11  1  0.133300  0.341659  0.878200  1
  Er  Er12  1  0.637025  0.158841  0.622325  1
  Er  Er13  1  0.365816  0.842552  0.121454  1
  Er  Er14  1  0.863031  0.657521  0.375539  1
  Er  Er15  1  0.029072  0.176340  0.099331  1
  Er  Er16  1  0.698253  0.996341  0.248983  1
  Er  Er17  1  0.197868  0.504301  0.248860  1
  Er  Er18  1  0.801769  0.495299  0.750256  1
  Er  Er19  1  0.301475  0.004262  0.750961  1
  Pb  Pb20  1  0.059488  0.873127  0.249161  1
  Pb  Pb21  1  0.558875  0.627524  0.249349  1
  Pb  Pb22  1  0.440362  0.371832  0.750871  1
  Pb  Pb23  1  0.939760  0.127466  0.750481  1
  Pb  Pb24  1  0.837537  0.345790  0.248059  1
  Pb  Pb25  1  0.331775  0.151048  0.249785  1
  Pb  Pb26  1  0.665973  0.849140  0.749902  1
  Pb  Pb27  1  0.165169  0.652106  0.750007  1
  Pb  Pb28  1  0.793514  0.460807  0.957162  1
  Pb  Pb29  1  0.296641  0.041421  0.542899  1
  Pb  Pb30  1  0.712250  0.965027  0.044289  1
  Pb  Pb31  1  0.203340  0.540063  0.456693  1
  Pb  Pb32  1  0.204869  0.538118  0.043336  1
  Pb  Pb33  1  0.702679  0.957012  0.456749  1
  Pb  Pb34  1  0.290919  0.042744  0.959058  1
  Pb  Pb35  1  0.796632  0.459180  0.542138  1
