# generated using pymatgen
data_Th8Sc12Si15Sb
_symmetry_space_group_name_H-M   'P 1'
_cell_length_a   7.32158381
_cell_length_b   7.51413891
_cell_length_c   14.22478910
_cell_angle_alpha   89.94524313
_cell_angle_beta   89.26120769
_cell_angle_gamma   90.03854466
_symmetry_Int_Tables_number   1
_chemical_formula_structural   Th8Sc12Si15Sb
_chemical_formula_sum   'Th8 Sc12 Si15 Sb1'
_cell_volume   782.51683183
_cell_formula_units_Z   1
loop_
 _symmetry_equiv_pos_site_id
 _symmetry_equiv_pos_as_xyz
  1  'x, y, z'
loop_
 _atom_site_type_symbol
 _atom_site_label
 _atom_site_symmetry_multiplicity
 _atom_site_fract_x
 _atom_site_fract_y
 _atom_site_fract_z
 _atom_site_occupancy
  Th  Th0  1  0.006622  0.173351  0.096509  1
  Th  Th1  1  0.994142  0.827790  0.904464  1
  Th  Th2  1  0.494865  0.673002  0.904364  1
  Th  Th3  1  0.997455  0.831585  0.597892  1
  Th  Th4  1  0.506102  0.327492  0.096626  1
  Th  Th5  1  0.997204  0.170503  0.399689  1
  Th  Th6  1  0.505960  0.321082  0.399295  1
  Th  Th7  1  0.510514  0.683052  0.599421  1
  Sc  Sc8  1  0.165104  0.502420  0.754919  1
  Sc  Sc9  1  0.835703  0.499355  0.249941  1
  Sc  Sc10  1  0.335024  0.000966  0.249184  1
  Sc  Sc11  1  0.666751  0.997509  0.752574  1
  Sc  Sc12  1  0.349325  0.157834  0.629722  1
  Sc  Sc13  1  0.657619  0.829216  0.373437  1
  Sc  Sc14  1  0.157004  0.677037  0.371319  1
  Sc  Sc15  1  0.665147  0.824869  0.123619  1
  Sc  Sc16  1  0.828403  0.328332  0.625911  1
  Sc  Sc17  1  0.333664  0.174249  0.875527  1
  Sc  Sc18  1  0.835008  0.326011  0.875639  1
  Sc  Sc19  1  0.165759  0.674291  0.124177  1
  Si  Si20  1  0.038620  0.125059  0.749954  1
  Si  Si21  1  0.959732  0.877250  0.247707  1
  Si  Si22  1  0.460337  0.622541  0.248779  1
  Si  Si23  1  0.537310  0.378505  0.751515  1
  Si  Si24  1  0.295392  0.872327  0.752630  1
  Si  Si25  1  0.704505  0.121604  0.246782  1
  Si  Si26  1  0.204449  0.377403  0.248878  1
  Si  Si27  1  0.798516  0.625150  0.751924  1
  Si  Si28  1  0.815653  0.542857  0.456201  1
  Si  Si29  1  0.326074  0.960516  0.458977  1
  Si  Si30  1  0.839752  0.535221  0.040563  1
  Si  Si31  1  0.674355  0.041955  0.539467  1
  Si  Si32  1  0.160549  0.464431  0.959989  1
  Si  Si33  1  0.659797  0.036063  0.959636  1
  Si  Si34  1  0.339749  0.964648  0.040596  1
  Sb  Sb35  1  0.177834  0.454526  0.542176  1
