# generated using pymatgen
data_Hf9Zr7(TaSi4)4
_symmetry_space_group_name_H-M   'P 1'
_cell_length_a   7.02415102
_cell_length_b   7.02483923
_cell_length_c   12.85297540
_cell_angle_alpha   90.02849960
_cell_angle_beta   90.00005026
_cell_angle_gamma   90.00773242
_symmetry_Int_Tables_number   1
_chemical_formula_structural   Hf9Zr7(TaSi4)4
_chemical_formula_sum   'Hf9 Zr7 Ta4 Si16'
_cell_volume   634.21111393
_cell_formula_units_Z   1
loop_
 _symmetry_equiv_pos_site_id
 _symmetry_equiv_pos_as_xyz
  1  'x, y, z'
loop_
 _atom_site_type_symbol
 _atom_site_label
 _atom_site_symmetry_multiplicity
 _atom_site_fract_x
 _atom_site_fract_y
 _atom_site_fract_z
 _atom_site_occupancy
  Hf  Hf0  1  0.998430  0.347059  0.217864  1
  Hf  Hf1  1  0.497036  0.354088  0.126053  1
  Hf  Hf2  1  0.503225  0.645939  0.625962  1
  Hf  Hf3  1  0.854041  0.003265  0.876064  1
  Hf  Hf4  1  0.145732  0.996940  0.375799  1
  Hf  Hf5  1  0.646225  0.502992  0.373794  1
  Hf  Hf6  1  0.354074  0.496832  0.874122  1
  Hf  Hf7  1  0.003220  0.854354  0.124055  1
  Hf  Hf8  1  0.996727  0.145973  0.623972  1
  Zr  Zr9  1  0.498083  0.153074  0.532032  1
  Zr  Zr10  1  0.502156  0.847110  0.032086  1
  Zr  Zr11  1  0.653135  0.002237  0.281968  1
  Zr  Zr12  1  0.346929  0.998047  0.782073  1
  Zr  Zr13  1  0.847048  0.501998  0.968082  1
  Zr  Zr14  1  0.152775  0.497723  0.467750  1
  Zr  Zr15  1  0.002033  0.652991  0.717933  1
  Ta  Ta16  1  0.675146  0.324808  0.750002  1
  Ta  Ta17  1  0.324465  0.674848  0.249950  1
  Ta  Ta18  1  0.824806  0.824836  0.499917  1
  Ta  Ta19  1  0.174956  0.175422  0.000309  1
  Si  Si20  1  0.798295  0.147013  0.072020  1
  Si  Si21  1  0.202251  0.853624  0.571586  1
  Si  Si22  1  0.646355  0.702313  0.821637  1
  Si  Si23  1  0.352876  0.297914  0.321420  1
  Si  Si24  1  0.853754  0.202474  0.428239  1
  Si  Si25  1  0.146370  0.797712  0.928374  1
  Si  Si26  1  0.702642  0.646079  0.178369  1
  Si  Si27  1  0.297707  0.353633  0.678397  1
  Si  Si28  1  0.548014  0.199223  0.935218  1
  Si  Si29  1  0.452038  0.800783  0.435206  1
  Si  Si30  1  0.699205  0.951886  0.685259  1
  Si  Si31  1  0.300565  0.048319  0.185258  1
  Si  Si32  1  0.800829  0.451967  0.564757  1
  Si  Si33  1  0.198698  0.547394  0.065191  1
  Si  Si34  1  0.952129  0.698376  0.314535  1
  Si  Si35  1  0.048033  0.300757  0.814746  1
