# generated using pymatgen
data_Y5Tm2P12Ir17
_symmetry_space_group_name_H-M   'P 1'
_cell_length_a   12.70795500
_cell_length_b   12.99208329
_cell_length_c   3.98440800
_cell_angle_alpha   90.00000000
_cell_angle_beta   90.00000000
_cell_angle_gamma   119.27916438
_symmetry_Int_Tables_number   1
_chemical_formula_structural   Y5Tm2P12Ir17
_chemical_formula_sum   'Y5 Tm2 P12 Ir17'
_cell_volume   573.79642935
_cell_formula_units_Z   1
loop_
 _symmetry_equiv_pos_site_id
 _symmetry_equiv_pos_as_xyz
  1  'x, y, z'
loop_
 _atom_site_type_symbol
 _atom_site_label
 _atom_site_symmetry_multiplicity
 _atom_site_fract_x
 _atom_site_fract_y
 _atom_site_fract_z
 _atom_site_occupancy
  Y  Y0  1  0.329767  0.662060  0.500000  1
  Y  Y1  1  0.667707  0.337940  0.500000  1
  Y  Y2  1  0.002658  0.816561  0.000000  1
  Y  Y3  1  0.186096  0.183439  0.000000  1
  Y  Y4  1  0.810875  0.000000  0.000000  1
  Tm  Tm5  1  0.996004  0.443784  0.500000  1
  Tm  Tm6  1  0.552220  0.556216  0.500000  1
  P  P7  1  0.009622  0.657680  0.500000  1
  P  P8  1  0.351942  0.342320  0.500000  1
  P  P9  1  0.643906  0.000000  0.500000  1
  P  P10  1  0.516447  0.690547  0.000000  1
  P  P11  1  0.309151  0.824575  0.000000  1
  P  P12  1  0.166674  0.480337  0.000000  1
  P  P13  1  0.484575  0.175425  0.000000  1
  P  P14  1  0.686338  0.519663  0.000000  1
  P  P15  1  0.825900  0.309453  0.000000  1
  P  P16  1  0.999407  0.174759  0.500000  1
  P  P17  1  0.824647  0.825241  0.500000  1
  P  P18  1  0.181573  0.000000  0.500000  1
  Ir  Ir19  1  0.504370  0.866074  0.000000  1
  Ir  Ir20  1  0.121860  0.645220  0.000000  1
  Ir  Ir21  1  0.357802  0.501286  0.000000  1
  Ir  Ir22  1  0.476641  0.354780  0.000000  1
  Ir  Ir23  1  0.856516  0.498714  0.000000  1
  Ir  Ir24  1  0.638296  0.133926  0.000000  1
  Ir  Ir25  1  0.464983  0.000000  0.500000  1
  Ir  Ir26  1  0.996454  0.272416  0.000000  1
  Ir  Ir27  1  0.724038  0.727584  0.000000  1
  Ir  Ir28  1  0.287385  0.000000  0.000000  1
  Ir  Ir29  1  0.623986  0.810601  0.500000  1
  Ir  Ir30  1  0.208700  0.828565  0.500000  1
  Ir  Ir31  1  0.180526  0.364520  0.500000  1
  Ir  Ir32  1  0.380135  0.171435  0.500000  1
  Ir  Ir33  1  0.816006  0.635480  0.500000  1
  Ir  Ir34  1  0.813385  0.189399  0.500000  1
  Ir  Ir35  1  0.003403  0.000000  0.500000  1
