# generated using pymatgen
data_Hf3Sc3As5PRu6
_symmetry_space_group_name_H-M   'P 1'
_cell_length_a   7.66853728
_cell_length_b   7.66072156
_cell_length_c   7.66853713
_cell_angle_alpha   127.97112535
_cell_angle_beta   121.43745622
_cell_angle_gamma   82.16367441
_symmetry_Int_Tables_number   1
_chemical_formula_structural   Hf3Sc3As5PRu6
_chemical_formula_sum   'Hf3 Sc3 As5 P1 Ru6'
_cell_volume   291.37752368
_cell_formula_units_Z   1
loop_
 _symmetry_equiv_pos_site_id
 _symmetry_equiv_pos_as_xyz
  1  'x, y, z'
loop_
 _atom_site_type_symbol
 _atom_site_label
 _atom_site_symmetry_multiplicity
 _atom_site_fract_x
 _atom_site_fract_y
 _atom_site_fract_z
 _atom_site_occupancy
  Hf  Hf0  1  0.251051  0.842969  0.091916  1
  Hf  Hf1  1  0.050609  0.256860  0.706251  1
  Hf  Hf2  1  0.947718  0.651725  0.204007  1
  Sc  Sc3  1  0.465632  0.686214  0.720580  1
  Sc  Sc4  1  0.533645  0.257352  0.223707  1
  Sc  Sc5  1  0.749902  0.835841  0.585939  1
  As  As6  1  0.727016  0.233910  0.006894  1
  As  As7  1  0.332376  0.587364  0.253189  1
  As  As8  1  0.668958  0.920772  0.256662  1
  As  As9  1  0.164110  0.920772  0.751813  1
  As  As10  1  0.834175  0.587364  0.754989  1
  P  P11  1  0.275655  0.263603  0.487950  1
  Ru  Ru12  1  0.472626  0.493171  0.965137  1
  Ru  Ru13  1  0.028034  0.493171  0.520545  1
  Ru  Ru14  1  0.099392  0.252441  0.111007  1
  Ru  Ru15  1  0.916230  0.011815  0.170379  1
  Ru  Ru16  1  0.341436  0.011815  0.595584  1
  Ru  Ru17  1  0.641434  0.252441  0.653049  1
