# generated using pymatgen
data_Lu2Th3SiGe2C
_symmetry_space_group_name_H-M   'P 1'
_cell_length_a   8.74089387
_cell_length_b   8.74735276
_cell_length_c   6.33705301
_cell_angle_alpha   89.99920489
_cell_angle_beta   90.00038628
_cell_angle_gamma   120.02445310
_symmetry_Int_Tables_number   1
_chemical_formula_structural   Lu2Th3SiGe2C
_chemical_formula_sum   'Lu4 Th6 Si2 Ge4 C2'
_cell_volume   419.51103944
_cell_formula_units_Z   2
loop_
 _symmetry_equiv_pos_site_id
 _symmetry_equiv_pos_as_xyz
  1  'x, y, z'
loop_
 _atom_site_type_symbol
 _atom_site_label
 _atom_site_symmetry_multiplicity
 _atom_site_fract_x
 _atom_site_fract_y
 _atom_site_fract_z
 _atom_site_occupancy
  Lu  Lu0  1  0.665485  0.332456  0.498169  1
  Lu  Lu1  1  0.334515  0.666972  0.498169  1
  Lu  Lu2  1  0.334517  0.666955  0.001850  1
  Lu  Lu3  1  0.665483  0.332437  0.001850  1
  Th  Th4  1  0.765250  0.767034  0.249998  1
  Th  Th5  1  0.234750  0.001784  0.249998  1
  Th  Th6  1  0.000000  0.232795  0.249992  1
  Th  Th7  1  0.233761  0.233970  0.750000  1
  Th  Th8  1  0.766239  0.000209  0.750000  1
  Th  Th9  1  0.000000  0.767064  0.750002  1
  Si  Si10  1  0.403292  0.403249  0.249994  1
  Si  Si11  1  0.596708  0.999956  0.249994  1
  Ge  Ge12  1  0.000000  0.596097  0.250000  1
  Ge  Ge13  1  0.595796  0.595703  0.749999  1
  Ge  Ge14  1  0.404204  0.999907  0.749999  1
  Ge  Ge15  1  0.000000  0.404139  0.749993  1
  C  C16  1  0.000000  0.999635  0.500684  1
  C  C17  1  0.000000  0.999639  0.999309  1
