# generated using pymatgen
data_KTb2(CoH6)2
_symmetry_space_group_name_H-M   'P 1'
_cell_length_a   4.80111700
_cell_length_b   4.80111787
_cell_length_c   8.83669100
_cell_angle_alpha   90.00000000
_cell_angle_beta   90.00000000
_cell_angle_gamma   120.00000092
_symmetry_Int_Tables_number   1
_chemical_formula_structural   KTb2(CoH6)2
_chemical_formula_sum   'K1 Tb2 Co2 H12'
_cell_volume   176.40258868
_cell_formula_units_Z   1
loop_
 _symmetry_equiv_pos_site_id
 _symmetry_equiv_pos_as_xyz
  1  'x, y, z'
loop_
 _atom_site_type_symbol
 _atom_site_label
 _atom_site_symmetry_multiplicity
 _atom_site_fract_x
 _atom_site_fract_y
 _atom_site_fract_z
 _atom_site_occupancy
  K  K0  1  0.000000  0.000000  0.000000  1
  Tb  Tb1  1  0.666667  0.333333  0.368659  1
  Tb  Tb2  1  0.333333  0.666667  0.631341  1
  Co  Co3  1  0.666667  0.333333  0.707776  1
  Co  Co4  1  0.333333  0.666667  0.292224  1
  H  H5  1  0.177101  0.822899  0.393119  1
  H  H6  1  0.645797  0.822899  0.393119  1
  H  H7  1  0.177101  0.354203  0.393119  1
  H  H8  1  0.822899  0.177101  0.606881  1
  H  H9  1  0.354203  0.177101  0.606881  1
  H  H10  1  0.822899  0.645797  0.606881  1
  H  H11  1  0.519964  0.039929  0.816453  1
  H  H12  1  0.519964  0.480036  0.816453  1
  H  H13  1  0.960071  0.480036  0.816453  1
  H  H14  1  0.480036  0.960071  0.183547  1
  H  H15  1  0.480036  0.519964  0.183547  1
  H  H16  1  0.039929  0.519964  0.183547  1
