# generated using pymatgen
data_Ca3ErLu4(Si3Pd)4
_symmetry_space_group_name_H-M   'P 1'
_cell_length_a   8.24596700
_cell_length_b   8.25560151
_cell_length_c   8.20867300
_cell_angle_alpha   90.00000000
_cell_angle_beta   90.00000000
_cell_angle_gamma   119.96139855
_symmetry_Int_Tables_number   1
_chemical_formula_structural   Ca3ErLu4(Si3Pd)4
_chemical_formula_sum   'Ca3 Er1 Lu4 Si12 Pd4'
_cell_volume   484.13078467
_cell_formula_units_Z   1
loop_
 _symmetry_equiv_pos_site_id
 _symmetry_equiv_pos_as_xyz
  1  'x, y, z'
loop_
 _atom_site_type_symbol
 _atom_site_label
 _atom_site_symmetry_multiplicity
 _atom_site_fract_x
 _atom_site_fract_y
 _atom_site_fract_z
 _atom_site_occupancy
  Ca  Ca0  1  0.497342  0.994685  0.750000  1
  Ca  Ca1  1  0.005417  0.502839  0.750000  1
  Ca  Ca2  1  0.497420  0.502839  0.750000  1
  Er  Er3  1  0.502877  0.005753  0.250000  1
  Lu  Lu4  1  0.994630  0.497524  0.250000  1
  Lu  Lu5  1  0.502896  0.497524  0.250000  1
  Lu  Lu6  1  0.999914  0.999826  0.250000  1
  Lu  Lu7  1  0.999973  0.999950  0.750000  1
  Si  Si8  1  0.164298  0.328597  0.007815  1
  Si  Si9  1  0.836319  0.672635  0.007754  1
  Si  Si10  1  0.670661  0.835278  0.007204  1
  Si  Si11  1  0.836319  0.672635  0.492246  1
  Si  Si12  1  0.327843  0.163938  0.006623  1
  Si  Si13  1  0.164298  0.328597  0.492185  1
  Si  Si14  1  0.164617  0.835278  0.007204  1
  Si  Si15  1  0.327843  0.163938  0.493377  1
  Si  Si16  1  0.836096  0.163938  0.006623  1
  Si  Si17  1  0.670661  0.835278  0.492796  1
  Si  Si18  1  0.836096  0.163938  0.493377  1
  Si  Si19  1  0.164617  0.835278  0.492796  1
  Pd  Pd20  1  0.332585  0.665172  0.037530  1
  Pd  Pd21  1  0.667348  0.334695  0.017744  1
  Pd  Pd22  1  0.667348  0.334695  0.482256  1
  Pd  Pd23  1  0.332585  0.665172  0.462470  1
