# generated using pymatgen
data_Tb4SiMoRu6
_symmetry_space_group_name_H-M   'P 1'
_cell_length_a   5.13284245
_cell_length_b   5.13284219
_cell_length_c   9.07753500
_cell_angle_alpha   90.00000000
_cell_angle_beta   90.00000000
_cell_angle_gamma   114.24457536
_symmetry_Int_Tables_number   1
_chemical_formula_structural   Tb4SiMoRu6
_chemical_formula_sum   'Tb4 Si1 Mo1 Ru6'
_cell_volume   218.06391630
_cell_formula_units_Z   1
loop_
 _symmetry_equiv_pos_site_id
 _symmetry_equiv_pos_as_xyz
  1  'x, y, z'
loop_
 _atom_site_type_symbol
 _atom_site_label
 _atom_site_symmetry_multiplicity
 _atom_site_fract_x
 _atom_site_fract_y
 _atom_site_fract_z
 _atom_site_occupancy
  Tb  Tb0  1  0.326258  0.673742  0.436118  1
  Tb  Tb1  1  0.667492  0.332508  0.570026  1
  Tb  Tb2  1  0.667492  0.332508  0.929974  1
  Tb  Tb3  1  0.326258  0.673742  0.063882  1
  Si  Si4  1  0.165826  0.834174  0.750000  1
  Mo  Mo5  1  0.848695  0.151305  0.250000  1
  Ru  Ru6  1  0.992545  0.007455  0.503733  1
  Ru  Ru7  1  0.992545  0.007455  0.996267  1
  Ru  Ru8  1  0.826911  0.643700  0.250000  1
  Ru  Ru9  1  0.356300  0.173089  0.250000  1
  Ru  Ru10  1  0.173418  0.343738  0.750000  1
  Ru  Ru11  1  0.656262  0.826582  0.750000  1
