# generated using pymatgen
data_Mg2H3N
_symmetry_space_group_name_H-M   'P 1'
_cell_length_a   3.10818439
_cell_length_b   5.64587596
_cell_length_c   5.63702893
_cell_angle_alpha   141.48101923
_cell_angle_beta   73.90111086
_cell_angle_gamma   106.16027683
_symmetry_Int_Tables_number   1
_chemical_formula_structural   Mg2H3N
_chemical_formula_sum   'Mg2 H3 N1'
_cell_volume   58.87737963
_cell_formula_units_Z   1
loop_
 _symmetry_equiv_pos_site_id
 _symmetry_equiv_pos_as_xyz
  1  'x, y, z'
loop_
 _atom_site_type_symbol
 _atom_site_label
 _atom_site_symmetry_multiplicity
 _atom_site_fract_x
 _atom_site_fract_y
 _atom_site_fract_z
 _atom_site_occupancy
  Mg  Mg0  1  0.040965  0.014849  0.007399  1
  Mg  Mg1  1  0.321140  0.297377  0.733705  1
  H  H2  1  0.392511  0.874753  0.167290  1
  H  H3  1  0.969247  0.451498  0.587538  1
  H  H4  1  0.679469  0.480861  0.199080  1
  N  N5  1  0.680967  0.203014  0.917753  1
