# generated using pymatgen
data_Ta12Al3Cr4Ga5C4
_symmetry_space_group_name_H-M   'P 1'
_cell_length_a   8.26366313
_cell_length_b   8.26366351
_cell_length_c   8.27134106
_cell_angle_alpha   60.04980994
_cell_angle_beta   60.04981302
_cell_angle_gamma   60.02686629
_symmetry_Int_Tables_number   1
_chemical_formula_structural   Ta12Al3Cr4Ga5C4
_chemical_formula_sum   'Ta12 Al3 Cr4 Ga5 C4'
_cell_volume   399.77991029
_cell_formula_units_Z   1
loop_
 _symmetry_equiv_pos_site_id
 _symmetry_equiv_pos_as_xyz
  1  'x, y, z'
loop_
 _atom_site_type_symbol
 _atom_site_label
 _atom_site_symmetry_multiplicity
 _atom_site_fract_x
 _atom_site_fract_y
 _atom_site_fract_z
 _atom_site_occupancy
  Ta  Ta0  1  0.554340  0.945412  0.554383  1
  Ta  Ta1  1  0.304021  0.696310  0.695156  1
  Ta  Ta2  1  0.695750  0.304827  0.304931  1
  Ta  Ta3  1  0.304827  0.695750  0.304931  1
  Ta  Ta4  1  0.695323  0.695323  0.304477  1
  Ta  Ta5  1  0.304410  0.304410  0.695583  1
  Ta  Ta6  1  0.554937  0.554937  0.945013  1
  Ta  Ta7  1  0.945412  0.554340  0.554383  1
  Ta  Ta8  1  0.555530  0.944977  0.945347  1
  Ta  Ta9  1  0.946024  0.946024  0.554617  1
  Ta  Ta10  1  0.696310  0.304021  0.695156  1
  Ta  Ta11  1  0.944977  0.555530  0.945347  1
  Al  Al12  1  0.915300  0.915300  0.915163  1
  Al  Al13  1  0.996124  0.333901  0.335045  1
  Al  Al14  1  0.333901  0.996124  0.335045  1
  Cr  Cr15  1  0.124171  0.124171  0.125111  1
  Cr  Cr16  1  0.625041  0.124408  0.124945  1
  Cr  Cr17  1  0.124408  0.625041  0.124945  1
  Cr  Cr18  1  0.124335  0.124335  0.625596  1
  Ga  Ga19  1  0.335359  0.335359  0.992023  1
  Ga  Ga20  1  0.913079  0.259134  0.912975  1
  Ga  Ga21  1  0.912969  0.912969  0.259301  1
  Ga  Ga22  1  0.259134  0.913079  0.912975  1
  Ga  Ga23  1  0.335308  0.335308  0.337238  1
  C  C24  1  0.624874  0.624874  0.625583  1
  C  C25  1  0.125297  0.624257  0.624876  1
  C  C26  1  0.624257  0.125297  0.624876  1
  C  C27  1  0.624581  0.624581  0.124979  1
