# generated using pymatgen
data_Tb4YbY15(Cd3Ru)2
_symmetry_space_group_name_H-M   'P 1'
_cell_length_a   9.66325484
_cell_length_b   9.66326094
_cell_length_c   9.86278794
_cell_angle_alpha   90.04325236
_cell_angle_beta   89.95674813
_cell_angle_gamma   119.94393613
_symmetry_Int_Tables_number   1
_chemical_formula_structural   Tb4YbY15(Cd3Ru)2
_chemical_formula_sum   'Tb4 Yb1 Y15 Cd6 Ru2'
_cell_volume   798.03579926
_cell_formula_units_Z   1
loop_
 _symmetry_equiv_pos_site_id
 _symmetry_equiv_pos_as_xyz
  1  'x, y, z'
loop_
 _atom_site_type_symbol
 _atom_site_label
 _atom_site_symmetry_multiplicity
 _atom_site_fract_x
 _atom_site_fract_y
 _atom_site_fract_z
 _atom_site_occupancy
  Tb  Tb0  1  0.210531  0.789469  0.439356  1
  Tb  Tb1  1  0.210635  0.421328  0.439339  1
  Tb  Tb2  1  0.578671  0.789365  0.439338  1
  Tb  Tb3  1  0.789227  0.210773  0.560909  1
  Yb  Yb4  1  0.999965  0.000035  0.499884  1
  Y  Y5  1  0.999975  0.000025  0.000092  1
  Y  Y6  1  0.789411  0.578909  0.560178  1
  Y  Y7  1  0.421091  0.210589  0.560178  1
  Y  Y8  1  0.789885  0.210115  0.940434  1
  Y  Y9  1  0.789753  0.579638  0.940410  1
  Y  Y10  1  0.420362  0.210247  0.940409  1
  Y  Y11  1  0.210125  0.789875  0.059458  1
  Y  Y12  1  0.210089  0.420188  0.059474  1
  Y  Y13  1  0.579812  0.789911  0.059474  1
  Y  Y14  1  0.541654  0.458346  0.250926  1
  Y  Y15  1  0.541574  0.083291  0.250995  1
  Y  Y16  1  0.916709  0.458426  0.250995  1
  Y  Y17  1  0.458364  0.541635  0.749081  1
  Y  Y18  1  0.458347  0.916736  0.749012  1
  Y  Y19  1  0.083264  0.541653  0.749012  1
  Cd  Cd20  1  0.884942  0.115058  0.249962  1
  Cd  Cd21  1  0.884903  0.769792  0.250143  1
  Cd  Cd22  1  0.230208  0.115097  0.250143  1
  Cd  Cd23  1  0.115078  0.884921  0.749929  1
  Cd  Cd24  1  0.115122  0.230139  0.750031  1
  Cd  Cd25  1  0.769861  0.884878  0.750031  1
  Ru  Ru26  1  0.333350  0.666651  0.251739  1
  Ru  Ru27  1  0.667094  0.332905  0.749067  1
