# generated using pymatgen
data_Er6V(Fe3Co8)2
_symmetry_space_group_name_H-M   'P 1'
_cell_length_a   8.34046922
_cell_length_b   8.34046890
_cell_length_c   8.34046900
_cell_angle_alpha   59.99999565
_cell_angle_beta   59.99999691
_cell_angle_gamma   59.99999668
_symmetry_Int_Tables_number   1
_chemical_formula_structural   Er6V(Fe3Co8)2
_chemical_formula_sum   'Er6 V1 Fe6 Co16'
_cell_volume   410.25736921
_cell_formula_units_Z   1
loop_
 _symmetry_equiv_pos_site_id
 _symmetry_equiv_pos_as_xyz
  1  'x, y, z'
loop_
 _atom_site_type_symbol
 _atom_site_label
 _atom_site_symmetry_multiplicity
 _atom_site_fract_x
 _atom_site_fract_y
 _atom_site_fract_z
 _atom_site_occupancy
  Er  Er0  1  0.712667  0.712667  0.287333  1
  Er  Er1  1  0.287333  0.712667  0.287333  1
  Er  Er2  1  0.712667  0.287333  0.287333  1
  Er  Er3  1  0.287333  0.287333  0.712667  1
  Er  Er4  1  0.712667  0.287333  0.712667  1
  Er  Er5  1  0.287333  0.712667  0.712667  1
  V  V6  1  0.000000  0.000000  0.000000  1
  Fe  Fe7  1  0.000000  0.000000  0.500000  1
  Fe  Fe8  1  0.500000  0.000000  0.500000  1
  Fe  Fe9  1  0.000000  0.500000  0.500000  1
  Fe  Fe10  1  0.500000  0.500000  0.000000  1
  Fe  Fe11  1  0.000000  0.500000  0.000000  1
  Fe  Fe12  1  0.500000  0.000000  0.000000  1
  Co  Co13  1  0.877423  0.877423  0.367730  1
  Co  Co14  1  0.877423  0.367730  0.877423  1
  Co  Co15  1  0.367730  0.877423  0.877423  1
  Co  Co16  1  0.877423  0.877423  0.877423  1
  Co  Co17  1  0.122577  0.122577  0.632270  1
  Co  Co18  1  0.122577  0.632270  0.122577  1
  Co  Co19  1  0.632270  0.122577  0.122577  1
  Co  Co20  1  0.122577  0.122577  0.122577  1
  Co  Co21  1  0.676544  0.676544  0.970366  1
  Co  Co22  1  0.676544  0.970366  0.676544  1
  Co  Co23  1  0.970366  0.676544  0.676544  1
  Co  Co24  1  0.676544  0.676544  0.676544  1
  Co  Co25  1  0.323456  0.323456  0.029634  1
  Co  Co26  1  0.323456  0.029634  0.323456  1
  Co  Co27  1  0.029634  0.323456  0.323456  1
  Co  Co28  1  0.323456  0.323456  0.323456  1
