# generated using pymatgen
data_La3Sn6Ir
_symmetry_space_group_name_H-M   'P 1'
_cell_length_a   8.80027989
_cell_length_b   8.80027917
_cell_length_c   13.57196100
_cell_angle_alpha   90.00000000
_cell_angle_beta   90.00000000
_cell_angle_gamma   148.36019826
_symmetry_Int_Tables_number   1
_chemical_formula_structural   La3Sn6Ir
_chemical_formula_sum   'La6 Sn12 Ir2'
_cell_volume   551.37256731
_cell_formula_units_Z   2
loop_
 _symmetry_equiv_pos_site_id
 _symmetry_equiv_pos_as_xyz
  1  'x, y, z'
loop_
 _atom_site_type_symbol
 _atom_site_label
 _atom_site_symmetry_multiplicity
 _atom_site_fract_x
 _atom_site_fract_y
 _atom_site_fract_z
 _atom_site_occupancy
  La  La0  1  0.602490  0.397510  0.250000  1
  La  La1  1  0.397510  0.602490  0.750000  1
  La  La2  1  0.399389  0.600611  0.404435  1
  La  La3  1  0.600611  0.399389  0.595565  1
  La  La4  1  0.399389  0.600611  0.095565  1
  La  La5  1  0.600611  0.399389  0.904435  1
  Sn  Sn6  1  0.926671  0.073329  0.923693  1
  Sn  Sn7  1  0.073329  0.926671  0.076307  1
  Sn  Sn8  1  0.926671  0.073329  0.576307  1
  Sn  Sn9  1  0.073329  0.926671  0.423693  1
  Sn  Sn10  1  0.960196  0.039804  0.250000  1
  Sn  Sn11  1  0.039804  0.960196  0.750000  1
  Sn  Sn12  1  0.745436  0.254565  0.433931  1
  Sn  Sn13  1  0.254565  0.745435  0.566069  1
  Sn  Sn14  1  0.745436  0.254565  0.066069  1
  Sn  Sn15  1  0.254565  0.745435  0.933931  1
  Sn  Sn16  1  0.231959  0.768041  0.250000  1
  Sn  Sn17  1  0.768041  0.231959  0.750000  1
  Ir  Ir18  1  0.801748  0.198252  0.250000  1
  Ir  Ir19  1  0.198252  0.801748  0.750000  1
