# generated using pymatgen
data_Y4Ga16FeCo2
_symmetry_space_group_name_H-M   'P 1'
_cell_length_a   6.02478200
_cell_length_b   6.02478200
_cell_length_c   11.13790000
_cell_angle_alpha   90.00000000
_cell_angle_beta   90.00000000
_cell_angle_gamma   90.00000000
_symmetry_Int_Tables_number   1
_chemical_formula_structural   Y4Ga16FeCo2
_chemical_formula_sum   'Y4 Ga16 Fe1 Co2'
_cell_volume   404.28347357
_cell_formula_units_Z   1
loop_
 _symmetry_equiv_pos_site_id
 _symmetry_equiv_pos_as_xyz
  1  'x, y, z'
loop_
 _atom_site_type_symbol
 _atom_site_label
 _atom_site_symmetry_multiplicity
 _atom_site_fract_x
 _atom_site_fract_y
 _atom_site_fract_z
 _atom_site_occupancy
  Y  Y0  1  0.000000  0.500000  0.194047  1
  Y  Y1  1  0.000000  0.500000  0.805953  1
  Y  Y2  1  0.500000  0.000000  0.805953  1
  Y  Y3  1  0.500000  0.000000  0.194047  1
  Ga  Ga4  1  0.000000  0.000000  0.218284  1
  Ga  Ga5  1  0.000000  0.000000  0.781716  1
  Ga  Ga6  1  0.500000  0.500000  0.196827  1
  Ga  Ga7  1  0.500000  0.500000  0.803173  1
  Ga  Ga8  1  0.281253  0.281253  0.000000  1
  Ga  Ga9  1  0.718747  0.718747  0.000000  1
  Ga  Ga10  1  0.281253  0.718747  0.000000  1
  Ga  Ga11  1  0.718747  0.281253  0.000000  1
  Ga  Ga12  1  0.249677  0.249677  0.384937  1
  Ga  Ga13  1  0.750323  0.750323  0.384937  1
  Ga  Ga14  1  0.249677  0.750323  0.615063  1
  Ga  Ga15  1  0.750323  0.249677  0.615063  1
  Ga  Ga16  1  0.750323  0.750323  0.615063  1
  Ga  Ga17  1  0.249677  0.249677  0.615063  1
  Ga  Ga18  1  0.249677  0.750323  0.384937  1
  Ga  Ga19  1  0.750323  0.249677  0.384937  1
  Fe  Fe20  1  0.000000  0.000000  0.000000  1
  Co  Co21  1  0.000000  0.500000  0.500000  1
  Co  Co22  1  0.500000  0.000000  0.500000  1
