# generated using pymatgen
data_Tb2Zn4InAg
_symmetry_space_group_name_H-M   'P 1'
_cell_length_a   4.47137900
_cell_length_b   7.18456100
_cell_length_c   9.98931800
_cell_angle_alpha   90.00000000
_cell_angle_beta   90.00000000
_cell_angle_gamma   90.00000000
_symmetry_Int_Tables_number   1
_chemical_formula_structural   Tb2Zn4InAg
_chemical_formula_sum   'Tb4 Zn8 In2 Ag2'
_cell_volume   320.90579367
_cell_formula_units_Z   2
loop_
 _symmetry_equiv_pos_site_id
 _symmetry_equiv_pos_as_xyz
  1  'x, y, z'
loop_
 _atom_site_type_symbol
 _atom_site_label
 _atom_site_symmetry_multiplicity
 _atom_site_fract_x
 _atom_site_fract_y
 _atom_site_fract_z
 _atom_site_occupancy
  Tb  Tb0  1  0.250000  0.311227  0.678988  1
  Tb  Tb1  1  0.250000  0.811227  0.821012  1
  Tb  Tb2  1  0.750000  0.693288  0.329582  1
  Tb  Tb3  1  0.750000  0.193288  0.170418  1
  Zn  Zn4  1  0.250000  0.909677  0.143966  1
  Zn  Zn5  1  0.250000  0.409677  0.356034  1
  Zn  Zn6  1  0.750000  0.098506  0.847417  1
  Zn  Zn7  1  0.750000  0.598506  0.652583  1
  Zn  Zn8  1  0.250000  0.181559  0.962102  1
  Zn  Zn9  1  0.250000  0.681559  0.537898  1
  Zn  Zn10  1  0.750000  0.807655  0.033649  1
  Zn  Zn11  1  0.750000  0.307655  0.466351  1
  In  In12  1  0.250000  0.526242  0.094920  1
  In  In13  1  0.250000  0.026242  0.405080  1
  Ag  Ag14  1  0.750000  0.471846  0.905127  1
  Ag  Ag15  1  0.750000  0.971846  0.594873  1
