# generated using pymatgen
data_Ho8In2PdRu
_symmetry_space_group_name_H-M   'P 1'
_cell_length_a   9.63565551
_cell_length_b   9.64431020
_cell_length_c   9.64431127
_cell_angle_alpha   60.23743560
_cell_angle_beta   60.02969076
_cell_angle_gamma   60.02969345
_symmetry_Int_Tables_number   1
_chemical_formula_structural   Ho8In2PdRu
_chemical_formula_sum   'Ho16 In4 Pd2 Ru2'
_cell_volume   635.15156637
_cell_formula_units_Z   2
loop_
 _symmetry_equiv_pos_site_id
 _symmetry_equiv_pos_as_xyz
  1  'x, y, z'
loop_
 _atom_site_type_symbol
 _atom_site_label
 _atom_site_symmetry_multiplicity
 _atom_site_fract_x
 _atom_site_fract_y
 _atom_site_fract_z
 _atom_site_occupancy
  Ho  Ho0  1  0.444028  0.434035  0.059587  1
  Ho  Ho1  1  0.650365  0.640737  0.058533  1
  Ho  Ho2  1  0.183246  0.808780  0.196571  1
  Ho  Ho3  1  0.062350  0.434035  0.059587  1
  Ho  Ho4  1  0.190871  0.809129  0.809129  1
  Ho  Ho5  1  0.063301  0.436699  0.436699  1
  Ho  Ho6  1  0.810961  0.189039  0.189039  1
  Ho  Ho7  1  0.657407  0.648214  0.648214  1
  Ho  Ho8  1  0.811402  0.196571  0.808780  1
  Ho  Ho9  1  0.183246  0.196571  0.808780  1
  Ho  Ho10  1  0.046168  0.648214  0.648214  1
  Ho  Ho11  1  0.437677  0.062323  0.062323  1
  Ho  Ho12  1  0.062350  0.059587  0.434035  1
  Ho  Ho13  1  0.650365  0.058533  0.640737  1
  Ho  Ho14  1  0.811402  0.808780  0.196571  1
  Ho  Ho15  1  0.444028  0.059587  0.434035  1
  In  In16  1  0.415636  0.417239  0.417239  1
  In  In17  1  0.416498  0.418208  0.748798  1
  In  In18  1  0.416498  0.748798  0.418208  1
  In  In19  1  0.749888  0.417239  0.417239  1
  Pd  Pd20  1  0.429026  0.858939  0.858939  1
  Pd  Pd21  1  0.853093  0.858939  0.858939  1
  Ru  Ru22  1  0.855097  0.427208  0.862598  1
  Ru  Ru23  1  0.855097  0.862598  0.427208  1
