# generated using pymatgen
data_Ho4Ga24IrPt8
_symmetry_space_group_name_H-M   'P 1'
_cell_length_a   7.57822229
_cell_length_b   7.59140125
_cell_length_c   13.27941519
_cell_angle_alpha   84.64738372
_cell_angle_beta   79.24183202
_cell_angle_gamma   59.91880755
_symmetry_Int_Tables_number   1
_chemical_formula_structural   Ho4Ga24IrPt8
_chemical_formula_sum   'Ho4 Ga24 Ir1 Pt8'
_cell_volume   649.44416678
_cell_formula_units_Z   1
loop_
 _symmetry_equiv_pos_site_id
 _symmetry_equiv_pos_as_xyz
  1  'x, y, z'
loop_
 _atom_site_type_symbol
 _atom_site_label
 _atom_site_symmetry_multiplicity
 _atom_site_fract_x
 _atom_site_fract_y
 _atom_site_fract_z
 _atom_site_occupancy
  Ho  Ho0  1  0.394856  0.167050  0.809560  1
  Ho  Ho1  1  0.605144  0.832950  0.190440  1
  Ho  Ho2  1  0.731173  0.499554  0.809629  1
  Ho  Ho3  1  0.268827  0.500446  0.190371  1
  Ga  Ga4  1  0.686115  0.831355  0.940089  1
  Ga  Ga5  1  0.313885  0.168645  0.059911  1
  Ga  Ga6  1  0.146785  0.832203  0.561023  1
  Ga  Ga7  1  0.853215  0.167797  0.438977  1
  Ga  Ga8  1  0.480459  0.166609  0.557694  1
  Ga  Ga9  1  0.519541  0.833391  0.442306  1
  Ga  Ga10  1  0.221504  0.165164  0.324111  1
  Ga  Ga11  1  0.778496  0.834836  0.675889  1
  Ga  Ga12  1  0.436432  0.505025  0.675544  1
  Ga  Ga13  1  0.563568  0.494975  0.324456  1
  Ga  Ga14  1  0.107334  0.163016  0.674177  1
  Ga  Ga15  1  0.892666  0.836984  0.325823  1
  Ga  Ga16  1  0.354009  0.497031  0.940134  1
  Ga  Ga17  1  0.645991  0.502969  0.059866  1
  Ga  Ga18  1  0.018368  0.173855  0.945699  1
  Ga  Ga19  1  0.981632  0.826145  0.054301  1
  Ga  Ga20  1  0.185979  0.499125  0.442292  1
  Ga  Ga21  1  0.814021  0.500875  0.557708  1
  Ga  Ga22  1  0.736691  0.163411  0.182211  1
  Ga  Ga23  1  0.263309  0.836589  0.817789  1
  Ga  Ga24  1  0.060509  0.629708  0.818559  1
  Ga  Ga25  1  0.939491  0.370292  0.181441  1
  Ga  Ga26  1  0.856541  0.040864  0.817486  1
  Ga  Ga27  1  0.143459  0.959136  0.182514  1
  Ir  Ir28  1  0.000000  0.500000  0.000000  1
  Pt  Pt29  1  0.118656  0.493238  0.639872  1
  Pt  Pt30  1  0.881344  0.506762  0.360128  1
  Pt  Pt31  1  0.660153  0.169905  0.999916  1
  Pt  Pt32  1  0.339847  0.830095  0.000084  1
  Pt  Pt33  1  0.538626  0.167057  0.360369  1
  Pt  Pt34  1  0.461374  0.832943  0.639631  1
  Pt  Pt35  1  0.778199  0.174708  0.638004  1
  Pt  Pt36  1  0.221801  0.825292  0.361996  1
