# generated using pymatgen
data_Nd18Pa2Ir13Rh3
_symmetry_space_group_name_H-M   'P 1'
_cell_length_a   7.62628793
_cell_length_b   7.66477500
_cell_length_c   14.93613528
_cell_angle_alpha   90.40968083
_cell_angle_beta   89.93646600
_cell_angle_gamma   90.09749283
_symmetry_Int_Tables_number   1
_chemical_formula_structural   Nd18Pa2Ir13Rh3
_chemical_formula_sum   'Nd18 Pa2 Ir13 Rh3'
_cell_volume   873.04947438
_cell_formula_units_Z   1
loop_
 _symmetry_equiv_pos_site_id
 _symmetry_equiv_pos_as_xyz
  1  'x, y, z'
loop_
 _atom_site_type_symbol
 _atom_site_label
 _atom_site_symmetry_multiplicity
 _atom_site_fract_x
 _atom_site_fract_y
 _atom_site_fract_z
 _atom_site_occupancy
  Nd  Nd0  1  0.340298  0.830740  0.121134  1
  Nd  Nd1  1  0.839971  0.668923  0.378410  1
  Nd  Nd2  1  0.339915  0.830097  0.378191  1
  Nd  Nd3  1  0.840296  0.669501  0.122005  1
  Nd  Nd4  1  0.658366  0.169132  0.879251  1
  Nd  Nd5  1  0.159610  0.331743  0.621335  1
  Nd  Nd6  1  0.515920  0.682262  0.593639  1
  Nd  Nd7  1  0.013380  0.819095  0.907326  1
  Nd  Nd8  1  0.487988  0.317794  0.093871  1
  Nd  Nd9  1  0.988434  0.182284  0.406112  1
  Nd  Nd10  1  0.486343  0.321311  0.409783  1
  Nd  Nd11  1  0.986628  0.178572  0.090236  1
  Nd  Nd12  1  0.512954  0.681003  0.908242  1
  Nd  Nd13  1  0.009739  0.820571  0.590611  1
  Nd  Nd14  1  0.821232  0.514678  0.749346  1
  Nd  Nd15  1  0.321408  0.984535  0.750559  1
  Nd  Nd16  1  0.174958  0.490610  0.250213  1
  Nd  Nd17  1  0.674820  0.009543  0.249876  1
  Pa  Pa18  1  0.657344  0.161542  0.624929  1
  Pa  Pa19  1  0.158272  0.337387  0.874893  1
  Ir  Ir20  1  0.688612  0.974585  0.472247  1
  Ir  Ir21  1  0.189762  0.525160  0.026749  1
  Ir  Ir22  1  0.301834  0.057619  0.957788  1
  Ir  Ir23  1  0.802507  0.441306  0.542147  1
  Ir  Ir24  1  0.340672  0.031095  0.547499  1
  Ir  Ir25  1  0.842174  0.468766  0.952347  1
  Ir  Ir26  1  0.667670  0.968696  0.042586  1
  Ir  Ir27  1  0.166283  0.530621  0.457354  1
  Ir  Ir28  1  0.458902  0.374255  0.747776  1
  Ir  Ir29  1  0.959751  0.125926  0.752773  1
  Ir  Ir30  1  0.543930  0.597320  0.250922  1
  Ir  Ir31  1  0.044327  0.902849  0.248888  1
  Ir  Ir32  1  0.705192  0.879805  0.741615  1
  Rh  Rh33  1  0.201687  0.620400  0.759371  1
  Rh  Rh34  1  0.299286  0.144011  0.250633  1
  Rh  Rh35  1  0.799538  0.356263  0.249344  1
