# generated using pymatgen
data_Mn2Be8CoRh
_symmetry_space_group_name_H-M   'P 1'
_cell_length_a   4.27469700
_cell_length_b   4.27469708
_cell_length_c   6.98627200
_cell_angle_alpha   90.00000000
_cell_angle_beta   90.00000000
_cell_angle_gamma   120.00000711
_symmetry_Int_Tables_number   1
_chemical_formula_structural   Mn2Be8CoRh
_chemical_formula_sum   'Mn2 Be8 Co1 Rh1'
_cell_volume   110.55713399
_cell_formula_units_Z   1
loop_
 _symmetry_equiv_pos_site_id
 _symmetry_equiv_pos_as_xyz
  1  'x, y, z'
loop_
 _atom_site_type_symbol
 _atom_site_label
 _atom_site_symmetry_multiplicity
 _atom_site_fract_x
 _atom_site_fract_y
 _atom_site_fract_z
 _atom_site_occupancy
  Mn  Mn0  1  0.666667  0.333333  0.944619  1
  Mn  Mn1  1  0.333333  0.666667  0.430908  1
  Be  Be2  1  0.000000  0.000000  0.000209  1
  Be  Be3  1  0.000000  0.000000  0.499116  1
  Be  Be4  1  0.830837  0.661672  0.246881  1
  Be  Be5  1  0.169542  0.830458  0.752863  1
  Be  Be6  1  0.660914  0.830458  0.752863  1
  Be  Be7  1  0.338328  0.169163  0.246881  1
  Be  Be8  1  0.830837  0.169163  0.246881  1
  Be  Be9  1  0.169542  0.339086  0.752863  1
  Co  Co10  1  0.333333  0.666667  0.061173  1
  Rh  Rh11  1  0.666667  0.333333  0.564745  1
