# generated using pymatgen
data_Tb3Tm(Ga8Pt3)3
_symmetry_space_group_name_H-M   'P 1'
_cell_length_a   7.51029378
_cell_length_b   7.58557794
_cell_length_c   13.36231572
_cell_angle_alpha   84.76686053
_cell_angle_beta   79.51454283
_cell_angle_gamma   60.19349620
_symmetry_Int_Tables_number   1
_chemical_formula_structural   Tb3Tm(Ga8Pt3)3
_chemical_formula_sum   'Tb3 Tm1 Ga24 Pt9'
_cell_volume   649.51295935
_cell_formula_units_Z   1
loop_
 _symmetry_equiv_pos_site_id
 _symmetry_equiv_pos_as_xyz
  1  'x, y, z'
loop_
 _atom_site_type_symbol
 _atom_site_label
 _atom_site_symmetry_multiplicity
 _atom_site_fract_x
 _atom_site_fract_y
 _atom_site_fract_z
 _atom_site_occupancy
  Tb  Tb0  1  0.607643  0.831121  0.188541  1
  Tb  Tb1  1  0.732656  0.497705  0.811683  1
  Tb  Tb2  1  0.268230  0.502605  0.188306  1
  Tm  Tm3  1  0.393869  0.168897  0.810088  1
  Ga  Ga4  1  0.684026  0.835311  0.937936  1
  Ga  Ga5  1  0.314391  0.166123  0.060522  1
  Ga  Ga6  1  0.146237  0.832649  0.559113  1
  Ga  Ga7  1  0.853828  0.167309  0.441229  1
  Ga  Ga8  1  0.478589  0.166780  0.556157  1
  Ga  Ga9  1  0.521519  0.833190  0.444046  1
  Ga  Ga10  1  0.220026  0.165544  0.324381  1
  Ga  Ga11  1  0.779332  0.834888  0.676232  1
  Ga  Ga12  1  0.437412  0.503523  0.675385  1
  Ga  Ga13  1  0.562411  0.496190  0.325282  1
  Ga  Ga14  1  0.107346  0.163290  0.674977  1
  Ga  Ga15  1  0.893056  0.836581  0.325826  1
  Ga  Ga16  1  0.357290  0.496640  0.938085  1
  Ga  Ga17  1  0.642750  0.501771  0.061235  1
  Ga  Ga18  1  0.021142  0.169343  0.943223  1
  Ga  Ga19  1  0.980434  0.830614  0.055844  1
  Ga  Ga20  1  0.186837  0.499198  0.443279  1
  Ga  Ga21  1  0.813250  0.500826  0.557036  1
  Ga  Ga22  1  0.734616  0.163518  0.182239  1
  Ga  Ga23  1  0.265270  0.837367  0.817840  1
  Ga  Ga24  1  0.061476  0.630497  0.817264  1
  Ga  Ga25  1  0.939356  0.368587  0.182917  1
  Ga  Ga26  1  0.855146  0.040186  0.817180  1
  Ga  Ga27  1  0.143887  0.960007  0.182967  1
  Pt  Pt28  1  0.118103  0.495094  0.639229  1
  Pt  Pt29  1  0.882017  0.504435  0.361378  1
  Pt  Pt30  1  0.659805  0.170015  0.999274  1
  Pt  Pt31  1  0.339682  0.829377  0.000463  1
  Pt  Pt32  1  0.540463  0.166873  0.360567  1
  Pt  Pt33  1  0.459371  0.833455  0.639839  1
  Pt  Pt34  1  0.779220  0.172029  0.637505  1
  Pt  Pt35  1  0.220376  0.828098  0.363053  1
  Pt  Pt36  1  0.998942  0.500366  0.999877  1
