# generated using pymatgen
data_CaNd(H4Pd)2
_symmetry_space_group_name_H-M   'P 1'
_cell_length_a   3.79950638
_cell_length_b   5.12034300
_cell_length_c   6.50192696
_cell_angle_alpha   90.00000000
_cell_angle_beta   106.98322299
_cell_angle_gamma   90.00000000
_symmetry_Int_Tables_number   1
_chemical_formula_structural   CaNd(H4Pd)2
_chemical_formula_sum   'Ca1 Nd1 H8 Pd2'
_cell_volume   120.97719015
_cell_formula_units_Z   1
loop_
 _symmetry_equiv_pos_site_id
 _symmetry_equiv_pos_as_xyz
  1  'x, y, z'
loop_
 _atom_site_type_symbol
 _atom_site_label
 _atom_site_symmetry_multiplicity
 _atom_site_fract_x
 _atom_site_fract_y
 _atom_site_fract_z
 _atom_site_occupancy
  Ca  Ca0  1  0.859460  0.750000  0.219096  1
  Nd  Nd1  1  0.135252  0.249999  0.770332  1
  H  H2  1  0.304730  0.001043  0.109701  1
  H  H3  1  0.304730  0.498956  0.109701  1
  H  H4  1  0.915469  0.249999  0.330524  1
  H  H5  1  0.501736  0.005568  0.503691  1
  H  H6  1  0.501736  0.494433  0.503691  1
  H  H7  1  0.090223  0.750000  0.680705  1
  H  H8  1  0.692112  0.483650  0.883710  1
  H  H9  1  0.692112  0.016349  0.883710  1
  Pd  Pd10  1  0.404270  0.249999  0.309328  1
  Pd  Pd11  1  0.598166  0.750000  0.695811  1
