# generated using pymatgen
data_Ho2MnCo8TcP6
_symmetry_space_group_name_H-M   'P 1'
_cell_length_a   3.67303100
_cell_length_b   10.32487900
_cell_length_c   11.78589700
_cell_angle_alpha   90.00000000
_cell_angle_beta   90.00000000
_cell_angle_gamma   90.00000000
_symmetry_Int_Tables_number   1
_chemical_formula_structural   Ho2MnCo8TcP6
_chemical_formula_sum   'Ho4 Mn2 Co16 Tc2 P12'
_cell_volume   446.96365099
_cell_formula_units_Z   2
loop_
 _symmetry_equiv_pos_site_id
 _symmetry_equiv_pos_as_xyz
  1  'x, y, z'
loop_
 _atom_site_type_symbol
 _atom_site_label
 _atom_site_symmetry_multiplicity
 _atom_site_fract_x
 _atom_site_fract_y
 _atom_site_fract_z
 _atom_site_occupancy
  Ho  Ho0  1  0.250000  0.582743  0.703785  1
  Ho  Ho1  1  0.250000  0.917257  0.203785  1
  Ho  Ho2  1  0.750000  0.416418  0.294845  1
  Ho  Ho3  1  0.750000  0.083582  0.794845  1
  Mn  Mn4  1  0.750000  0.288902  0.012076  1
  Mn  Mn5  1  0.750000  0.211098  0.512076  1
  Co  Co6  1  0.250000  0.406449  0.487309  1
  Co  Co7  1  0.250000  0.093551  0.987309  1
  Co  Co8  1  0.750000  0.592356  0.510890  1
  Co  Co9  1  0.750000  0.907644  0.010890  1
  Co  Co10  1  0.250000  0.221088  0.176663  1
  Co  Co11  1  0.250000  0.278912  0.676663  1
  Co  Co12  1  0.750000  0.778636  0.822732  1
  Co  Co13  1  0.750000  0.721364  0.322732  1
  Co  Co14  1  0.250000  0.886019  0.701547  1
  Co  Co15  1  0.250000  0.613981  0.201547  1
  Co  Co16  1  0.750000  0.116587  0.300370  1
  Co  Co17  1  0.750000  0.383413  0.800370  1
  Co  Co18  1  0.250000  0.464368  0.932037  1
  Co  Co19  1  0.250000  0.035632  0.432037  1
  Co  Co20  1  0.750000  0.534031  0.068494  1
  Co  Co21  1  0.750000  0.965969  0.568494  1
  Tc  Tc22  1  0.250000  0.710521  0.989599  1
  Tc  Tc23  1  0.250000  0.789479  0.489599  1
  P  P24  1  0.250000  0.417983  0.112566  1
  P  P25  1  0.250000  0.082017  0.612566  1
  P  P26  1  0.750000  0.578767  0.886225  1
  P  P27  1  0.750000  0.921233  0.386225  1
  P  P28  1  0.250000  0.269164  0.867122  1
  P  P29  1  0.250000  0.230836  0.367122  1
  P  P30  1  0.750000  0.730344  0.133678  1
  P  P31  1  0.750000  0.769656  0.633678  1
  P  P32  1  0.250000  0.596304  0.390974  1
  P  P33  1  0.250000  0.903696  0.890974  1
  P  P34  1  0.750000  0.400878  0.609090  1
  P  P35  1  0.750000  0.099122  0.109090  1
