# generated using pymatgen
data_Na2Cd2W2O9
_symmetry_space_group_name_H-M   'P 1'
_cell_length_a   5.63903900
_cell_length_b   5.63903873
_cell_length_c   15.19976700
_cell_angle_alpha   90.00000000
_cell_angle_beta   90.00000000
_cell_angle_gamma   119.99999574
_symmetry_Int_Tables_number   1
_chemical_formula_structural   Na2Cd2W2O9
_chemical_formula_sum   'Na4 Cd4 W4 O18'
_cell_volume   418.57930864
_cell_formula_units_Z   2
loop_
 _symmetry_equiv_pos_site_id
 _symmetry_equiv_pos_as_xyz
  1  'x, y, z'
loop_
 _atom_site_type_symbol
 _atom_site_label
 _atom_site_symmetry_multiplicity
 _atom_site_fract_x
 _atom_site_fract_y
 _atom_site_fract_z
 _atom_site_occupancy
  Na  Na0  1  0.333333  0.666667  0.520070  1
  Na  Na1  1  0.666667  0.333333  0.479930  1
  Na  Na2  1  0.666667  0.333333  0.979930  1
  Na  Na3  1  0.333333  0.666667  0.020070  1
  Cd  Cd4  1  0.333333  0.666667  0.804525  1
  Cd  Cd5  1  0.666667  0.333333  0.195475  1
  Cd  Cd6  1  0.666667  0.333333  0.695475  1
  Cd  Cd7  1  0.333333  0.666667  0.304525  1
  W  W8  1  0.000000  0.000000  0.645914  1
  W  W9  1  0.000000  0.000000  0.354086  1
  W  W10  1  0.000000  0.000000  0.854086  1
  W  W11  1  0.000000  0.000000  0.145914  1
  O  O12  1  0.258331  0.000000  0.750000  1
  O  O13  1  0.741669  0.000000  0.250000  1
  O  O14  1  0.000000  0.258331  0.750000  1
  O  O15  1  0.000000  0.741669  0.250000  1
  O  O16  1  0.741669  0.741669  0.750000  1
  O  O17  1  0.258331  0.258331  0.250000  1
  O  O18  1  0.311039  0.274320  0.593787  1
  O  O19  1  0.688961  0.725680  0.406213  1
  O  O20  1  0.725680  0.036719  0.593787  1
  O  O21  1  0.274320  0.311039  0.906213  1
  O  O22  1  0.274320  0.963281  0.406213  1
  O  O23  1  0.725680  0.688961  0.093787  1
  O  O24  1  0.963281  0.688961  0.593787  1
  O  O25  1  0.036719  0.725680  0.906213  1
  O  O26  1  0.036719  0.311039  0.406213  1
  O  O27  1  0.963281  0.274320  0.093787  1
  O  O28  1  0.688961  0.963281  0.906213  1
  O  O29  1  0.311039  0.036719  0.093787  1
