# generated using pymatgen
data_BaPr6RuI12
_symmetry_space_group_name_H-M   'P 1'
_cell_length_a   10.17369985
_cell_length_b   10.17369862
_cell_length_c   10.17369786
_cell_angle_alpha   105.94917915
_cell_angle_beta   105.94918963
_cell_angle_gamma   105.94917926
_symmetry_Int_Tables_number   1
_chemical_formula_structural   BaPr6RuI12
_chemical_formula_sum   'Ba1 Pr6 Ru1 I12'
_cell_volume   900.92248344
_cell_formula_units_Z   1
loop_
 _symmetry_equiv_pos_site_id
 _symmetry_equiv_pos_as_xyz
  1  'x, y, z'
loop_
 _atom_site_type_symbol
 _atom_site_label
 _atom_site_symmetry_multiplicity
 _atom_site_fract_x
 _atom_site_fract_y
 _atom_site_fract_z
 _atom_site_occupancy
  Ba  Ba0  1  0.500000  0.500000  0.500000  1
  Pr  Pr1  1  0.907157  0.703692  0.983271  1
  Pr  Pr2  1  0.983271  0.907157  0.703692  1
  Pr  Pr3  1  0.703692  0.983271  0.907157  1
  Pr  Pr4  1  0.092843  0.296308  0.016729  1
  Pr  Pr5  1  0.016729  0.092843  0.296308  1
  Pr  Pr6  1  0.296308  0.016729  0.092843  1
  Ru  Ru7  1  0.000000  0.000000  0.000000  1
  I  I8  1  0.638475  0.870231  0.556055  1
  I  I9  1  0.556055  0.638475  0.870231  1
  I  I10  1  0.870231  0.556055  0.638475  1
  I  I11  1  0.361525  0.129769  0.443945  1
  I  I12  1  0.443945  0.361525  0.129769  1
  I  I13  1  0.129769  0.443945  0.361525  1
  I  I14  1  0.678591  0.074474  0.224618  1
  I  I15  1  0.224618  0.678591  0.074474  1
  I  I16  1  0.074474  0.224618  0.678591  1
  I  I17  1  0.321409  0.925526  0.775382  1
  I  I18  1  0.775382  0.321409  0.925526  1
  I  I19  1  0.925526  0.775382  0.321409  1
