# generated using pymatgen
data_Sr3Dy(Al3Pt)6
_symmetry_space_group_name_H-M   'P 1'
_cell_length_a   7.70271381
_cell_length_b   7.69985642
_cell_length_c   9.62126700
_cell_angle_alpha   90.00000000
_cell_angle_beta   90.00000000
_cell_angle_gamma   119.56090572
_symmetry_Int_Tables_number   1
_chemical_formula_structural   Sr3Dy(Al3Pt)6
_chemical_formula_sum   'Sr3 Dy1 Al18 Pt6'
_cell_volume   496.35672999
_cell_formula_units_Z   1
loop_
 _symmetry_equiv_pos_site_id
 _symmetry_equiv_pos_as_xyz
  1  'x, y, z'
loop_
 _atom_site_type_symbol
 _atom_site_label
 _atom_site_symmetry_multiplicity
 _atom_site_fract_x
 _atom_site_fract_y
 _atom_site_fract_z
 _atom_site_occupancy
  Sr  Sr0  1  0.004275  0.328867  0.750000  1
  Sr  Sr1  1  0.669819  0.996018  0.250000  1
  Sr  Sr2  1  0.330369  0.005485  0.750000  1
  Dy  Dy3  1  0.996808  0.670605  0.250000  1
  Al  Al4  1  0.133469  0.129257  0.250000  1
  Al  Al5  1  0.865164  0.863726  0.750000  1
  Al  Al6  1  0.001601  0.336766  0.077765  1
  Al  Al7  1  0.997956  0.665352  0.929375  1
  Al  Al8  1  0.997956  0.665352  0.570625  1
  Al  Al9  1  0.332870  0.999912  0.422163  1
  Al  Al10  1  0.001601  0.336766  0.422235  1
  Al  Al11  1  0.665108  0.996830  0.572627  1
  Al  Al12  1  0.665108  0.996830  0.927373  1
  Al  Al13  1  0.332870  0.999912  0.077837  1
  Al  Al14  1  0.334867  0.334941  0.548450  1
  Al  Al15  1  0.667911  0.666082  0.443071  1
  Al  Al16  1  0.667911  0.666082  0.056929  1
  Al  Al17  1  0.334867  0.334941  0.951550  1
  Al  Al18  1  0.334669  0.542505  0.250000  1
  Al  Al19  1  0.660228  0.458297  0.750000  1
  Al  Al20  1  0.548863  0.347543  0.250000  1
  Al  Al21  1  0.456386  0.658891  0.750000  1
  Pt  Pt22  1  0.671334  0.330355  0.001370  1
  Pt  Pt23  1  0.328809  0.670628  0.001683  1
  Pt  Pt24  1  0.328809  0.670628  0.498317  1
  Pt  Pt25  1  0.671334  0.330355  0.498630  1
  Pt  Pt26  1  0.999518  0.998537  0.001946  1
  Pt  Pt27  1  0.999518  0.998537  0.498054  1
