# generated using pymatgen
data_TbHf(SnIr)2
_symmetry_space_group_name_H-M   'P 1'
_cell_length_a   7.46356500
_cell_length_b   7.46356361
_cell_length_c   7.64642700
_cell_angle_alpha   90.00000000
_cell_angle_beta   90.00000000
_cell_angle_gamma   120.00001059
_symmetry_Int_Tables_number   1
_chemical_formula_structural   TbHf(SnIr)2
_chemical_formula_sum   'Tb3 Hf3 Sn6 Ir6'
_cell_volume   368.87709588
_cell_formula_units_Z   3
loop_
 _symmetry_equiv_pos_site_id
 _symmetry_equiv_pos_as_xyz
  1  'x, y, z'
loop_
 _atom_site_type_symbol
 _atom_site_label
 _atom_site_symmetry_multiplicity
 _atom_site_fract_x
 _atom_site_fract_y
 _atom_site_fract_z
 _atom_site_occupancy
  Tb  Tb0  1  0.000019  0.406787  0.750000  1
  Tb  Tb1  1  0.593213  0.593232  0.750000  1
  Tb  Tb2  1  0.406768  0.999981  0.750000  1
  Hf  Hf3  1  0.999261  0.391007  0.250000  1
  Hf  Hf4  1  0.608993  0.608255  0.250000  1
  Hf  Hf5  1  0.391745  0.000739  0.250000  1
  Sn  Sn6  1  0.265854  0.266396  0.493274  1
  Sn  Sn7  1  0.000540  0.734146  0.493274  1
  Sn  Sn8  1  0.000540  0.734146  0.006726  1
  Sn  Sn9  1  0.733604  0.999460  0.493274  1
  Sn  Sn10  1  0.733604  0.999460  0.006726  1
  Sn  Sn11  1  0.265854  0.266396  0.006726  1
  Ir  Ir12  1  0.333333  0.666667  0.459587  1
  Ir  Ir13  1  0.666667  0.333333  0.461087  1
  Ir  Ir14  1  0.333333  0.666667  0.040413  1
  Ir  Ir15  1  0.000000  0.000000  0.750000  1
  Ir  Ir16  1  0.000000  0.000000  0.250000  1
  Ir  Ir17  1  0.666667  0.333333  0.038913  1
