# generated using pymatgen
data_Er6InFeSi
_symmetry_space_group_name_H-M   'P 1'
_cell_length_a   8.40879712
_cell_length_b   8.40879719
_cell_length_c   8.40879781
_cell_angle_alpha   113.22874828
_cell_angle_beta   110.43536237
_cell_angle_gamma   104.85931714
_symmetry_Int_Tables_number   1
_chemical_formula_structural   Er6InFeSi
_chemical_formula_sum   'Er12 In2 Fe2 Si2'
_cell_volume   455.20277364
_cell_formula_units_Z   2
loop_
 _symmetry_equiv_pos_site_id
 _symmetry_equiv_pos_as_xyz
  1  'x, y, z'
loop_
 _atom_site_type_symbol
 _atom_site_label
 _atom_site_symmetry_multiplicity
 _atom_site_fract_x
 _atom_site_fract_y
 _atom_site_fract_z
 _atom_site_occupancy
  Er  Er0  1  0.445647  0.241161  0.204486  1
  Er  Er1  1  0.554353  0.758839  0.795514  1
  Er  Er2  1  0.036675  0.241161  0.795514  1
  Er  Er3  1  0.963325  0.758839  0.204486  1
  Er  Er4  1  0.187460  0.288996  0.476456  1
  Er  Er5  1  0.812540  0.711004  0.523544  1
  Er  Er6  1  0.187460  0.711004  0.898463  1
  Er  Er7  1  0.812540  0.288996  0.101537  1
  Er  Er8  1  0.304501  0.614649  0.310148  1
  Er  Er9  1  0.695499  0.385351  0.689852  1
  Er  Er10  1  0.304501  0.994353  0.689852  1
  Er  Er11  1  0.695499  0.005647  0.310148  1
  In  In12  1  0.500000  0.500000  0.000000  1
  In  In13  1  0.000000  0.000000  0.000000  1
  Fe  Fe14  1  0.105234  0.605234  0.500000  1
  Fe  Fe15  1  0.894766  0.394766  0.500000  1
  Si  Si16  1  0.363181  0.000000  0.363181  1
  Si  Si17  1  0.636819  0.000000  0.636819  1
