# generated using pymatgen
data_Hf4Zr2Ti4GaGe5
_symmetry_space_group_name_H-M   'P 1'
_cell_length_a   7.86680482
_cell_length_b   7.86680510
_cell_length_c   5.38358500
_cell_angle_alpha   90.00000000
_cell_angle_beta   90.00000000
_cell_angle_gamma   119.89401635
_symmetry_Int_Tables_number   1
_chemical_formula_structural   Hf4Zr2Ti4GaGe5
_chemical_formula_sum   'Hf4 Zr2 Ti4 Ga1 Ge5'
_cell_volume   288.84296327
_cell_formula_units_Z   1
loop_
 _symmetry_equiv_pos_site_id
 _symmetry_equiv_pos_as_xyz
  1  'x, y, z'
loop_
 _atom_site_type_symbol
 _atom_site_label
 _atom_site_symmetry_multiplicity
 _atom_site_fract_x
 _atom_site_fract_y
 _atom_site_fract_z
 _atom_site_occupancy
  Hf  Hf0  1  0.750370  0.999061  0.750000  1
  Hf  Hf1  1  0.999061  0.750370  0.750000  1
  Hf  Hf2  1  0.751655  0.751655  0.250000  1
  Hf  Hf3  1  0.249550  0.249550  0.750000  1
  Zr  Zr4  1  0.249953  0.000680  0.250000  1
  Zr  Zr5  1  0.000680  0.249953  0.250000  1
  Ti  Ti6  1  0.332107  0.666839  0.999821  1
  Ti  Ti7  1  0.666839  0.332107  0.999821  1
  Ti  Ti8  1  0.666839  0.332107  0.500179  1
  Ti  Ti9  1  0.332107  0.666839  0.500179  1
  Ga  Ga10  1  0.601944  0.601944  0.750000  1
  Ge  Ge11  1  0.603991  0.998328  0.250000  1
  Ge  Ge12  1  0.396315  0.999986  0.750000  1
  Ge  Ge13  1  0.998328  0.603991  0.250000  1
  Ge  Ge14  1  0.999986  0.396315  0.750000  1
  Ge  Ge15  1  0.400275  0.400275  0.250000  1
