# generated using pymatgen
data_Eu(GaI4)2
_symmetry_space_group_name_H-M   'P 1'
_cell_length_a   8.28612100
_cell_length_b   8.56705300
_cell_length_c   15.73978892
_cell_angle_alpha   87.78452032
_cell_angle_beta   90.00000000
_cell_angle_gamma   90.00000000
_symmetry_Int_Tables_number   1
_chemical_formula_structural   Eu(GaI4)2
_chemical_formula_sum   'Eu2 Ga4 I16'
_cell_volume   1116.49523945
_cell_formula_units_Z   2
loop_
 _symmetry_equiv_pos_site_id
 _symmetry_equiv_pos_as_xyz
  1  'x, y, z'
loop_
 _atom_site_type_symbol
 _atom_site_label
 _atom_site_symmetry_multiplicity
 _atom_site_fract_x
 _atom_site_fract_y
 _atom_site_fract_z
 _atom_site_occupancy
  Eu  Eu0  1  0.753870  0.077598  0.813624  1
  Eu  Eu1  1  0.246130  0.077598  0.313624  1
  Ga  Ga2  1  0.933912  0.222622  0.579281  1
  Ga  Ga3  1  0.066088  0.222622  0.079281  1
  Ga  Ga4  1  0.570461  0.640947  0.777002  1
  Ga  Ga5  1  0.429539  0.640947  0.277002  1
  I  I6  1  0.421846  0.615542  0.638532  1
  I  I7  1  0.578154  0.615542  0.138532  1
  I  I8  1  0.872379  0.727472  0.760066  1
  I  I9  1  0.127621  0.727472  0.260066  1
  I  I10  1  0.939506  0.479454  0.495198  1
  I  I11  1  0.060494  0.479454  0.995198  1
  I  I12  1  0.920856  0.994892  0.001403  1
  I  I13  1  0.079144  0.994892  0.501403  1
  I  I14  1  0.639252  0.127802  0.614318  1
  I  I15  1  0.360748  0.127802  0.114318  1
  I  I16  1  0.558524  0.385540  0.876461  1
  I  I17  1  0.441476  0.385540  0.376461  1
  I  I18  1  0.440572  0.861261  0.867465  1
  I  I19  1  0.559428  0.861261  0.367465  1
  I  I20  1  0.924550  0.234270  0.228852  1
  I  I21  1  0.075450  0.234270  0.728852  1
