# generated using pymatgen
data_Dy2Sn(AsRh2)6
_symmetry_space_group_name_H-M   'P 1'
_cell_length_a   10.07027500
_cell_length_b   10.07027527
_cell_length_c   3.95372900
_cell_angle_alpha   90.00000000
_cell_angle_beta   90.00000000
_cell_angle_gamma   120.00000239
_symmetry_Int_Tables_number   1
_chemical_formula_structural   Dy2Sn(AsRh2)6
_chemical_formula_sum   'Dy2 Sn1 As6 Rh12'
_cell_volume   347.23236009
_cell_formula_units_Z   1
loop_
 _symmetry_equiv_pos_site_id
 _symmetry_equiv_pos_as_xyz
  1  'x, y, z'
loop_
 _atom_site_type_symbol
 _atom_site_label
 _atom_site_symmetry_multiplicity
 _atom_site_fract_x
 _atom_site_fract_y
 _atom_site_fract_z
 _atom_site_occupancy
  Dy  Dy0  1  0.333333  0.666667  0.751219  1
  Dy  Dy1  1  0.666667  0.333333  0.249679  1
  Sn  Sn2  1  0.000000  0.000000  0.588575  1
  As  As3  1  0.881785  0.593505  0.747918  1
  As  As4  1  0.406495  0.288280  0.747918  1
  As  As5  1  0.711720  0.118215  0.747918  1
  As  As6  1  0.116347  0.405424  0.253582  1
  As  As7  1  0.594576  0.710923  0.253582  1
  As  As8  1  0.289077  0.883653  0.253582  1
  Rh  Rh9  1  0.617653  0.550323  0.750080  1
  Rh  Rh10  1  0.449677  0.067331  0.750080  1
  Rh  Rh11  1  0.932669  0.382347  0.750080  1
  Rh  Rh12  1  0.385318  0.450144  0.252369  1
  Rh  Rh13  1  0.549856  0.935174  0.252369  1
  Rh  Rh14  1  0.064826  0.614682  0.252369  1
  Rh  Rh15  1  0.125971  0.838086  0.756926  1
  Rh  Rh16  1  0.161914  0.287885  0.756926  1
  Rh  Rh17  1  0.712115  0.874029  0.756926  1
  Rh  Rh18  1  0.878781  0.151965  0.244061  1
  Rh  Rh19  1  0.848035  0.726816  0.244061  1
  Rh  Rh20  1  0.273184  0.121219  0.244061  1
