# generated using pymatgen
data_Y2Er(SiNi3)2
_symmetry_space_group_name_H-M   'P 1'
_cell_length_a   7.59467647
_cell_length_b   7.59467667
_cell_length_c   7.59467685
_cell_angle_alpha   109.35588597
_cell_angle_beta   109.52891964
_cell_angle_gamma   109.52891840
_symmetry_Int_Tables_number   1
_chemical_formula_structural   Y2Er(SiNi3)2
_chemical_formula_sum   'Y4 Er2 Si4 Ni12'
_cell_volume   337.21326743
_cell_formula_units_Z   2
loop_
 _symmetry_equiv_pos_site_id
 _symmetry_equiv_pos_as_xyz
  1  'x, y, z'
loop_
 _atom_site_type_symbol
 _atom_site_label
 _atom_site_symmetry_multiplicity
 _atom_site_fract_x
 _atom_site_fract_y
 _atom_site_fract_z
 _atom_site_occupancy
  Y  Y0  1  0.284300  0.000000  0.284300  1
  Y  Y1  1  0.715700  0.000000  0.715700  1
  Y  Y2  1  0.284300  0.284300  0.000000  1
  Y  Y3  1  0.715700  0.715700  0.000000  1
  Er  Er4  1  0.000000  0.287704  0.287704  1
  Er  Er5  1  0.000000  0.712296  0.712296  1
  Si  Si6  1  0.500000  0.500000  0.500000  1
  Si  Si7  1  0.000000  0.000000  0.500000  1
  Si  Si8  1  0.000000  0.500000  0.000000  1
  Si  Si9  1  0.500000  0.000000  0.000000  1
  Ni  Ni10  1  0.662808  0.331404  0.331404  1
  Ni  Ni11  1  0.337192  0.668596  0.668596  1
  Ni  Ni12  1  0.000000  0.331404  0.668596  1
  Ni  Ni13  1  0.000000  0.668596  0.331404  1
  Ni  Ni14  1  0.328888  0.658628  0.329739  1
  Ni  Ni15  1  0.671112  0.000851  0.329739  1
  Ni  Ni16  1  0.671112  0.341372  0.670261  1
  Ni  Ni17  1  0.328888  0.999149  0.670261  1
  Ni  Ni18  1  0.328888  0.329739  0.658628  1
  Ni  Ni19  1  0.671112  0.670261  0.341372  1
  Ni  Ni20  1  0.671112  0.329739  0.000851  1
  Ni  Ni21  1  0.328888  0.670261  0.999149  1
