# generated using pymatgen
data_Tb3Ga2Co8NiB4
_symmetry_space_group_name_H-M   'P 1'
_cell_length_a   5.15000023
_cell_length_b   5.15009815
_cell_length_c   9.60758202
_cell_angle_alpha   89.99948207
_cell_angle_beta   90.00670510
_cell_angle_gamma   119.76095413
_symmetry_Int_Tables_number   1
_chemical_formula_structural   Tb3Ga2Co8NiB4
_chemical_formula_sum   'Tb3 Ga2 Co8 Ni1 B4'
_cell_volume   221.21194438
_cell_formula_units_Z   1
loop_
 _symmetry_equiv_pos_site_id
 _symmetry_equiv_pos_as_xyz
  1  'x, y, z'
loop_
 _atom_site_type_symbol
 _atom_site_label
 _atom_site_symmetry_multiplicity
 _atom_site_fract_x
 _atom_site_fract_y
 _atom_site_fract_z
 _atom_site_occupancy
  Tb  Tb0  1  0.999936  0.999953  0.996368  1
  Tb  Tb1  1  0.000064  0.000028  0.340983  1
  Tb  Tb2  1  0.000032  0.000016  0.659158  1
  Ga  Ga3  1  0.331408  0.668367  0.999350  1
  Ga  Ga4  1  0.668559  0.331636  0.999309  1
  Co  Co5  1  0.500128  0.000093  0.499974  1
  Co  Co6  1  0.499906  0.499945  0.500388  1
  Co  Co7  1  0.999978  0.499953  0.499990  1
  Co  Co8  1  0.499939  0.999951  0.208082  1
  Co  Co9  1  0.000031  0.499993  0.208115  1
  Co  Co10  1  0.499987  0.999945  0.792034  1
  Co  Co11  1  0.500079  0.500049  0.792969  1
  Co  Co12  1  0.999958  0.500059  0.791987  1
  Ni  Ni13  1  0.500013  0.500002  0.207280  1
  B  B14  1  0.329868  0.670169  0.350797  1
  B  B15  1  0.670073  0.329835  0.350806  1
  B  B16  1  0.666690  0.333167  0.651203  1
  B  B17  1  0.333247  0.666842  0.651210  1
