# generated using pymatgen
data_Tm4TiAl5Tc2
_symmetry_space_group_name_H-M   'P 1'
_cell_length_a   5.50014096
_cell_length_b   5.57334532
_cell_length_c   8.80961400
_cell_angle_alpha   90.00000000
_cell_angle_beta   90.00000000
_cell_angle_gamma   120.44127045
_symmetry_Int_Tables_number   1
_chemical_formula_structural   Tm4TiAl5Tc2
_chemical_formula_sum   'Tm4 Ti1 Al5 Tc2'
_cell_volume   232.82464735
_cell_formula_units_Z   1
loop_
 _symmetry_equiv_pos_site_id
 _symmetry_equiv_pos_as_xyz
  1  'x, y, z'
loop_
 _atom_site_type_symbol
 _atom_site_label
 _atom_site_symmetry_multiplicity
 _atom_site_fract_x
 _atom_site_fract_y
 _atom_site_fract_z
 _atom_site_occupancy
  Tm  Tm0  1  0.333013  0.666507  0.441913  1
  Tm  Tm1  1  0.669805  0.334903  0.552912  1
  Tm  Tm2  1  0.669805  0.334903  0.947088  1
  Tm  Tm3  1  0.333013  0.666507  0.058087  1
  Ti  Ti4  1  0.695416  0.847709  0.750000  1
  Al  Al5  1  0.829121  0.161511  0.250000  1
  Al  Al6  1  0.829121  0.667611  0.250000  1
  Al  Al7  1  0.318346  0.159173  0.250000  1
  Al  Al8  1  0.182611  0.846418  0.750000  1
  Al  Al9  1  0.182611  0.336194  0.750000  1
  Tc  Tc10  1  0.978569  0.989284  0.503613  1
  Tc  Tc11  1  0.978569  0.989284  0.996387  1
