# generated using pymatgen
data_Lu7Sn22Os6Au
_symmetry_space_group_name_H-M   'P 1'
_cell_length_a   9.82963700
_cell_length_b   9.82963508
_cell_length_c   10.07048600
_cell_angle_alpha   90.00000000
_cell_angle_beta   90.00000000
_cell_angle_gamma   119.99999637
_symmetry_Int_Tables_number   1
_chemical_formula_structural   Lu7Sn22Os6Au
_chemical_formula_sum   'Lu7 Sn22 Os6 Au1'
_cell_volume   842.66693421
_cell_formula_units_Z   1
loop_
 _symmetry_equiv_pos_site_id
 _symmetry_equiv_pos_as_xyz
  1  'x, y, z'
loop_
 _atom_site_type_symbol
 _atom_site_label
 _atom_site_symmetry_multiplicity
 _atom_site_fract_x
 _atom_site_fract_y
 _atom_site_fract_z
 _atom_site_occupancy
  Lu  Lu0  1  0.000000  0.000000  0.000000  1
  Lu  Lu1  1  0.511523  0.488477  0.698457  1
  Lu  Lu2  1  0.511523  0.023045  0.698457  1
  Lu  Lu3  1  0.976955  0.488477  0.698457  1
  Lu  Lu4  1  0.023045  0.511523  0.301543  1
  Lu  Lu5  1  0.488477  0.976955  0.301543  1
  Lu  Lu6  1  0.488477  0.511523  0.301543  1
  Sn  Sn7  1  0.666667  0.333333  0.166852  1
  Sn  Sn8  1  0.666667  0.333333  0.860767  1
  Sn  Sn9  1  0.333333  0.666667  0.139233  1
  Sn  Sn10  1  0.348966  0.348966  0.000000  1
  Sn  Sn11  1  0.000000  0.651034  0.000000  1
  Sn  Sn12  1  0.651034  0.000000  0.000000  1
  Sn  Sn13  1  0.651034  0.651034  0.000000  1
  Sn  Sn14  1  0.333333  0.666667  0.833148  1
  Sn  Sn15  1  0.445522  0.222763  0.466648  1
  Sn  Sn16  1  0.222763  0.777237  0.533352  1
  Sn  Sn17  1  0.222763  0.445522  0.533352  1
  Sn  Sn18  1  0.554478  0.777237  0.533352  1
  Sn  Sn19  1  0.118341  0.881659  0.281751  1
  Sn  Sn20  1  0.777237  0.554478  0.466648  1
  Sn  Sn21  1  0.777237  0.222763  0.466648  1
  Sn  Sn22  1  0.348966  0.000000  0.000000  1
  Sn  Sn23  1  0.118341  0.236682  0.281751  1
  Sn  Sn24  1  0.763318  0.881659  0.281751  1
  Sn  Sn25  1  0.236682  0.118341  0.718249  1
  Sn  Sn26  1  0.881659  0.763318  0.718249  1
  Sn  Sn27  1  0.881659  0.118341  0.718249  1
  Sn  Sn28  1  0.000000  0.348966  0.000000  1
  Os  Os29  1  0.169657  0.830343  0.794302  1
  Os  Os30  1  0.169657  0.339314  0.794302  1
  Os  Os31  1  0.660686  0.830343  0.794302  1
  Os  Os32  1  0.339314  0.169657  0.205698  1
  Os  Os33  1  0.830343  0.660686  0.205698  1
  Os  Os34  1  0.830343  0.169657  0.205698  1
  Au  Au35  1  0.000000  0.000000  0.500000  1
