# generated using pymatgen
data_Pr2Ga2NiIr
_symmetry_space_group_name_H-M   'P 1'
_cell_length_a   4.48621400
_cell_length_b   7.16891700
_cell_length_c   7.58223200
_cell_angle_alpha   90.00000000
_cell_angle_beta   90.00000000
_cell_angle_gamma   90.00000000
_symmetry_Int_Tables_number   1
_chemical_formula_structural   Pr2Ga2NiIr
_chemical_formula_sum   'Pr4 Ga4 Ni2 Ir2'
_cell_volume   243.85440625
_cell_formula_units_Z   2
loop_
 _symmetry_equiv_pos_site_id
 _symmetry_equiv_pos_as_xyz
  1  'x, y, z'
loop_
 _atom_site_type_symbol
 _atom_site_label
 _atom_site_symmetry_multiplicity
 _atom_site_fract_x
 _atom_site_fract_y
 _atom_site_fract_z
 _atom_site_occupancy
  Pr  Pr0  1  0.250000  0.026581  0.806595  1
  Pr  Pr1  1  0.250000  0.526581  0.693405  1
  Pr  Pr2  1  0.750000  0.980655  0.194330  1
  Pr  Pr3  1  0.750000  0.480655  0.305670  1
  Ga  Ga4  1  0.250000  0.172824  0.424751  1
  Ga  Ga5  1  0.250000  0.672824  0.075249  1
  Ga  Ga6  1  0.750000  0.828933  0.587242  1
  Ga  Ga7  1  0.750000  0.328933  0.912758  1
  Ni  Ni8  1  0.750000  0.195408  0.595188  1
  Ni  Ni9  1  0.750000  0.695408  0.904812  1
  Ir  Ir10  1  0.250000  0.795601  0.405087  1
  Ir  Ir11  1  0.250000  0.295601  0.094913  1
