# generated using pymatgen
data_Nd(ErS2)2
_symmetry_space_group_name_H-M   'P 1'
_cell_length_a   3.86617200
_cell_length_b   12.97640200
_cell_length_c   13.00704700
_cell_angle_alpha   90.00000000
_cell_angle_beta   90.00000000
_cell_angle_gamma   90.00000000
_symmetry_Int_Tables_number   1
_chemical_formula_structural   Nd(ErS2)2
_chemical_formula_sum   'Nd4 Er8 S16'
_cell_volume   652.55056791
_cell_formula_units_Z   4
loop_
 _symmetry_equiv_pos_site_id
 _symmetry_equiv_pos_as_xyz
  1  'x, y, z'
loop_
 _atom_site_type_symbol
 _atom_site_label
 _atom_site_symmetry_multiplicity
 _atom_site_fract_x
 _atom_site_fract_y
 _atom_site_fract_z
 _atom_site_occupancy
  Nd  Nd0  1  0.750000  0.868542  0.413461  1
  Nd  Nd1  1  0.250000  0.631458  0.913461  1
  Nd  Nd2  1  0.750000  0.368542  0.086539  1
  Nd  Nd3  1  0.250000  0.131458  0.586539  1
  Er  Er4  1  0.750000  0.609753  0.577049  1
  Er  Er5  1  0.250000  0.890247  0.077049  1
  Er  Er6  1  0.750000  0.109753  0.922951  1
  Er  Er7  1  0.250000  0.390247  0.422951  1
  Er  Er8  1  0.750000  0.647592  0.204223  1
  Er  Er9  1  0.250000  0.852408  0.704223  1
  Er  Er10  1  0.750000  0.147592  0.295777  1
  Er  Er11  1  0.250000  0.352408  0.795777  1
  S  S12  1  0.750000  0.968203  0.616734  1
  S  S13  1  0.250000  0.531797  0.116734  1
  S  S14  1  0.750000  0.468203  0.883266  1
  S  S15  1  0.250000  0.031797  0.383266  1
  S  S16  1  0.750000  0.715513  0.763514  1
  S  S17  1  0.250000  0.784487  0.263514  1
  S  S18  1  0.750000  0.215513  0.736486  1
  S  S19  1  0.250000  0.284487  0.236486  1
  S  S20  1  0.750000  0.530720  0.379075  1
  S  S21  1  0.250000  0.969280  0.879075  1
  S  S22  1  0.750000  0.030720  0.120925  1
  S  S23  1  0.250000  0.469280  0.620925  1
  S  S24  1  0.750000  0.754779  0.024885  1
  S  S25  1  0.250000  0.745221  0.524885  1
  S  S26  1  0.750000  0.254779  0.475115  1
  S  S27  1  0.250000  0.245221  0.975115  1
