# generated using pymatgen
data_RbBi2F11
_symmetry_space_group_name_H-M   'P 1'
_cell_length_a   15.37864700
_cell_length_b   8.32148950
_cell_length_c   10.40123200
_cell_angle_alpha   65.50049536
_cell_angle_beta   90.00000000
_cell_angle_gamma   90.00000000
_symmetry_Int_Tables_number   1
_chemical_formula_structural   RbBi2F11
_chemical_formula_sum   'Rb4 Bi8 F44'
_cell_volume   1211.23552838
_cell_formula_units_Z   4
loop_
 _symmetry_equiv_pos_site_id
 _symmetry_equiv_pos_as_xyz
  1  'x, y, z'
loop_
 _atom_site_type_symbol
 _atom_site_label
 _atom_site_symmetry_multiplicity
 _atom_site_fract_x
 _atom_site_fract_y
 _atom_site_fract_z
 _atom_site_occupancy
  Rb  Rb0  1  0.617794  0.774913  0.278150  1
  Rb  Rb1  1  0.382206  0.225087  0.721850  1
  Rb  Rb2  1  0.882206  0.774913  0.778150  1
  Rb  Rb3  1  0.117794  0.225087  0.221850  1
  Bi  Bi4  1  0.947890  0.732536  0.242682  1
  Bi  Bi5  1  0.052110  0.267464  0.757318  1
  Bi  Bi6  1  0.552110  0.732536  0.742682  1
  Bi  Bi7  1  0.805816  0.276770  0.312178  1
  Bi  Bi8  1  0.194184  0.723230  0.687822  1
  Bi  Bi9  1  0.305816  0.723230  0.187822  1
  Bi  Bi10  1  0.694184  0.276770  0.812178  1
  Bi  Bi11  1  0.447890  0.267464  0.257318  1
  F  F12  1  0.350368  0.892769  0.994314  1
  F  F13  1  0.948561  0.422653  0.663849  1
  F  F14  1  0.521150  0.043549  0.340557  1
  F  F15  1  0.740921  0.083752  0.280555  1
  F  F16  1  0.259079  0.916248  0.719445  1
  F  F17  1  0.874928  0.484074  0.351710  1
  F  F18  1  0.759079  0.083752  0.780555  1
  F  F19  1  0.795984  0.347607  0.901951  1
  F  F20  1  0.240921  0.916248  0.219445  1
  F  F21  1  0.478850  0.956451  0.659443  1
  F  F22  1  0.204016  0.652393  0.098049  1
  F  F23  1  0.331498  0.159963  0.343690  1
  F  F24  1  0.551439  0.422653  0.163849  1
  F  F25  1  0.149632  0.892769  0.494314  1
  F  F26  1  0.726289  0.475079  0.623786  1
  F  F27  1  0.226289  0.524921  0.876214  1
  F  F28  1  0.448561  0.577347  0.836151  1
  F  F29  1  0.963408  0.667608  0.074940  1
  F  F30  1  0.421768  0.753484  0.270844  1
  F  F31  1  0.295984  0.652393  0.598049  1
  F  F32  1  0.581131  0.776553  0.915833  1
  F  F33  1  0.036592  0.332392  0.925060  1
  F  F34  1  0.168502  0.159963  0.843690  1
  F  F35  1  0.850368  0.107231  0.505686  1
  F  F36  1  0.704016  0.347607  0.401951  1
  F  F37  1  0.625072  0.484074  0.851710  1
  F  F38  1  0.081131  0.223447  0.584167  1
  F  F39  1  0.978850  0.043549  0.840557  1
  F  F40  1  0.649632  0.107231  0.005686  1
  F  F41  1  0.578232  0.246516  0.729156  1
  F  F42  1  0.918869  0.776553  0.415833  1
  F  F43  1  0.773711  0.475079  0.123786  1
  F  F44  1  0.051439  0.577347  0.336151  1
  F  F45  1  0.374928  0.515926  0.148290  1
  F  F46  1  0.273711  0.524921  0.376214  1
  F  F47  1  0.463408  0.332392  0.425060  1
  F  F48  1  0.418869  0.223447  0.084167  1
  F  F49  1  0.536592  0.667608  0.574940  1
  F  F50  1  0.021150  0.956451  0.159443  1
  F  F51  1  0.668502  0.840037  0.656310  1
  F  F52  1  0.831498  0.840037  0.156310  1
  F  F53  1  0.921768  0.246516  0.229156  1
  F  F54  1  0.125072  0.515926  0.648290  1
  F  F55  1  0.078232  0.753484  0.770844  1
