# generated using pymatgen
data_Sc4Ti2B4(IrRh)5
_symmetry_space_group_name_H-M   'P 1'
_cell_length_a   3.13026100
_cell_length_b   9.37827307
_cell_length_c   9.37276607
_cell_angle_alpha   90.01367689
_cell_angle_beta   90.00000000
_cell_angle_gamma   90.00000000
_symmetry_Int_Tables_number   1
_chemical_formula_structural   Sc4Ti2B4(IrRh)5
_chemical_formula_sum   'Sc4 Ti2 B4 Ir5 Rh5'
_cell_volume   275.15105959
_cell_formula_units_Z   1
loop_
 _symmetry_equiv_pos_site_id
 _symmetry_equiv_pos_as_xyz
  1  'x, y, z'
loop_
 _atom_site_type_symbol
 _atom_site_label
 _atom_site_symmetry_multiplicity
 _atom_site_fract_x
 _atom_site_fract_y
 _atom_site_fract_z
 _atom_site_occupancy
  Sc  Sc0  1  0.000000  0.174220  0.174222  1
  Sc  Sc1  1  0.000000  0.674397  0.325743  1
  Sc  Sc2  1  0.000000  0.324776  0.674924  1
  Sc  Sc3  1  0.000000  0.825273  0.825368  1
  Ti  Ti4  1  0.000000  0.498856  0.997792  1
  Ti  Ti5  1  0.000000  0.000565  0.501945  1
  B  B6  1  0.000000  0.877926  0.121957  1
  B  B7  1  0.000000  0.377863  0.377943  1
  B  B8  1  0.000000  0.622737  0.622030  1
  B  B9  1  0.000000  0.122132  0.878000  1
  Ir  Ir10  1  0.500000  0.717204  0.070867  1
  Ir  Ir11  1  0.500000  0.430056  0.217267  1
  Ir  Ir12  1  0.500000  0.929832  0.282423  1
  Ir  Ir13  1  0.500000  0.217416  0.428815  1
  Ir  Ir14  1  0.500000  0.782126  0.570872  1
  Rh  Rh15  1  0.500000  0.000415  0.999064  1
  Rh  Rh16  1  0.500000  0.499648  0.501120  1
  Rh  Rh17  1  0.500000  0.071516  0.718330  1
  Rh  Rh18  1  0.500000  0.571226  0.782602  1
  Rh  Rh19  1  0.500000  0.281812  0.928712  1
