# generated using pymatgen
data_Dy5Co16(As4Ru)3
_symmetry_space_group_name_H-M   'P 1'
_cell_length_a   12.50268200
_cell_length_b   12.50268080
_cell_length_c   3.83233900
_cell_angle_alpha   90.00000000
_cell_angle_beta   90.00000000
_cell_angle_gamma   119.99999258
_symmetry_Int_Tables_number   1
_chemical_formula_structural   Dy5Co16(As4Ru)3
_chemical_formula_sum   'Dy5 Co16 As12 Ru3'
_cell_volume   518.80112822
_cell_formula_units_Z   1
loop_
 _symmetry_equiv_pos_site_id
 _symmetry_equiv_pos_as_xyz
  1  'x, y, z'
loop_
 _atom_site_type_symbol
 _atom_site_label
 _atom_site_symmetry_multiplicity
 _atom_site_fract_x
 _atom_site_fract_y
 _atom_site_fract_z
 _atom_site_occupancy
  Dy  Dy0  1  0.666667  0.333333  0.000000  1
  Dy  Dy1  1  0.333333  0.666667  0.000000  1
  Dy  Dy2  1  0.184491  0.184491  0.500000  1
  Dy  Dy3  1  0.815509  0.000000  0.500000  1
  Dy  Dy4  1  0.000000  0.815509  0.500000  1
  Co  Co5  1  0.821025  0.197245  0.000000  1
  Co  Co6  1  0.802755  0.623779  0.000000  1
  Co  Co7  1  0.376221  0.178975  0.000000  1
  Co  Co8  1  0.197245  0.821025  0.000000  1
  Co  Co9  1  0.623779  0.802755  0.000000  1
  Co  Co10  1  0.178975  0.376221  0.000000  1
  Co  Co11  1  0.643377  0.124445  0.500000  1
  Co  Co12  1  0.875555  0.518932  0.500000  1
  Co  Co13  1  0.481068  0.356623  0.500000  1
  Co  Co14  1  0.124445  0.643377  0.500000  1
  Co  Co15  1  0.518932  0.875555  0.500000  1
  Co  Co16  1  0.356623  0.481068  0.500000  1
  Co  Co17  1  0.716317  0.716317  0.500000  1
  Co  Co18  1  0.283683  0.000000  0.500000  1
  Co  Co19  1  0.000000  0.283683  0.500000  1
  Co  Co20  1  0.000000  0.000000  0.000000  1
  As  As21  1  0.362419  0.362419  0.000000  1
  As  As22  1  0.637581  0.000000  0.000000  1
  As  As23  1  0.000000  0.637581  0.000000  1
  As  As24  1  0.833934  0.315341  0.500000  1
  As  As25  1  0.684659  0.518593  0.500000  1
  As  As26  1  0.481407  0.166066  0.500000  1
  As  As27  1  0.315341  0.833934  0.500000  1
  As  As28  1  0.518593  0.684659  0.500000  1
  As  As29  1  0.166066  0.481407  0.500000  1
  As  As30  1  0.820347  0.820347  0.000000  1
  As  As31  1  0.179653  0.000000  0.000000  1
  As  As32  1  0.000000  0.179653  0.000000  1
  Ru  Ru33  1  0.556274  0.556274  0.000000  1
  Ru  Ru34  1  0.443726  0.000000  0.000000  1
  Ru  Ru35  1  0.000000  0.443726  0.000000  1
