# generated using pymatgen
data_La2Fe2SiGeC
_symmetry_space_group_name_H-M   'P 1'
_cell_length_a   4.06676663
_cell_length_b   5.88645221
_cell_length_c   6.12106778
_cell_angle_alpha   73.17069994
_cell_angle_beta   70.59799234
_cell_angle_gamma   69.79168739
_symmetry_Int_Tables_number   1
_chemical_formula_structural   La2Fe2SiGeC
_chemical_formula_sum   'La2 Fe2 Si1 Ge1 C1'
_cell_volume   127.14866733
_cell_formula_units_Z   1
loop_
 _symmetry_equiv_pos_site_id
 _symmetry_equiv_pos_as_xyz
  1  'x, y, z'
loop_
 _atom_site_type_symbol
 _atom_site_label
 _atom_site_symmetry_multiplicity
 _atom_site_fract_x
 _atom_site_fract_y
 _atom_site_fract_z
 _atom_site_occupancy
  La  La0  1  0.444587  0.812137  0.298690  1
  La  La1  1  0.555657  0.188526  0.700159  1
  Fe  Fe2  1  0.808874  0.296995  0.085257  1
  Fe  Fe3  1  0.186420  0.701793  0.925367  1
  Si  Si4  1  0.188705  0.378092  0.244499  1
  Ge  Ge5  1  0.817057  0.621781  0.744106  1
  C  C6  1  0.998702  0.000675  0.001921  1
