# generated using pymatgen
data_Tb3HoReB12Os
_symmetry_space_group_name_H-M   'P 1'
_cell_length_a   3.68004300
_cell_length_b   9.18515087
_cell_length_c   11.57723514
_cell_angle_alpha   90.16225720
_cell_angle_beta   90.00000000
_cell_angle_gamma   90.00000000
_symmetry_Int_Tables_number   1
_chemical_formula_structural   Tb3HoReB12Os
_chemical_formula_sum   'Tb6 Ho2 Re2 B24 Os2'
_cell_volume   391.32924077
_cell_formula_units_Z   2
loop_
 _symmetry_equiv_pos_site_id
 _symmetry_equiv_pos_as_xyz
  1  'x, y, z'
loop_
 _atom_site_type_symbol
 _atom_site_label
 _atom_site_symmetry_multiplicity
 _atom_site_fract_x
 _atom_site_fract_y
 _atom_site_fract_z
 _atom_site_occupancy
  Tb  Tb0  1  0.000000  0.321417  0.412352  1
  Tb  Tb1  1  0.000000  0.678583  0.587648  1
  Tb  Tb2  1  0.000000  0.824456  0.084795  1
  Tb  Tb3  1  0.000000  0.175544  0.915205  1
  Tb  Tb4  1  0.000000  0.943122  0.370385  1
  Tb  Tb5  1  0.000000  0.056878  0.629615  1
  Ho  Ho6  1  0.000000  0.442412  0.128761  1
  Ho  Ho7  1  0.000000  0.557588  0.871239  1
  Re  Re8  1  0.000000  0.139236  0.179318  1
  Re  Re9  1  0.000000  0.860764  0.820682  1
  B  B10  1  0.500000  0.553669  0.432572  1
  B  B11  1  0.500000  0.446331  0.567428  1
  B  B12  1  0.500000  0.053413  0.067118  1
  B  B13  1  0.500000  0.946587  0.932882  1
  B  B14  1  0.500000  0.747736  0.418349  1
  B  B15  1  0.500000  0.252264  0.581651  1
  B  B16  1  0.500000  0.248890  0.081304  1
  B  B17  1  0.500000  0.751110  0.918696  1
  B  B18  1  0.500000  0.789711  0.266042  1
  B  B19  1  0.500000  0.210289  0.733958  1
  B  B20  1  0.500000  0.291741  0.234118  1
  B  B21  1  0.500000  0.708259  0.765882  1
  B  B22  1  0.500000  0.630299  0.186109  1
  B  B23  1  0.500000  0.369701  0.813891  1
  B  B24  1  0.500000  0.131738  0.314190  1
  B  B25  1  0.500000  0.868262  0.685810  1
  B  B26  1  0.500000  0.983602  0.212178  1
  B  B27  1  0.500000  0.016398  0.787822  1
  B  B28  1  0.500000  0.483146  0.287647  1
  B  B29  1  0.500000  0.516854  0.712353  1
  B  B30  1  0.500000  0.602436  0.028682  1
  B  B31  1  0.500000  0.397564  0.971318  1
  B  B32  1  0.500000  0.104613  0.471150  1
  B  B33  1  0.500000  0.895387  0.528850  1
  Os  Os34  1  0.000000  0.636634  0.321270  1
  Os  Os35  1  0.000000  0.363366  0.678730  1
