# generated using pymatgen
data_Rb3Tb(AsO4)2
_symmetry_space_group_name_H-M   'P 1'
_cell_length_a   6.01050200
_cell_length_b   6.01050163
_cell_length_c   8.22092600
_cell_angle_alpha   90.00000000
_cell_angle_beta   90.00000000
_cell_angle_gamma   120.00000201
_symmetry_Int_Tables_number   1
_chemical_formula_structural   Rb3Tb(AsO4)2
_chemical_formula_sum   'Rb3 Tb1 As2 O8'
_cell_volume   257.20110346
_cell_formula_units_Z   1
loop_
 _symmetry_equiv_pos_site_id
 _symmetry_equiv_pos_as_xyz
  1  'x, y, z'
loop_
 _atom_site_type_symbol
 _atom_site_label
 _atom_site_symmetry_multiplicity
 _atom_site_fract_x
 _atom_site_fract_y
 _atom_site_fract_z
 _atom_site_occupancy
  Rb  Rb0  1  0.333333  0.666667  0.729562  1
  Rb  Rb1  1  0.666667  0.333333  0.270438  1
  Rb  Rb2  1  0.000000  0.000000  0.000000  1
  Tb  Tb3  1  0.000000  0.000000  0.500000  1
  As  As4  1  0.333333  0.666667  0.264842  1
  As  As5  1  0.666667  0.333333  0.735158  1
  O  O6  1  0.333333  0.666667  0.059922  1
  O  O7  1  0.666667  0.333333  0.940078  1
  O  O8  1  0.177280  0.822720  0.339280  1
  O  O9  1  0.822720  0.177280  0.660720  1
  O  O10  1  0.177280  0.354560  0.339280  1
  O  O11  1  0.822720  0.645440  0.660720  1
  O  O12  1  0.645440  0.822720  0.339280  1
  O  O13  1  0.354560  0.177280  0.660720  1
