# generated using pymatgen
data_Pr6P12Ru13Rh5
_symmetry_space_group_name_H-M   'P 1'
_cell_length_a   4.03963800
_cell_length_b   11.38538334
_cell_length_c   12.71676268
_cell_angle_alpha   90.08445631
_cell_angle_beta   90.00000000
_cell_angle_gamma   90.00000000
_symmetry_Int_Tables_number   1
_chemical_formula_structural   Pr6P12Ru13Rh5
_chemical_formula_sum   'Pr6 P12 Ru13 Rh5'
_cell_volume   584.87923278
_cell_formula_units_Z   1
loop_
 _symmetry_equiv_pos_site_id
 _symmetry_equiv_pos_as_xyz
  1  'x, y, z'
loop_
 _atom_site_type_symbol
 _atom_site_label
 _atom_site_symmetry_multiplicity
 _atom_site_fract_x
 _atom_site_fract_y
 _atom_site_fract_z
 _atom_site_occupancy
  Pr  Pr0  1  0.000000  0.500057  0.527081  1
  Pr  Pr1  1  0.500000  0.999931  0.473222  1
  Pr  Pr2  1  0.500000  0.819347  0.205553  1
  Pr  Pr3  1  0.500000  0.180067  0.205225  1
  Pr  Pr4  1  0.000000  0.681410  0.794779  1
  Pr  Pr5  1  0.000000  0.319253  0.793790  1
  P  P6  1  0.500000  0.502182  0.888219  1
  P  P7  1  0.000000  0.001009  0.109535  1
  P  P8  1  0.500000  0.500344  0.340955  1
  P  P9  1  0.000000  0.999622  0.659316  1
  P  P10  1  0.500000  0.297131  0.614655  1
  P  P11  1  0.500000  0.702729  0.615110  1
  P  P12  1  0.000000  0.202661  0.384880  1
  P  P13  1  0.000000  0.797145  0.384983  1
  P  P14  1  0.500000  0.840989  0.899685  1
  P  P15  1  0.500000  0.155986  0.897232  1
  P  P16  1  0.000000  0.658090  0.100868  1
  P  P17  1  0.000000  0.343284  0.105311  1
  Ru  Ru18  1  0.000000  0.497678  0.991331  1
  Ru  Ru19  1  0.500000  0.001037  0.008779  1
  Ru  Ru20  1  0.500000  0.665792  0.995021  1
  Ru  Ru21  1  0.000000  0.170000  0.005679  1
  Ru  Ru22  1  0.000000  0.833020  0.005378  1
  Ru  Ru23  1  0.500000  0.301320  0.429342  1
  Ru  Ru24  1  0.500000  0.698501  0.429441  1
  Ru  Ru25  1  0.000000  0.198603  0.570290  1
  Ru  Ru26  1  0.000000  0.801301  0.570719  1
  Ru  Ru27  1  0.500000  0.878661  0.716133  1
  Ru  Ru28  1  0.500000  0.121286  0.714897  1
  Ru  Ru29  1  0.000000  0.621149  0.284151  1
  Ru  Ru30  1  0.000000  0.379129  0.285904  1
  Rh  Rh31  1  0.500000  0.497465  0.159684  1
  Rh  Rh32  1  0.000000  0.001366  0.840789  1
  Rh  Rh33  1  0.500000  0.499457  0.697541  1
  Rh  Rh34  1  0.000000  0.000148  0.302787  1
  Rh  Rh35  1  0.500000  0.332845  0.991733  1
