# generated using pymatgen
data_CaHo3(Mo2O7)2
_symmetry_space_group_name_H-M   'P 1'
_cell_length_a   7.31732309
_cell_length_b   7.41412130
_cell_length_c   7.31732400
_cell_angle_alpha   60.43095970
_cell_angle_beta   60.00000493
_cell_angle_gamma   60.43095296
_symmetry_Int_Tables_number   1
_chemical_formula_structural   CaHo3(Mo2O7)2
_chemical_formula_sum   'Ca1 Ho3 Mo4 O14'
_cell_volume   282.51900827
_cell_formula_units_Z   1
loop_
 _symmetry_equiv_pos_site_id
 _symmetry_equiv_pos_as_xyz
  1  'x, y, z'
loop_
 _atom_site_type_symbol
 _atom_site_label
 _atom_site_symmetry_multiplicity
 _atom_site_fract_x
 _atom_site_fract_y
 _atom_site_fract_z
 _atom_site_occupancy
  Ca  Ca0  1  0.125000  0.625000  0.125000  1
  Ho  Ho1  1  0.625000  0.125000  0.125000  1
  Ho  Ho2  1  0.125000  0.125000  0.625000  1
  Ho  Ho3  1  0.125000  0.125000  0.125000  1
  Mo  Mo4  1  0.125000  0.625000  0.625000  1
  Mo  Mo5  1  0.625000  0.125000  0.625000  1
  Mo  Mo6  1  0.625000  0.625000  0.125000  1
  Mo  Mo7  1  0.625000  0.625000  0.625000  1
  O  O8  1  0.695887  0.725401  0.289356  1
  O  O9  1  0.296889  0.285205  0.708952  1
  O  O10  1  0.708952  0.285205  0.708952  1
  O  O11  1  0.289356  0.725401  0.289356  1
  O  O12  1  0.289356  0.725401  0.695887  1
  O  O13  1  0.708952  0.285205  0.296889  1
  O  O14  1  0.554113  0.524599  0.960644  1
  O  O15  1  0.953111  0.964795  0.541048  1
  O  O16  1  0.541048  0.964795  0.541048  1
  O  O17  1  0.960644  0.524599  0.960644  1
  O  O18  1  0.960644  0.524599  0.554113  1
  O  O19  1  0.541048  0.964795  0.953111  1
  O  O20  1  0.253268  0.240197  0.253268  1
  O  O21  1  0.996732  0.009803  0.996732  1
