# generated using pymatgen
data_SrReF6
_symmetry_space_group_name_H-M   'P 1'
_cell_length_a   6.15842178
_cell_length_b   6.15842131
_cell_length_c   6.15842197
_cell_angle_alpha   57.88946720
_cell_angle_beta   57.88947209
_cell_angle_gamma   57.88946385
_symmetry_Int_Tables_number   1
_chemical_formula_structural   SrReF6
_chemical_formula_sum   'Sr1 Re1 F6'
_cell_volume   157.15513546
_cell_formula_units_Z   1
loop_
 _symmetry_equiv_pos_site_id
 _symmetry_equiv_pos_as_xyz
  1  'x, y, z'
loop_
 _atom_site_type_symbol
 _atom_site_label
 _atom_site_symmetry_multiplicity
 _atom_site_fract_x
 _atom_site_fract_y
 _atom_site_fract_z
 _atom_site_occupancy
  Sr  Sr0  1  0.500000  0.500000  0.500000  1
  Re  Re1  1  0.000000  0.000000  0.000000  1
  F  F2  1  0.686391  0.869149  0.219844  1
  F  F3  1  0.869149  0.219844  0.686391  1
  F  F4  1  0.780156  0.313609  0.130851  1
  F  F5  1  0.130851  0.780156  0.313609  1
  F  F6  1  0.313609  0.130851  0.780156  1
  F  F7  1  0.219844  0.686391  0.869149  1
