# generated using pymatgen
data_Ho3SnBiRh3Pb
_symmetry_space_group_name_H-M   'P 1'
_cell_length_a   7.62899795
_cell_length_b   7.66554498
_cell_length_c   3.86851700
_cell_angle_alpha   90.00000000
_cell_angle_beta   90.00000000
_cell_angle_gamma   119.57429831
_symmetry_Int_Tables_number   1
_chemical_formula_structural   Ho3SnBiRh3Pb
_chemical_formula_sum   'Ho3 Sn1 Bi1 Rh3 Pb1'
_cell_volume   196.75814111
_cell_formula_units_Z   1
loop_
 _symmetry_equiv_pos_site_id
 _symmetry_equiv_pos_as_xyz
  1  'x, y, z'
loop_
 _atom_site_type_symbol
 _atom_site_label
 _atom_site_symmetry_multiplicity
 _atom_site_fract_x
 _atom_site_fract_y
 _atom_site_fract_z
 _atom_site_occupancy
  Ho  Ho0  1  0.990939  0.399143  0.000000  1
  Ho  Ho1  1  0.598263  0.604294  0.000000  1
  Ho  Ho2  1  0.407890  0.996798  0.000000  1
  Sn  Sn3  1  0.734921  0.999063  0.500000  1
  Bi  Bi4  1  0.264136  0.264858  0.500000  1
  Rh  Rh5  1  0.669790  0.326675  0.500000  1
  Rh  Rh6  1  0.344574  0.674538  0.500000  1
  Rh  Rh7  1  0.990905  0.001346  0.000000  1
  Pb  Pb8  1  0.998583  0.733284  0.500000  1
