# generated using pymatgen
data_PrDyCd2(Ir2O7)2
_symmetry_space_group_name_H-M   'P 1'
_cell_length_a   7.28981951
_cell_length_b   7.28416561
_cell_length_c   7.20565300
_cell_angle_alpha   60.35591956
_cell_angle_beta   60.38120588
_cell_angle_gamma   61.23253466
_symmetry_Int_Tables_number   1
_chemical_formula_structural   PrDyCd2(Ir2O7)2
_chemical_formula_sum   'Pr1 Dy1 Cd2 Ir4 O14'
_cell_volume   274.52390993
_cell_formula_units_Z   1
loop_
 _symmetry_equiv_pos_site_id
 _symmetry_equiv_pos_as_xyz
  1  'x, y, z'
loop_
 _atom_site_type_symbol
 _atom_site_label
 _atom_site_symmetry_multiplicity
 _atom_site_fract_x
 _atom_site_fract_y
 _atom_site_fract_z
 _atom_site_occupancy
  Pr  Pr0  1  0.625000  0.125000  0.125000  1
  Dy  Dy1  1  0.125000  0.625000  0.125000  1
  Cd  Cd2  1  0.125000  0.125000  0.625000  1
  Cd  Cd3  1  0.125000  0.125000  0.125000  1
  Ir  Ir4  1  0.625000  0.625000  0.625000  1
  Ir  Ir5  1  0.125000  0.625000  0.625000  1
  Ir  Ir6  1  0.625000  0.125000  0.625000  1
  Ir  Ir7  1  0.625000  0.625000  0.125000  1
  O  O8  1  0.951575  0.556599  0.538386  1
  O  O9  1  0.301011  0.303665  0.697662  1
  O  O10  1  0.951575  0.556599  0.953440  1
  O  O11  1  0.702919  0.299550  0.295671  1
  O  O12  1  0.532950  0.546392  0.960329  1
  O  O13  1  0.547081  0.950450  0.548140  1
  O  O14  1  0.547081  0.950450  0.954329  1
  O  O15  1  0.235351  0.255776  0.254436  1
  O  O16  1  0.298425  0.693401  0.711614  1
  O  O17  1  0.702919  0.299550  0.701860  1
  O  O18  1  0.014649  0.994224  0.995564  1
  O  O19  1  0.948989  0.946335  0.552338  1
  O  O20  1  0.298425  0.693401  0.296560  1
  O  O21  1  0.717050  0.703608  0.289671  1
