# generated using pymatgen
data_Li3Tm3ZnP2
_symmetry_space_group_name_H-M   'P 1'
_cell_length_a   6.76364900
_cell_length_b   6.76365024
_cell_length_c   4.00238100
_cell_angle_alpha   90.00000000
_cell_angle_beta   90.00000000
_cell_angle_gamma   119.99999882
_symmetry_Int_Tables_number   1
_chemical_formula_structural   Li3Tm3ZnP2
_chemical_formula_sum   'Li3 Tm3 Zn1 P2'
_cell_volume   158.56643721
_cell_formula_units_Z   1
loop_
 _symmetry_equiv_pos_site_id
 _symmetry_equiv_pos_as_xyz
  1  'x, y, z'
loop_
 _atom_site_type_symbol
 _atom_site_label
 _atom_site_symmetry_multiplicity
 _atom_site_fract_x
 _atom_site_fract_y
 _atom_site_fract_z
 _atom_site_occupancy
  Li  Li0  1  0.750246  0.750246  0.500000  1
  Li  Li1  1  0.249754  0.000000  0.500000  1
  Li  Li2  1  0.000000  0.249754  0.500000  1
  Tm  Tm3  1  0.422660  0.422660  0.000000  1
  Tm  Tm4  1  0.577340  0.000000  0.000000  1
  Tm  Tm5  1  0.000000  0.577340  0.000000  1
  Zn  Zn6  1  0.000000  0.000000  0.000000  1
  P  P7  1  0.666667  0.333333  0.500000  1
  P  P8  1  0.333333  0.666667  0.500000  1
