# generated using pymatgen
data_SbP4RhO14
_symmetry_space_group_name_H-M   'P 1'
_cell_length_a   8.15394890
_cell_length_b   4.87855002
_cell_length_c   7.00646014
_cell_angle_alpha   72.88161814
_cell_angle_beta   90.40858644
_cell_angle_gamma   90.37955398
_symmetry_Int_Tables_number   1
_chemical_formula_structural   SbP4RhO14
_chemical_formula_sum   'Sb1 P4 Rh1 O14'
_cell_volume   266.35598186
_cell_formula_units_Z   1
loop_
 _symmetry_equiv_pos_site_id
 _symmetry_equiv_pos_as_xyz
  1  'x, y, z'
loop_
 _atom_site_type_symbol
 _atom_site_label
 _atom_site_symmetry_multiplicity
 _atom_site_fract_x
 _atom_site_fract_y
 _atom_site_fract_z
 _atom_site_occupancy
  Sb  Sb0  1  0.050452  0.213932  0.275611  1
  P  P1  1  0.865966  0.605981  0.520566  1
  P  P2  1  0.281426  0.774706  0.092598  1
  P  P3  1  0.773784  0.225395  0.903674  1
  P  P4  1  0.373559  0.393223  0.487648  1
  Rh  Rh5  1  0.551216  0.785080  0.724840  1
  O  O6  1  0.743388  0.954744  0.844276  1
  O  O7  1  0.371962  0.880688  0.900234  1
  O  O8  1  0.007307  0.829296  0.470451  1
  O  O9  1  0.695967  0.731405  0.503372  1
  O  O10  1  0.365009  0.592682  0.617288  1
  O  O11  1  0.625180  0.400637  0.922757  1
  O  O12  1  0.905955  0.423444  0.744769  1
  O  O13  1  0.402355  0.583515  0.256233  1
  O  O14  1  0.123822  0.590866  0.085466  1
  O  O15  1  0.873447  0.406119  0.383832  1
  O  O16  1  0.195389  0.266435  0.490593  1
  O  O17  1  0.506674  0.171240  0.519604  1
  O  O18  1  0.880649  0.130079  0.098586  1
  O  O19  1  0.229704  0.040533  0.157601  1
