# generated using pymatgen
data_Nd4Al3IrI2
_symmetry_space_group_name_H-M   'P 1'
_cell_length_a   4.34732800
_cell_length_b   4.34732758
_cell_length_c   17.36235000
_cell_angle_alpha   90.00000000
_cell_angle_beta   90.00000000
_cell_angle_gamma   120.00000321
_symmetry_Int_Tables_number   1
_chemical_formula_structural   Nd4Al3IrI2
_chemical_formula_sum   'Nd4 Al3 Ir1 I2'
_cell_volume   284.17371118
_cell_formula_units_Z   1
loop_
 _symmetry_equiv_pos_site_id
 _symmetry_equiv_pos_as_xyz
  1  'x, y, z'
loop_
 _atom_site_type_symbol
 _atom_site_label
 _atom_site_symmetry_multiplicity
 _atom_site_fract_x
 _atom_site_fract_y
 _atom_site_fract_z
 _atom_site_occupancy
  Nd  Nd0  1  0.000000  0.000000  0.395549  1
  Nd  Nd1  1  0.000000  0.000000  0.881499  1
  Nd  Nd2  1  0.000000  0.000000  0.607878  1
  Nd  Nd3  1  0.000000  0.000000  0.117774  1
  Al  Al4  1  0.333333  0.666667  0.992669  1
  Al  Al5  1  0.333333  0.666667  0.502723  1
  Al  Al6  1  0.666667  0.333333  0.006667  1
  Ir  Ir7  1  0.666667  0.333333  0.496844  1
  I  I8  1  0.333333  0.666667  0.247064  1
  I  I9  1  0.666667  0.333333  0.751332  1
