# generated using pymatgen
data_YbTm9Tl7InPt4
_symmetry_space_group_name_H-M   'P 1'
_cell_length_a   3.57905800
_cell_length_b   8.21918905
_cell_length_c   18.31890313
_cell_angle_alpha   89.90359543
_cell_angle_beta   90.00000000
_cell_angle_gamma   90.00000000
_symmetry_Int_Tables_number   1
_chemical_formula_structural   YbTm9Tl7InPt4
_chemical_formula_sum   'Yb1 Tm9 Tl7 In1 Pt4'
_cell_volume   538.88557386
_cell_formula_units_Z   1
loop_
 _symmetry_equiv_pos_site_id
 _symmetry_equiv_pos_as_xyz
  1  'x, y, z'
loop_
 _atom_site_type_symbol
 _atom_site_label
 _atom_site_symmetry_multiplicity
 _atom_site_fract_x
 _atom_site_fract_y
 _atom_site_fract_z
 _atom_site_occupancy
  Yb  Yb0  1  0.000000  0.999812  0.000093  1
  Tm  Tm1  1  0.000000  0.114776  0.412735  1
  Tm  Tm2  1  0.000000  0.884835  0.586630  1
  Tm  Tm3  1  0.000000  0.383301  0.911584  1
  Tm  Tm4  1  0.000000  0.616546  0.088564  1
  Tm  Tm5  1  0.000000  0.243644  0.221273  1
  Tm  Tm6  1  0.000000  0.756464  0.779229  1
  Tm  Tm7  1  0.000000  0.255614  0.720439  1
  Tm  Tm8  1  0.000000  0.742924  0.279664  1
  Tm  Tm9  1  0.000000  0.502922  0.499670  1
  Tl  Tl10  1  0.500000  0.423757  0.354131  1
  Tl  Tl11  1  0.500000  0.579184  0.646426  1
  Tl  Tl12  1  0.500000  0.076956  0.853289  1
  Tl  Tl13  1  0.500000  0.923324  0.147160  1
  Tl  Tl14  1  0.500000  0.294025  0.064499  1
  Tl  Tl15  1  0.500000  0.705623  0.935586  1
  Tl  Tl16  1  0.500000  0.208120  0.563586  1
  In  In17  1  0.500000  0.793580  0.434427  1
  Pt  Pt18  1  0.500000  0.022890  0.304477  1
  Pt  Pt19  1  0.500000  0.972947  0.696705  1
  Pt  Pt20  1  0.500000  0.474442  0.801964  1
  Pt  Pt21  1  0.500000  0.524317  0.197869  1
