# generated using pymatgen
data_Hf10ReSiSb4
_symmetry_space_group_name_H-M   'P 1'
_cell_length_a   5.53722629
_cell_length_b   8.25871443
_cell_length_c   8.25871359
_cell_angle_alpha   83.54731108
_cell_angle_beta   70.41316015
_cell_angle_gamma   70.41314776
_symmetry_Int_Tables_number   1
_chemical_formula_structural   Hf10ReSiSb4
_chemical_formula_sum   'Hf10 Re1 Si1 Sb4'
_cell_volume   335.23000782
_cell_formula_units_Z   1
loop_
 _symmetry_equiv_pos_site_id
 _symmetry_equiv_pos_as_xyz
  1  'x, y, z'
loop_
 _atom_site_type_symbol
 _atom_site_label
 _atom_site_symmetry_multiplicity
 _atom_site_fract_x
 _atom_site_fract_y
 _atom_site_fract_z
 _atom_site_occupancy
  Hf  Hf0  1  0.074007  0.134475  0.718905  1
  Hf  Hf1  1  0.927390  0.865525  0.281095  1
  Hf  Hf2  1  0.792913  0.281095  0.134475  1
  Hf  Hf3  1  0.425993  0.281095  0.865525  1
  Hf  Hf4  1  0.208484  0.718905  0.865525  1
  Hf  Hf5  1  0.572610  0.718905  0.134475  1
  Hf  Hf6  1  0.707087  0.865525  0.718905  1
  Hf  Hf7  1  0.291516  0.134475  0.281095  1
  Hf  Hf8  1  0.250000  0.500000  0.500000  1
  Hf  Hf9  1  0.750000  0.500000  0.500000  1
  Re  Re10  1  0.750000  0.000000  0.000000  1
  Si  Si11  1  0.250000  0.000000  0.000000  1
  Sb  Sb12  1  0.164064  0.500000  0.171870  1
  Sb  Sb13  1  0.835936  0.500000  0.828130  1
  Sb  Sb14  1  0.335936  0.828130  0.500000  1
  Sb  Sb15  1  0.664064  0.171870  0.500000  1
