# generated using pymatgen
data_Tm6Al20Fe7Si4Ru
_symmetry_space_group_name_H-M   'P 1'
_cell_length_a   8.50449535
_cell_length_b   8.50449447
_cell_length_c   9.37077193
_cell_angle_alpha   89.92156977
_cell_angle_beta   90.07842887
_cell_angle_gamma   120.17011995
_symmetry_Int_Tables_number   1
_chemical_formula_structural   Tm6Al20Fe7Si4Ru
_chemical_formula_sum   'Tm6 Al20 Fe7 Si4 Ru1'
_cell_volume   585.94313263
_cell_formula_units_Z   1
loop_
 _symmetry_equiv_pos_site_id
 _symmetry_equiv_pos_as_xyz
  1  'x, y, z'
loop_
 _atom_site_type_symbol
 _atom_site_label
 _atom_site_symmetry_multiplicity
 _atom_site_fract_x
 _atom_site_fract_y
 _atom_site_fract_z
 _atom_site_occupancy
  Tm  Tm0  1  0.803897  0.196103  0.752489  1
  Tm  Tm1  1  0.196103  0.803897  0.247511  1
  Tm  Tm2  1  0.393700  0.196636  0.750674  1
  Tm  Tm3  1  0.606300  0.803364  0.249326  1
  Tm  Tm4  1  0.803364  0.606300  0.750674  1
  Tm  Tm5  1  0.196636  0.393700  0.249326  1
  Al  Al6  1  0.836598  0.163402  0.425244  1
  Al  Al7  1  0.163402  0.836598  0.574756  1
  Al  Al8  1  0.325640  0.158894  0.424438  1
  Al  Al9  1  0.163597  0.836403  0.925436  1
  Al  Al10  1  0.674360  0.841106  0.575562  1
  Al  Al11  1  0.836403  0.163597  0.074564  1
  Al  Al12  1  0.841106  0.674360  0.424438  1
  Al  Al13  1  0.673158  0.837102  0.926331  1
  Al  Al14  1  0.158894  0.325640  0.575562  1
  Al  Al15  1  0.326842  0.162898  0.073669  1
  Al  Al16  1  0.162898  0.326842  0.926331  1
  Al  Al17  1  0.837102  0.673158  0.073669  1
  Al  Al18  1  0.437399  0.562601  0.755054  1
  Al  Al19  1  0.562601  0.437399  0.244946  1
  Al  Al20  1  0.122409  0.561499  0.750449  1
  Al  Al21  1  0.877591  0.438501  0.249551  1
  Al  Al22  1  0.438501  0.877591  0.750449  1
  Al  Al23  1  0.561499  0.122409  0.249551  1
  Al  Al24  1  0.000101  0.999899  0.750193  1
  Al  Al25  1  0.999899  0.000101  0.249807  1
  Fe  Fe26  1  0.500000  0.500000  0.000000  1
  Fe  Fe27  1  0.000000  0.500000  0.000000  1
  Fe  Fe28  1  0.500000  0.000000  0.000000  1
  Fe  Fe29  1  0.000000  0.500000  0.500000  1
  Fe  Fe30  1  0.500000  0.000000  0.500000  1
  Fe  Fe31  1  0.000000  0.000000  0.000000  1
  Fe  Fe32  1  0.000000  0.000000  0.500000  1
  Si  Si33  1  0.666716  0.333284  0.971099  1
  Si  Si34  1  0.333284  0.666716  0.028901  1
  Si  Si35  1  0.329305  0.670695  0.469279  1
  Si  Si36  1  0.670695  0.329305  0.530721  1
  Ru  Ru37  1  0.500000  0.500000  0.500000  1
