# generated using pymatgen
data_Y6Sc4TlBi5
_symmetry_space_group_name_H-M   'P 1'
_cell_length_a   8.98503000
_cell_length_b   8.98988570
_cell_length_c   6.22225900
_cell_angle_alpha   90.00000000
_cell_angle_beta   90.00000000
_cell_angle_gamma   120.01787113
_symmetry_Int_Tables_number   1
_chemical_formula_structural   Y6Sc4TlBi5
_chemical_formula_sum   'Y6 Sc4 Tl1 Bi5'
_cell_volume   435.18526435
_cell_formula_units_Z   1
loop_
 _symmetry_equiv_pos_site_id
 _symmetry_equiv_pos_as_xyz
  1  'x, y, z'
loop_
 _atom_site_type_symbol
 _atom_site_label
 _atom_site_symmetry_multiplicity
 _atom_site_fract_x
 _atom_site_fract_y
 _atom_site_fract_z
 _atom_site_occupancy
  Y  Y0  1  0.762419  0.756473  0.250000  1
  Y  Y1  1  0.000000  0.245365  0.250000  1
  Y  Y2  1  0.758834  0.001208  0.750000  1
  Y  Y3  1  0.237581  0.994054  0.250000  1
  Y  Y4  1  0.000000  0.757738  0.750000  1
  Y  Y5  1  0.241166  0.242373  0.750000  1
  Sc  Sc6  1  0.329758  0.665731  0.498482  1
  Sc  Sc7  1  0.670242  0.335973  0.498482  1
  Sc  Sc8  1  0.329758  0.665731  0.001518  1
  Sc  Sc9  1  0.670242  0.335973  0.001518  1
  Tl  Tl10  1  0.000000  0.602400  0.250000  1
  Bi  Bi11  1  0.603178  0.604754  0.750000  1
  Bi  Bi12  1  0.396822  0.001576  0.750000  1
  Bi  Bi13  1  0.604609  0.998969  0.250000  1
  Bi  Bi14  1  0.000000  0.397323  0.750000  1
  Bi  Bi15  1  0.395391  0.394360  0.250000  1
