# generated using pymatgen
data_Th3Ga2SbIrRu2
_symmetry_space_group_name_H-M   'P 1'
_cell_length_a   7.37405036
_cell_length_b   7.36500330
_cell_length_c   4.08424100
_cell_angle_alpha   90.00000000
_cell_angle_beta   90.00000000
_cell_angle_gamma   120.09357160
_symmetry_Int_Tables_number   1
_chemical_formula_structural   Th3Ga2SbIrRu2
_chemical_formula_sum   'Th3 Ga2 Sb1 Ir1 Ru2'
_cell_volume   191.91581854
_cell_formula_units_Z   1
loop_
 _symmetry_equiv_pos_site_id
 _symmetry_equiv_pos_as_xyz
  1  'x, y, z'
loop_
 _atom_site_type_symbol
 _atom_site_label
 _atom_site_symmetry_multiplicity
 _atom_site_fract_x
 _atom_site_fract_y
 _atom_site_fract_z
 _atom_site_occupancy
  Th  Th0  1  0.402135  0.399307  0.500000  1
  Th  Th1  1  0.583767  0.007329  0.500000  1
  Th  Th2  1  0.002666  0.581016  0.500000  1
  Ga  Ga3  1  0.246474  0.004707  0.000000  1
  Ga  Ga4  1  0.000161  0.243688  0.000000  1
  Sb  Sb5  1  0.759793  0.757277  0.000000  1
  Ir  Ir6  1  0.328335  0.666864  0.000000  1
  Ru  Ru7  1  0.667128  0.330366  0.000000  1
  Ru  Ru8  1  0.009540  0.009447  0.500000  1
