# generated using pymatgen
data_Ho4Al13Ga5Rh6
_symmetry_space_group_name_H-M   'P 1'
_cell_length_a   7.52131700
_cell_length_b   7.52107391
_cell_length_c   9.54922800
_cell_angle_alpha   90.00000000
_cell_angle_beta   90.00000000
_cell_angle_gamma   119.60549983
_symmetry_Int_Tables_number   1
_chemical_formula_structural   Ho4Al13Ga5Rh6
_chemical_formula_sum   'Ho4 Al13 Ga5 Rh6'
_cell_volume   469.66195515
_cell_formula_units_Z   1
loop_
 _symmetry_equiv_pos_site_id
 _symmetry_equiv_pos_as_xyz
  1  'x, y, z'
loop_
 _atom_site_type_symbol
 _atom_site_label
 _atom_site_symmetry_multiplicity
 _atom_site_fract_x
 _atom_site_fract_y
 _atom_site_fract_z
 _atom_site_occupancy
  Ho  Ho0  1  0.994834  0.670031  0.250000  1
  Ho  Ho1  1  0.000666  0.326499  0.750000  1
  Ho  Ho2  1  0.670188  0.996193  0.250000  1
  Ho  Ho3  1  0.330339  0.006524  0.750000  1
  Al  Al4  1  0.002441  0.334775  0.072312  1
  Al  Al5  1  0.999403  0.665503  0.927196  1
  Al  Al6  1  0.999403  0.665503  0.572804  1
  Al  Al7  1  0.334659  0.001930  0.427836  1
  Al  Al8  1  0.002441  0.334775  0.427688  1
  Al  Al9  1  0.664721  0.997888  0.572922  1
  Al  Al10  1  0.664721  0.997888  0.927078  1
  Al  Al11  1  0.334659  0.001930  0.072164  1
  Al  Al12  1  0.333826  0.334271  0.557070  1
  Al  Al13  1  0.665714  0.665721  0.446494  1
  Al  Al14  1  0.665714  0.665721  0.053506  1
  Al  Al15  1  0.333826  0.334271  0.942930  1
  Al  Al16  1  0.450339  0.661930  0.750000  1
  Ga  Ga17  1  0.127135  0.127270  0.250000  1
  Ga  Ga18  1  0.871232  0.870449  0.750000  1
  Ga  Ga19  1  0.338442  0.548462  0.250000  1
  Ga  Ga20  1  0.662314  0.453316  0.750000  1
  Ga  Ga21  1  0.548272  0.338999  0.250000  1
  Rh  Rh22  1  0.672734  0.327783  0.000215  1
  Rh  Rh23  1  0.329157  0.672083  0.997802  1
  Rh  Rh24  1  0.329157  0.672083  0.502198  1
  Rh  Rh25  1  0.672734  0.327783  0.499785  1
  Rh  Rh26  1  0.000465  0.000208  0.000061  1
  Rh  Rh27  1  0.000465  0.000208  0.499939  1
