# generated using pymatgen
data_Yb6ErTm3Ge8
_symmetry_space_group_name_H-M   'P 1'
_cell_length_a   7.33774700
_cell_length_b   7.87540600
_cell_length_c   15.08553600
_cell_angle_alpha   89.99860273
_cell_angle_beta   90.00000000
_cell_angle_gamma   90.00000000
_symmetry_Int_Tables_number   1
_chemical_formula_structural   Yb6ErTm3Ge8
_chemical_formula_sum   'Yb12 Er2 Tm6 Ge16'
_cell_volume   871.75898298
_cell_formula_units_Z   2
loop_
 _symmetry_equiv_pos_site_id
 _symmetry_equiv_pos_as_xyz
  1  'x, y, z'
loop_
 _atom_site_type_symbol
 _atom_site_label
 _atom_site_symmetry_multiplicity
 _atom_site_fract_x
 _atom_site_fract_y
 _atom_site_fract_z
 _atom_site_occupancy
  Yb  Yb0  1  0.981326  0.813051  0.405642  1
  Yb  Yb1  1  0.481326  0.686949  0.094358  1
  Yb  Yb2  1  0.518666  0.313042  0.594370  1
  Yb  Yb3  1  0.018666  0.186958  0.905630  1
  Yb  Yb4  1  0.018702  0.186945  0.594376  1
  Yb  Yb5  1  0.518702  0.313055  0.905624  1
  Yb  Yb6  1  0.481288  0.686972  0.405645  1
  Yb  Yb7  1  0.981288  0.813028  0.094355  1
  Yb  Yb8  1  0.342540  0.020955  0.749998  1
  Yb  Yb9  1  0.842540  0.479045  0.750002  1
  Yb  Yb10  1  0.157472  0.521000  0.250001  1
  Yb  Yb11  1  0.657472  0.979000  0.249999  1
  Er  Er12  1  0.318049  0.171475  0.121446  1
  Er  Er13  1  0.818049  0.328525  0.378554  1
  Tm  Tm14  1  0.181984  0.671489  0.878545  1
  Tm  Tm15  1  0.681984  0.828511  0.621455  1
  Tm  Tm16  1  0.318014  0.171438  0.378575  1
  Tm  Tm17  1  0.818014  0.328562  0.121425  1
  Tm  Tm18  1  0.181989  0.671484  0.621460  1
  Tm  Tm19  1  0.681989  0.828516  0.878540  1
  Ge  Ge20  1  0.843785  0.534389  0.540151  1
  Ge  Ge21  1  0.343785  0.965611  0.959849  1
  Ge  Ge22  1  0.656132  0.034242  0.459939  1
  Ge  Ge23  1  0.156132  0.465758  0.040061  1
  Ge  Ge24  1  0.156334  0.465719  0.459929  1
  Ge  Ge25  1  0.656334  0.034281  0.040071  1
  Ge  Ge26  1  0.343758  0.965670  0.540096  1
  Ge  Ge27  1  0.843758  0.534330  0.959904  1
  Ge  Ge28  1  0.977132  0.874406  0.750001  1
  Ge  Ge29  1  0.477132  0.625594  0.749999  1
  Ge  Ge30  1  0.522867  0.374504  0.249981  1
  Ge  Ge31  1  0.022867  0.125496  0.250019  1
  Ge  Ge32  1  0.237117  0.386929  0.750000  1
  Ge  Ge33  1  0.737117  0.113071  0.750000  1
  Ge  Ge34  1  0.262846  0.886873  0.250034  1
  Ge  Ge35  1  0.762846  0.613127  0.249966  1
