# generated using pymatgen
data_Hf16Ni4MoOs3
_symmetry_space_group_name_H-M   'P 1'
_cell_length_a   8.65589949
_cell_length_b   8.65589879
_cell_length_c   8.65590124
_cell_angle_alpha   59.75019856
_cell_angle_beta   59.75020315
_cell_angle_gamma   59.75019492
_symmetry_Int_Tables_number   1
_chemical_formula_structural   Hf16Ni4MoOs3
_chemical_formula_sum   'Hf16 Ni4 Mo1 Os3'
_cell_volume   455.98561516
_cell_formula_units_Z   1
loop_
 _symmetry_equiv_pos_site_id
 _symmetry_equiv_pos_as_xyz
  1  'x, y, z'
loop_
 _atom_site_type_symbol
 _atom_site_label
 _atom_site_symmetry_multiplicity
 _atom_site_fract_x
 _atom_site_fract_y
 _atom_site_fract_z
 _atom_site_occupancy
  Hf  Hf0  1  0.684352  0.104768  0.104768  1
  Hf  Hf1  1  0.104768  0.684352  0.104768  1
  Hf  Hf2  1  0.104768  0.104768  0.684352  1
  Hf  Hf3  1  0.105574  0.105574  0.105574  1
  Hf  Hf4  1  0.316131  0.316131  0.682645  1
  Hf  Hf5  1  0.684502  0.684502  0.315621  1
  Hf  Hf6  1  0.316131  0.682645  0.316131  1
  Hf  Hf7  1  0.684502  0.315621  0.684502  1
  Hf  Hf8  1  0.682645  0.316131  0.316131  1
  Hf  Hf9  1  0.315621  0.684502  0.684502  1
  Hf  Hf10  1  0.953160  0.953160  0.547440  1
  Hf  Hf11  1  0.547997  0.547997  0.951459  1
  Hf  Hf12  1  0.953160  0.547440  0.953160  1
  Hf  Hf13  1  0.547997  0.951459  0.547997  1
  Hf  Hf14  1  0.547440  0.953160  0.953160  1
  Hf  Hf15  1  0.951459  0.547997  0.547997  1
  Ni  Ni16  1  0.322331  0.892767  0.892767  1
  Ni  Ni17  1  0.892767  0.322331  0.892767  1
  Ni  Ni18  1  0.892767  0.892767  0.322331  1
  Ni  Ni19  1  0.892728  0.892728  0.892728  1
  Mo  Mo20  1  0.333155  0.333155  0.333155  1
  Os  Os21  1  0.998371  0.333835  0.333835  1
  Os  Os22  1  0.333835  0.998371  0.333835  1
  Os  Os23  1  0.333835  0.333835  0.998371  1
