# generated using pymatgen
data_Dy2Er5Co6Sn22Au
_symmetry_space_group_name_H-M   'P 1'
_cell_length_a   9.66974701
_cell_length_b   9.66997425
_cell_length_c   9.94163601
_cell_angle_alpha   90.00000158
_cell_angle_beta   90.00494916
_cell_angle_gamma   120.00076849
_symmetry_Int_Tables_number   1
_chemical_formula_structural   Dy2Er5Co6Sn22Au
_chemical_formula_sum   'Dy2 Er5 Co6 Sn22 Au1'
_cell_volume   805.05500455
_cell_formula_units_Z   1
loop_
 _symmetry_equiv_pos_site_id
 _symmetry_equiv_pos_as_xyz
  1  'x, y, z'
loop_
 _atom_site_type_symbol
 _atom_site_label
 _atom_site_symmetry_multiplicity
 _atom_site_fract_x
 _atom_site_fract_y
 _atom_site_fract_z
 _atom_site_occupancy
  Dy  Dy0  1  0.000007  0.000004  0.000009  1
  Dy  Dy1  1  0.957877  0.478939  0.693607  1
  Er  Er2  1  0.479026  0.520990  0.306412  1
  Er  Er3  1  0.520980  0.479023  0.693592  1
  Er  Er4  1  0.479026  0.958036  0.306412  1
  Er  Er5  1  0.520980  0.041957  0.693592  1
  Er  Er6  1  0.041951  0.520976  0.306358  1
  Co  Co7  1  0.832199  0.167809  0.196740  1
  Co  Co8  1  0.167876  0.832314  0.803299  1
  Co  Co9  1  0.832199  0.664389  0.196740  1
  Co  Co10  1  0.167876  0.335563  0.803299  1
  Co  Co11  1  0.335606  0.167803  0.196751  1
  Co  Co12  1  0.664377  0.832189  0.803259  1
  Sn  Sn13  1  0.346150  0.000015  0.999992  1
  Sn  Sn14  1  0.653851  0.999999  0.000007  1
  Sn  Sn15  1  0.000001  0.346127  0.000040  1
  Sn  Sn16  1  0.000001  0.653874  0.000040  1
  Sn  Sn17  1  0.653851  0.653852  0.000007  1
  Sn  Sn18  1  0.346150  0.346135  0.999992  1
  Sn  Sn19  1  0.333390  0.666695  0.817336  1
  Sn  Sn20  1  0.666665  0.333332  0.182679  1
  Sn  Sn21  1  0.782711  0.217142  0.452835  1
  Sn  Sn22  1  0.217376  0.782948  0.546996  1
  Sn  Sn23  1  0.782711  0.565570  0.452835  1
  Sn  Sn24  1  0.217376  0.434428  0.546996  1
  Sn  Sn25  1  0.434443  0.217222  0.452922  1
  Sn  Sn26  1  0.565568  0.782784  0.547069  1
  Sn  Sn27  1  0.333344  0.666672  0.119069  1
  Sn  Sn28  1  0.666445  0.333222  0.881087  1
  Sn  Sn29  1  0.113790  0.886223  0.277715  1
  Sn  Sn30  1  0.886203  0.113661  0.722300  1
  Sn  Sn31  1  0.113790  0.227565  0.277715  1
  Sn  Sn32  1  0.886203  0.772543  0.722300  1
  Sn  Sn33  1  0.772433  0.886216  0.277717  1
  Sn  Sn34  1  0.227568  0.113785  0.722289  1
  Au  Au35  1  0.999998  0.999999  0.499991  1
