# generated using pymatgen
data_Sr10Ni(RuO5)4
_symmetry_space_group_name_H-M   'P 1'
_cell_length_a   8.92359477
_cell_length_b   8.92359461
_cell_length_c   8.92359520
_cell_angle_alpha   121.47683798
_cell_angle_beta   121.47684823
_cell_angle_gamma   87.46051906
_symmetry_Int_Tables_number   1
_chemical_formula_structural   Sr10Ni(RuO5)4
_chemical_formula_sum   'Sr10 Ni1 Ru4 O20'
_cell_volume   490.72346223
_cell_formula_units_Z   1
loop_
 _symmetry_equiv_pos_site_id
 _symmetry_equiv_pos_as_xyz
  1  'x, y, z'
loop_
 _atom_site_type_symbol
 _atom_site_label
 _atom_site_symmetry_multiplicity
 _atom_site_fract_x
 _atom_site_fract_y
 _atom_site_fract_z
 _atom_site_occupancy
  Sr  Sr0  1  0.757351  0.144019  0.194861  1
  Sr  Sr1  1  0.351948  0.351948  0.000000  1
  Sr  Sr2  1  0.949157  0.562489  0.805139  1
  Sr  Sr3  1  0.562489  0.757351  0.613332  1
  Sr  Sr4  1  0.144019  0.949157  0.386668  1
  Sr  Sr5  1  0.648052  0.648052  0.000000  1
  Sr  Sr6  1  0.242649  0.855981  0.805139  1
  Sr  Sr7  1  0.855981  0.050843  0.613332  1
  Sr  Sr8  1  0.437511  0.242649  0.386668  1
  Sr  Sr9  1  0.050843  0.437511  0.194861  1
  Ni  Ni10  1  0.000000  0.000000  0.000000  1
  Ru  Ru11  1  0.596524  0.199473  0.795997  1
  Ru  Ru12  1  0.199473  0.403476  0.602947  1
  Ru  Ru13  1  0.800527  0.596524  0.397053  1
  Ru  Ru14  1  0.403476  0.800527  0.204003  1
  O  O15  1  0.562337  0.961471  0.200851  1
  O  O16  1  0.166605  0.166605  0.000000  1
  O  O17  1  0.760619  0.361485  0.799149  1
  O  O18  1  0.361485  0.562337  0.600866  1
  O  O19  1  0.961471  0.760619  0.399134  1
  O  O20  1  0.833395  0.833395  0.000000  1
  O  O21  1  0.437663  0.038529  0.799149  1
  O  O22  1  0.038529  0.239381  0.600866  1
  O  O23  1  0.638515  0.437663  0.399134  1
  O  O24  1  0.239381  0.638515  0.200851  1
  O  O25  1  0.696735  0.396231  0.092966  1
  O  O26  1  0.303265  0.603769  0.907034  1
  O  O27  1  0.896959  0.793798  0.690757  1
  O  O28  1  0.500000  0.000000  0.500000  1
  O  O29  1  0.103041  0.206202  0.309243  1
  O  O30  1  0.000000  0.500000  0.500000  1
  O  O31  1  0.603769  0.696735  0.300504  1
  O  O32  1  0.206202  0.896959  0.103162  1
  O  O33  1  0.793798  0.103041  0.896838  1
  O  O34  1  0.396231  0.303265  0.699496  1
