# generated using pymatgen
data_TmLu3CoAg
_symmetry_space_group_name_H-M   'P 1'
_cell_length_a   9.21943988
_cell_length_b   9.22046097
_cell_length_c   9.22117907
_cell_angle_alpha   59.99369291
_cell_angle_beta   60.00692716
_cell_angle_gamma   60.00459471
_symmetry_Int_Tables_number   1
_chemical_formula_structural   TmLu3CoAg
_chemical_formula_sum   'Tm4 Lu12 Co4 Ag4'
_cell_volume   554.30108759
_cell_formula_units_Z   4
loop_
 _symmetry_equiv_pos_site_id
 _symmetry_equiv_pos_as_xyz
  1  'x, y, z'
loop_
 _atom_site_type_symbol
 _atom_site_label
 _atom_site_symmetry_multiplicity
 _atom_site_fract_x
 _atom_site_fract_y
 _atom_site_fract_z
 _atom_site_occupancy
  Tm  Tm0  1  0.562313  0.937699  0.562306  1
  Tm  Tm1  1  0.937691  0.562306  0.937694  1
  Tm  Tm2  1  0.562321  0.562308  0.937668  1
  Tm  Tm3  1  0.937698  0.937694  0.562320  1
  Lu  Lu4  1  0.347547  0.347747  0.347670  1
  Lu  Lu5  1  0.347729  0.347517  0.957057  1
  Lu  Lu6  1  0.347753  0.957033  0.347489  1
  Lu  Lu7  1  0.957020  0.347764  0.347684  1
  Lu  Lu8  1  0.811779  0.188194  0.188203  1
  Lu  Lu9  1  0.188204  0.811781  0.811820  1
  Lu  Lu10  1  0.188338  0.811639  0.188345  1
  Lu  Lu11  1  0.811606  0.188339  0.811708  1
  Lu  Lu12  1  0.188350  0.188346  0.811672  1
  Lu  Lu13  1  0.811650  0.811673  0.188341  1
  Lu  Lu14  1  0.937883  0.562119  0.562155  1
  Lu  Lu15  1  0.562143  0.937850  0.937833  1
  Co  Co16  1  0.141411  0.141245  0.141247  1
  Co  Co17  1  0.141241  0.141408  0.576108  1
  Co  Co18  1  0.141242  0.576096  0.141410  1
  Co  Co19  1  0.576091  0.141251  0.141251  1
  Ag  Ag20  1  0.581935  0.581776  0.581784  1
  Ag  Ag21  1  0.581775  0.581942  0.254502  1
  Ag  Ag22  1  0.581773  0.254499  0.581950  1
  Ag  Ag23  1  0.254504  0.581775  0.581783  1
