# generated using pymatgen
data_Tm3MgZrSnIr3
_symmetry_space_group_name_H-M   'P 1'
_cell_length_a   7.21120953
_cell_length_b   7.09543101
_cell_length_c   4.24547800
_cell_angle_alpha   90.00000000
_cell_angle_beta   90.00000000
_cell_angle_gamma   118.67429922
_symmetry_Int_Tables_number   1
_chemical_formula_structural   Tm3MgZrSnIr3
_chemical_formula_sum   'Tm3 Mg1 Zr1 Sn1 Ir3'
_cell_volume   190.58646617
_cell_formula_units_Z   1
loop_
 _symmetry_equiv_pos_site_id
 _symmetry_equiv_pos_as_xyz
  1  'x, y, z'
loop_
 _atom_site_type_symbol
 _atom_site_label
 _atom_site_symmetry_multiplicity
 _atom_site_fract_x
 _atom_site_fract_y
 _atom_site_fract_z
 _atom_site_occupancy
  Tm  Tm0  1  0.997573  0.394753  0.500000  1
  Tm  Tm1  1  0.582126  0.590297  0.500000  1
  Tm  Tm2  1  0.418054  0.003414  0.500000  1
  Mg  Mg3  1  0.248695  0.249444  0.000000  1
  Zr  Zr4  1  0.003443  0.752311  0.000000  1
  Sn  Sn5  1  0.749755  0.003853  0.000000  1
  Ir  Ir6  1  0.328088  0.671259  0.000000  1
  Ir  Ir7  1  0.671877  0.350898  0.000000  1
  Ir  Ir8  1  0.000389  0.983772  0.500000  1
