# generated using pymatgen
data_Ta12Al8Cr4CN3
_symmetry_space_group_name_H-M   'P 1'
_cell_length_a   8.24554660
_cell_length_b   8.25819498
_cell_length_c   8.24554600
_cell_angle_alpha   60.05065492
_cell_angle_beta   60.00000242
_cell_angle_gamma   60.05065643
_symmetry_Int_Tables_number   1
_chemical_formula_structural   Ta12Al8Cr4CN3
_chemical_formula_sum   'Ta12 Al8 Cr4 C1 N3'
_cell_volume   397.32062527
_cell_formula_units_Z   1
loop_
 _symmetry_equiv_pos_site_id
 _symmetry_equiv_pos_as_xyz
  1  'x, y, z'
loop_
 _atom_site_type_symbol
 _atom_site_label
 _atom_site_symmetry_multiplicity
 _atom_site_fract_x
 _atom_site_fract_y
 _atom_site_fract_z
 _atom_site_occupancy
  Ta  Ta0  1  0.555017  0.944775  0.555017  1
  Ta  Ta1  1  0.305305  0.694426  0.694965  1
  Ta  Ta2  1  0.694983  0.305225  0.304810  1
  Ta  Ta3  1  0.305305  0.694426  0.305305  1
  Ta  Ta4  1  0.694965  0.694426  0.305305  1
  Ta  Ta5  1  0.304810  0.305225  0.694983  1
  Ta  Ta6  1  0.555035  0.555574  0.944695  1
  Ta  Ta7  1  0.944695  0.555574  0.555035  1
  Ta  Ta8  1  0.555017  0.944775  0.945190  1
  Ta  Ta9  1  0.945190  0.944775  0.555017  1
  Ta  Ta10  1  0.694983  0.305225  0.694983  1
  Ta  Ta11  1  0.944695  0.555574  0.944695  1
  Al  Al12  1  0.915553  0.916115  0.915553  1
  Al  Al13  1  0.997219  0.333885  0.334447  1
  Al  Al14  1  0.334135  0.997592  0.334135  1
  Al  Al15  1  0.334447  0.333885  0.997219  1
  Al  Al16  1  0.915865  0.252408  0.915865  1
  Al  Al17  1  0.915553  0.916115  0.252781  1
  Al  Al18  1  0.252781  0.916115  0.915553  1
  Al  Al19  1  0.334447  0.333885  0.334447  1
  Cr  Cr20  1  0.125000  0.125000  0.125000  1
  Cr  Cr21  1  0.625000  0.125000  0.125000  1
  Cr  Cr22  1  0.125000  0.625000  0.125000  1
  Cr  Cr23  1  0.125000  0.125000  0.625000  1
  C  C24  1  0.625000  0.125000  0.625000  1
  N  N25  1  0.625000  0.625000  0.625000  1
  N  N26  1  0.125000  0.625000  0.625000  1
  N  N27  1  0.625000  0.625000  0.125000  1
