# generated using pymatgen
data_Er4Al2B4Ir9Ru
_symmetry_space_group_name_H-M   'P 1'
_cell_length_a   9.60942964
_cell_length_b   9.60942964
_cell_length_c   3.09213000
_cell_angle_alpha   90.00000000
_cell_angle_beta   90.00000000
_cell_angle_gamma   90.47811863
_symmetry_Int_Tables_number   1
_chemical_formula_structural   Er4Al2B4Ir9Ru
_chemical_formula_sum   'Er4 Al2 B4 Ir9 Ru1'
_cell_volume   285.52086190
_cell_formula_units_Z   1
loop_
 _symmetry_equiv_pos_site_id
 _symmetry_equiv_pos_as_xyz
  1  'x, y, z'
loop_
 _atom_site_type_symbol
 _atom_site_label
 _atom_site_symmetry_multiplicity
 _atom_site_fract_x
 _atom_site_fract_y
 _atom_site_fract_z
 _atom_site_occupancy
  Er  Er0  1  0.174229  0.674229  0.000000  1
  Er  Er1  1  0.322745  0.177255  0.000000  1
  Er  Er2  1  0.677255  0.822745  0.000000  1
  Er  Er3  1  0.825771  0.325771  0.000000  1
  Al  Al4  1  0.000000  0.000000  0.000000  1
  Al  Al5  1  0.500000  0.500000  0.000000  1
  B  B6  1  0.120933  0.379067  0.000000  1
  B  B7  1  0.377120  0.877120  0.000000  1
  B  B8  1  0.622880  0.122880  0.000000  1
  B  B9  1  0.879067  0.620933  0.000000  1
  Ir  Ir10  1  0.068860  0.217179  0.500000  1
  Ir  Ir11  1  0.218154  0.930854  0.500000  1
  Ir  Ir12  1  0.282821  0.431140  0.500000  1
  Ir  Ir13  1  0.430854  0.718154  0.500000  1
  Ir  Ir14  1  0.500000  0.000000  0.500000  1
  Ir  Ir15  1  0.569146  0.281846  0.500000  1
  Ir  Ir16  1  0.717179  0.568860  0.500000  1
  Ir  Ir17  1  0.781846  0.069146  0.500000  1
  Ir  Ir18  1  0.931140  0.782821  0.500000  1
  Ru  Ru19  1  0.000000  0.500000  0.500000  1
