# generated using pymatgen
data_ThAl2SiPt
_symmetry_space_group_name_H-M   'P 1'
_cell_length_a   4.27114664
_cell_length_b   4.27114681
_cell_length_c   6.05360681
_cell_angle_alpha   110.65725338
_cell_angle_beta   110.65726031
_cell_angle_gamma   90.00000056
_symmetry_Int_Tables_number   1
_chemical_formula_structural   ThAl2SiPt
_chemical_formula_sum   'Th1 Al2 Si1 Pt1'
_cell_volume   95.70864823
_cell_formula_units_Z   1
loop_
 _symmetry_equiv_pos_site_id
 _symmetry_equiv_pos_as_xyz
  1  'x, y, z'
loop_
 _atom_site_type_symbol
 _atom_site_label
 _atom_site_symmetry_multiplicity
 _atom_site_fract_x
 _atom_site_fract_y
 _atom_site_fract_z
 _atom_site_occupancy
  Th  Th0  1  0.573316  0.573316  0.146635  1
  Al  Al1  1  0.338308  0.838308  0.676615  1
  Al  Al2  1  0.838308  0.338308  0.676615  1
  Si  Si3  1  0.990177  0.990177  0.980354  1
  Pt  Pt4  1  0.217689  0.217689  0.435378  1
