# generated using pymatgen
data_ThZn9Ag2
_symmetry_space_group_name_H-M   'P 1'
_cell_length_a   8.35131751
_cell_length_b   8.35131632
_cell_length_c   8.35067339
_cell_angle_alpha   99.91524621
_cell_angle_beta   100.02094496
_cell_angle_gamma   130.83078353
_symmetry_Int_Tables_number   1
_chemical_formula_structural   ThZn9Ag2
_chemical_formula_sum   'Th2 Zn18 Ag4'
_cell_volume   400.72438212
_cell_formula_units_Z   2
loop_
 _symmetry_equiv_pos_site_id
 _symmetry_equiv_pos_as_xyz
  1  'x, y, z'
loop_
 _atom_site_type_symbol
 _atom_site_label
 _atom_site_symmetry_multiplicity
 _atom_site_fract_x
 _atom_site_fract_y
 _atom_site_fract_z
 _atom_site_occupancy
  Th  Th0  1  0.001135  0.001135  0.000000  1
  Th  Th1  1  0.250401  0.750401  0.500000  1
  Zn  Zn2  1  0.620218  0.372095  0.746922  1
  Zn  Zn3  1  0.621065  0.375274  0.250521  1
  Zn  Zn4  1  0.124753  0.370544  0.749479  1
  Zn  Zn5  1  0.625175  0.873296  0.253078  1
  Zn  Zn6  1  0.820509  0.652729  0.582841  1
  Zn  Zn7  1  0.904987  0.818047  0.328793  1
  Zn  Zn8  1  0.489255  0.576194  0.671207  1
  Zn  Zn9  1  0.069888  0.237668  0.417159  1
  Zn  Zn10  1  0.758439  0.929449  0.587721  1
  Zn  Zn11  1  0.341728  0.170718  0.412279  1
  Zn  Zn12  1  0.418873  0.507375  0.327806  1
  Zn  Zn13  1  0.179568  0.091067  0.672194  1
  Zn  Zn14  1  0.432460  0.103311  0.916774  1
  Zn  Zn15  1  0.350199  0.934907  0.174077  1
  Zn  Zn16  1  0.760830  0.176122  0.825923  1
  Zn  Zn17  1  0.186537  0.515686  0.083226  1
  Zn  Zn18  1  0.492572  0.816634  0.911704  1
  Zn  Zn19  1  0.904930  0.580869  0.088296  1
  Ag  Ag20  1  0.071340  0.659631  0.828432  1
  Ag  Ag21  1  0.831199  0.242908  0.171568  1
  Ag  Ag22  1  0.743583  0.243583  0.500000  1
  Ag  Ag23  1  0.500354  0.500354  0.000000  1
