# generated using pymatgen
data_Sm7Y3(In3Cl)2
_symmetry_space_group_name_H-M   'P 1'
_cell_length_a   9.30141400
_cell_length_b   9.30148912
_cell_length_c   6.73085200
_cell_angle_alpha   89.99859551
_cell_angle_beta   90.00162414
_cell_angle_gamma   120.00056506
_symmetry_Int_Tables_number   1
_chemical_formula_structural   Sm7Y3(In3Cl)2
_chemical_formula_sum   'Sm7 Y3 In6 Cl2'
_cell_volume   504.31241214
_cell_formula_units_Z   1
loop_
 _symmetry_equiv_pos_site_id
 _symmetry_equiv_pos_as_xyz
  1  'x, y, z'
loop_
 _atom_site_type_symbol
 _atom_site_label
 _atom_site_symmetry_multiplicity
 _atom_site_fract_x
 _atom_site_fract_y
 _atom_site_fract_z
 _atom_site_occupancy
  Sm  Sm0  1  0.666665  0.333327  0.999998  1
  Sm  Sm1  1  0.742085  0.742533  0.250163  1
  Sm  Sm2  1  0.257469  0.999554  0.250178  1
  Sm  Sm3  1  0.000436  0.257921  0.250173  1
  Sm  Sm4  1  0.257469  0.257910  0.749823  1
  Sm  Sm5  1  0.742085  0.999557  0.749833  1
  Sm  Sm6  1  0.000443  0.742517  0.749831  1
  Y  Y7  1  0.333323  0.666663  0.000002  1
  Y  Y8  1  0.666667  0.333338  0.499999  1
  Y  Y9  1  0.333341  0.666669  0.499997  1
  In  In10  1  0.604182  0.999157  0.250156  1
  In  In11  1  0.000817  0.605001  0.250178  1
  In  In12  1  0.395003  0.395811  0.250178  1
  In  In13  1  0.395005  0.999196  0.749818  1
  In  In14  1  0.000819  0.395817  0.749821  1
  In  In15  1  0.604183  0.605024  0.749848  1
  Cl  Cl16  1  0.000002  0.000002  0.000000  1
  Cl  Cl17  1  0.000005  0.000002  0.500001  1
