# generated using pymatgen
data_Ca3In3CuAu2
_symmetry_space_group_name_H-M   'P 1'
_cell_length_a   7.79613400
_cell_length_b   7.79613478
_cell_length_c   3.99893000
_cell_angle_alpha   90.00000000
_cell_angle_beta   90.00000000
_cell_angle_gamma   119.99999668
_symmetry_Int_Tables_number   1
_chemical_formula_structural   Ca3In3CuAu2
_chemical_formula_sum   'Ca3 In3 Cu1 Au2'
_cell_volume   210.49078232
_cell_formula_units_Z   1
loop_
 _symmetry_equiv_pos_site_id
 _symmetry_equiv_pos_as_xyz
  1  'x, y, z'
loop_
 _atom_site_type_symbol
 _atom_site_label
 _atom_site_symmetry_multiplicity
 _atom_site_fract_x
 _atom_site_fract_y
 _atom_site_fract_z
 _atom_site_occupancy
  Ca  Ca0  1  0.592608  0.000000  0.500000  1
  Ca  Ca1  1  0.407392  0.407392  0.500000  1
  Ca  Ca2  1  0.000000  0.592608  0.500000  1
  In  In3  1  0.000000  0.245122  0.000000  1
  In  In4  1  0.754878  0.754878  0.000000  1
  In  In5  1  0.245122  0.000000  0.000000  1
  Cu  Cu6  1  0.000000  0.000000  0.500000  1
  Au  Au7  1  0.666667  0.333333  0.000000  1
  Au  Au8  1  0.333333  0.666667  0.000000  1
