# generated using pymatgen
data_V5GeP2H
_symmetry_space_group_name_H-M   'P 1'
_cell_length_a   7.05177816
_cell_length_b   7.05878514
_cell_length_c   4.84907800
_cell_angle_alpha   90.00000000
_cell_angle_beta   90.00000000
_cell_angle_gamma   120.03287784
_symmetry_Int_Tables_number   1
_chemical_formula_structural   V5GeP2H
_chemical_formula_sum   'V10 Ge2 P4 H2'
_cell_volume   208.96542242
_cell_formula_units_Z   2
loop_
 _symmetry_equiv_pos_site_id
 _symmetry_equiv_pos_as_xyz
  1  'x, y, z'
loop_
 _atom_site_type_symbol
 _atom_site_label
 _atom_site_symmetry_multiplicity
 _atom_site_fract_x
 _atom_site_fract_y
 _atom_site_fract_z
 _atom_site_occupancy
  V  V0  1  0.748708  0.751023  0.250000  1
  V  V1  1  0.748708  0.997684  0.750000  1
  V  V2  1  0.000000  0.230549  0.250000  1
  V  V3  1  0.000000  0.769451  0.750000  1
  V  V4  1  0.251292  0.248977  0.750000  1
  V  V5  1  0.251292  0.002316  0.250000  1
  V  V6  1  0.351421  0.675711  0.500000  1
  V  V7  1  0.648579  0.324289  0.000000  1
  V  V8  1  0.648579  0.324289  0.500000  1
  V  V9  1  0.351421  0.675711  0.000000  1
  Ge  Ge10  1  0.000000  0.599718  0.250000  1
  Ge  Ge11  1  0.000000  0.400282  0.750000  1
  P  P12  1  0.613167  0.608082  0.750000  1
  P  P13  1  0.613167  0.005085  0.250000  1
  P  P14  1  0.386833  0.391918  0.250000  1
  P  P15  1  0.386833  0.994915  0.750000  1
  H  H16  1  0.000000  0.000000  0.000000  1
  H  H17  1  0.000000  0.000000  0.500000  1
