# generated using pymatgen
data_Y7Ho13Cd6TcRu
_symmetry_space_group_name_H-M   'P 1'
_cell_length_a   9.57327554
_cell_length_b   9.57469739
_cell_length_c   9.87977747
_cell_angle_alpha   90.00000355
_cell_angle_beta   90.08302558
_cell_angle_gamma   120.00491907
_symmetry_Int_Tables_number   1
_chemical_formula_structural   Y7Ho13Cd6TcRu
_chemical_formula_sum   'Y7 Ho13 Cd6 Tc1 Ru1'
_cell_volume   784.22606604
_cell_formula_units_Z   1
loop_
 _symmetry_equiv_pos_site_id
 _symmetry_equiv_pos_as_xyz
  1  'x, y, z'
loop_
 _atom_site_type_symbol
 _atom_site_label
 _atom_site_symmetry_multiplicity
 _atom_site_fract_x
 _atom_site_fract_y
 _atom_site_fract_z
 _atom_site_occupancy
  Y  Y0  1  0.580870  0.790435  0.058020  1
  Y  Y1  1  0.539682  0.459888  0.250260  1
  Y  Y2  1  0.539682  0.079794  0.250260  1
  Y  Y3  1  0.920646  0.460323  0.249970  1
  Y  Y4  1  0.459077  0.540672  0.749628  1
  Y  Y5  1  0.459077  0.918406  0.749628  1
  Y  Y6  1  0.081837  0.540919  0.749990  1
  Ho  Ho7  1  0.000025  0.000013  0.500193  1
  Ho  Ho8  1  0.000568  0.000284  0.999675  1
  Ho  Ho9  1  0.209945  0.790132  0.441284  1
  Ho  Ho10  1  0.209945  0.419813  0.441284  1
  Ho  Ho11  1  0.579956  0.789978  0.441564  1
  Ho  Ho12  1  0.789846  0.210234  0.559271  1
  Ho  Ho13  1  0.789846  0.579610  0.559271  1
  Ho  Ho14  1  0.420532  0.210265  0.559252  1
  Ho  Ho15  1  0.790042  0.210533  0.940623  1
  Ho  Ho16  1  0.790042  0.579507  0.940623  1
  Ho  Ho17  1  0.420564  0.210281  0.940758  1
  Ho  Ho18  1  0.209636  0.790010  0.058821  1
  Ho  Ho19  1  0.209636  0.419626  0.058821  1
  Cd  Cd20  1  0.885773  0.114327  0.249987  1
  Cd  Cd21  1  0.885773  0.771447  0.249987  1
  Cd  Cd22  1  0.228543  0.114272  0.250061  1
  Cd  Cd23  1  0.114001  0.885821  0.749981  1
  Cd  Cd24  1  0.114001  0.228180  0.749981  1
  Cd  Cd25  1  0.771873  0.885937  0.750006  1
  Tc  Tc26  1  0.332075  0.666038  0.250849  1
  Ru  Ru27  1  0.666508  0.333253  0.749949  1
