# generated using pymatgen
data_Tb7YHf9Si16Mo3
_symmetry_space_group_name_H-M   'P 1'
_cell_length_a   7.21198596
_cell_length_b   7.21180049
_cell_length_c   13.18592205
_cell_angle_alpha   90.12522372
_cell_angle_beta   90.11802083
_cell_angle_gamma   90.06752342
_symmetry_Int_Tables_number   1
_chemical_formula_structural   Tb7YHf9Si16Mo3
_chemical_formula_sum   'Tb7 Y1 Hf9 Si16 Mo3'
_cell_volume   685.81474464
_cell_formula_units_Z   1
loop_
 _symmetry_equiv_pos_site_id
 _symmetry_equiv_pos_as_xyz
  1  'x, y, z'
loop_
 _atom_site_type_symbol
 _atom_site_label
 _atom_site_symmetry_multiplicity
 _atom_site_fract_x
 _atom_site_fract_y
 _atom_site_fract_z
 _atom_site_occupancy
  Tb  Tb0  1  0.003268  0.656820  0.714468  1
  Tb  Tb1  1  0.154994  0.500174  0.463982  1
  Tb  Tb2  1  0.499895  0.844928  0.036016  1
  Tb  Tb3  1  0.846176  0.501430  0.967685  1
  Tb  Tb4  1  0.498611  0.153755  0.532299  1
  Tb  Tb5  1  0.343214  0.996651  0.785365  1
  Tb  Tb6  1  0.655758  0.000366  0.284863  1
  Y  Y7  1  0.999641  0.344363  0.215208  1
  Hf  Hf8  1  0.675526  0.324500  0.749972  1
  Hf  Hf9  1  0.146647  0.992581  0.373575  1
  Hf  Hf10  1  0.854724  0.004937  0.876669  1
  Hf  Hf11  1  0.506276  0.649530  0.621495  1
  Hf  Hf12  1  0.350463  0.493817  0.878465  1
  Hf  Hf13  1  0.492510  0.352691  0.125540  1
  Hf  Hf14  1  0.647269  0.507538  0.374524  1
  Hf  Hf15  1  0.995054  0.145268  0.623288  1
  Hf  Hf16  1  0.007266  0.853433  0.126487  1
  Si  Si17  1  0.361384  0.296784  0.316827  1
  Si  Si18  1  0.637506  0.705464  0.817383  1
  Si  Si19  1  0.204313  0.862060  0.566018  1
  Si  Si20  1  0.137928  0.795564  0.933980  1
  Si  Si21  1  0.796196  0.137803  0.067440  1
  Si  Si22  1  0.862296  0.203838  0.432684  1
  Si  Si23  1  0.294542  0.362506  0.682587  1
  Si  Si24  1  0.703257  0.638438  0.183160  1
  Si  Si25  1  0.295447  0.051319  0.184368  1
  Si  Si26  1  0.705165  0.947516  0.682544  1
  Si  Si27  1  0.448333  0.795003  0.432630  1
  Si  Si28  1  0.204933  0.551619  0.067453  1
  Si  Si29  1  0.548177  0.203402  0.936133  1
  Si  Si30  1  0.796624  0.451965  0.563872  1
  Si  Si31  1  0.052423  0.294923  0.817347  1
  Si  Si32  1  0.948715  0.704438  0.315628  1
  Mo  Mo33  1  0.176556  0.175526  0.001391  1
  Mo  Mo34  1  0.824564  0.823390  0.498643  1
  Mo  Mo35  1  0.324351  0.675657  0.250014  1
