# generated using pymatgen
data_HoEr5(Tm2Si3)2
_symmetry_space_group_name_H-M   'P 1'
_cell_length_a   8.35527211
_cell_length_b   8.35527204
_cell_length_c   6.25523800
_cell_angle_alpha   90.00000000
_cell_angle_beta   90.00000000
_cell_angle_gamma   120.01836075
_symmetry_Int_Tables_number   1
_chemical_formula_structural   HoEr5(Tm2Si3)2
_chemical_formula_sum   'Ho1 Er5 Tm4 Si6'
_cell_volume   378.10749140
_cell_formula_units_Z   1
loop_
 _symmetry_equiv_pos_site_id
 _symmetry_equiv_pos_as_xyz
  1  'x, y, z'
loop_
 _atom_site_type_symbol
 _atom_site_label
 _atom_site_symmetry_multiplicity
 _atom_site_fract_x
 _atom_site_fract_y
 _atom_site_fract_z
 _atom_site_occupancy
  Ho  Ho0  1  0.757074  0.757074  0.250000  1
  Er  Er1  1  0.243039  0.000014  0.250000  1
  Er  Er2  1  0.000014  0.243039  0.250000  1
  Er  Er3  1  0.242916  0.242916  0.750000  1
  Er  Er4  1  0.757002  0.000067  0.750000  1
  Er  Er5  1  0.000067  0.757002  0.750000  1
  Tm  Tm6  1  0.666668  0.333273  0.500021  1
  Tm  Tm7  1  0.333273  0.666668  0.500021  1
  Tm  Tm8  1  0.333273  0.666668  0.999979  1
  Tm  Tm9  1  0.666668  0.333273  0.999979  1
  Si  Si10  1  0.393872  0.393872  0.250000  1
  Si  Si11  1  0.605944  0.000141  0.250000  1
  Si  Si12  1  0.000141  0.605944  0.250000  1
  Si  Si13  1  0.606024  0.606024  0.750000  1
  Si  Si14  1  0.394009  0.000015  0.750000  1
  Si  Si15  1  0.000015  0.394009  0.750000  1
