# generated using pymatgen
data_YHoAl8SiRh3
_symmetry_space_group_name_H-M   'P 1'
_cell_length_a   7.53270137
_cell_length_b   7.50534264
_cell_length_c   9.42586962
_cell_angle_alpha   89.98558832
_cell_angle_beta   89.87325167
_cell_angle_gamma   119.67468688
_symmetry_Int_Tables_number   1
_chemical_formula_structural   YHoAl8SiRh3
_chemical_formula_sum   'Y2 Ho2 Al16 Si2 Rh6'
_cell_volume   463.00543030
_cell_formula_units_Z   2
loop_
 _symmetry_equiv_pos_site_id
 _symmetry_equiv_pos_as_xyz
  1  'x, y, z'
loop_
 _atom_site_type_symbol
 _atom_site_label
 _atom_site_symmetry_multiplicity
 _atom_site_fract_x
 _atom_site_fract_y
 _atom_site_fract_z
 _atom_site_occupancy
  Y  Y0  1  0.675587  0.000977  0.247207  1
  Y  Y1  1  0.324413  0.999023  0.752793  1
  Ho  Ho2  1  0.994683  0.664743  0.243096  1
  Ho  Ho3  1  0.005317  0.335257  0.756904  1
  Al  Al4  1  0.128906  0.127194  0.250444  1
  Al  Al5  1  0.871094  0.872806  0.749556  1
  Al  Al6  1  0.998702  0.665351  0.569053  1
  Al  Al7  1  0.334707  0.999145  0.425233  1
  Al  Al8  1  0.001298  0.334649  0.430947  1
  Al  Al9  1  0.665293  0.000855  0.574767  1
  Al  Al10  1  0.661689  0.996682  0.922500  1
  Al  Al11  1  0.338311  0.003318  0.077500  1
  Al  Al12  1  0.333016  0.332074  0.553380  1
  Al  Al13  1  0.666984  0.667926  0.446620  1
  Al  Al14  1  0.664038  0.666839  0.053954  1
  Al  Al15  1  0.335962  0.333161  0.946046  1
  Al  Al16  1  0.339600  0.550024  0.249803  1
  Al  Al17  1  0.660400  0.449976  0.750197  1
  Al  Al18  1  0.548150  0.341781  0.250241  1
  Al  Al19  1  0.451850  0.658219  0.749759  1
  Si  Si20  1  0.002935  0.329000  0.076710  1
  Si  Si21  1  0.997065  0.671000  0.923290  1
  Rh  Rh22  1  0.689964  0.337428  0.001544  1
  Rh  Rh23  1  0.310036  0.662572  0.998456  1
  Rh  Rh24  1  0.327179  0.670907  0.500484  1
  Rh  Rh25  1  0.672821  0.329093  0.499516  1
  Rh  Rh26  1  0.000000  0.000000  0.000000  1
  Rh  Rh27  1  0.000000  0.000000  0.500000  1
