# generated using pymatgen
data_Zr3TaIr2N
_symmetry_space_group_name_H-M   'P 1'
_cell_length_a   8.72965612
_cell_length_b   8.72965670
_cell_length_c   8.72965600
_cell_angle_alpha   60.00000265
_cell_angle_beta   60.00000045
_cell_angle_gamma   60.00000031
_symmetry_Int_Tables_number   1
_chemical_formula_structural   Zr3TaIr2N
_chemical_formula_sum   'Zr12 Ta4 Ir8 N4'
_cell_volume   470.40989120
_cell_formula_units_Z   4
loop_
 _symmetry_equiv_pos_site_id
 _symmetry_equiv_pos_as_xyz
  1  'x, y, z'
loop_
 _atom_site_type_symbol
 _atom_site_label
 _atom_site_symmetry_multiplicity
 _atom_site_fract_x
 _atom_site_fract_y
 _atom_site_fract_z
 _atom_site_occupancy
  Zr  Zr0  1  0.812345  0.812345  0.187655  1
  Zr  Zr1  1  0.187655  0.187655  0.812345  1
  Zr  Zr2  1  0.812345  0.187655  0.812345  1
  Zr  Zr3  1  0.187655  0.812345  0.187655  1
  Zr  Zr4  1  0.187655  0.812345  0.812345  1
  Zr  Zr5  1  0.812345  0.187655  0.187655  1
  Zr  Zr6  1  0.437655  0.437655  0.062345  1
  Zr  Zr7  1  0.062345  0.062345  0.437655  1
  Zr  Zr8  1  0.437655  0.062345  0.437655  1
  Zr  Zr9  1  0.062345  0.437655  0.062345  1
  Zr  Zr10  1  0.062345  0.437655  0.437655  1
  Zr  Zr11  1  0.437655  0.062345  0.062345  1
  Ta  Ta12  1  0.125000  0.625000  0.625000  1
  Ta  Ta13  1  0.625000  0.125000  0.625000  1
  Ta  Ta14  1  0.625000  0.625000  0.125000  1
  Ta  Ta15  1  0.625000  0.625000  0.625000  1
  Ir  Ir16  1  0.755390  0.414870  0.414870  1
  Ir  Ir17  1  0.414870  0.755390  0.414870  1
  Ir  Ir18  1  0.414870  0.414870  0.755390  1
  Ir  Ir19  1  0.414870  0.414870  0.414870  1
  Ir  Ir20  1  0.494610  0.835130  0.835130  1
  Ir  Ir21  1  0.835130  0.494610  0.835130  1
  Ir  Ir22  1  0.835130  0.835130  0.494610  1
  Ir  Ir23  1  0.835130  0.835130  0.835130  1
  N  N24  1  0.625000  0.125000  0.125000  1
  N  N25  1  0.125000  0.625000  0.125000  1
  N  N26  1  0.125000  0.125000  0.625000  1
  N  N27  1  0.125000  0.125000  0.125000  1
