# generated using pymatgen
data_YbDy7(Si3Pt)4
_symmetry_space_group_name_H-M   'P 1'
_cell_length_a   8.14711000
_cell_length_b   8.14711154
_cell_length_c   8.19160400
_cell_angle_alpha   90.00000000
_cell_angle_beta   90.00000000
_cell_angle_gamma   119.99999377
_symmetry_Int_Tables_number   1
_chemical_formula_structural   YbDy7(Si3Pt)4
_chemical_formula_sum   'Yb1 Dy7 Si12 Pt4'
_cell_volume   470.87631966
_cell_formula_units_Z   1
loop_
 _symmetry_equiv_pos_site_id
 _symmetry_equiv_pos_as_xyz
  1  'x, y, z'
loop_
 _atom_site_type_symbol
 _atom_site_label
 _atom_site_symmetry_multiplicity
 _atom_site_fract_x
 _atom_site_fract_y
 _atom_site_fract_z
 _atom_site_occupancy
  Yb  Yb0  1  0.000000  0.000000  0.250000  1
  Dy  Dy1  1  0.000000  0.000000  0.750000  1
  Dy  Dy2  1  0.003011  0.501506  0.250000  1
  Dy  Dy3  1  0.498494  0.501506  0.250000  1
  Dy  Dy4  1  0.501528  0.003057  0.750000  1
  Dy  Dy5  1  0.498494  0.996989  0.250000  1
  Dy  Dy6  1  0.501528  0.498472  0.750000  1
  Dy  Dy7  1  0.996943  0.498472  0.750000  1
  Si  Si8  1  0.165508  0.331016  0.999010  1
  Si  Si9  1  0.668984  0.834492  0.999010  1
  Si  Si10  1  0.165508  0.331016  0.500990  1
  Si  Si11  1  0.331136  0.165568  0.000757  1
  Si  Si12  1  0.165508  0.834492  0.999010  1
  Si  Si13  1  0.668984  0.834492  0.500990  1
  Si  Si14  1  0.834432  0.668864  0.000757  1
  Si  Si15  1  0.331136  0.165568  0.499243  1
  Si  Si16  1  0.165508  0.834492  0.500990  1
  Si  Si17  1  0.834432  0.668864  0.499243  1
  Si  Si18  1  0.834432  0.165568  0.000757  1
  Si  Si19  1  0.834432  0.165568  0.499243  1
  Pt  Pt20  1  0.333333  0.666667  0.995672  1
  Pt  Pt21  1  0.333333  0.666667  0.504328  1
  Pt  Pt22  1  0.666667  0.333333  0.002168  1
  Pt  Pt23  1  0.666667  0.333333  0.497832  1
