# generated using pymatgen
data_Tb5Cr3(Co4P3)4
_symmetry_space_group_name_H-M   'P 1'
_cell_length_a   12.02164300
_cell_length_b   12.02164291
_cell_length_c   3.68040800
_cell_angle_alpha   90.00000000
_cell_angle_beta   90.00000000
_cell_angle_gamma   119.99999198
_symmetry_Int_Tables_number   1
_chemical_formula_structural   Tb5Cr3(Co4P3)4
_chemical_formula_sum   'Tb5 Cr3 Co16 P12'
_cell_volume   460.63218918
_cell_formula_units_Z   1
loop_
 _symmetry_equiv_pos_site_id
 _symmetry_equiv_pos_as_xyz
  1  'x, y, z'
loop_
 _atom_site_type_symbol
 _atom_site_label
 _atom_site_symmetry_multiplicity
 _atom_site_fract_x
 _atom_site_fract_y
 _atom_site_fract_z
 _atom_site_occupancy
  Tb  Tb0  1  0.666667  0.333333  0.000000  1
  Tb  Tb1  1  0.333333  0.666667  0.000000  1
  Tb  Tb2  1  0.187259  0.187259  0.500000  1
  Tb  Tb3  1  0.812741  0.000000  0.500000  1
  Tb  Tb4  1  0.000000  0.812741  0.500000  1
  Cr  Cr5  1  0.554895  0.554895  0.000000  1
  Cr  Cr6  1  0.445105  0.000000  0.000000  1
  Cr  Cr7  1  0.000000  0.445105  0.000000  1
  Co  Co8  1  0.823171  0.200570  0.000000  1
  Co  Co9  1  0.799430  0.622602  0.000000  1
  Co  Co10  1  0.377398  0.176829  0.000000  1
  Co  Co11  1  0.200570  0.823171  0.000000  1
  Co  Co12  1  0.622602  0.799430  0.000000  1
  Co  Co13  1  0.176829  0.377398  0.000000  1
  Co  Co14  1  0.643846  0.125748  0.500000  1
  Co  Co15  1  0.874252  0.518098  0.500000  1
  Co  Co16  1  0.481902  0.356154  0.500000  1
  Co  Co17  1  0.125748  0.643846  0.500000  1
  Co  Co18  1  0.518098  0.874252  0.500000  1
  Co  Co19  1  0.356154  0.481902  0.500000  1
  Co  Co20  1  0.717018  0.717018  0.500000  1
  Co  Co21  1  0.282982  0.000000  0.500000  1
  Co  Co22  1  0.000000  0.282982  0.500000  1
  Co  Co23  1  0.000000  0.000000  0.000000  1
  P  P24  1  0.367197  0.367197  0.000000  1
  P  P25  1  0.632803  0.000000  0.000000  1
  P  P26  1  0.000000  0.632803  0.000000  1
  P  P27  1  0.837589  0.317121  0.500000  1
  P  P28  1  0.682879  0.520468  0.500000  1
  P  P29  1  0.479532  0.162411  0.500000  1
  P  P30  1  0.317121  0.837589  0.500000  1
  P  P31  1  0.520468  0.682879  0.500000  1
  P  P32  1  0.162411  0.479532  0.500000  1
  P  P33  1  0.820083  0.820083  0.000000  1
  P  P34  1  0.179917  0.000000  0.000000  1
  P  P35  1  0.000000  0.179917  0.000000  1
