# generated using pymatgen
data_Er3Sc7(Co2Si5)4
_symmetry_space_group_name_H-M   'P 1'
_cell_length_a   12.08492779
_cell_length_b   12.08492858
_cell_length_c   3.96154900
_cell_angle_alpha   90.00000000
_cell_angle_beta   90.00000000
_cell_angle_gamma   89.99137595
_symmetry_Int_Tables_number   1
_chemical_formula_structural   Er3Sc7(Co2Si5)4
_chemical_formula_sum   'Er3 Sc7 Co8 Si20'
_cell_volume   578.56635539
_cell_formula_units_Z   1
loop_
 _symmetry_equiv_pos_site_id
 _symmetry_equiv_pos_as_xyz
  1  'x, y, z'
loop_
 _atom_site_type_symbol
 _atom_site_label
 _atom_site_symmetry_multiplicity
 _atom_site_fract_x
 _atom_site_fract_y
 _atom_site_fract_z
 _atom_site_occupancy
  Er  Er0  1  0.112174  0.612174  0.500000  1
  Er  Er1  1  0.387423  0.113208  0.500000  1
  Er  Er2  1  0.613208  0.887423  0.500000  1
  Sc  Sc3  1  0.500802  0.500077  0.000000  1
  Sc  Sc4  1  0.000077  0.000802  0.000000  1
  Sc  Sc5  1  0.677130  0.177130  0.500000  1
  Sc  Sc6  1  0.324254  0.824254  0.500000  1
  Sc  Sc7  1  0.174261  0.323765  0.500000  1
  Sc  Sc8  1  0.823765  0.674261  0.500000  1
  Sc  Sc9  1  0.887944  0.387944  0.500000  1
  Co  Co10  1  0.745349  0.522917  0.000000  1
  Co  Co11  1  0.254745  0.476350  0.000000  1
  Co  Co12  1  0.244029  0.976592  0.000000  1
  Co  Co13  1  0.756533  0.024105  0.000000  1
  Co  Co14  1  0.476592  0.744029  0.000000  1
  Co  Co15  1  0.524105  0.256533  0.000000  1
  Co  Co16  1  0.022917  0.245349  0.000000  1
  Co  Co17  1  0.976350  0.754745  0.000000  1
  Si  Si18  1  0.570346  0.070346  0.000000  1
  Si  Si19  1  0.430643  0.930643  0.000000  1
  Si  Si20  1  0.067465  0.429483  0.000000  1
  Si  Si21  1  0.929483  0.567465  0.000000  1
  Si  Si22  1  0.657948  0.695367  0.000000  1
  Si  Si23  1  0.342382  0.304587  0.000000  1
  Si  Si24  1  0.157303  0.804058  0.000000  1
  Si  Si25  1  0.843057  0.197987  0.000000  1
  Si  Si26  1  0.304058  0.657303  0.000000  1
  Si  Si27  1  0.697987  0.343057  0.000000  1
  Si  Si28  1  0.195367  0.157948  0.000000  1
  Si  Si29  1  0.804587  0.842382  0.000000  1
  Si  Si30  1  0.664581  0.500678  0.500000  1
  Si  Si31  1  0.337765  0.493530  0.500000  1
  Si  Si32  1  0.162134  0.995233  0.500000  1
  Si  Si33  1  0.838417  0.005375  0.500000  1
  Si  Si34  1  0.495233  0.662134  0.500000  1
  Si  Si35  1  0.505375  0.338417  0.500000  1
  Si  Si36  1  0.000678  0.164581  0.500000  1
  Si  Si37  1  0.993530  0.837765  0.500000  1
