# generated using pymatgen
data_Pr9TmIr5Ru
_symmetry_space_group_name_H-M   'P 1'
_cell_length_a   11.26223200
_cell_length_b   11.28280000
_cell_length_c   6.60137000
_cell_angle_alpha   90.00000000
_cell_angle_beta   90.00000000
_cell_angle_gamma   90.00000000
_symmetry_Int_Tables_number   1
_chemical_formula_structural   Pr9TmIr5Ru
_chemical_formula_sum   'Pr18 Tm2 Ir10 Ru2'
_cell_volume   838.83285921
_cell_formula_units_Z   2
loop_
 _symmetry_equiv_pos_site_id
 _symmetry_equiv_pos_as_xyz
  1  'x, y, z'
loop_
 _atom_site_type_symbol
 _atom_site_label
 _atom_site_symmetry_multiplicity
 _atom_site_fract_x
 _atom_site_fract_y
 _atom_site_fract_z
 _atom_site_occupancy
  Pr  Pr0  1  0.289789  0.086198  0.386010  1
  Pr  Pr1  1  0.289789  0.913802  0.886010  1
  Pr  Pr2  1  0.710211  0.086198  0.886010  1
  Pr  Pr3  1  0.710211  0.913802  0.386010  1
  Pr  Pr4  1  0.587143  0.794838  0.886477  1
  Pr  Pr5  1  0.587143  0.205162  0.386477  1
  Pr  Pr6  1  0.412857  0.794838  0.386477  1
  Pr  Pr7  1  0.412857  0.205162  0.886477  1
  Pr  Pr8  1  0.208212  0.410383  0.617670  1
  Pr  Pr9  1  0.208212  0.589617  0.117670  1
  Pr  Pr10  1  0.791788  0.410383  0.117670  1
  Pr  Pr11  1  0.791788  0.589617  0.617670  1
  Pr  Pr12  1  0.910962  0.713323  0.117777  1
  Pr  Pr13  1  0.910962  0.286677  0.617777  1
  Pr  Pr14  1  0.089038  0.713323  0.617777  1
  Pr  Pr15  1  0.089038  0.286677  0.117777  1
  Pr  Pr16  1  0.500000  0.500000  0.993923  1
  Pr  Pr17  1  0.500000  0.500000  0.493923  1
  Tm  Tm18  1  0.000000  0.000000  0.493815  1
  Tm  Tm19  1  0.000000  0.000000  0.993815  1
  Ir  Ir20  1  0.855099  0.146779  0.248020  1
  Ir  Ir21  1  0.855099  0.853221  0.748020  1
  Ir  Ir22  1  0.144901  0.146779  0.748020  1
  Ir  Ir23  1  0.144901  0.853221  0.248020  1
  Ir  Ir24  1  0.654957  0.346872  0.748810  1
  Ir  Ir25  1  0.654957  0.653128  0.248810  1
  Ir  Ir26  1  0.345043  0.346872  0.248810  1
  Ir  Ir27  1  0.345043  0.653128  0.748810  1
  Ir  Ir28  1  0.000000  0.500000  0.880016  1
  Ir  Ir29  1  0.000000  0.500000  0.380016  1
  Ru  Ru30  1  0.500000  0.000000  0.122721  1
  Ru  Ru31  1  0.500000  0.000000  0.622721  1
