# generated using pymatgen
data_Ho16MgCd3Ni3Os
_symmetry_space_group_name_H-M   'P 1'
_cell_length_a   9.55678066
_cell_length_b   9.55678078
_cell_length_c   9.55678137
_cell_angle_alpha   59.61684210
_cell_angle_beta   59.61684085
_cell_angle_gamma   59.61684041
_symmetry_Int_Tables_number   1
_chemical_formula_structural   Ho16MgCd3Ni3Os
_chemical_formula_sum   'Ho16 Mg1 Cd3 Ni3 Os1'
_cell_volume   611.81702639
_cell_formula_units_Z   1
loop_
 _symmetry_equiv_pos_site_id
 _symmetry_equiv_pos_as_xyz
  1  'x, y, z'
loop_
 _atom_site_type_symbol
 _atom_site_label
 _atom_site_symmetry_multiplicity
 _atom_site_fract_x
 _atom_site_fract_y
 _atom_site_fract_z
 _atom_site_occupancy
  Ho  Ho0  1  0.347811  0.347811  0.347811  1
  Ho  Ho1  1  0.350509  0.350509  0.955949  1
  Ho  Ho2  1  0.350509  0.955949  0.350509  1
  Ho  Ho3  1  0.955949  0.350509  0.350509  1
  Ho  Ho4  1  0.809793  0.188890  0.188890  1
  Ho  Ho5  1  0.185961  0.812336  0.812336  1
  Ho  Ho6  1  0.188890  0.809793  0.188890  1
  Ho  Ho7  1  0.812336  0.185961  0.812336  1
  Ho  Ho8  1  0.188890  0.188890  0.809793  1
  Ho  Ho9  1  0.812336  0.812336  0.185961  1
  Ho  Ho10  1  0.935475  0.566813  0.566813  1
  Ho  Ho11  1  0.557591  0.939401  0.939401  1
  Ho  Ho12  1  0.566813  0.935475  0.566813  1
  Ho  Ho13  1  0.939401  0.557591  0.939401  1
  Ho  Ho14  1  0.566813  0.566813  0.935475  1
  Ho  Ho15  1  0.939401  0.939401  0.557591  1
  Mg  Mg16  1  0.575059  0.575059  0.575059  1
  Cd  Cd17  1  0.579983  0.579983  0.254603  1
  Cd  Cd18  1  0.579983  0.254603  0.579983  1
  Cd  Cd19  1  0.254603  0.579983  0.579983  1
  Ni  Ni20  1  0.141540  0.141540  0.575340  1
  Ni  Ni21  1  0.141540  0.575340  0.141540  1
  Ni  Ni22  1  0.575340  0.141540  0.141540  1
  Os  Os23  1  0.143472  0.143472  0.143472  1
