# generated using pymatgen
data_Dy5Ho3Au4
_symmetry_space_group_name_H-M   'P 1'
_cell_length_a   4.94557500
_cell_length_b   7.11321849
_cell_length_c   8.95486062
_cell_angle_alpha   90.04252461
_cell_angle_beta   90.00000000
_cell_angle_gamma   90.00000000
_symmetry_Int_Tables_number   1
_chemical_formula_structural   Dy5Ho3Au4
_chemical_formula_sum   'Dy5 Ho3 Au4'
_cell_volume   315.02255667
_cell_formula_units_Z   1
loop_
 _symmetry_equiv_pos_site_id
 _symmetry_equiv_pos_as_xyz
  1  'x, y, z'
loop_
 _atom_site_type_symbol
 _atom_site_label
 _atom_site_symmetry_multiplicity
 _atom_site_fract_x
 _atom_site_fract_y
 _atom_site_fract_z
 _atom_site_occupancy
  Dy  Dy0  1  0.250000  0.486662  0.176656  1
  Dy  Dy1  1  0.750000  0.513206  0.823399  1
  Dy  Dy2  1  0.250000  0.987023  0.323270  1
  Dy  Dy3  1  0.750000  0.013385  0.676765  1
  Dy  Dy4  1  0.750000  0.648705  0.419396  1
  Ho  Ho5  1  0.250000  0.351309  0.580714  1
  Ho  Ho6  1  0.750000  0.148679  0.080414  1
  Ho  Ho7  1  0.250000  0.851378  0.919494  1
  Au  Au8  1  0.250000  0.257278  0.900859  1
  Au  Au9  1  0.750000  0.742781  0.098663  1
  Au  Au10  1  0.250000  0.757481  0.599531  1
  Au  Au11  1  0.750000  0.242112  0.400837  1
