# generated using pymatgen
data_Tb4Y2TcBi2
_symmetry_space_group_name_H-M   'P 1'
_cell_length_a   8.34159900
_cell_length_b   8.35110896
_cell_length_c   4.29110200
_cell_angle_alpha   90.00000000
_cell_angle_beta   90.00000000
_cell_angle_gamma   119.96233311
_symmetry_Int_Tables_number   1
_chemical_formula_structural   Tb4Y2TcBi2
_chemical_formula_sum   'Tb4 Y2 Tc1 Bi2'
_cell_volume   258.97488103
_cell_formula_units_Z   1
loop_
 _symmetry_equiv_pos_site_id
 _symmetry_equiv_pos_as_xyz
  1  'x, y, z'
loop_
 _atom_site_type_symbol
 _atom_site_label
 _atom_site_symmetry_multiplicity
 _atom_site_fract_x
 _atom_site_fract_y
 _atom_site_fract_z
 _atom_site_occupancy
  Tb  Tb0  1  0.233157  0.000000  0.500000  1
  Tb  Tb1  1  0.999868  0.232941  0.500000  1
  Tb  Tb2  1  0.766927  0.767059  0.500000  1
  Tb  Tb3  1  0.605728  0.000000  0.000000  1
  Y  Y4  1  0.999964  0.605481  0.000000  1
  Y  Y5  1  0.394483  0.394519  0.000000  1
  Tc  Tc6  1  0.000050  0.000000  0.000000  1
  Bi  Bi7  1  0.333088  0.666353  0.500000  1
  Bi  Bi8  1  0.666736  0.333647  0.500000  1
