# generated using pymatgen
data_Ta12Zn12BN
_symmetry_space_group_name_H-M   'P 1'
_cell_length_a   8.20402966
_cell_length_b   8.20403032
_cell_length_c   8.20403000
_cell_angle_alpha   60.00000129
_cell_angle_beta   59.99999863
_cell_angle_gamma   60.00000407
_symmetry_Int_Tables_number   1
_chemical_formula_structural   Ta12Zn12BN
_chemical_formula_sum   'Ta12 Zn12 B1 N1'
_cell_volume   390.45117447
_cell_formula_units_Z   1
loop_
 _symmetry_equiv_pos_site_id
 _symmetry_equiv_pos_as_xyz
  1  'x, y, z'
loop_
 _atom_site_type_symbol
 _atom_site_label
 _atom_site_symmetry_multiplicity
 _atom_site_fract_x
 _atom_site_fract_y
 _atom_site_fract_z
 _atom_site_occupancy
  Ta  Ta0  1  0.192500  0.807500  0.192500  1
  Ta  Ta1  1  0.438590  0.061410  0.438590  1
  Ta  Ta2  1  0.438590  0.061410  0.061410  1
  Ta  Ta3  1  0.438590  0.438590  0.061410  1
  Ta  Ta4  1  0.192500  0.807500  0.807500  1
  Ta  Ta5  1  0.061410  0.438590  0.061410  1
  Ta  Ta6  1  0.807500  0.807500  0.192500  1
  Ta  Ta7  1  0.061410  0.438590  0.438590  1
  Ta  Ta8  1  0.192500  0.192500  0.807500  1
  Ta  Ta9  1  0.807500  0.192500  0.192500  1
  Ta  Ta10  1  0.807500  0.192500  0.807500  1
  Ta  Ta11  1  0.061410  0.061410  0.438590  1
  Zn  Zn12  1  0.834275  0.497178  0.834275  1
  Zn  Zn13  1  0.416699  0.416699  0.749901  1
  Zn  Zn14  1  0.749901  0.416699  0.416699  1
  Zn  Zn15  1  0.416699  0.416699  0.416699  1
  Zn  Zn16  1  0.834275  0.834275  0.497178  1
  Zn  Zn17  1  0.416699  0.749901  0.416699  1
  Zn  Zn18  1  0.834275  0.834275  0.834275  1
  Zn  Zn19  1  0.497178  0.834275  0.834275  1
  Zn  Zn20  1  0.625154  0.124537  0.625154  1
  Zn  Zn21  1  0.625154  0.625154  0.124537  1
  Zn  Zn22  1  0.124537  0.625154  0.625154  1
  Zn  Zn23  1  0.625154  0.625154  0.625154  1
  B  B24  1  0.000000  0.000000  0.000000  1
  N  N25  1  0.250000  0.250000  0.250000  1
