# generated using pymatgen
data_Tm3Sc5Re3B24Ru
_symmetry_space_group_name_H-M   'P 1'
_cell_length_a   3.54911700
_cell_length_b   8.95634130
_cell_length_c   11.30322667
_cell_angle_alpha   90.05426566
_cell_angle_beta   90.00000000
_cell_angle_gamma   90.00000000
_symmetry_Int_Tables_number   1
_chemical_formula_structural   Tm3Sc5Re3B24Ru
_chemical_formula_sum   'Tm3 Sc5 Re3 B24 Ru1'
_cell_volume   359.29667128
_cell_formula_units_Z   1
loop_
 _symmetry_equiv_pos_site_id
 _symmetry_equiv_pos_as_xyz
  1  'x, y, z'
loop_
 _atom_site_type_symbol
 _atom_site_label
 _atom_site_symmetry_multiplicity
 _atom_site_fract_x
 _atom_site_fract_y
 _atom_site_fract_z
 _atom_site_occupancy
  Tm  Tm0  1  0.000000  0.320686  0.414521  1
  Tm  Tm1  1  0.000000  0.678982  0.587303  1
  Tm  Tm2  1  0.000000  0.822419  0.084213  1
  Sc  Sc3  1  0.000000  0.177414  0.912819  1
  Sc  Sc4  1  0.000000  0.944239  0.370429  1
  Sc  Sc5  1  0.000000  0.055601  0.629620  1
  Sc  Sc6  1  0.000000  0.443297  0.127908  1
  Sc  Sc7  1  0.000000  0.555324  0.871710  1
  Re  Re8  1  0.000000  0.359102  0.682329  1
  Re  Re9  1  0.000000  0.140412  0.179633  1
  Re  Re10  1  0.000000  0.861668  0.819776  1
  B  B11  1  0.500000  0.554746  0.433224  1
  B  B12  1  0.500000  0.445964  0.566776  1
  B  B13  1  0.500000  0.054505  0.065048  1
  B  B14  1  0.500000  0.947250  0.933578  1
  B  B15  1  0.500000  0.753283  0.418783  1
  B  B16  1  0.500000  0.245279  0.581374  1
  B  B17  1  0.500000  0.253597  0.078530  1
  B  B18  1  0.500000  0.746362  0.919397  1
  B  B19  1  0.500000  0.794199  0.264450  1
  B  B20  1  0.500000  0.204394  0.737195  1
  B  B21  1  0.500000  0.295595  0.234938  1
  B  B22  1  0.500000  0.705164  0.765038  1
  B  B23  1  0.500000  0.629475  0.182776  1
  B  B24  1  0.500000  0.369571  0.818620  1
  B  B25  1  0.500000  0.129746  0.317063  1
  B  B26  1  0.500000  0.871046  0.682990  1
  B  B27  1  0.500000  0.980623  0.212729  1
  B  B28  1  0.500000  0.020413  0.787631  1
  B  B29  1  0.500000  0.481722  0.286480  1
  B  B30  1  0.500000  0.519103  0.714330  1
  B  B31  1  0.500000  0.597391  0.027029  1
  B  B32  1  0.500000  0.401842  0.973339  1
  B  B33  1  0.500000  0.096708  0.473452  1
  B  B34  1  0.500000  0.902609  0.526348  1
  Ru  Ru35  1  0.000000  0.640267  0.318624  1
