# generated using pymatgen
data_CeNdCo3Ge5
_symmetry_space_group_name_H-M   'P 1'
_cell_length_a   8.20233264
_cell_length_b   8.22728996
_cell_length_c   8.22728972
_cell_angle_alpha   138.16729414
_cell_angle_beta   106.63219763
_cell_angle_gamma   88.24953322
_symmetry_Int_Tables_number   1
_chemical_formula_structural   CeNdCo3Ge5
_chemical_formula_sum   'Ce2 Nd2 Co6 Ge10'
_cell_volume   339.99175499
_cell_formula_units_Z   2
loop_
 _symmetry_equiv_pos_site_id
 _symmetry_equiv_pos_as_xyz
  1  'x, y, z'
loop_
 _atom_site_type_symbol
 _atom_site_label
 _atom_site_symmetry_multiplicity
 _atom_site_fract_x
 _atom_site_fract_y
 _atom_site_fract_z
 _atom_site_occupancy
  Ce  Ce0  1  0.629118  0.865505  0.763612  1
  Ce  Ce1  1  0.370882  0.134495  0.236388  1
  Nd  Nd2  1  0.101377  0.365681  0.735694  1
  Nd  Nd3  1  0.898623  0.634319  0.264306  1
  Co  Co4  1  0.248421  0.638463  0.609958  1
  Co  Co5  1  0.751579  0.361537  0.390042  1
  Co  Co6  1  0.028643  0.136227  0.892417  1
  Co  Co7  1  0.971357  0.863773  0.107583  1
  Co  Co8  1  0.500000  0.751557  0.251557  1
  Co  Co9  1  0.500000  0.248443  0.748443  1
  Ge  Ge10  1  0.268873  0.019566  0.752219  1
  Ge  Ge11  1  0.731127  0.980434  0.247781  1
  Ge  Ge12  1  0.731127  0.483347  0.750694  1
  Ge  Ge13  1  0.268873  0.516653  0.249306  1
  Ge  Ge14  1  0.439624  0.597533  0.842090  1
  Ge  Ge15  1  0.560376  0.402467  0.157910  1
  Ge  Ge16  1  0.756200  0.096954  0.659246  1
  Ge  Ge17  1  0.243800  0.903046  0.340754  1
  Ge  Ge18  1  0.000000  0.750412  0.750412  1
  Ge  Ge19  1  0.000000  0.249588  0.249588  1
