# generated using pymatgen
data_La2SmAlPd5
_symmetry_space_group_name_H-M   'P 1'
_cell_length_a   8.56936943
_cell_length_b   8.56936919
_cell_length_c   8.56936800
_cell_angle_alpha   128.12420838
_cell_angle_beta   126.02168097
_cell_angle_gamma   78.14359251
_symmetry_Int_Tables_number   1
_chemical_formula_structural   La2SmAlPd5
_chemical_formula_sum   'La4 Sm2 Al2 Pd10'
_cell_volume   387.90803337
_cell_formula_units_Z   2
loop_
 _symmetry_equiv_pos_site_id
 _symmetry_equiv_pos_as_xyz
  1  'x, y, z'
loop_
 _atom_site_type_symbol
 _atom_site_label
 _atom_site_symmetry_multiplicity
 _atom_site_fract_x
 _atom_site_fract_y
 _atom_site_fract_z
 _atom_site_occupancy
  La  La0  1  0.180733  0.951130  0.229604  1
  La  La1  1  0.372589  0.250000  0.122589  1
  La  La2  1  0.778476  0.548870  0.229604  1
  La  La3  1  0.626344  0.750000  0.876344  1
  Sm  Sm4  1  0.816816  0.049117  0.767699  1
  Sm  Sm5  1  0.218582  0.450883  0.767699  1
  Al  Al6  1  0.221447  0.750000  0.471447  1
  Al  Al7  1  0.781541  0.250000  0.531541  1
  Pd  Pd8  1  0.832840  0.602890  0.642646  1
  Pd  Pd9  1  0.539757  0.309806  0.642646  1
  Pd  Pd10  1  0.459751  0.102203  0.769546  1
  Pd  Pd11  1  0.832840  0.190194  0.229950  1
  Pd  Pd12  1  0.167343  0.397797  0.357548  1
  Pd  Pd13  1  0.459751  0.690205  0.357548  1
  Pd  Pd14  1  0.539757  0.897110  0.229950  1
  Pd  Pd15  1  0.167343  0.809795  0.769546  1
  Pd  Pd16  1  0.002046  0.002488  0.504533  1
  Pd  Pd17  1  0.002046  0.497512  0.999559  1
