# generated using pymatgen
data_Hf3Ti(MnV)4
_symmetry_space_group_name_H-M   'P 1'
_cell_length_a   8.76971157
_cell_length_b   8.76971168
_cell_length_c   8.65342056
_cell_angle_alpha   33.21812049
_cell_angle_beta   33.21811768
_cell_angle_gamma   32.97067603
_symmetry_Int_Tables_number   1
_chemical_formula_structural   Hf3Ti(MnV)4
_chemical_formula_sum   'Hf3 Ti1 Mn4 V4'
_cell_volume   176.99502804
_cell_formula_units_Z   1
loop_
 _symmetry_equiv_pos_site_id
 _symmetry_equiv_pos_as_xyz
  1  'x, y, z'
loop_
 _atom_site_type_symbol
 _atom_site_label
 _atom_site_symmetry_multiplicity
 _atom_site_fract_x
 _atom_site_fract_y
 _atom_site_fract_z
 _atom_site_occupancy
  Hf  Hf0  1  0.626162  0.626162  0.620919  1
  Hf  Hf1  1  0.000299  0.000299  0.005039  1
  Hf  Hf2  1  0.497191  0.497191  0.503556  1
  Ti  Ti3  1  0.125943  0.125943  0.122370  1
  Mn  Mn4  1  0.561986  0.064285  0.563388  1
  Mn  Mn5  1  0.061990  0.561319  0.061932  1
  Mn  Mn6  1  0.064285  0.561986  0.563388  1
  Mn  Mn7  1  0.561319  0.061990  0.061932  1
  V  V8  1  0.812208  0.812208  0.811837  1
  V  V9  1  0.312770  0.312770  0.312409  1
  V  V10  1  0.563617  0.563617  0.062951  1
  V  V11  1  0.062229  0.062229  0.560277  1
