# generated using pymatgen
data_NdTh3(FeB10)2
_symmetry_space_group_name_H-M   'P 1'
_cell_length_a   4.17896400
_cell_length_b   5.63134881
_cell_length_c   11.23216662
_cell_angle_alpha   90.09186754
_cell_angle_beta   90.00000000
_cell_angle_gamma   90.00000000
_symmetry_Int_Tables_number   1
_chemical_formula_structural   NdTh3(FeB10)2
_chemical_formula_sum   'Nd1 Th3 Fe2 B20'
_cell_volume   264.32852781
_cell_formula_units_Z   1
loop_
 _symmetry_equiv_pos_site_id
 _symmetry_equiv_pos_as_xyz
  1  'x, y, z'
loop_
 _atom_site_type_symbol
 _atom_site_label
 _atom_site_symmetry_multiplicity
 _atom_site_fract_x
 _atom_site_fract_y
 _atom_site_fract_z
 _atom_site_occupancy
  Nd  Nd0  1  0.500000  0.291323  0.868267  1
  Th  Th1  1  0.500000  0.711235  0.129741  1
  Th  Th2  1  0.500000  0.790821  0.631686  1
  Th  Th3  1  0.500000  0.209834  0.368932  1
  Fe  Fe4  1  0.000000  0.499582  0.499781  1
  Fe  Fe5  1  0.000000  0.997272  0.001193  1
  B  B6  1  0.000000  0.126833  0.539899  1
  B  B7  1  0.000000  0.872997  0.460203  1
  B  B8  1  0.000000  0.626519  0.959865  1
  B  B9  1  0.000000  0.372121  0.040015  1
  B  B10  1  0.000000  0.148356  0.697047  1
  B  B11  1  0.000000  0.851733  0.303022  1
  B  B12  1  0.299053  0.204361  0.113642  1
  B  B13  1  0.298637  0.794328  0.886756  1
  B  B14  1  0.700521  0.705141  0.386495  1
  B  B15  1  0.700944  0.294748  0.613517  1
  B  B16  1  0.701363  0.794328  0.886756  1
  B  B17  1  0.700947  0.204361  0.113642  1
  B  B18  1  0.299056  0.294748  0.613517  1
  B  B19  1  0.299479  0.705141  0.386495  1
  B  B20  1  0.000000  0.039836  0.188062  1
  B  B21  1  0.000000  0.961254  0.812978  1
  B  B22  1  0.000000  0.539977  0.312119  1
  B  B23  1  0.000000  0.461086  0.687017  1
  B  B24  1  0.000000  0.351897  0.196826  1
  B  B25  1  0.000000  0.650170  0.802526  1
