# generated using pymatgen
data_Sm3MnVC6
_symmetry_space_group_name_H-M   'P 1'
_cell_length_a   8.25781100
_cell_length_b   8.25781066
_cell_length_c   5.09019200
_cell_angle_alpha   90.00000000
_cell_angle_beta   90.00000000
_cell_angle_gamma   119.99999736
_symmetry_Int_Tables_number   1
_chemical_formula_structural   Sm3MnVC6
_chemical_formula_sum   'Sm6 Mn2 V2 C12'
_cell_volume   300.60393884
_cell_formula_units_Z   2
loop_
 _symmetry_equiv_pos_site_id
 _symmetry_equiv_pos_as_xyz
  1  'x, y, z'
loop_
 _atom_site_type_symbol
 _atom_site_label
 _atom_site_symmetry_multiplicity
 _atom_site_fract_x
 _atom_site_fract_y
 _atom_site_fract_z
 _atom_site_occupancy
  Sm  Sm0  1  0.618186  0.681870  0.750000  1
  Sm  Sm1  1  0.936316  0.618186  0.250000  1
  Sm  Sm2  1  0.681870  0.063684  0.250000  1
  Sm  Sm3  1  0.318130  0.936316  0.750000  1
  Sm  Sm4  1  0.063684  0.381814  0.750000  1
  Sm  Sm5  1  0.381814  0.318130  0.250000  1
  Mn  Mn6  1  0.666667  0.333333  0.750000  1
  Mn  Mn7  1  0.333333  0.666667  0.250000  1
  V  V8  1  0.000000  0.000000  0.500000  1
  V  V9  1  0.000000  0.000000  0.000000  1
  C  C10  1  0.958473  0.765739  0.750000  1
  C  C11  1  0.192735  0.958473  0.250000  1
  C  C12  1  0.765739  0.807265  0.250000  1
  C  C13  1  0.234261  0.192735  0.750000  1
  C  C14  1  0.807265  0.041527  0.750000  1
  C  C15  1  0.041527  0.234261  0.250000  1
  C  C16  1  0.861034  0.573542  0.750000  1
  C  C17  1  0.287492  0.861034  0.250000  1
  C  C18  1  0.573542  0.712508  0.250000  1
  C  C19  1  0.426458  0.287492  0.750000  1
  C  C20  1  0.138966  0.426458  0.250000  1
  C  C21  1  0.712508  0.138966  0.750000  1
