# generated using pymatgen
data_Ho4B16Ir3Rh
_symmetry_space_group_name_H-M   'P 1'
_cell_length_a   3.56598900
_cell_length_b   5.96218119
_cell_length_c   11.56222036
_cell_angle_alpha   89.97123832
_cell_angle_beta   90.00000000
_cell_angle_gamma   90.00000000
_symmetry_Int_Tables_number   1
_chemical_formula_structural   Ho4B16Ir3Rh
_chemical_formula_sum   'Ho4 B16 Ir3 Rh1'
_cell_volume   245.82517482
_cell_formula_units_Z   1
loop_
 _symmetry_equiv_pos_site_id
 _symmetry_equiv_pos_as_xyz
  1  'x, y, z'
loop_
 _atom_site_type_symbol
 _atom_site_label
 _atom_site_symmetry_multiplicity
 _atom_site_fract_x
 _atom_site_fract_y
 _atom_site_fract_z
 _atom_site_occupancy
  Ho  Ho0  1  0.500000  0.369265  0.148156  1
  Ho  Ho1  1  0.500000  0.630698  0.852140  1
  Ho  Ho2  1  0.500000  0.130863  0.648689  1
  Ho  Ho3  1  0.500000  0.869012  0.350727  1
  B  B4  1  0.000000  0.112616  0.046367  1
  B  B5  1  0.000000  0.887443  0.953087  1
  B  B6  1  0.000000  0.387497  0.546681  1
  B  B7  1  0.000000  0.612514  0.453248  1
  B  B8  1  0.000000  0.136167  0.469688  1
  B  B9  1  0.000000  0.863908  0.530091  1
  B  B10  1  0.000000  0.363964  0.969893  1
  B  B11  1  0.000000  0.636294  0.030112  1
  B  B12  1  0.000000  0.023658  0.192804  1
  B  B13  1  0.000000  0.976484  0.807109  1
  B  B14  1  0.000000  0.474893  0.692554  1
  B  B15  1  0.000000  0.525690  0.307199  1
  B  B16  1  0.000000  0.209172  0.311985  1
  B  B17  1  0.000000  0.790925  0.687972  1
  B  B18  1  0.000000  0.289756  0.812201  1
  B  B19  1  0.000000  0.710445  0.187772  1
  Ir  Ir20  1  0.500000  0.356392  0.403817  1
  Ir  Ir21  1  0.500000  0.644057  0.596879  1
  Ir  Ir22  1  0.500000  0.141217  0.904410  1
  Rh  Rh23  1  0.500000  0.857070  0.096419  1
