# generated using pymatgen
data_Tb5Zr5(In2Pt)4
_symmetry_space_group_name_H-M   'P 1'
_cell_length_a   3.60147600
_cell_length_b   7.88729030
_cell_length_c   17.76523988
_cell_angle_alpha   89.84299097
_cell_angle_beta   90.00000000
_cell_angle_gamma   90.00000000
_symmetry_Int_Tables_number   1
_chemical_formula_structural   Tb5Zr5(In2Pt)4
_chemical_formula_sum   'Tb5 Zr5 In8 Pt4'
_cell_volume   504.63549697
_cell_formula_units_Z   1
loop_
 _symmetry_equiv_pos_site_id
 _symmetry_equiv_pos_as_xyz
  1  'x, y, z'
loop_
 _atom_site_type_symbol
 _atom_site_label
 _atom_site_symmetry_multiplicity
 _atom_site_fract_x
 _atom_site_fract_y
 _atom_site_fract_z
 _atom_site_occupancy
  Tb  Tb0  1  0.000000  0.239388  0.213983  1
  Tb  Tb1  1  0.000000  0.760612  0.786017  1
  Tb  Tb2  1  0.000000  0.259951  0.717705  1
  Tb  Tb3  1  0.000000  0.740049  0.282295  1
  Tb  Tb4  1  0.000000  0.500000  0.500000  1
  Zr  Zr5  1  0.000000  0.120098  0.416999  1
  Zr  Zr6  1  0.000000  0.879902  0.583001  1
  Zr  Zr7  1  0.000000  0.378017  0.920580  1
  Zr  Zr8  1  0.000000  0.621983  0.079420  1
  Zr  Zr9  1  0.000000  0.000000  0.000000  1
  In  In10  1  0.500000  0.415775  0.348861  1
  In  In11  1  0.500000  0.584225  0.651139  1
  In  In12  1  0.500000  0.083097  0.855258  1
  In  In13  1  0.500000  0.916903  0.144742  1
  In  In14  1  0.500000  0.295273  0.058311  1
  In  In15  1  0.500000  0.704727  0.941689  1
  In  In16  1  0.500000  0.194081  0.559387  1
  In  In17  1  0.500000  0.805919  0.440613  1
  Pt  Pt18  1  0.500000  0.032994  0.306578  1
  Pt  Pt19  1  0.500000  0.967006  0.693422  1
  Pt  Pt20  1  0.500000  0.466417  0.810738  1
  Pt  Pt21  1  0.500000  0.533583  0.189262  1
