# generated using pymatgen
data_Tb2Nd14Cd4Co3Ni
_symmetry_space_group_name_H-M   'P 1'
_cell_length_a   9.79448513
_cell_length_b   9.80739008
_cell_length_c   9.79200636
_cell_angle_alpha   59.99834702
_cell_angle_beta   60.10305189
_cell_angle_gamma   60.02162449
_symmetry_Int_Tables_number   1
_chemical_formula_structural   Tb2Nd14Cd4Co3Ni
_chemical_formula_sum   'Tb2 Nd14 Cd4 Co3 Ni1'
_cell_volume   665.72435170
_cell_formula_units_Z   1
loop_
 _symmetry_equiv_pos_site_id
 _symmetry_equiv_pos_as_xyz
  1  'x, y, z'
loop_
 _atom_site_type_symbol
 _atom_site_label
 _atom_site_symmetry_multiplicity
 _atom_site_fract_x
 _atom_site_fract_y
 _atom_site_fract_z
 _atom_site_occupancy
  Tb  Tb0  1  0.189093  0.190593  0.811702  1
  Tb  Tb1  1  0.060044  0.437921  0.058507  1
  Nd  Nd2  1  0.436289  0.439423  0.056522  1
  Nd  Nd3  1  0.595432  0.595348  0.596162  1
  Nd  Nd4  1  0.188905  0.813675  0.812700  1
  Nd  Nd5  1  0.060308  0.062154  0.435054  1
  Nd  Nd6  1  0.434659  0.062539  0.058919  1
  Nd  Nd7  1  0.814653  0.189370  0.812333  1
  Nd  Nd8  1  0.438685  0.056299  0.440339  1
  Nd  Nd9  1  0.598601  0.207387  0.600183  1
  Nd  Nd10  1  0.812788  0.811833  0.188776  1
  Nd  Nd11  1  0.207420  0.597322  0.602549  1
  Nd  Nd12  1  0.812912  0.189570  0.187113  1
  Nd  Nd13  1  0.056436  0.439391  0.437771  1
  Nd  Nd14  1  0.189587  0.811403  0.188362  1
  Nd  Nd15  1  0.601633  0.597829  0.208104  1
  Cd  Cd16  1  0.829638  0.829130  0.511262  1
  Cd  Cd17  1  0.830348  0.828090  0.830309  1
  Cd  Cd18  1  0.509068  0.831663  0.829751  1
  Cd  Cd19  1  0.832813  0.508976  0.830196  1
  Co  Co20  1  0.828958  0.391630  0.389489  1
  Co  Co21  1  0.391899  0.827079  0.391790  1
  Co  Co22  1  0.388530  0.390465  0.828335  1
  Ni  Ni23  1  0.391303  0.390910  0.393773  1
