# generated using pymatgen
data_La2B10Os
_symmetry_space_group_name_H-M   'P 1'
_cell_length_a   4.25474900
_cell_length_b   5.80788300
_cell_length_c   11.55724000
_cell_angle_alpha   90.00000000
_cell_angle_beta   90.00000000
_cell_angle_gamma   90.00000000
_symmetry_Int_Tables_number   1
_chemical_formula_structural   La2B10Os
_chemical_formula_sum   'La4 B20 Os2'
_cell_volume   285.59193291
_cell_formula_units_Z   2
loop_
 _symmetry_equiv_pos_site_id
 _symmetry_equiv_pos_as_xyz
  1  'x, y, z'
loop_
 _atom_site_type_symbol
 _atom_site_label
 _atom_site_symmetry_multiplicity
 _atom_site_fract_x
 _atom_site_fract_y
 _atom_site_fract_z
 _atom_site_occupancy
  La  La0  1  0.500000  0.279972  0.868450  1
  La  La1  1  0.500000  0.720028  0.131550  1
  La  La2  1  0.500000  0.779972  0.631550  1
  La  La3  1  0.500000  0.220028  0.368450  1
  B  B4  1  0.000000  0.120273  0.542394  1
  B  B5  1  0.000000  0.879727  0.457606  1
  B  B6  1  0.000000  0.620273  0.957606  1
  B  B7  1  0.000000  0.379727  0.042394  1
  B  B8  1  0.000000  0.135341  0.696940  1
  B  B9  1  0.000000  0.864659  0.303060  1
  B  B10  1  0.298439  0.221207  0.117895  1
  B  B11  1  0.298439  0.778793  0.882105  1
  B  B12  1  0.701561  0.721207  0.382105  1
  B  B13  1  0.701561  0.278793  0.617895  1
  B  B14  1  0.701561  0.778793  0.882105  1
  B  B15  1  0.701561  0.221207  0.117895  1
  B  B16  1  0.298439  0.278793  0.617895  1
  B  B17  1  0.298439  0.721207  0.382105  1
  B  B18  1  0.000000  0.058623  0.192281  1
  B  B19  1  0.000000  0.941377  0.807719  1
  B  B20  1  0.000000  0.558623  0.307719  1
  B  B21  1  0.000000  0.441377  0.692281  1
  B  B22  1  0.000000  0.364659  0.196940  1
  B  B23  1  0.000000  0.635341  0.803060  1
  Os  Os24  1  0.000000  0.500000  0.500000  1
  Os  Os25  1  0.000000  0.000000  0.000000  1
