# generated using pymatgen
data_MgZr(NiSb)2
_symmetry_space_group_name_H-M   'P 1'
_cell_length_a   6.12740107
_cell_length_b   6.12798778
_cell_length_c   7.51479890
_cell_angle_alpha   65.85579749
_cell_angle_beta   65.99687271
_cell_angle_gamma   89.98739089
_symmetry_Int_Tables_number   1
_chemical_formula_structural   MgZr(NiSb)2
_chemical_formula_sum   'Mg2 Zr2 Ni4 Sb4'
_cell_volume   230.49867308
_cell_formula_units_Z   2
loop_
 _symmetry_equiv_pos_site_id
 _symmetry_equiv_pos_as_xyz
  1  'x, y, z'
loop_
 _atom_site_type_symbol
 _atom_site_label
 _atom_site_symmetry_multiplicity
 _atom_site_fract_x
 _atom_site_fract_y
 _atom_site_fract_z
 _atom_site_occupancy
  Mg  Mg0  1  0.000082  0.999929  0.000020  1
  Mg  Mg1  1  0.250094  0.749966  0.499993  1
  Zr  Zr2  1  0.500070  0.499915  0.000029  1
  Zr  Zr3  1  0.750068  0.249957  0.499981  1
  Ni  Ni4  1  0.624979  0.614487  0.250041  1
  Ni  Ni5  1  0.125009  0.135532  0.250011  1
  Ni  Ni6  1  0.864405  0.374952  0.750050  1
  Ni  Ni7  1  0.385597  0.875002  0.749996  1
  Sb  Sb8  1  0.495728  0.995839  0.008449  1
  Sb  Sb9  1  0.754087  0.754288  0.491492  1
  Sb  Sb10  1  0.245747  0.245874  0.508455  1
  Sb  Sb11  1  0.004138  0.504259  0.991481  1
