# generated using pymatgen
data_HfHg5F18
_symmetry_space_group_name_H-M   'P 1'
_cell_length_a   8.17094885
_cell_length_b   8.32258814
_cell_length_c   8.45782700
_cell_angle_alpha   90.16753828
_cell_angle_beta   89.68199814
_cell_angle_gamma   119.14557831
_symmetry_Int_Tables_number   1
_chemical_formula_structural   HfHg5F18
_chemical_formula_sum   'Hf1 Hg5 F18'
_cell_volume   502.32958135
_cell_formula_units_Z   1
loop_
 _symmetry_equiv_pos_site_id
 _symmetry_equiv_pos_as_xyz
  1  'x, y, z'
loop_
 _atom_site_type_symbol
 _atom_site_label
 _atom_site_symmetry_multiplicity
 _atom_site_fract_x
 _atom_site_fract_y
 _atom_site_fract_z
 _atom_site_occupancy
  Hf  Hf0  1  0.500000  0.500000  0.000000  1
  Hg  Hg1  1  0.000000  0.500000  0.500000  1
  Hg  Hg2  1  0.000000  0.500000  0.000000  1
  Hg  Hg3  1  0.500000  0.000000  0.500000  1
  Hg  Hg4  1  0.500000  0.000000  0.000000  1
  Hg  Hg5  1  0.500000  0.500000  0.500000  1
  F  F6  1  0.767794  0.574307  0.053932  1
  F  F7  1  0.232206  0.425693  0.946068  1
  F  F8  1  0.217231  0.420396  0.538986  1
  F  F9  1  0.782769  0.579604  0.461014  1
  F  F10  1  0.579912  0.761704  0.945794  1
  F  F11  1  0.420088  0.238296  0.054206  1
  F  F12  1  0.428443  0.225120  0.463460  1
  F  F13  1  0.571557  0.774880  0.536540  1
  F  F14  1  0.773688  0.209690  0.543788  1
  F  F15  1  0.226312  0.790310  0.456212  1
  F  F16  1  0.228714  0.789373  0.048632  1
  F  F17  1  0.771286  0.210627  0.951368  1
  F  F18  1  0.991959  0.434755  0.246059  1
  F  F19  1  0.008041  0.565245  0.753941  1
  F  F20  1  0.428923  0.987782  0.764247  1
  F  F21  1  0.571077  0.012218  0.235753  1
  F  F22  1  0.543874  0.452624  0.775537  1
  F  F23  1  0.456126  0.547376  0.224463  1
