# generated using pymatgen
data_La2Ga10Rh
_symmetry_space_group_name_H-M   'P 1'
_cell_length_a   4.41676887
_cell_length_b   4.41676987
_cell_length_c   13.68387898
_cell_angle_alpha   99.28733921
_cell_angle_beta   99.28733986
_cell_angle_gamma   90.00000882
_symmetry_Int_Tables_number   1
_chemical_formula_structural   La2Ga10Rh
_chemical_formula_sum   'La2 Ga10 Rh1'
_cell_volume   259.89747170
_cell_formula_units_Z   1
loop_
 _symmetry_equiv_pos_site_id
 _symmetry_equiv_pos_as_xyz
  1  'x, y, z'
loop_
 _atom_site_type_symbol
 _atom_site_label
 _atom_site_symmetry_multiplicity
 _atom_site_fract_x
 _atom_site_fract_y
 _atom_site_fract_z
 _atom_site_occupancy
  La  La0  1  0.644666  0.644666  0.289334  1
  La  La1  1  0.355334  0.355334  0.710666  1
  Ga  Ga2  1  0.549917  0.049917  0.099833  1
  Ga  Ga3  1  0.049917  0.549917  0.099833  1
  Ga  Ga4  1  0.106124  0.106124  0.212250  1
  Ga  Ga5  1  0.197631  0.197631  0.395261  1
  Ga  Ga6  1  0.750000  0.250000  0.500000  1
  Ga  Ga7  1  0.250000  0.750000  0.500000  1
  Ga  Ga8  1  0.802369  0.802369  0.604739  1
  Ga  Ga9  1  0.893876  0.893876  0.787749  1
  Ga  Ga10  1  0.950083  0.450083  0.900166  1
  Ga  Ga11  1  0.450083  0.950083  0.900166  1
  Rh  Rh12  1  0.500000  0.500000  0.000000  1
