# generated using pymatgen
data_Dy3Y3(Al3Os)8
_symmetry_space_group_name_H-M   'P 1'
_cell_length_a   8.83144053
_cell_length_b   8.83365727
_cell_length_c   9.57981800
_cell_angle_alpha   90.00000000
_cell_angle_beta   90.00000000
_cell_angle_gamma   119.95679939
_symmetry_Int_Tables_number   1
_chemical_formula_structural   Dy3Y3(Al3Os)8
_chemical_formula_sum   'Dy3 Y3 Al24 Os8'
_cell_volume   647.51357195
_cell_formula_units_Z   1
loop_
 _symmetry_equiv_pos_site_id
 _symmetry_equiv_pos_as_xyz
  1  'x, y, z'
loop_
 _atom_site_type_symbol
 _atom_site_label
 _atom_site_symmetry_multiplicity
 _atom_site_fract_x
 _atom_site_fract_y
 _atom_site_fract_z
 _atom_site_occupancy
  Dy  Dy0  1  0.386912  0.193638  0.750000  1
  Dy  Dy1  1  0.192420  0.808107  0.250000  1
  Dy  Dy2  1  0.806958  0.193908  0.750000  1
  Y  Y3  1  0.193109  0.385013  0.250000  1
  Y  Y4  1  0.806815  0.611877  0.750000  1
  Y  Y5  1  0.614001  0.807320  0.250000  1
  Al  Al6  1  0.332962  0.666672  0.014819  1
  Al  Al7  1  0.666336  0.332928  0.981650  1
  Al  Al8  1  0.666336  0.332928  0.518350  1
  Al  Al9  1  0.332962  0.666672  0.485181  1
  Al  Al10  1  0.162675  0.325378  0.575778  1
  Al  Al11  1  0.836981  0.674239  0.424731  1
  Al  Al12  1  0.674519  0.837083  0.575604  1
  Al  Al13  1  0.836981  0.674239  0.075269  1
  Al  Al14  1  0.325675  0.162756  0.424697  1
  Al  Al15  1  0.162675  0.325378  0.924222  1
  Al  Al16  1  0.162962  0.837506  0.575874  1
  Al  Al17  1  0.325675  0.162756  0.075303  1
  Al  Al18  1  0.837155  0.163196  0.424748  1
  Al  Al19  1  0.674519  0.837083  0.924396  1
  Al  Al20  1  0.837155  0.163196  0.075252  1
  Al  Al21  1  0.162962  0.837506  0.924126  1
  Al  Al22  1  0.560552  0.121397  0.250000  1
  Al  Al23  1  0.440268  0.879666  0.750000  1
  Al  Al24  1  0.879823  0.440150  0.250000  1
  Al  Al25  1  0.122134  0.560713  0.750000  1
  Al  Al26  1  0.561032  0.439544  0.250000  1
  Al  Al27  1  0.439924  0.560524  0.750000  1
  Al  Al28  1  0.998921  0.999802  0.250000  1
  Al  Al29  1  0.999645  0.999208  0.750000  1
  Os  Os30  1  0.499672  0.999251  0.000660  1
  Os  Os31  1  0.000363  0.500370  0.000113  1
  Os  Os32  1  0.499672  0.999251  0.499340  1
  Os  Os33  1  0.499387  0.500089  0.000614  1
  Os  Os34  1  0.000363  0.500370  0.499887  1
  Os  Os35  1  0.499387  0.500089  0.499386  1
  Os  Os36  1  0.000056  0.000096  0.000465  1
  Os  Os37  1  0.000056  0.000096  0.499535  1
