# generated using pymatgen
data_Nd5Er8Th3(CdIr)4
_symmetry_space_group_name_H-M   'P 1'
_cell_length_a   9.76692538
_cell_length_b   9.75908772
_cell_length_c   9.75908772
_cell_angle_alpha   60.01706877
_cell_angle_beta   60.07050524
_cell_angle_gamma   60.07050972
_symmetry_Int_Tables_number   1
_chemical_formula_structural   Nd5Er8Th3(CdIr)4
_chemical_formula_sum   'Nd5 Er8 Th3 Cd4 Ir4'
_cell_volume   658.53587751
_cell_formula_units_Z   1
loop_
 _symmetry_equiv_pos_site_id
 _symmetry_equiv_pos_as_xyz
  1  'x, y, z'
loop_
 _atom_site_type_symbol
 _atom_site_label
 _atom_site_symmetry_multiplicity
 _atom_site_fract_x
 _atom_site_fract_y
 _atom_site_fract_z
 _atom_site_occupancy
  Nd  Nd0  1  0.558820  0.940296  0.940296  1
  Nd  Nd1  1  0.565551  0.936540  0.562053  1
  Nd  Nd2  1  0.941734  0.558434  0.936885  1
  Nd  Nd3  1  0.565551  0.562053  0.936540  1
  Nd  Nd4  1  0.941734  0.936885  0.558434  1
  Er  Er5  1  0.949211  0.351034  0.351034  1
  Er  Er6  1  0.813713  0.187089  0.187089  1
  Er  Er7  1  0.184218  0.816472  0.816472  1
  Er  Er8  1  0.182985  0.814663  0.187495  1
  Er  Er9  1  0.814210  0.186551  0.812883  1
  Er  Er10  1  0.182985  0.187495  0.814663  1
  Er  Er11  1  0.814210  0.812883  0.186551  1
  Er  Er12  1  0.944451  0.557289  0.557289  1
  Th  Th13  1  0.346716  0.348690  0.348690  1
  Th  Th14  1  0.346396  0.351637  0.953571  1
  Th  Th15  1  0.346396  0.953571  0.351637  1
  Cd  Cd16  1  0.585592  0.577813  0.577813  1
  Cd  Cd17  1  0.581707  0.578983  0.260103  1
  Cd  Cd18  1  0.581707  0.260103  0.578983  1
  Cd  Cd19  1  0.256178  0.579092  0.579092  1
  Ir  Ir20  1  0.143160  0.142238  0.142238  1
  Ir  Ir21  1  0.140826  0.144407  0.572997  1
  Ir  Ir22  1  0.140826  0.572997  0.144407  1
  Ir  Ir23  1  0.571123  0.142782  0.142782  1
