# generated using pymatgen
data_Dy5Y5(TlBi)3
_symmetry_space_group_name_H-M   'P 1'
_cell_length_a   9.13697900
_cell_length_b   9.13815403
_cell_length_c   6.49607000
_cell_angle_alpha   90.00000000
_cell_angle_beta   90.00000000
_cell_angle_gamma   119.99574290
_symmetry_Int_Tables_number   1
_chemical_formula_structural   Dy5Y5(TlBi)3
_chemical_formula_sum   'Dy5 Y5 Tl3 Bi3'
_cell_volume   469.74380073
_cell_formula_units_Z   1
loop_
 _symmetry_equiv_pos_site_id
 _symmetry_equiv_pos_as_xyz
  1  'x, y, z'
loop_
 _atom_site_type_symbol
 _atom_site_label
 _atom_site_symmetry_multiplicity
 _atom_site_fract_x
 _atom_site_fract_y
 _atom_site_fract_z
 _atom_site_occupancy
  Dy  Dy0  1  0.333349  0.666691  0.995093  1
  Dy  Dy1  1  0.666660  0.333309  0.995093  1
  Dy  Dy2  1  0.761151  0.000000  0.750000  1
  Dy  Dy3  1  0.333349  0.666691  0.504907  1
  Dy  Dy4  1  0.666660  0.333309  0.504907  1
  Y  Y5  1  0.238969  0.238990  0.750000  1
  Y  Y6  1  0.238347  0.000000  0.250000  1
  Y  Y7  1  0.999980  0.761010  0.750000  1
  Y  Y8  1  0.761640  0.761774  0.250000  1
  Y  Y9  1  0.999866  0.238226  0.250000  1
  Tl  Tl10  1  0.999843  0.392604  0.750000  1
  Tl  Tl11  1  0.607239  0.607396  0.750000  1
  Tl  Tl12  1  0.392940  0.000000  0.750000  1
  Bi  Bi13  1  0.393383  0.393400  0.250000  1
  Bi  Bi14  1  0.606639  0.000000  0.250000  1
  Bi  Bi15  1  0.999983  0.606600  0.250000  1
