# generated using pymatgen
data_UCo4ReP3
_symmetry_space_group_name_H-M   'P 1'
_cell_length_a   3.71176200
_cell_length_b   10.36818500
_cell_length_c   11.83361500
_cell_angle_alpha   90.00000000
_cell_angle_beta   90.00000000
_cell_angle_gamma   90.00000000
_symmetry_Int_Tables_number   1
_chemical_formula_structural   UCo4ReP3
_chemical_formula_sum   'U4 Co16 Re4 P12'
_cell_volume   455.40762165
_cell_formula_units_Z   4
loop_
 _symmetry_equiv_pos_site_id
 _symmetry_equiv_pos_as_xyz
  1  'x, y, z'
loop_
 _atom_site_type_symbol
 _atom_site_label
 _atom_site_symmetry_multiplicity
 _atom_site_fract_x
 _atom_site_fract_y
 _atom_site_fract_z
 _atom_site_occupancy
  U  U0  1  0.250000  0.911781  0.207459  1
  U  U1  1  0.750000  0.088219  0.792541  1
  U  U2  1  0.750000  0.411781  0.292541  1
  U  U3  1  0.250000  0.588219  0.707459  1
  Co  Co4  1  0.250000  0.091326  0.987048  1
  Co  Co5  1  0.750000  0.908674  0.012952  1
  Co  Co6  1  0.750000  0.591326  0.512952  1
  Co  Co7  1  0.250000  0.408674  0.487048  1
  Co  Co8  1  0.250000  0.286147  0.671968  1
  Co  Co9  1  0.750000  0.713853  0.328032  1
  Co  Co10  1  0.750000  0.786147  0.828032  1
  Co  Co11  1  0.250000  0.213853  0.171968  1
  Co  Co12  1  0.250000  0.611371  0.203290  1
  Co  Co13  1  0.750000  0.388629  0.796710  1
  Co  Co14  1  0.750000  0.111371  0.296710  1
  Co  Co15  1  0.250000  0.888629  0.703290  1
  Co  Co16  1  0.250000  0.035583  0.431066  1
  Co  Co17  1  0.750000  0.964417  0.568934  1
  Co  Co18  1  0.750000  0.535583  0.068934  1
  Co  Co19  1  0.250000  0.464417  0.931066  1
  Re  Re20  1  0.250000  0.786369  0.490471  1
  Re  Re21  1  0.750000  0.213631  0.509529  1
  Re  Re22  1  0.750000  0.286369  0.009529  1
  Re  Re23  1  0.250000  0.713631  0.990471  1
  P  P24  1  0.250000  0.084153  0.612876  1
  P  P25  1  0.750000  0.915847  0.387124  1
  P  P26  1  0.750000  0.584153  0.887124  1
  P  P27  1  0.250000  0.415847  0.112876  1
  P  P28  1  0.250000  0.230078  0.362851  1
  P  P29  1  0.750000  0.769922  0.637149  1
  P  P30  1  0.750000  0.730078  0.137149  1
  P  P31  1  0.250000  0.269922  0.862851  1
  P  P32  1  0.250000  0.905374  0.890979  1
  P  P33  1  0.750000  0.094626  0.109021  1
  P  P34  1  0.750000  0.405374  0.609021  1
  P  P35  1  0.250000  0.594626  0.390979  1
