# generated using pymatgen
data_Li4TbPa3Pt4
_symmetry_space_group_name_H-M   'P 1'
_cell_length_a   3.86709900
_cell_length_b   7.24207702
_cell_length_c   8.49117272
_cell_angle_alpha   90.45771244
_cell_angle_beta   90.00000000
_cell_angle_gamma   90.00000000
_symmetry_Int_Tables_number   1
_chemical_formula_structural   Li4TbPa3Pt4
_chemical_formula_sum   'Li4 Tb1 Pa3 Pt4'
_cell_volume   237.79474161
_cell_formula_units_Z   1
loop_
 _symmetry_equiv_pos_site_id
 _symmetry_equiv_pos_as_xyz
  1  'x, y, z'
loop_
 _atom_site_type_symbol
 _atom_site_label
 _atom_site_symmetry_multiplicity
 _atom_site_fract_x
 _atom_site_fract_y
 _atom_site_fract_z
 _atom_site_occupancy
  Li  Li0  1  0.250000  0.123633  0.056496  1
  Li  Li1  1  0.250000  0.614466  0.441085  1
  Li  Li2  1  0.750000  0.885692  0.945240  1
  Li  Li3  1  0.750000  0.380241  0.555705  1
  Tb  Tb4  1  0.750000  0.441509  0.183311  1
  Pa  Pa5  1  0.250000  0.054854  0.687750  1
  Pa  Pa6  1  0.250000  0.556617  0.814316  1
  Pa  Pa7  1  0.750000  0.941116  0.313266  1
  Pt  Pt8  1  0.250000  0.215953  0.380494  1
  Pt  Pt9  1  0.250000  0.745613  0.128297  1
  Pt  Pt10  1  0.750000  0.769938  0.633241  1
  Pt  Pt11  1  0.750000  0.270370  0.860799  1
