# generated using pymatgen
data_Dy4Y2B14MoW
_symmetry_space_group_name_H-M   'P 1'
_cell_length_a   8.18770000
_cell_length_b   8.18770004
_cell_length_c   9.49230000
_cell_angle_alpha   90.00000000
_cell_angle_beta   90.00000000
_cell_angle_gamma   155.56428871
_symmetry_Int_Tables_number   1
_chemical_formula_structural   Dy4Y2B14MoW
_chemical_formula_sum   'Dy4 Y2 B14 Mo1 W1'
_cell_volume   263.23969868
_cell_formula_units_Z   1
loop_
 _symmetry_equiv_pos_site_id
 _symmetry_equiv_pos_as_xyz
  1  'x, y, z'
loop_
 _atom_site_type_symbol
 _atom_site_label
 _atom_site_symmetry_multiplicity
 _atom_site_fract_x
 _atom_site_fract_y
 _atom_site_fract_z
 _atom_site_occupancy
  Dy  Dy0  1  0.892969  0.107031  0.439168  1
  Dy  Dy1  1  0.107072  0.892928  0.559937  1
  Dy  Dy2  1  0.892969  0.107031  0.060832  1
  Dy  Dy3  1  0.107072  0.892928  0.940063  1
  Y  Y4  1  0.244601  0.755399  0.250000  1
  Y  Y5  1  0.754981  0.245019  0.750000  1
  B  B6  1  0.727424  0.272576  0.467330  1
  B  B7  1  0.272539  0.727461  0.532568  1
  B  B8  1  0.727424  0.272576  0.032670  1
  B  B9  1  0.272539  0.727461  0.967432  1
  B  B10  1  0.634902  0.365098  0.147262  1
  B  B11  1  0.365075  0.634925  0.852923  1
  B  B12  1  0.634902  0.365098  0.352738  1
  B  B13  1  0.365075  0.634925  0.647077  1
  B  B14  1  0.519811  0.480189  0.091895  1
  B  B15  1  0.480259  0.519741  0.908407  1
  B  B16  1  0.519811  0.480189  0.408105  1
  B  B17  1  0.480259  0.519741  0.591593  1
  B  B18  1  0.456060  0.543940  0.250000  1
  B  B19  1  0.544202  0.455798  0.750000  1
  Mo  Mo20  1  0.053311  0.946689  0.250000  1
  W  W21  1  0.946742  0.053258  0.750000  1
