# generated using pymatgen
data_Dy7HoRe(TcB8)3
_symmetry_space_group_name_H-M   'P 1'
_cell_length_a   3.68752700
_cell_length_b   9.16529426
_cell_length_c   11.54905700
_cell_angle_alpha   90.03051070
_cell_angle_beta   90.00000000
_cell_angle_gamma   90.00000000
_symmetry_Int_Tables_number   1
_chemical_formula_structural   Dy7HoRe(TcB8)3
_chemical_formula_sum   'Dy7 Ho1 Re1 Tc3 B24'
_cell_volume   390.32654297
_cell_formula_units_Z   1
loop_
 _symmetry_equiv_pos_site_id
 _symmetry_equiv_pos_as_xyz
  1  'x, y, z'
loop_
 _atom_site_type_symbol
 _atom_site_label
 _atom_site_symmetry_multiplicity
 _atom_site_fract_x
 _atom_site_fract_y
 _atom_site_fract_z
 _atom_site_occupancy
  Dy  Dy0  1  0.000000  0.323945  0.414239  1
  Dy  Dy1  1  0.000000  0.676447  0.585920  1
  Dy  Dy2  1  0.000000  0.823502  0.085851  1
  Dy  Dy3  1  0.000000  0.176636  0.914291  1
  Dy  Dy4  1  0.000000  0.942224  0.369068  1
  Dy  Dy5  1  0.000000  0.058382  0.630072  1
  Dy  Dy6  1  0.000000  0.442232  0.130733  1
  Ho  Ho7  1  0.000000  0.556768  0.869485  1
  Re  Re8  1  0.000000  0.861654  0.820628  1
  Tc  Tc9  1  0.000000  0.638201  0.320555  1
  Tc  Tc10  1  0.000000  0.362030  0.679542  1
  Tc  Tc11  1  0.000000  0.138317  0.179350  1
  B  B12  1  0.500000  0.553250  0.432918  1
  B  B13  1  0.500000  0.447126  0.567332  1
  B  B14  1  0.500000  0.053082  0.067182  1
  B  B15  1  0.500000  0.946731  0.933034  1
  B  B16  1  0.500000  0.748412  0.418307  1
  B  B17  1  0.500000  0.252011  0.581719  1
  B  B18  1  0.500000  0.248330  0.081641  1
  B  B19  1  0.500000  0.750753  0.918446  1
  B  B20  1  0.500000  0.791108  0.265072  1
  B  B21  1  0.500000  0.208990  0.734844  1
  B  B22  1  0.500000  0.291167  0.234911  1
  B  B23  1  0.500000  0.708174  0.765351  1
  B  B24  1  0.500000  0.630316  0.185640  1
  B  B25  1  0.500000  0.369740  0.814499  1
  B  B26  1  0.500000  0.130477  0.314335  1
  B  B27  1  0.500000  0.869656  0.685606  1
  B  B28  1  0.500000  0.981992  0.211472  1
  B  B29  1  0.500000  0.018182  0.788329  1
  B  B30  1  0.500000  0.481970  0.288490  1
  B  B31  1  0.500000  0.518166  0.711933  1
  B  B32  1  0.500000  0.599614  0.027663  1
  B  B33  1  0.500000  0.400101  0.971884  1
  B  B34  1  0.500000  0.100297  0.471719  1
  B  B35  1  0.500000  0.900015  0.527938  1
