# generated using pymatgen
data_La3Th(ZnIr)4
_symmetry_space_group_name_H-M   'P 1'
_cell_length_a   4.05221400
_cell_length_b   7.47240234
_cell_length_c   16.75701882
_cell_angle_alpha   89.95264257
_cell_angle_beta   90.00000000
_cell_angle_gamma   90.00000000
_symmetry_Int_Tables_number   1
_chemical_formula_structural   La3Th(ZnIr)4
_chemical_formula_sum   'La6 Th2 Zn8 Ir8'
_cell_volume   507.39855915
_cell_formula_units_Z   2
loop_
 _symmetry_equiv_pos_site_id
 _symmetry_equiv_pos_as_xyz
  1  'x, y, z'
loop_
 _atom_site_type_symbol
 _atom_site_label
 _atom_site_symmetry_multiplicity
 _atom_site_fract_x
 _atom_site_fract_y
 _atom_site_fract_z
 _atom_site_occupancy
  La  La0  1  0.250000  0.550171  0.783004  1
  La  La1  1  0.250000  0.672415  0.560506  1
  La  La2  1  0.750000  0.827202  0.059715  1
  La  La3  1  0.250000  0.170119  0.941327  1
  La  La4  1  0.750000  0.451074  0.216279  1
  La  La5  1  0.750000  0.947898  0.283396  1
  Th  Th6  1  0.750000  0.328988  0.440393  1
  Th  Th7  1  0.250000  0.051350  0.717193  1
  Zn  Zn8  1  0.250000  0.122710  0.149288  1
  Zn  Zn9  1  0.250000  0.992150  0.439644  1
  Zn  Zn10  1  0.750000  0.876413  0.851283  1
  Zn  Zn11  1  0.750000  0.001587  0.558773  1
  Zn  Zn12  1  0.250000  0.498364  0.059344  1
  Zn  Zn13  1  0.750000  0.373896  0.649565  1
  Zn  Zn14  1  0.750000  0.500437  0.939996  1
  Zn  Zn15  1  0.250000  0.619351  0.350160  1
  Ir  Ir16  1  0.750000  0.245726  0.806901  1
  Ir  Ir17  1  0.250000  0.252067  0.322493  1
  Ir  Ir18  1  0.250000  0.737843  0.933889  1
  Ir  Ir19  1  0.250000  0.244464  0.561452  1
  Ir  Ir20  1  0.250000  0.748026  0.186212  1
  Ir  Ir21  1  0.750000  0.749480  0.435188  1
  Ir  Ir22  1  0.750000  0.260476  0.065952  1
  Ir  Ir23  1  0.750000  0.777794  0.688049  1
