# generated using pymatgen
data_HoLuBePt6
_symmetry_space_group_name_H-M   'P 1'
_cell_length_a   5.93086769
_cell_length_b   5.93086760
_cell_length_c   5.93086700
_cell_angle_alpha   59.99999779
_cell_angle_beta   59.99999829
_cell_angle_gamma   59.99999836
_symmetry_Int_Tables_number   1
_chemical_formula_structural   HoLuBePt6
_chemical_formula_sum   'Ho1 Lu1 Be1 Pt6'
_cell_volume   147.51617200
_cell_formula_units_Z   1
loop_
 _symmetry_equiv_pos_site_id
 _symmetry_equiv_pos_as_xyz
  1  'x, y, z'
loop_
 _atom_site_type_symbol
 _atom_site_label
 _atom_site_symmetry_multiplicity
 _atom_site_fract_x
 _atom_site_fract_y
 _atom_site_fract_z
 _atom_site_occupancy
  Ho  Ho0  1  0.750000  0.750000  0.750000  1
  Lu  Lu1  1  0.250000  0.250000  0.250000  1
  Be  Be2  1  0.000000  0.000000  0.000000  1
  Pt  Pt3  1  0.739181  0.260820  0.260820  1
  Pt  Pt4  1  0.260820  0.739181  0.260820  1
  Pt  Pt5  1  0.739180  0.739180  0.260821  1
  Pt  Pt6  1  0.739180  0.260821  0.739180  1
  Pt  Pt7  1  0.260820  0.260820  0.739181  1
  Pt  Pt8  1  0.260821  0.739180  0.739180  1
