# generated using pymatgen
data_Pr18Ho2Si15Se
_symmetry_space_group_name_H-M   'P 1'
_cell_length_a   7.91834720
_cell_length_b   7.86981864
_cell_length_c   15.31701800
_cell_angle_alpha   89.57651452
_cell_angle_beta   89.22348531
_cell_angle_gamma   90.23008981
_symmetry_Int_Tables_number   1
_chemical_formula_structural   Pr18Ho2Si15Se
_chemical_formula_sum   'Pr18 Ho2 Si15 Se1'
_cell_volume   954.37281180
_cell_formula_units_Z   1
loop_
 _symmetry_equiv_pos_site_id
 _symmetry_equiv_pos_as_xyz
  1  'x, y, z'
loop_
 _atom_site_type_symbol
 _atom_site_label
 _atom_site_symmetry_multiplicity
 _atom_site_fract_x
 _atom_site_fract_y
 _atom_site_fract_z
 _atom_site_occupancy
  Pr  Pr0  1  0.798079  0.190753  0.752830  1
  Pr  Pr1  1  0.686654  0.689495  0.497146  1
  Pr  Pr2  1  0.379498  0.004673  0.441833  1
  Pr  Pr3  1  0.490342  0.873033  0.699332  1
  Pr  Pr4  1  0.510786  0.122077  0.195386  1
  Pr  Pr5  1  0.876168  0.485005  0.300327  1
  Pr  Pr6  1  0.124413  0.512817  0.804045  1
  Pr  Pr7  1  0.631196  0.985626  0.951380  1
  Pr  Pr8  1  0.999696  0.380515  0.548301  1
  Pr  Pr9  1  0.992106  0.623032  0.053577  1
  Pr  Pr10  1  0.136774  0.987744  0.875114  1
  Pr  Pr11  1  0.520512  0.629484  0.125592  1
  Pr  Pr12  1  0.476014  0.369333  0.631249  1
  Pr  Pr13  1  0.633146  0.523022  0.876645  1
  Pr  Pr14  1  0.369529  0.476333  0.372926  1
  Pr  Pr15  1  0.871684  0.019559  0.376128  1
  Pr  Pr16  1  0.982993  0.127738  0.123615  1
  Pr  Pr17  1  0.017086  0.870922  0.620735  1
  Ho  Ho18  1  0.313425  0.311752  0.000475  1
  Ho  Ho19  1  0.187671  0.808883  0.248848  1
  Si  Si20  1  0.330656  0.694250  0.953495  1
  Si  Si21  1  0.662530  0.304002  0.454429  1
  Si  Si22  1  0.698202  0.333076  0.048747  1
  Si  Si23  1  0.302634  0.666475  0.547356  1
  Si  Si24  1  0.809323  0.829073  0.204255  1
  Si  Si25  1  0.170492  0.189229  0.294035  1
  Si  Si26  1  0.841210  0.804907  0.796490  1
  Si  Si27  1  0.287475  0.923815  0.061428  1
  Si  Si28  1  0.573523  0.785849  0.307551  1
  Si  Si29  1  0.444105  0.213726  0.827737  1
  Si  Si30  1  0.788346  0.579564  0.688811  1
  Si  Si31  1  0.213071  0.424749  0.187801  1
  Si  Si32  1  0.702598  0.074786  0.560998  1
  Si  Si33  1  0.931688  0.291455  0.941565  1
  Si  Si34  1  0.079603  0.712636  0.436088  1
  Se  Se35  1  0.166771  0.180616  0.693731  1
