# generated using pymatgen
data_Pr7Nd(TmPb3)2
_symmetry_space_group_name_H-M   'P 1'
_cell_length_a   6.88609700
_cell_length_b   9.36743810
_cell_length_c   9.36751200
_cell_angle_alpha   119.99955795
_cell_angle_beta   89.99981139
_cell_angle_gamma   90.00053038
_symmetry_Int_Tables_number   1
_chemical_formula_structural   Pr7Nd(TmPb3)2
_chemical_formula_sum   'Pr7 Nd1 Tm2 Pb6'
_cell_volume   523.30006943
_cell_formula_units_Z   1
loop_
 _symmetry_equiv_pos_site_id
 _symmetry_equiv_pos_as_xyz
  1  'x, y, z'
loop_
 _atom_site_type_symbol
 _atom_site_label
 _atom_site_symmetry_multiplicity
 _atom_site_fract_x
 _atom_site_fract_y
 _atom_site_fract_z
 _atom_site_occupancy
  Pr  Pr0  1  0.500000  0.333335  0.666669  1
  Pr  Pr1  1  0.752231  0.239898  0.998940  1
  Pr  Pr2  1  0.752203  0.759014  0.760087  1
  Pr  Pr3  1  0.752210  0.001059  0.240983  1
  Pr  Pr4  1  0.247777  0.759041  0.998934  1
  Pr  Pr5  1  0.247789  0.239921  0.240981  1
  Pr  Pr6  1  0.247783  0.001065  0.760091  1
  Nd  Nd7  1  0.500002  0.666671  0.333327  1
  Tm  Tm8  1  0.000005  0.666667  0.333330  1
  Tm  Tm9  1  0.999995  0.333343  0.666671  1
  Pb  Pb10  1  0.758908  0.603318  0.001633  1
  Pb  Pb11  1  0.758899  0.398304  0.396673  1
  Pb  Pb12  1  0.758908  0.998358  0.601687  1
  Pb  Pb13  1  0.241092  0.398314  0.001633  1
  Pb  Pb14  1  0.241101  0.603322  0.601687  1
  Pb  Pb15  1  0.241098  0.998368  0.396675  1
