# generated using pymatgen
data_HoTm12Lu7(CoSb2)4
_symmetry_space_group_name_H-M   'P 1'
_cell_length_a   7.71662535
_cell_length_b   8.72510110
_cell_length_c   12.01687508
_cell_angle_alpha   89.98960632
_cell_angle_beta   90.03716614
_cell_angle_gamma   90.01417284
_symmetry_Int_Tables_number   1
_chemical_formula_structural   HoTm12Lu7(CoSb2)4
_chemical_formula_sum   'Ho1 Tm12 Lu7 Co4 Sb8'
_cell_volume   809.07599868
_cell_formula_units_Z   1
loop_
 _symmetry_equiv_pos_site_id
 _symmetry_equiv_pos_as_xyz
  1  'x, y, z'
loop_
 _atom_site_type_symbol
 _atom_site_label
 _atom_site_symmetry_multiplicity
 _atom_site_fract_x
 _atom_site_fract_y
 _atom_site_fract_z
 _atom_site_occupancy
  Ho  Ho0  1  0.877118  0.749897  0.807564  1
  Tm  Tm1  1  0.156723  0.749933  0.204174  1
  Tm  Tm2  1  0.656546  0.250028  0.295954  1
  Tm  Tm3  1  0.843411  0.250026  0.795720  1
  Tm  Tm4  1  0.343732  0.749986  0.704003  1
  Tm  Tm5  1  0.449528  0.749926  0.997893  1
  Tm  Tm6  1  0.949734  0.250006  0.501949  1
  Tm  Tm7  1  0.549799  0.250104  0.002158  1
  Tm  Tm8  1  0.050554  0.749983  0.497863  1
  Tm  Tm9  1  0.621863  0.750005  0.308732  1
  Tm  Tm10  1  0.122177  0.250060  0.191521  1
  Tm  Tm11  1  0.378047  0.250000  0.691302  1
  Tm  Tm12  1  0.823821  0.962981  0.065773  1
  Lu  Lu13  1  0.324454  0.037475  0.434749  1
  Lu  Lu14  1  0.175934  0.461625  0.935017  1
  Lu  Lu15  1  0.675454  0.537406  0.565110  1
  Lu  Lu16  1  0.176139  0.038354  0.934946  1
  Lu  Lu17  1  0.675417  0.962596  0.565099  1
  Lu  Lu18  1  0.824445  0.537039  0.065696  1
  Lu  Lu19  1  0.324465  0.462510  0.434752  1
  Co  Co20  1  0.431416  0.749997  0.490532  1
  Co  Co21  1  0.931511  0.250192  0.009552  1
  Co  Co22  1  0.568646  0.250003  0.509365  1
  Co  Co23  1  0.069339  0.749771  0.990838  1
  Sb  Sb24  1  0.931434  0.991526  0.327634  1
  Sb  Sb25  1  0.431142  0.008480  0.172576  1
  Sb  Sb26  1  0.069397  0.491001  0.672198  1
  Sb  Sb27  1  0.567798  0.507948  0.827549  1
  Sb  Sb28  1  0.069386  0.009017  0.672211  1
  Sb  Sb29  1  0.567846  0.992066  0.827545  1
  Sb  Sb30  1  0.931381  0.508487  0.327542  1
  Sb  Sb31  1  0.431346  0.491571  0.172485  1
