# generated using pymatgen
data_CaYPa2(ReN3)4
_symmetry_space_group_name_H-M   'P 1'
_cell_length_a   5.35772197
_cell_length_b   5.72182304
_cell_length_c   7.80023300
_cell_angle_alpha   90.00000000
_cell_angle_beta   90.00000000
_cell_angle_gamma   90.23349354
_symmetry_Int_Tables_number   1
_chemical_formula_structural   CaYPa2(ReN3)4
_chemical_formula_sum   'Ca1 Y1 Pa2 Re4 N12'
_cell_volume   239.12146597
_cell_formula_units_Z   1
loop_
 _symmetry_equiv_pos_site_id
 _symmetry_equiv_pos_as_xyz
  1  'x, y, z'
loop_
 _atom_site_type_symbol
 _atom_site_label
 _atom_site_symmetry_multiplicity
 _atom_site_fract_x
 _atom_site_fract_y
 _atom_site_fract_z
 _atom_site_occupancy
  Ca  Ca0  1  0.512417  0.560368  0.750000  1
  Y  Y1  1  0.986328  0.064161  0.750000  1
  Pa  Pa2  1  0.475731  0.427561  0.250000  1
  Pa  Pa3  1  0.022930  0.926044  0.250000  1
  Re  Re4  1  0.511857  0.002035  0.510460  1
  Re  Re5  1  0.987743  0.502834  0.988590  1
  Re  Re6  1  0.987743  0.502834  0.511410  1
  Re  Re7  1  0.511857  0.002035  0.989540  1
  N  N8  1  0.705191  0.288272  0.541803  1
  N  N9  1  0.306427  0.697219  0.064573  1
  N  N10  1  0.192762  0.194798  0.060972  1
  N  N11  1  0.425020  0.990001  0.750000  1
  N  N12  1  0.883616  0.541711  0.250000  1
  N  N13  1  0.306427  0.697219  0.435427  1
  N  N14  1  0.802225  0.794106  0.957532  1
  N  N15  1  0.705191  0.288272  0.958197  1
  N  N16  1  0.802225  0.794106  0.542468  1
  N  N17  1  0.068485  0.490129  0.750000  1
  N  N18  1  0.192762  0.194798  0.439028  1
  N  N19  1  0.613064  0.041499  0.250000  1
