# generated using pymatgen
data_Tb4Ga17GeRh6
_symmetry_space_group_name_H-M   'P 1'
_cell_length_a   7.59241444
_cell_length_b   7.57235756
_cell_length_c   9.51516413
_cell_angle_alpha   90.07002794
_cell_angle_beta   89.84202300
_cell_angle_gamma   119.77949461
_symmetry_Int_Tables_number   1
_chemical_formula_structural   Tb4Ga17GeRh6
_chemical_formula_sum   'Tb4 Ga17 Ge1 Rh6'
_cell_volume   474.80685507
_cell_formula_units_Z   1
loop_
 _symmetry_equiv_pos_site_id
 _symmetry_equiv_pos_as_xyz
  1  'x, y, z'
loop_
 _atom_site_type_symbol
 _atom_site_label
 _atom_site_symmetry_multiplicity
 _atom_site_fract_x
 _atom_site_fract_y
 _atom_site_fract_z
 _atom_site_occupancy
  Tb  Tb0  1  0.996768  0.666629  0.248733  1
  Tb  Tb1  1  0.003403  0.331525  0.752180  1
  Tb  Tb2  1  0.670906  0.999583  0.248686  1
  Tb  Tb3  1  0.331077  0.003048  0.750044  1
  Ga  Ga4  1  0.128108  0.124191  0.251085  1
  Ga  Ga5  1  0.874268  0.875860  0.749787  1
  Ga  Ga6  1  0.999170  0.669908  0.918292  1
  Ga  Ga7  1  0.999701  0.665962  0.579499  1
  Ga  Ga8  1  0.334338  0.999657  0.421093  1
  Ga  Ga9  1  0.001120  0.334784  0.422776  1
  Ga  Ga10  1  0.665092  0.999065  0.579427  1
  Ga  Ga11  1  0.660564  0.995054  0.918449  1
  Ga  Ga12  1  0.333961  0.999492  0.079971  1
  Ga  Ga13  1  0.332920  0.331949  0.563869  1
  Ga  Ga14  1  0.668135  0.668436  0.436702  1
  Ga  Ga15  1  0.667248  0.667750  0.064712  1
  Ga  Ga16  1  0.336936  0.333109  0.934535  1
  Ga  Ga17  1  0.342938  0.548938  0.251616  1
  Ga  Ga18  1  0.662363  0.452510  0.749236  1
  Ga  Ga19  1  0.546889  0.338638  0.250003  1
  Ga  Ga20  1  0.451259  0.659687  0.749404  1
  Ge  Ge21  1  0.998422  0.334532  0.080624  1
  Rh  Rh22  1  0.674856  0.328794  0.000112  1
  Rh  Rh23  1  0.321764  0.664753  0.000633  1
  Rh  Rh24  1  0.327424  0.671060  0.499773  1
  Rh  Rh25  1  0.672281  0.328311  0.498943  1
  Rh  Rh26  1  0.998940  0.006178  0.000438  1
  Rh  Rh27  1  0.999148  0.000597  0.499379  1
