# generated using pymatgen
data_Ti18NbSi16Os
_symmetry_space_group_name_H-M   'P 1'
_cell_length_a   6.68765394
_cell_length_b   6.68765424
_cell_length_c   12.19285856
_cell_angle_alpha   89.79870785
_cell_angle_beta   90.20129200
_cell_angle_gamma   90.01142136
_symmetry_Int_Tables_number   1
_chemical_formula_structural   Ti18NbSi16Os
_chemical_formula_sum   'Ti18 Nb1 Si16 Os1'
_cell_volume   545.31541110
_cell_formula_units_Z   1
loop_
 _symmetry_equiv_pos_site_id
 _symmetry_equiv_pos_as_xyz
  1  'x, y, z'
loop_
 _atom_site_type_symbol
 _atom_site_label
 _atom_site_symmetry_multiplicity
 _atom_site_fract_x
 _atom_site_fract_y
 _atom_site_fract_z
 _atom_site_occupancy
  Ti  Ti0  1  0.996141  0.147027  0.624362  1
  Ti  Ti1  1  0.351858  0.500000  0.869683  1
  Ti  Ti2  1  0.649298  0.504461  0.370829  1
  Ti  Ti3  1  0.500000  0.351858  0.130317  1
  Ti  Ti4  1  0.504461  0.649298  0.629171  1
  Ti  Ti5  1  0.005591  0.848808  0.120029  1
  Ti  Ti6  1  0.147027  0.996141  0.375638  1
  Ti  Ti7  1  0.848808  0.005591  0.879971  1
  Ti  Ti8  1  0.002344  0.345001  0.220753  1
  Ti  Ti9  1  0.155150  0.501349  0.469147  1
  Ti  Ti10  1  0.840147  0.500660  0.970248  1
  Ti  Ti11  1  0.501349  0.155150  0.530853  1
  Ti  Ti12  1  0.500660  0.840147  0.029752  1
  Ti  Ti13  1  0.998415  0.656726  0.721231  1
  Ti  Ti14  1  0.345001  0.002344  0.779247  1
  Ti  Ti15  1  0.656726  0.998415  0.278769  1
  Ti  Ti16  1  0.328742  0.670650  0.247199  1
  Ti  Ti17  1  0.670650  0.328742  0.752801  1
  Nb  Nb18  1  0.828351  0.828351  0.500000  1
  Si  Si19  1  0.046589  0.300277  0.816160  1
  Si  Si20  1  0.199052  0.539266  0.062606  1
  Si  Si21  1  0.800400  0.451588  0.565320  1
  Si  Si22  1  0.539266  0.199052  0.937394  1
  Si  Si23  1  0.451588  0.800400  0.434680  1
  Si  Si24  1  0.957406  0.696769  0.311774  1
  Si  Si25  1  0.300277  0.046589  0.183840  1
  Si  Si26  1  0.696769  0.957406  0.688226  1
  Si  Si27  1  0.294666  0.356917  0.673521  1
  Si  Si28  1  0.140975  0.794923  0.921302  1
  Si  Si29  1  0.858810  0.207708  0.423012  1
  Si  Si30  1  0.794923  0.140975  0.078698  1
  Si  Si31  1  0.207708  0.858810  0.576988  1
  Si  Si32  1  0.705757  0.644318  0.173264  1
  Si  Si33  1  0.356917  0.294666  0.326479  1
  Si  Si34  1  0.644318  0.705757  0.826736  1
  Os  Os35  1  0.173862  0.173862  0.000000  1
