# generated using pymatgen
data_Ti24AsS7
_symmetry_space_group_name_H-M   'P 1'
_cell_length_a   9.84542794
_cell_length_b   9.85819243
_cell_length_c   4.99195616
_cell_angle_alpha   89.81157590
_cell_angle_beta   89.95327897
_cell_angle_gamma   89.98312469
_symmetry_Int_Tables_number   1
_chemical_formula_structural   Ti24AsS7
_chemical_formula_sum   'Ti24 As1 S7'
_cell_volume   484.50709387
_cell_formula_units_Z   1
loop_
 _symmetry_equiv_pos_site_id
 _symmetry_equiv_pos_as_xyz
  1  'x, y, z'
loop_
 _atom_site_type_symbol
 _atom_site_label
 _atom_site_symmetry_multiplicity
 _atom_site_fract_x
 _atom_site_fract_y
 _atom_site_fract_z
 _atom_site_occupancy
  Ti  Ti0  1  0.891793  0.580616  0.044304  1
  Ti  Ti1  1  0.106798  0.413903  0.041181  1
  Ti  Ti2  1  0.913770  0.392439  0.540360  1
  Ti  Ti3  1  0.087796  0.601118  0.535963  1
  Ti  Ti4  1  0.605875  0.914526  0.461225  1
  Ti  Ti5  1  0.394076  0.085754  0.459681  1
  Ti  Ti6  1  0.584793  0.107000  0.959614  1
  Ti  Ti7  1  0.414676  0.894221  0.958601  1
  Ti  Ti8  1  0.858565  0.036256  0.719508  1
  Ti  Ti9  1  0.144778  0.979825  0.719490  1
  Ti  Ti10  1  0.472157  0.359584  0.219886  1
  Ti  Ti11  1  0.527396  0.638663  0.219623  1
  Ti  Ti12  1  0.638767  0.471678  0.779581  1
  Ti  Ti13  1  0.360913  0.526666  0.779379  1
  Ti  Ti14  1  0.027999  0.140043  0.280181  1
  Ti  Ti15  1  0.972366  0.863370  0.280392  1
  Ti  Ti16  1  0.285124  0.181523  0.985250  1
  Ti  Ti17  1  0.711466  0.820743  0.985459  1
  Ti  Ti18  1  0.319613  0.784186  0.485960  1
  Ti  Ti19  1  0.679193  0.215764  0.483565  1
  Ti  Ti20  1  0.215942  0.318862  0.516189  1
  Ti  Ti21  1  0.780087  0.677089  0.510074  1
  Ti  Ti22  1  0.186239  0.714333  0.018645  1
  Ti  Ti23  1  0.819272  0.284181  0.016949  1
  As  As24  1  0.961201  0.793983  0.784876  1
  S  S25  1  0.791433  0.039563  0.213697  1
  S  S26  1  0.208290  0.960112  0.212864  1
  S  S27  1  0.460387  0.292210  0.713205  1
  S  S28  1  0.538928  0.707075  0.713155  1
  S  S29  1  0.706229  0.458544  0.287497  1
  S  S30  1  0.294122  0.537714  0.286647  1
  S  S31  1  0.039956  0.208458  0.786998  1
