# generated using pymatgen
data_TbY2Cd3Si2Au
_symmetry_space_group_name_H-M   'P 1'
_cell_length_a   7.27927700
_cell_length_b   7.28294918
_cell_length_c   4.32981500
_cell_angle_alpha   90.00000000
_cell_angle_beta   90.00000000
_cell_angle_gamma   119.98331754
_symmetry_Int_Tables_number   1
_chemical_formula_structural   TbY2Cd3Si2Au
_chemical_formula_sum   'Tb1 Y2 Cd3 Si2 Au1'
_cell_volume   198.82385017
_cell_formula_units_Z   1
loop_
 _symmetry_equiv_pos_site_id
 _symmetry_equiv_pos_as_xyz
  1  'x, y, z'
loop_
 _atom_site_type_symbol
 _atom_site_label
 _atom_site_symmetry_multiplicity
 _atom_site_fract_x
 _atom_site_fract_y
 _atom_site_fract_z
 _atom_site_occupancy
  Tb  Tb0  1  0.583914  0.000000  0.000000  1
  Y  Y1  1  0.999899  0.583803  0.000000  1
  Y  Y2  1  0.416096  0.416197  0.000000  1
  Cd  Cd3  1  0.255607  0.000000  0.500000  1
  Cd  Cd4  1  0.000054  0.255738  0.500000  1
  Cd  Cd5  1  0.744316  0.744262  0.500000  1
  Si  Si6  1  0.333321  0.666563  0.500000  1
  Si  Si7  1  0.666758  0.333437  0.500000  1
  Au  Au8  1  0.000035  0.000000  0.000000  1
