# generated using pymatgen
data_Hf16Fe4Pt3Rh
_symmetry_space_group_name_H-M   'P 1'
_cell_length_a   8.58786221
_cell_length_b   8.58786156
_cell_length_c   8.58786400
_cell_angle_alpha   59.90839591
_cell_angle_beta   59.90840614
_cell_angle_gamma   59.90839757
_symmetry_Int_Tables_number   1
_chemical_formula_structural   Hf16Fe4Pt3Rh
_chemical_formula_sum   'Hf16 Fe4 Pt3 Rh1'
_cell_volume   446.92727665
_cell_formula_units_Z   1
loop_
 _symmetry_equiv_pos_site_id
 _symmetry_equiv_pos_as_xyz
  1  'x, y, z'
loop_
 _atom_site_type_symbol
 _atom_site_label
 _atom_site_symmetry_multiplicity
 _atom_site_fract_x
 _atom_site_fract_y
 _atom_site_fract_z
 _atom_site_occupancy
  Hf  Hf0  1  0.687232  0.104305  0.104305  1
  Hf  Hf1  1  0.104305  0.687232  0.104305  1
  Hf  Hf2  1  0.104305  0.104305  0.687232  1
  Hf  Hf3  1  0.104737  0.104737  0.104737  1
  Hf  Hf4  1  0.310625  0.310625  0.686554  1
  Hf  Hf5  1  0.689573  0.689573  0.310326  1
  Hf  Hf6  1  0.310625  0.686554  0.310625  1
  Hf  Hf7  1  0.689573  0.310326  0.689573  1
  Hf  Hf8  1  0.686554  0.310625  0.310625  1
  Hf  Hf9  1  0.310326  0.689573  0.689573  1
  Hf  Hf10  1  0.942555  0.942555  0.557472  1
  Hf  Hf11  1  0.557332  0.557332  0.943493  1
  Hf  Hf12  1  0.942555  0.557472  0.942555  1
  Hf  Hf13  1  0.557332  0.943493  0.557332  1
  Hf  Hf14  1  0.557472  0.942555  0.942555  1
  Hf  Hf15  1  0.943493  0.557332  0.557332  1
  Fe  Fe16  1  0.323241  0.892426  0.892426  1
  Fe  Fe17  1  0.892426  0.323241  0.892426  1
  Fe  Fe18  1  0.892426  0.892426  0.323241  1
  Fe  Fe19  1  0.892124  0.892124  0.892124  1
  Pt  Pt20  1  0.993118  0.336155  0.336155  1
  Pt  Pt21  1  0.336155  0.993118  0.336155  1
  Pt  Pt22  1  0.336155  0.336155  0.993118  1
  Rh  Rh23  1  0.335755  0.335755  0.335755  1
