# generated using pymatgen
data_LaTb4YbSe8
_symmetry_space_group_name_H-M   'P 1'
_cell_length_a   4.06113500
_cell_length_b   13.54850900
_cell_length_c   13.82163000
_cell_angle_alpha   90.00000000
_cell_angle_beta   90.00000000
_cell_angle_gamma   90.00000000
_symmetry_Int_Tables_number   1
_chemical_formula_structural   LaTb4YbSe8
_chemical_formula_sum   'La2 Tb8 Yb2 Se16'
_cell_volume   760.49820542
_cell_formula_units_Z   2
loop_
 _symmetry_equiv_pos_site_id
 _symmetry_equiv_pos_as_xyz
  1  'x, y, z'
loop_
 _atom_site_type_symbol
 _atom_site_label
 _atom_site_symmetry_multiplicity
 _atom_site_fract_x
 _atom_site_fract_y
 _atom_site_fract_z
 _atom_site_occupancy
  La  La0  1  0.250000  0.370719  0.587771  1
  La  La1  1  0.250000  0.870719  0.912229  1
  Tb  Tb2  1  0.250000  0.107268  0.420348  1
  Tb  Tb3  1  0.250000  0.607268  0.079652  1
  Tb  Tb4  1  0.750000  0.891531  0.574753  1
  Tb  Tb5  1  0.750000  0.391531  0.925247  1
  Tb  Tb6  1  0.250000  0.148725  0.799899  1
  Tb  Tb7  1  0.250000  0.648725  0.700101  1
  Tb  Tb8  1  0.750000  0.850148  0.200389  1
  Tb  Tb9  1  0.750000  0.350148  0.299611  1
  Yb  Yb10  1  0.750000  0.631420  0.410976  1
  Yb  Yb11  1  0.750000  0.131420  0.089024  1
  Se  Se12  1  0.250000  0.212743  0.237952  1
  Se  Se13  1  0.250000  0.712743  0.262048  1
  Se  Se14  1  0.750000  0.787469  0.761916  1
  Se  Se15  1  0.750000  0.287469  0.738084  1
  Se  Se16  1  0.250000  0.253560  0.980063  1
  Se  Se17  1  0.250000  0.753560  0.519937  1
  Se  Se18  1  0.750000  0.743545  0.020286  1
  Se  Se19  1  0.750000  0.243545  0.479714  1
  Se  Se20  1  0.250000  0.470653  0.387025  1
  Se  Se21  1  0.250000  0.970653  0.112975  1
  Se  Se22  1  0.750000  0.533293  0.612557  1
  Se  Se23  1  0.750000  0.033293  0.887443  1
  Se  Se24  1  0.250000  0.033430  0.620957  1
  Se  Se25  1  0.250000  0.533430  0.879043  1
  Se  Se26  1  0.750000  0.965497  0.377292  1
  Se  Se27  1  0.750000  0.465497  0.122708  1
