# generated using pymatgen
data_Y8Er12Si15Pt
_symmetry_space_group_name_H-M   'P 1'
_cell_length_a   7.35091017
_cell_length_b   7.70105162
_cell_length_c   14.53056400
_cell_angle_alpha   90.00000000
_cell_angle_beta   90.00000000
_cell_angle_gamma   90.07346202
_symmetry_Int_Tables_number   1
_chemical_formula_structural   Y8Er12Si15Pt
_chemical_formula_sum   'Y8 Er12 Si15 Pt1'
_cell_volume   822.57075499
_cell_formula_units_Z   1
loop_
 _symmetry_equiv_pos_site_id
 _symmetry_equiv_pos_as_xyz
  1  'x, y, z'
loop_
 _atom_site_type_symbol
 _atom_site_label
 _atom_site_symmetry_multiplicity
 _atom_site_fract_x
 _atom_site_fract_y
 _atom_site_fract_z
 _atom_site_occupancy
  Y  Y0  1  0.522980  0.681109  0.593768  1
  Y  Y1  1  0.024069  0.819362  0.904981  1
  Y  Y2  1  0.475535  0.316654  0.097435  1
  Y  Y3  1  0.975340  0.181056  0.402709  1
  Y  Y4  1  0.475535  0.316654  0.402565  1
  Y  Y5  1  0.975340  0.181056  0.097291  1
  Y  Y6  1  0.522980  0.681109  0.906232  1
  Y  Y7  1  0.024069  0.819362  0.595019  1
  Er  Er8  1  0.677433  0.180070  0.623805  1
  Er  Er9  1  0.187360  0.324800  0.875948  1
  Er  Er10  1  0.318747  0.820238  0.123840  1
  Er  Er11  1  0.817658  0.676193  0.375658  1
  Er  Er12  1  0.318747  0.820238  0.376160  1
  Er  Er13  1  0.817658  0.676193  0.124342  1
  Er  Er14  1  0.677433  0.180070  0.876195  1
  Er  Er15  1  0.187360  0.324800  0.624052  1
  Er  Er16  1  0.843578  0.509932  0.750000  1
  Er  Er17  1  0.353785  0.985287  0.750000  1
  Er  Er18  1  0.149559  0.486822  0.250000  1
  Er  Er19  1  0.649799  0.011195  0.250000  1
  Si  Si20  1  0.649144  0.969419  0.459898  1
  Si  Si21  1  0.147736  0.529171  0.040103  1
  Si  Si22  1  0.349754  0.027950  0.960898  1
  Si  Si23  1  0.851770  0.470881  0.539681  1
  Si  Si24  1  0.349754  0.027950  0.539102  1
  Si  Si25  1  0.851770  0.470881  0.960319  1
  Si  Si26  1  0.649144  0.969419  0.040102  1
  Si  Si27  1  0.147736  0.529171  0.459897  1
  Si  Si28  1  0.979232  0.104788  0.750000  1
  Si  Si29  1  0.520737  0.605995  0.250000  1
  Si  Si30  1  0.021184  0.891928  0.250000  1
  Si  Si31  1  0.738631  0.876663  0.750000  1
  Si  Si32  1  0.227269  0.632051  0.750000  1
  Si  Si33  1  0.269573  0.127553  0.250000  1
  Si  Si34  1  0.769913  0.370455  0.250000  1
  Pt  Pt35  1  0.481685  0.403527  0.750000  1
