# generated using pymatgen
data_PrYCoSi2Ru
_symmetry_space_group_name_H-M   'P 1'
_cell_length_a   4.07054900
_cell_length_b   4.08979600
_cell_length_c   6.99771800
_cell_angle_alpha   90.00000000
_cell_angle_beta   90.00000000
_cell_angle_gamma   90.00000000
_symmetry_Int_Tables_number   1
_chemical_formula_structural   PrYCoSi2Ru
_chemical_formula_sum   'Pr1 Y1 Co1 Si2 Ru1'
_cell_volume   116.49601504
_cell_formula_units_Z   1
loop_
 _symmetry_equiv_pos_site_id
 _symmetry_equiv_pos_as_xyz
  1  'x, y, z'
loop_
 _atom_site_type_symbol
 _atom_site_label
 _atom_site_symmetry_multiplicity
 _atom_site_fract_x
 _atom_site_fract_y
 _atom_site_fract_z
 _atom_site_occupancy
  Pr  Pr0  1  0.000000  0.500000  0.330455  1
  Y  Y1  1  0.500000  0.000000  0.690550  1
  Co  Co2  1  0.000000  0.000000  0.994308  1
  Si  Si3  1  0.500000  0.000000  0.172896  1
  Si  Si4  1  0.000000  0.500000  0.815631  1
  Ru  Ru5  1  0.500000  0.500000  0.996161  1
