# generated using pymatgen
data_TbTm9NiSb5
_symmetry_space_group_name_H-M   'P 1'
_cell_length_a   7.88506000
_cell_length_b   9.11179100
_cell_length_c   11.78872500
_cell_angle_alpha   90.00000000
_cell_angle_beta   90.00000000
_cell_angle_gamma   90.00000000
_symmetry_Int_Tables_number   1
_chemical_formula_structural   TbTm9NiSb5
_chemical_formula_sum   'Tb2 Tm18 Ni2 Sb10'
_cell_volume   846.98474602
_cell_formula_units_Z   2
loop_
 _symmetry_equiv_pos_site_id
 _symmetry_equiv_pos_as_xyz
  1  'x, y, z'
loop_
 _atom_site_type_symbol
 _atom_site_label
 _atom_site_symmetry_multiplicity
 _atom_site_fract_x
 _atom_site_fract_y
 _atom_site_fract_z
 _atom_site_occupancy
  Tb  Tb0  1  0.574024  0.500000  0.773713  1
  Tb  Tb1  1  0.425976  0.500000  0.273713  1
  Tm  Tm2  1  0.432925  0.182492  0.564540  1
  Tm  Tm3  1  0.567075  0.817508  0.064540  1
  Tm  Tm4  1  0.067829  0.720993  0.434596  1
  Tm  Tm5  1  0.932171  0.279007  0.934596  1
  Tm  Tm6  1  0.067829  0.279007  0.434596  1
  Tm  Tm7  1  0.932171  0.720993  0.934596  1
  Tm  Tm8  1  0.432925  0.817508  0.564540  1
  Tm  Tm9  1  0.567075  0.182492  0.064540  1
  Tm  Tm10  1  0.910629  0.000000  0.205797  1
  Tm  Tm11  1  0.089371  0.000000  0.705797  1
  Tm  Tm12  1  0.266312  0.500000  0.994477  1
  Tm  Tm13  1  0.733688  0.500000  0.494477  1
  Tm  Tm14  1  0.202124  0.000000  0.999417  1
  Tm  Tm15  1  0.797876  0.000000  0.499417  1
  Tm  Tm16  1  0.091175  0.500000  0.715090  1
  Tm  Tm17  1  0.908825  0.500000  0.215090  1
  Tm  Tm18  1  0.380143  0.000000  0.303133  1
  Tm  Tm19  1  0.619857  0.000000  0.803133  1
  Ni  Ni20  1  0.168111  0.000000  0.485360  1
  Ni  Ni21  1  0.831889  0.000000  0.985360  1
  Sb  Sb22  1  0.816281  0.742159  0.672080  1
  Sb  Sb23  1  0.183719  0.257841  0.172080  1
  Sb  Sb24  1  0.683753  0.240902  0.326300  1
  Sb  Sb25  1  0.316247  0.759098  0.826300  1
  Sb  Sb26  1  0.683753  0.759098  0.326300  1
  Sb  Sb27  1  0.316247  0.240902  0.826300  1
  Sb  Sb28  1  0.816281  0.257841  0.672080  1
  Sb  Sb29  1  0.183719  0.742159  0.172080  1
  Sb  Sb30  1  0.342863  0.500000  0.527982  1
  Sb  Sb31  1  0.657137  0.500000  0.027982  1
