# generated using pymatgen
data_Lu4Ge2B4Ru7Rh3
_symmetry_space_group_name_H-M   'P 1'
_cell_length_a   9.52377506
_cell_length_b   9.51070607
_cell_length_c   3.07210400
_cell_angle_alpha   90.00000000
_cell_angle_beta   90.00000000
_cell_angle_gamma   89.94578798
_symmetry_Int_Tables_number   1
_chemical_formula_structural   Lu4Ge2B4Ru7Rh3
_chemical_formula_sum   'Lu4 Ge2 B4 Ru7 Rh3'
_cell_volume   278.26437477
_cell_formula_units_Z   1
loop_
 _symmetry_equiv_pos_site_id
 _symmetry_equiv_pos_as_xyz
  1  'x, y, z'
loop_
 _atom_site_type_symbol
 _atom_site_label
 _atom_site_symmetry_multiplicity
 _atom_site_fract_x
 _atom_site_fract_y
 _atom_site_fract_z
 _atom_site_occupancy
  Lu  Lu0  1  0.827487  0.323986  0.000000  1
  Lu  Lu1  1  0.323613  0.172026  0.000000  1
  Lu  Lu2  1  0.673467  0.825662  0.000000  1
  Lu  Lu3  1  0.175235  0.676701  0.000000  1
  Ge  Ge4  1  0.000030  0.000027  0.000000  1
  Ge  Ge5  1  0.498810  0.504481  0.000000  1
  B  B6  1  0.624567  0.117868  0.000000  1
  B  B7  1  0.117982  0.374232  0.000000  1
  B  B8  1  0.882550  0.625280  0.000000  1
  B  B9  1  0.376569  0.877018  0.000000  1
  Ru  Ru10  1  0.069860  0.214628  0.500000  1
  Ru  Ru11  1  0.214613  0.930332  0.500000  1
  Ru  Ru12  1  0.784731  0.070892  0.500000  1
  Ru  Ru13  1  0.929400  0.785260  0.500000  1
  Ru  Ru14  1  0.430419  0.714455  0.500000  1
  Ru  Ru15  1  0.499978  0.001541  0.500000  1
  Ru  Ru16  1  0.000581  0.500261  0.500000  1
  Rh  Rh17  1  0.569499  0.287610  0.500000  1
  Rh  Rh18  1  0.716591  0.569257  0.500000  1
  Rh  Rh19  1  0.284017  0.428483  0.500000  1
