# generated using pymatgen
data_PaNF10
_symmetry_space_group_name_H-M   'P 1'
_cell_length_a   5.89486753
_cell_length_b   8.03798224
_cell_length_c   9.45907196
_cell_angle_alpha   89.09100191
_cell_angle_beta   109.07953030
_cell_angle_gamma   96.60079822
_symmetry_Int_Tables_number   1
_chemical_formula_structural   PaNF10
_chemical_formula_sum   'Pa2 N2 F20'
_cell_volume   420.65594572
_cell_formula_units_Z   2
loop_
 _symmetry_equiv_pos_site_id
 _symmetry_equiv_pos_as_xyz
  1  'x, y, z'
loop_
 _atom_site_type_symbol
 _atom_site_label
 _atom_site_symmetry_multiplicity
 _atom_site_fract_x
 _atom_site_fract_y
 _atom_site_fract_z
 _atom_site_occupancy
  Pa  Pa0  1  0.991618  0.754068  0.297330  1
  Pa  Pa1  1  0.008382  0.245932  0.702670  1
  N  N2  1  0.296075  0.273328  0.215315  1
  N  N3  1  0.703925  0.726672  0.784685  1
  F  F4  1  0.069937  0.234902  0.215345  1
  F  F5  1  0.930063  0.765098  0.784655  1
  F  F6  1  0.367065  0.144210  0.158280  1
  F  F7  1  0.632935  0.855790  0.841720  1
  F  F8  1  0.932438  0.193128  0.904641  1
  F  F9  1  0.067562  0.806872  0.095359  1
  F  F10  1  0.075354  0.304143  0.501808  1
  F  F11  1  0.924646  0.695857  0.498192  1
  F  F12  1  0.774513  0.030781  0.603000  1
  F  F13  1  0.225487  0.969219  0.397000  1
  F  F14  1  0.295174  0.097813  0.784633  1
  F  F15  1  0.704826  0.902187  0.215367  1
  F  F16  1  0.224977  0.466247  0.814961  1
  F  F17  1  0.775023  0.533753  0.185039  1
  F  F18  1  0.709125  0.385680  0.635087  1
  F  F19  1  0.290875  0.614320  0.364913  1
  F  F20  1  0.695016  0.592628  0.869985  1
  F  F21  1  0.304984  0.407372  0.130015  1
  F  F22  1  0.555013  0.692820  0.645105  1
  F  F23  1  0.444987  0.307180  0.354895  1
