# generated using pymatgen
data_LiDy16Cd3Pt3Rh
_symmetry_space_group_name_H-M   'P 1'
_cell_length_a   9.68619885
_cell_length_b   9.68619867
_cell_length_c   9.68619845
_cell_angle_alpha   59.67277983
_cell_angle_beta   59.67278202
_cell_angle_gamma   59.67277969
_symmetry_Int_Tables_number   1
_chemical_formula_structural   LiDy16Cd3Pt3Rh
_chemical_formula_sum   'Li1 Dy16 Cd3 Pt3 Rh1'
_cell_volume   637.82936840
_cell_formula_units_Z   1
loop_
 _symmetry_equiv_pos_site_id
 _symmetry_equiv_pos_as_xyz
  1  'x, y, z'
loop_
 _atom_site_type_symbol
 _atom_site_label
 _atom_site_symmetry_multiplicity
 _atom_site_fract_x
 _atom_site_fract_y
 _atom_site_fract_z
 _atom_site_occupancy
  Li  Li0  1  0.571735  0.571735  0.571735  1
  Dy  Dy1  1  0.352491  0.352491  0.352491  1
  Dy  Dy2  1  0.349546  0.349546  0.948227  1
  Dy  Dy3  1  0.349546  0.948227  0.349546  1
  Dy  Dy4  1  0.948227  0.349546  0.349546  1
  Dy  Dy5  1  0.812127  0.191089  0.191089  1
  Dy  Dy6  1  0.187433  0.812202  0.812202  1
  Dy  Dy7  1  0.191089  0.812127  0.191089  1
  Dy  Dy8  1  0.812202  0.187433  0.812202  1
  Dy  Dy9  1  0.191089  0.191089  0.812127  1
  Dy  Dy10  1  0.812202  0.812202  0.187433  1
  Dy  Dy11  1  0.936785  0.565159  0.565159  1
  Dy  Dy12  1  0.563688  0.935682  0.935682  1
  Dy  Dy13  1  0.565159  0.936785  0.565159  1
  Dy  Dy14  1  0.935682  0.563687  0.935682  1
  Dy  Dy15  1  0.565159  0.565159  0.936785  1
  Dy  Dy16  1  0.935682  0.935682  0.563687  1
  Cd  Cd17  1  0.582458  0.582458  0.253585  1
  Cd  Cd18  1  0.582458  0.253585  0.582458  1
  Cd  Cd19  1  0.253585  0.582458  0.582458  1
  Pt  Pt20  1  0.143820  0.143820  0.570516  1
  Pt  Pt21  1  0.143820  0.570516  0.143820  1
  Pt  Pt22  1  0.570516  0.143820  0.143820  1
  Rh  Rh23  1  0.143498  0.143498  0.143498  1
