# generated using pymatgen
data_Eu2(GaAu2)3
_symmetry_space_group_name_H-M   'P 1'
_cell_length_a   8.99485957
_cell_length_b   8.99485985
_cell_length_c   8.99486092
_cell_angle_alpha   56.43895090
_cell_angle_beta   56.43895062
_cell_angle_gamma   56.43894965
_symmetry_Int_Tables_number   1
_chemical_formula_structural   Eu2(GaAu2)3
_chemical_formula_sum   'Eu4 Ga6 Au12'
_cell_volume   472.23014053
_cell_formula_units_Z   2
loop_
 _symmetry_equiv_pos_site_id
 _symmetry_equiv_pos_as_xyz
  1  'x, y, z'
loop_
 _atom_site_type_symbol
 _atom_site_label
 _atom_site_symmetry_multiplicity
 _atom_site_fract_x
 _atom_site_fract_y
 _atom_site_fract_z
 _atom_site_occupancy
  Eu  Eu0  1  0.911210  0.911210  0.911210  1
  Eu  Eu1  1  0.411210  0.411210  0.411210  1
  Eu  Eu2  1  0.088790  0.088790  0.088790  1
  Eu  Eu3  1  0.588790  0.588790  0.588790  1
  Ga  Ga4  1  0.551315  0.750000  0.948685  1
  Ga  Ga5  1  0.948685  0.551315  0.750000  1
  Ga  Ga6  1  0.750000  0.948685  0.551315  1
  Ga  Ga7  1  0.448685  0.250000  0.051315  1
  Ga  Ga8  1  0.051315  0.448685  0.250000  1
  Ga  Ga9  1  0.250000  0.051315  0.448685  1
  Au  Au10  1  0.476437  0.864758  0.204984  1
  Au  Au11  1  0.204984  0.476437  0.864758  1
  Au  Au12  1  0.864758  0.204984  0.476437  1
  Au  Au13  1  0.704984  0.364758  0.976437  1
  Au  Au14  1  0.976437  0.704984  0.364758  1
  Au  Au15  1  0.364758  0.976437  0.704984  1
  Au  Au16  1  0.523563  0.135242  0.795016  1
  Au  Au17  1  0.795016  0.523563  0.135242  1
  Au  Au18  1  0.135242  0.795016  0.523563  1
  Au  Au19  1  0.295016  0.635242  0.023563  1
  Au  Au20  1  0.023563  0.295016  0.635242  1
  Au  Au21  1  0.635242  0.023563  0.295016  1
