# generated using pymatgen
data_Sm2Y3Tm15Pt16
_symmetry_space_group_name_H-M   'P 1'
_cell_length_a   7.43037126
_cell_length_b   7.50630723
_cell_length_c   14.63990200
_cell_angle_alpha   90.01319749
_cell_angle_beta   90.01517530
_cell_angle_gamma   89.99460759
_symmetry_Int_Tables_number   1
_chemical_formula_structural   Sm2Y3Tm15Pt16
_chemical_formula_sum   'Sm2 Y3 Tm15 Pt16'
_cell_volume   816.53534933
_cell_formula_units_Z   1
loop_
 _symmetry_equiv_pos_site_id
 _symmetry_equiv_pos_as_xyz
  1  'x, y, z'
loop_
 _atom_site_type_symbol
 _atom_site_label
 _atom_site_symmetry_multiplicity
 _atom_site_fract_x
 _atom_site_fract_y
 _atom_site_fract_z
 _atom_site_occupancy
  Sm  Sm0  1  0.000378  0.177671  0.406992  1
  Sm  Sm1  1  0.500553  0.323210  0.407660  1
  Y  Y2  1  0.999185  0.178442  0.092234  1
  Y  Y3  1  0.500439  0.679051  0.907647  1
  Y  Y4  1  0.000982  0.819314  0.593421  1
  Tm  Tm5  1  0.656487  0.166864  0.623486  1
  Tm  Tm6  1  0.155965  0.333084  0.877488  1
  Tm  Tm7  1  0.344083  0.833189  0.121839  1
  Tm  Tm8  1  0.845249  0.667680  0.376873  1
  Tm  Tm9  1  0.346155  0.831333  0.377197  1
  Tm  Tm10  1  0.844337  0.667369  0.121190  1
  Tm  Tm11  1  0.655651  0.167273  0.877907  1
  Tm  Tm12  1  0.156875  0.333121  0.623150  1
  Tm  Tm13  1  0.501584  0.681415  0.593946  1
  Tm  Tm14  1  0.001698  0.819640  0.906722  1
  Tm  Tm15  1  0.498262  0.320004  0.092811  1
  Tm  Tm16  1  0.818558  0.509898  0.750448  1
  Tm  Tm17  1  0.318567  0.989952  0.750581  1
  Tm  Tm18  1  0.181084  0.490399  0.248303  1
  Tm  Tm19  1  0.681075  0.009697  0.248536  1
  Pt  Pt20  1  0.680301  0.960134  0.460284  1
  Pt  Pt21  1  0.185702  0.533552  0.041662  1
  Pt  Pt22  1  0.314869  0.033635  0.958166  1
  Pt  Pt23  1  0.814521  0.469925  0.543684  1
  Pt  Pt24  1  0.318266  0.029965  0.543914  1
  Pt  Pt25  1  0.817819  0.466895  0.957975  1
  Pt  Pt26  1  0.682614  0.967084  0.041840  1
  Pt  Pt27  1  0.181080  0.539641  0.460372  1
  Pt  Pt28  1  0.452951  0.385723  0.749705  1
  Pt  Pt29  1  0.952886  0.114401  0.750731  1
  Pt  Pt30  1  0.546724  0.616414  0.248511  1
  Pt  Pt31  1  0.047363  0.882815  0.249229  1
  Pt  Pt32  1  0.681345  0.856643  0.749836  1
  Pt  Pt33  1  0.181383  0.643399  0.751301  1
  Pt  Pt34  1  0.318664  0.142530  0.246931  1
  Pt  Pt35  1  0.816342  0.358641  0.247431  1
