# generated using pymatgen
data_Ba6Li2Nb2Cr2O17
_symmetry_space_group_name_H-M   'P 1'
_cell_length_a   5.86414361
_cell_length_b   5.86414323
_cell_length_c   14.87271396
_cell_angle_alpha   89.94767766
_cell_angle_beta   89.94767789
_cell_angle_gamma   59.97127657
_symmetry_Int_Tables_number   1
_chemical_formula_structural   Ba6Li2Nb2Cr2O17
_chemical_formula_sum   'Ba6 Li2 Nb2 Cr2 O17'
_cell_volume   442.79632608
_cell_formula_units_Z   1
loop_
 _symmetry_equiv_pos_site_id
 _symmetry_equiv_pos_as_xyz
  1  'x, y, z'
loop_
 _atom_site_type_symbol
 _atom_site_label
 _atom_site_symmetry_multiplicity
 _atom_site_fract_x
 _atom_site_fract_y
 _atom_site_fract_z
 _atom_site_occupancy
  Ba  Ba0  1  0.665584  0.667344  0.658134  1
  Ba  Ba1  1  0.332656  0.334416  0.341866  1
  Ba  Ba2  1  0.332655  0.332628  0.816621  1
  Ba  Ba3  1  0.667372  0.667345  0.183379  1
  Ba  Ba4  1  0.999695  0.000305  0.500000  1
  Ba  Ba5  1  0.030225  0.969775  0.000000  1
  Li  Li6  1  0.001447  0.997908  0.723610  1
  Li  Li7  1  0.002092  0.998553  0.276390  1
  Nb  Nb8  1  0.333120  0.333323  0.587235  1
  Nb  Nb9  1  0.666677  0.666880  0.412765  1
  Cr  Cr10  1  0.663497  0.668363  0.893235  1
  Cr  Cr11  1  0.331637  0.336503  0.106765  1
  O  O12  1  0.826876  0.821569  0.849507  1
  O  O13  1  0.351989  0.821677  0.844453  1
  O  O14  1  0.826784  0.350280  0.852747  1
  O  O15  1  0.178431  0.173124  0.150493  1
  O  O16  1  0.649720  0.173216  0.147253  1
  O  O17  1  0.178323  0.648011  0.155547  1
  O  O18  1  0.499204  0.500796  0.500000  1
  O  O19  1  0.999647  0.500558  0.499748  1
  O  O20  1  0.499442  0.000354  0.500252  1
  O  O21  1  0.171447  0.173957  0.658721  1
  O  O22  1  0.653619  0.173496  0.658883  1
  O  O23  1  0.171871  0.654001  0.658811  1
  O  O24  1  0.826043  0.828553  0.341279  1
  O  O25  1  0.345999  0.828129  0.341189  1
  O  O26  1  0.826504  0.346381  0.341117  1
  O  O27  1  0.616695  0.712275  0.006564  1
  O  O28  1  0.287725  0.383305  0.993436  1
