# generated using pymatgen
data_La8Pr8Mg4IrOs3
_symmetry_space_group_name_H-M   'P 1'
_cell_length_a   10.09624498
_cell_length_b   10.13338722
_cell_length_c   10.19297703
_cell_angle_alpha   59.80346978
_cell_angle_beta   59.68426434
_cell_angle_gamma   59.99568394
_symmetry_Int_Tables_number   1
_chemical_formula_structural   La8Pr8Mg4IrOs3
_chemical_formula_sum   'La8 Pr8 Mg4 Ir1 Os3'
_cell_volume   734.50258107
_cell_formula_units_Z   1
loop_
 _symmetry_equiv_pos_site_id
 _symmetry_equiv_pos_as_xyz
  1  'x, y, z'
loop_
 _atom_site_type_symbol
 _atom_site_label
 _atom_site_symmetry_multiplicity
 _atom_site_fract_x
 _atom_site_fract_y
 _atom_site_fract_z
 _atom_site_occupancy
  La  La0  1  0.342448  0.343749  0.345988  1
  La  La1  1  0.342490  0.343726  0.967805  1
  La  La2  1  0.343928  0.966822  0.344617  1
  La  La3  1  0.969864  0.345181  0.342463  1
  La  La4  1  0.815390  0.187822  0.187233  1
  La  La5  1  0.187783  0.812388  0.813228  1
  La  La6  1  0.187758  0.812437  0.186583  1
  La  La7  1  0.815384  0.187839  0.809588  1
  Pr  Pr8  1  0.190824  0.190754  0.809215  1
  Pr  Pr9  1  0.810490  0.807951  0.190785  1
  Pr  Pr10  1  0.935812  0.563149  0.562532  1
  Pr  Pr11  1  0.561370  0.936498  0.937400  1
  Pr  Pr12  1  0.561395  0.936499  0.564686  1
  Pr  Pr13  1  0.935765  0.563174  0.938531  1
  Pr  Pr14  1  0.559380  0.563185  0.938712  1
  Pr  Pr15  1  0.939762  0.940774  0.559721  1
  Mg  Mg16  1  0.579124  0.579563  0.577592  1
  Mg  Mg17  1  0.579121  0.579537  0.263769  1
  Mg  Mg18  1  0.576836  0.263740  0.579701  1
  Mg  Mg19  1  0.262371  0.577331  0.580147  1
  Ir  Ir20  1  0.582829  0.144897  0.136144  1
  Os  Os21  1  0.136457  0.133901  0.144932  1
  Os  Os22  1  0.136428  0.133934  0.584700  1
  Os  Os23  1  0.146992  0.585151  0.133930  1
