# generated using pymatgen
data_Eu(CuAu2)4
_symmetry_space_group_name_H-M   'P 1'
_cell_length_a   7.04924577
_cell_length_b   7.04924683
_cell_length_c   7.04924570
_cell_angle_alpha   98.26621437
_cell_angle_beta   98.26621116
_cell_angle_gamma   135.43499984
_symmetry_Int_Tables_number   1
_chemical_formula_structural   Eu(CuAu2)4
_chemical_formula_sum   'Eu1 Cu4 Au8'
_cell_volume   227.44958413
_cell_formula_units_Z   1
loop_
 _symmetry_equiv_pos_site_id
 _symmetry_equiv_pos_as_xyz
  1  'x, y, z'
loop_
 _atom_site_type_symbol
 _atom_site_label
 _atom_site_symmetry_multiplicity
 _atom_site_fract_x
 _atom_site_fract_y
 _atom_site_fract_z
 _atom_site_occupancy
  Eu  Eu0  1  0.000000  0.000000  0.000000  1
  Cu  Cu1  1  0.000000  0.000000  0.500000  1
  Cu  Cu2  1  0.500000  0.500000  0.500000  1
  Cu  Cu3  1  0.500000  0.000000  0.000000  1
  Cu  Cu4  1  0.000000  0.500000  0.000000  1
  Au  Au5  1  0.000000  0.340573  0.340573  1
  Au  Au6  1  0.000000  0.659427  0.659427  1
  Au  Au7  1  0.659427  0.000000  0.659427  1
  Au  Au8  1  0.340573  0.000000  0.340573  1
  Au  Au9  1  0.500000  0.279398  0.779398  1
  Au  Au10  1  0.500000  0.720602  0.220602  1
  Au  Au11  1  0.720602  0.500000  0.220602  1
  Au  Au12  1  0.279398  0.500000  0.779398  1
