# generated using pymatgen
data_Ca4Np(PaH8)3
_symmetry_space_group_name_H-M   'P 1'
_cell_length_a   6.73283500
_cell_length_b   6.68682400
_cell_length_c   6.73283500
_cell_angle_alpha   90.00000000
_cell_angle_beta   90.00000000
_cell_angle_gamma   90.00000000
_symmetry_Int_Tables_number   1
_chemical_formula_structural   Ca4Np(PaH8)3
_chemical_formula_sum   'Ca4 Np1 Pa3 H24'
_cell_volume   303.12086768
_cell_formula_units_Z   1
loop_
 _symmetry_equiv_pos_site_id
 _symmetry_equiv_pos_as_xyz
  1  'x, y, z'
loop_
 _atom_site_type_symbol
 _atom_site_label
 _atom_site_symmetry_multiplicity
 _atom_site_fract_x
 _atom_site_fract_y
 _atom_site_fract_z
 _atom_site_occupancy
  Ca  Ca0  1  0.244590  0.999192  0.500000  1
  Ca  Ca1  1  0.755410  0.999192  0.500000  1
  Ca  Ca2  1  0.000000  0.500808  0.255410  1
  Ca  Ca3  1  0.000000  0.500808  0.744590  1
  Np  Np4  1  0.500000  0.750000  0.000000  1
  Pa  Pa5  1  0.000000  0.001315  0.000000  1
  Pa  Pa6  1  0.500000  0.498685  0.500000  1
  Pa  Pa7  1  0.500000  0.250000  0.000000  1
  H  H8  1  0.000000  0.153457  0.285883  1
  H  H9  1  0.500000  0.211389  0.661748  1
  H  H10  1  0.500000  0.784419  0.338115  1
  H  H11  1  0.786591  0.649998  0.500000  1
  H  H12  1  0.213409  0.649998  0.500000  1
  H  H13  1  0.352826  0.494020  0.806339  1
  H  H14  1  0.647174  0.494020  0.806339  1
  H  H15  1  0.306339  0.005980  0.147174  1
  H  H16  1  0.161748  0.288611  0.000000  1
  H  H17  1  0.838115  0.715581  0.000000  1
  H  H18  1  0.306339  0.005980  0.852826  1
  H  H19  1  0.838252  0.288611  0.000000  1
  H  H20  1  0.693661  0.005980  0.147174  1
  H  H21  1  0.693661  0.005980  0.852826  1
  H  H22  1  0.161885  0.715581  0.000000  1
  H  H23  1  0.000000  0.850002  0.713409  1
  H  H24  1  0.000000  0.153457  0.714117  1
  H  H25  1  0.000000  0.850002  0.286591  1
  H  H26  1  0.647174  0.494020  0.193661  1
  H  H27  1  0.352826  0.494020  0.193661  1
  H  H28  1  0.785883  0.346543  0.500000  1
  H  H29  1  0.214117  0.346543  0.500000  1
  H  H30  1  0.500000  0.784419  0.661885  1
  H  H31  1  0.500000  0.211389  0.338252  1
