# generated using pymatgen
data_Y5ErAl24Ru7Pt
_symmetry_space_group_name_H-M   'P 1'
_cell_length_a   8.81726390
_cell_length_b   8.81726367
_cell_length_c   9.54083076
_cell_angle_alpha   89.83958784
_cell_angle_beta   90.16041815
_cell_angle_gamma   119.86202675
_symmetry_Int_Tables_number   1
_chemical_formula_structural   Y5ErAl24Ru7Pt
_chemical_formula_sum   'Y5 Er1 Al24 Ru7 Pt1'
_cell_volume   643.25673952
_cell_formula_units_Z   1
loop_
 _symmetry_equiv_pos_site_id
 _symmetry_equiv_pos_as_xyz
  1  'x, y, z'
loop_
 _atom_site_type_symbol
 _atom_site_label
 _atom_site_symmetry_multiplicity
 _atom_site_fract_x
 _atom_site_fract_y
 _atom_site_fract_z
 _atom_site_occupancy
  Y  Y0  1  0.191911  0.386258  0.250320  1
  Y  Y1  1  0.808097  0.613406  0.749679  1
  Y  Y2  1  0.613742  0.808089  0.250320  1
  Y  Y3  1  0.386594  0.191903  0.749679  1
  Y  Y4  1  0.194123  0.805877  0.250496  1
  Er  Er5  1  0.805445  0.194555  0.749403  1
  Al  Al6  1  0.330795  0.669205  0.019561  1
  Al  Al7  1  0.669425  0.330575  0.980002  1
  Al  Al8  1  0.667015  0.332985  0.516584  1
  Al  Al9  1  0.333193  0.666807  0.483818  1
  Al  Al10  1  0.162366  0.323950  0.578986  1
  Al  Al11  1  0.837251  0.675881  0.421292  1
  Al  Al12  1  0.676050  0.837634  0.578986  1
  Al  Al13  1  0.842334  0.676301  0.077890  1
  Al  Al14  1  0.324119  0.162749  0.421292  1
  Al  Al15  1  0.157236  0.323518  0.921817  1
  Al  Al16  1  0.162619  0.837381  0.578532  1
  Al  Al17  1  0.323699  0.157666  0.077890  1
  Al  Al18  1  0.837359  0.162641  0.421932  1
  Al  Al19  1  0.676482  0.842764  0.921817  1
  Al  Al20  1  0.837402  0.162598  0.077494  1
  Al  Al21  1  0.162566  0.837434  0.922029  1
  Al  Al22  1  0.560612  0.121818  0.248663  1
  Al  Al23  1  0.440012  0.878665  0.751338  1
  Al  Al24  1  0.878182  0.439388  0.248663  1
  Al  Al25  1  0.121335  0.559988  0.751338  1
  Al  Al26  1  0.561993  0.438007  0.252038  1
  Al  Al27  1  0.437962  0.562038  0.747991  1
  Al  Al28  1  0.999615  0.000385  0.249987  1
  Al  Al29  1  0.999970  0.000030  0.750020  1
  Ru  Ru30  1  0.500327  0.000212  0.999754  1
  Ru  Ru31  1  0.999788  0.499673  0.999754  1
  Ru  Ru32  1  0.500427  0.000257  0.500301  1
  Ru  Ru33  1  0.999743  0.499573  0.500301  1
  Ru  Ru34  1  0.500095  0.499905  0.500074  1
  Ru  Ru35  1  0.000023  0.999977  0.000042  1
  Ru  Ru36  1  0.000030  0.999970  0.499957  1
  Pt  Pt37  1  0.500065  0.499935  0.999962  1
