# generated using pymatgen
data_SmCdNiPt3
_symmetry_space_group_name_H-M   'P 1'
_cell_length_a   5.22663204
_cell_length_b   5.22663112
_cell_length_c   5.22663152
_cell_angle_alpha   62.69144858
_cell_angle_beta   62.69144842
_cell_angle_gamma   62.69145449
_symmetry_Int_Tables_number   1
_chemical_formula_structural   SmCdNiPt3
_chemical_formula_sum   'Sm1 Cd1 Ni1 Pt3'
_cell_volume   107.00713615
_cell_formula_units_Z   1
loop_
 _symmetry_equiv_pos_site_id
 _symmetry_equiv_pos_as_xyz
  1  'x, y, z'
loop_
 _atom_site_type_symbol
 _atom_site_label
 _atom_site_symmetry_multiplicity
 _atom_site_fract_x
 _atom_site_fract_y
 _atom_site_fract_z
 _atom_site_occupancy
  Sm  Sm0  1  0.249383  0.249383  0.249383  1
  Cd  Cd1  1  0.996019  0.996019  0.996019  1
  Ni  Ni2  1  0.627107  0.627107  0.627107  1
  Pt  Pt3  1  0.626790  0.626790  0.123911  1
  Pt  Pt4  1  0.626790  0.123911  0.626790  1
  Pt  Pt5  1  0.123911  0.626790  0.626790  1
