# generated using pymatgen
data_VCl9
_symmetry_space_group_name_H-M   'P 1'
_cell_length_a   7.86824901
_cell_length_b   8.35367961
_cell_length_c   12.72900252
_cell_angle_alpha   94.59335727
_cell_angle_beta   110.62725446
_cell_angle_gamma   89.88958148
_symmetry_Int_Tables_number   1
_chemical_formula_structural   VCl9
_chemical_formula_sum   'V2 Cl18'
_cell_volume   780.20092876
_cell_formula_units_Z   2
loop_
 _symmetry_equiv_pos_site_id
 _symmetry_equiv_pos_as_xyz
  1  'x, y, z'
loop_
 _atom_site_type_symbol
 _atom_site_label
 _atom_site_symmetry_multiplicity
 _atom_site_fract_x
 _atom_site_fract_y
 _atom_site_fract_z
 _atom_site_occupancy
  V  V0  1  0.516873  0.772107  0.814157  1
  V  V1  1  0.483127  0.227893  0.185843  1
  Cl  Cl2  1  0.879027  0.757593  0.464532  1
  Cl  Cl3  1  0.120973  0.242407  0.535468  1
  Cl  Cl4  1  0.068850  0.655037  0.203577  1
  Cl  Cl5  1  0.931150  0.344963  0.796423  1
  Cl  Cl6  1  0.867913  0.788470  0.224231  1
  Cl  Cl7  1  0.132087  0.211530  0.775769  1
  Cl  Cl8  1  0.384029  0.672094  0.644183  1
  Cl  Cl9  1  0.615971  0.327906  0.355817  1
  Cl  Cl10  1  0.454401  0.022941  0.763034  1
  Cl  Cl11  1  0.545599  0.977059  0.236966  1
  Cl  Cl12  1  0.348682  0.798809  0.916304  1
  Cl  Cl13  1  0.651318  0.201191  0.083696  1
  Cl  Cl14  1  0.601280  0.532003  0.876400  1
  Cl  Cl15  1  0.398720  0.467997  0.123600  1
  Cl  Cl16  1  0.122666  0.247976  0.377919  1
  Cl  Cl17  1  0.877334  0.752024  0.622081  1
  Cl  Cl18  1  0.195925  0.153920  0.126314  1
  Cl  Cl19  1  0.804075  0.846080  0.873686  1
