# generated using pymatgen
data_Ti6AlIn5Pd12
_symmetry_space_group_name_H-M   'P 1'
_cell_length_a   4.57750402
_cell_length_b   6.31625500
_cell_length_c   13.79704706
_cell_angle_alpha   89.99979655
_cell_angle_beta   89.98908162
_cell_angle_gamma   90.00329536
_symmetry_Int_Tables_number   1
_chemical_formula_structural   Ti6AlIn5Pd12
_chemical_formula_sum   'Ti6 Al1 In5 Pd12'
_cell_volume   398.90963578
_cell_formula_units_Z   1
loop_
 _symmetry_equiv_pos_site_id
 _symmetry_equiv_pos_as_xyz
  1  'x, y, z'
loop_
 _atom_site_type_symbol
 _atom_site_label
 _atom_site_symmetry_multiplicity
 _atom_site_fract_x
 _atom_site_fract_y
 _atom_site_fract_z
 _atom_site_occupancy
  Ti  Ti0  1  0.000010  0.999951  0.999114  1
  Ti  Ti1  1  0.500301  0.500023  0.164727  1
  Ti  Ti2  1  0.000219  0.999898  0.333383  1
  Ti  Ti3  1  0.500114  0.499970  0.502071  1
  Ti  Ti4  1  0.999818  0.999975  0.667489  1
  Ti  Ti5  1  0.499774  0.500022  0.833291  1
  Al  Al6  1  0.499674  0.000024  0.833254  1
  In  In7  1  0.000030  0.499950  0.997620  1
  In  In8  1  0.500299  0.000015  0.164381  1
  In  In9  1  0.000142  0.499984  0.333320  1
  In  In10  1  0.499940  0.000092  0.502336  1
  In  In11  1  0.999931  0.500055  0.669052  1
  Pd  Pd12  1  0.499927  0.239603  0.989774  1
  Pd  Pd13  1  0.500078  0.760424  0.989786  1
  Pd  Pd14  1  0.000301  0.247797  0.166496  1
  Pd  Pd15  1  0.000317  0.752138  0.166439  1
  Pd  Pd16  1  0.500163  0.252694  0.333466  1
  Pd  Pd17  1  0.500231  0.747359  0.333436  1
  Pd  Pd18  1  0.999972  0.248003  0.500194  1
  Pd  Pd19  1  0.999943  0.751960  0.500202  1
  Pd  Pd20  1  0.499740  0.239616  0.676798  1
  Pd  Pd21  1  0.499973  0.760554  0.676789  1
  Pd  Pd22  1  0.999661  0.228367  0.833258  1
  Pd  Pd23  1  0.999447  0.771528  0.833324  1
