# generated using pymatgen
data_Nd9ScIn6
_symmetry_space_group_name_H-M   'P 1'
_cell_length_a   6.07301578
_cell_length_b   9.42828952
_cell_length_c   9.42828850
_cell_angle_alpha   84.04629041
_cell_angle_beta   71.21224020
_cell_angle_gamma   71.21223653
_symmetry_Int_Tables_number   1
_chemical_formula_structural   Nd9ScIn6
_chemical_formula_sum   'Nd9 Sc1 In6'
_cell_volume   483.85086357
_cell_formula_units_Z   1
loop_
 _symmetry_equiv_pos_site_id
 _symmetry_equiv_pos_as_xyz
  1  'x, y, z'
loop_
 _atom_site_type_symbol
 _atom_site_label
 _atom_site_symmetry_multiplicity
 _atom_site_fract_x
 _atom_site_fract_y
 _atom_site_fract_z
 _atom_site_occupancy
  Nd  Nd0  1  0.725687  0.863418  0.692936  1
  Nd  Nd1  1  0.282041  0.136582  0.307064  1
  Nd  Nd2  1  0.774313  0.307064  0.136582  1
  Nd  Nd3  1  0.217959  0.692936  0.863418  1
  Nd  Nd4  1  0.581378  0.692936  0.136582  1
  Nd  Nd5  1  0.410895  0.307064  0.863418  1
  Nd  Nd6  1  0.089105  0.136582  0.692936  1
  Nd  Nd7  1  0.918622  0.863418  0.307064  1
  Nd  Nd8  1  0.750000  0.500000  0.500000  1
  Sc  Sc9  1  0.250000  0.500000  0.500000  1
  In  In10  1  0.166382  0.500000  0.184557  1
  In  In11  1  0.850939  0.500000  0.815443  1
  In  In12  1  0.333618  0.815443  0.500000  1
  In  In13  1  0.649061  0.184557  0.500000  1
  In  In14  1  0.250000  0.000000  0.000000  1
  In  In15  1  0.750000  0.000000  0.000000  1
