# generated using pymatgen
data_TbSm11(SiI3)4
_symmetry_space_group_name_H-M   'P 1'
_cell_length_a   10.67192691
_cell_length_b   10.67192695
_cell_length_c   10.68708559
_cell_angle_alpha   109.46288325
_cell_angle_beta   109.46288427
_cell_angle_gamma   109.41416609
_symmetry_Int_Tables_number   1
_chemical_formula_structural   TbSm11(SiI3)4
_chemical_formula_sum   'Tb1 Sm11 Si4 I12'
_cell_volume   937.81579477
_cell_formula_units_Z   1
loop_
 _symmetry_equiv_pos_site_id
 _symmetry_equiv_pos_as_xyz
  1  'x, y, z'
loop_
 _atom_site_type_symbol
 _atom_site_label
 _atom_site_symmetry_multiplicity
 _atom_site_fract_x
 _atom_site_fract_y
 _atom_site_fract_z
 _atom_site_occupancy
  Tb  Tb0  1  0.230713  0.269287  0.750000  1
  Sm  Sm1  1  0.463555  0.481762  0.231846  1
  Sm  Sm2  1  0.751724  0.231852  0.269844  1
  Sm  Sm3  1  0.749310  0.018073  0.481086  1
  Sm  Sm4  1  0.231493  0.463227  0.481221  1
  Sm  Sm5  1  0.268148  0.748276  0.230156  1
  Sm  Sm6  1  0.036773  0.268507  0.018779  1
  Sm  Sm7  1  0.018238  0.036445  0.268154  1
  Sm  Sm8  1  0.481927  0.750690  0.018914  1
  Sm  Sm9  1  0.481446  0.231626  0.463232  1
  Sm  Sm10  1  0.019034  0.480966  0.750000  1
  Sm  Sm11  1  0.268374  0.018554  0.036768  1
  Si  Si12  1  0.250006  0.249994  0.250000  1
  Si  Si13  1  0.499804  0.000196  0.250000  1
  Si  Si14  1  0.001935  0.249600  0.501666  1
  Si  Si15  1  0.250400  0.498065  0.998334  1
  I  I16  1  0.250179  0.757298  0.743060  1
  I  I17  1  0.511336  0.504723  0.757133  1
  I  I18  1  0.985364  0.742047  0.992397  1
  I  I19  1  0.742702  0.249821  0.756940  1
  I  I20  1  0.995277  0.988664  0.742867  1
  I  I21  1  0.249659  0.994633  0.508827  1
  I  I22  1  0.757953  0.514636  0.507603  1
  I  I23  1  0.505367  0.250341  0.991173  1
  I  I24  1  0.757362  0.742638  0.250000  1
  I  I25  1  0.742501  0.993130  0.985735  1
  I  I26  1  0.992548  0.507452  0.250000  1
  I  I27  1  0.506870  0.757499  0.514265  1
