# generated using pymatgen
data_Lu2Mn2Se
_symmetry_space_group_name_H-M   'P 1'
_cell_length_a   3.88645400
_cell_length_b   3.88645496
_cell_length_c   15.19072200
_cell_angle_alpha   90.00000000
_cell_angle_beta   90.00000000
_cell_angle_gamma   119.99999185
_symmetry_Int_Tables_number   1
_chemical_formula_structural   Lu2Mn2Se
_chemical_formula_sum   'Lu4 Mn4 Se2'
_cell_volume   198.70841253
_cell_formula_units_Z   2
loop_
 _symmetry_equiv_pos_site_id
 _symmetry_equiv_pos_as_xyz
  1  'x, y, z'
loop_
 _atom_site_type_symbol
 _atom_site_label
 _atom_site_symmetry_multiplicity
 _atom_site_fract_x
 _atom_site_fract_y
 _atom_site_fract_z
 _atom_site_occupancy
  Lu  Lu0  1  0.000000  0.000000  0.126380  1
  Lu  Lu1  1  0.000000  0.000000  0.873620  1
  Lu  Lu2  1  0.000000  0.000000  0.626380  1
  Lu  Lu3  1  0.000000  0.000000  0.373620  1
  Mn  Mn4  1  0.333333  0.666667  0.502323  1
  Mn  Mn5  1  0.666667  0.333333  0.497677  1
  Mn  Mn6  1  0.666667  0.333333  0.002323  1
  Mn  Mn7  1  0.333333  0.666667  0.997677  1
  Se  Se8  1  0.333333  0.666667  0.250000  1
  Se  Se9  1  0.666667  0.333333  0.750000  1
