# generated using pymatgen
data_Th3AlIn2IrPd2
_symmetry_space_group_name_H-M   'P 1'
_cell_length_a   7.55398966
_cell_length_b   7.58123307
_cell_length_c   4.16423700
_cell_angle_alpha   90.00000000
_cell_angle_beta   90.00000000
_cell_angle_gamma   120.66369106
_symmetry_Int_Tables_number   1
_chemical_formula_structural   Th3AlIn2IrPd2
_chemical_formula_sum   'Th3 Al1 In2 Ir1 Pd2'
_cell_volume   205.13454858
_cell_formula_units_Z   1
loop_
 _symmetry_equiv_pos_site_id
 _symmetry_equiv_pos_as_xyz
  1  'x, y, z'
loop_
 _atom_site_type_symbol
 _atom_site_label
 _atom_site_symmetry_multiplicity
 _atom_site_fract_x
 _atom_site_fract_y
 _atom_site_fract_z
 _atom_site_occupancy
  Th  Th0  1  0.422461  0.013347  0.500000  1
  Th  Th1  1  0.997001  0.414063  0.500000  1
  Th  Th2  1  0.577626  0.569227  0.500000  1
  Al  Al3  1  0.243947  0.241347  0.000000  1
  In  In4  1  0.755361  0.997110  0.000000  1
  In  In5  1  0.001612  0.757322  0.000000  1
  Ir  Ir6  1  0.646132  0.328088  0.000000  1
  Pd  Pd7  1  0.328597  0.651031  0.000000  1
  Pd  Pd8  1  0.027261  0.028467  0.500000  1
