# generated using pymatgen
data_LaTh2(ZnNi)3
_symmetry_space_group_name_H-M   'P 1'
_cell_length_a   7.26422200
_cell_length_b   7.25813487
_cell_length_c   3.85339400
_cell_angle_alpha   90.00000000
_cell_angle_beta   90.00000000
_cell_angle_gamma   120.02774662
_symmetry_Int_Tables_number   1
_chemical_formula_structural   LaTh2(ZnNi)3
_chemical_formula_sum   'La1 Th2 Zn3 Ni3'
_cell_volume   175.90034734
_cell_formula_units_Z   1
loop_
 _symmetry_equiv_pos_site_id
 _symmetry_equiv_pos_as_xyz
  1  'x, y, z'
loop_
 _atom_site_type_symbol
 _atom_site_label
 _atom_site_symmetry_multiplicity
 _atom_site_fract_x
 _atom_site_fract_y
 _atom_site_fract_z
 _atom_site_occupancy
  La  La0  1  0.584216  0.000000  0.000000  1
  Th  Th1  1  0.999741  0.583102  0.000000  1
  Th  Th2  1  0.416639  0.416898  0.000000  1
  Zn  Zn3  1  0.232227  0.000000  0.500000  1
  Zn  Zn4  1  0.769435  0.767799  0.500000  1
  Zn  Zn5  1  0.001636  0.232201  0.500000  1
  Ni  Ni6  1  0.006468  0.000000  0.000000  1
  Ni  Ni7  1  0.670424  0.351209  0.500000  1
  Ni  Ni8  1  0.319214  0.648791  0.500000  1
