# generated using pymatgen
data_Si2Ni4Mo6N
_symmetry_space_group_name_H-M   'P 1'
_cell_length_a   7.72636133
_cell_length_b   7.72636007
_cell_length_c   7.72636000
_cell_angle_alpha   59.99999173
_cell_angle_beta   59.99999714
_cell_angle_gamma   59.99999516
_symmetry_Int_Tables_number   1
_chemical_formula_structural   Si2Ni4Mo6N
_chemical_formula_sum   'Si4 Ni8 Mo12 N2'
_cell_volume   326.14434116
_cell_formula_units_Z   2
loop_
 _symmetry_equiv_pos_site_id
 _symmetry_equiv_pos_as_xyz
  1  'x, y, z'
loop_
 _atom_site_type_symbol
 _atom_site_label
 _atom_site_symmetry_multiplicity
 _atom_site_fract_x
 _atom_site_fract_y
 _atom_site_fract_z
 _atom_site_occupancy
  Si  Si0  1  0.125000  0.625000  0.125000  1
  Si  Si1  1  0.125000  0.125000  0.625000  1
  Si  Si2  1  0.625000  0.125000  0.125000  1
  Si  Si3  1  0.125000  0.125000  0.125000  1
  Ni  Ni4  1  0.331537  0.331537  0.005389  1
  Ni  Ni5  1  0.331537  0.331537  0.331537  1
  Ni  Ni6  1  0.244611  0.918463  0.918463  1
  Ni  Ni7  1  0.918463  0.918463  0.918463  1
  Ni  Ni8  1  0.005389  0.331537  0.331537  1
  Ni  Ni9  1  0.331537  0.005389  0.331537  1
  Ni  Ni10  1  0.918463  0.918463  0.244611  1
  Ni  Ni11  1  0.918463  0.244611  0.918463  1
  Mo  Mo12  1  0.305947  0.694053  0.694053  1
  Mo  Mo13  1  0.694053  0.694053  0.305947  1
  Mo  Mo14  1  0.694053  0.305947  0.694053  1
  Mo  Mo15  1  0.305947  0.694053  0.305947  1
  Mo  Mo16  1  0.555947  0.944053  0.555947  1
  Mo  Mo17  1  0.555947  0.944053  0.944053  1
  Mo  Mo18  1  0.944053  0.555947  0.555947  1
  Mo  Mo19  1  0.944053  0.555947  0.944053  1
  Mo  Mo20  1  0.305947  0.305947  0.694053  1
  Mo  Mo21  1  0.555947  0.555947  0.944053  1
  Mo  Mo22  1  0.944053  0.944053  0.555947  1
  Mo  Mo23  1  0.694053  0.305947  0.305947  1
  N  N24  1  0.500000  0.500000  0.500000  1
  N  N25  1  0.750000  0.750000  0.750000  1
