# generated using pymatgen
data_Tm8Hg3Au
_symmetry_space_group_name_H-M   'P 1'
_cell_length_a   4.99298900
_cell_length_b   6.97807361
_cell_length_c   9.05806242
_cell_angle_alpha   89.99135363
_cell_angle_beta   90.00000000
_cell_angle_gamma   90.00000000
_symmetry_Int_Tables_number   1
_chemical_formula_structural   Tm8Hg3Au
_chemical_formula_sum   'Tm8 Hg3 Au1'
_cell_volume   315.59597812
_cell_formula_units_Z   1
loop_
 _symmetry_equiv_pos_site_id
 _symmetry_equiv_pos_as_xyz
  1  'x, y, z'
loop_
 _atom_site_type_symbol
 _atom_site_label
 _atom_site_symmetry_multiplicity
 _atom_site_fract_x
 _atom_site_fract_y
 _atom_site_fract_z
 _atom_site_occupancy
  Tm  Tm0  1  0.250000  0.839315  0.923473  1
  Tm  Tm1  1  0.250000  0.332823  0.570816  1
  Tm  Tm2  1  0.750000  0.168402  0.085352  1
  Tm  Tm3  1  0.750000  0.650614  0.423860  1
  Tm  Tm4  1  0.250000  0.486286  0.189967  1
  Tm  Tm5  1  0.250000  0.989226  0.313546  1
  Tm  Tm6  1  0.750000  0.514372  0.808222  1
  Tm  Tm7  1  0.750000  0.019105  0.683266  1
  Hg  Hg8  1  0.250000  0.263297  0.897250  1
  Hg  Hg9  1  0.250000  0.757734  0.601769  1
  Hg  Hg10  1  0.750000  0.740055  0.101229  1
  Au  Au11  1  0.750000  0.238770  0.401250  1
