# generated using pymatgen
data_Tb4AlZn3Ir4
_symmetry_space_group_name_H-M   'P 1'
_cell_length_a   4.14337300
_cell_length_b   6.95143161
_cell_length_c   8.05137604
_cell_angle_alpha   89.78254899
_cell_angle_beta   90.00000000
_cell_angle_gamma   90.00000000
_symmetry_Int_Tables_number   1
_chemical_formula_structural   Tb4AlZn3Ir4
_chemical_formula_sum   'Tb4 Al1 Zn3 Ir4'
_cell_volume   231.89707424
_cell_formula_units_Z   1
loop_
 _symmetry_equiv_pos_site_id
 _symmetry_equiv_pos_as_xyz
  1  'x, y, z'
loop_
 _atom_site_type_symbol
 _atom_site_label
 _atom_site_symmetry_multiplicity
 _atom_site_fract_x
 _atom_site_fract_y
 _atom_site_fract_z
 _atom_site_occupancy
  Tb  Tb0  1  0.250000  0.969080  0.317853  1
  Tb  Tb1  1  0.250000  0.474201  0.187728  1
  Tb  Tb2  1  0.750000  0.026806  0.682491  1
  Tb  Tb3  1  0.750000  0.531295  0.814900  1
  Al  Al4  1  0.750000  0.144822  0.065072  1
  Zn  Zn5  1  0.250000  0.351423  0.568289  1
  Zn  Zn6  1  0.250000  0.853926  0.930164  1
  Zn  Zn7  1  0.750000  0.644497  0.431498  1
  Ir  Ir8  1  0.250000  0.235722  0.894306  1
  Ir  Ir9  1  0.250000  0.736066  0.617670  1
  Ir  Ir10  1  0.750000  0.771188  0.115729  1
  Ir  Ir11  1  0.750000  0.260974  0.374300  1
