# generated using pymatgen
data_CaNd2(AlIr2)3
_symmetry_space_group_name_H-M   'P 1'
_cell_length_a   5.63113900
_cell_length_b   5.63113975
_cell_length_c   15.68262300
_cell_angle_alpha   90.00000000
_cell_angle_beta   90.00000000
_cell_angle_gamma   120.00000149
_symmetry_Int_Tables_number   1
_chemical_formula_structural   CaNd2(AlIr2)3
_chemical_formula_sum   'Ca2 Nd4 Al6 Ir12'
_cell_volume   430.66728310
_cell_formula_units_Z   2
loop_
 _symmetry_equiv_pos_site_id
 _symmetry_equiv_pos_as_xyz
  1  'x, y, z'
loop_
 _atom_site_type_symbol
 _atom_site_label
 _atom_site_symmetry_multiplicity
 _atom_site_fract_x
 _atom_site_fract_y
 _atom_site_fract_z
 _atom_site_occupancy
  Ca  Ca0  1  0.333333  0.666667  0.750000  1
  Ca  Ca1  1  0.666667  0.333333  0.250000  1
  Nd  Nd2  1  0.333333  0.666667  0.543832  1
  Nd  Nd3  1  0.666667  0.333333  0.456168  1
  Nd  Nd4  1  0.666667  0.333333  0.043832  1
  Nd  Nd5  1  0.333333  0.666667  0.956168  1
  Al  Al6  1  0.000000  0.000000  0.250000  1
  Al  Al7  1  0.000000  0.000000  0.750000  1
  Al  Al8  1  0.333333  0.666667  0.250000  1
  Al  Al9  1  0.666667  0.333333  0.750000  1
  Al  Al10  1  0.000000  0.000000  0.000000  1
  Al  Al11  1  0.000000  0.000000  0.500000  1
  Ir  Ir12  1  0.168222  0.336442  0.127167  1
  Ir  Ir13  1  0.831778  0.663558  0.872833  1
  Ir  Ir14  1  0.663558  0.831778  0.127167  1
  Ir  Ir15  1  0.831778  0.663558  0.627167  1
  Ir  Ir16  1  0.336442  0.168222  0.872833  1
  Ir  Ir17  1  0.168222  0.336442  0.372833  1
  Ir  Ir18  1  0.168222  0.831778  0.127167  1
  Ir  Ir19  1  0.336442  0.168222  0.627167  1
  Ir  Ir20  1  0.831778  0.168222  0.872833  1
  Ir  Ir21  1  0.663558  0.831778  0.372833  1
  Ir  Ir22  1  0.831778  0.168222  0.627167  1
  Ir  Ir23  1  0.168222  0.831778  0.372833  1
