# generated using pymatgen
data_SrSb12(OsRu)2
_symmetry_space_group_name_H-M   'P 1'
_cell_length_a   8.15907669
_cell_length_b   8.15907707
_cell_length_c   8.17435644
_cell_angle_alpha   109.46662958
_cell_angle_beta   109.46305175
_cell_angle_gamma   109.40815041
_symmetry_Int_Tables_number   1
_chemical_formula_structural   SrSb12(OsRu)2
_chemical_formula_sum   'Sr1 Sb12 Os2 Ru2'
_cell_volume   419.29471904
_cell_formula_units_Z   1
loop_
 _symmetry_equiv_pos_site_id
 _symmetry_equiv_pos_as_xyz
  1  'x, y, z'
loop_
 _atom_site_type_symbol
 _atom_site_label
 _atom_site_symmetry_multiplicity
 _atom_site_fract_x
 _atom_site_fract_y
 _atom_site_fract_z
 _atom_site_occupancy
  Sr  Sr0  1  0.000000  0.000000  0.000000  1
  Sb  Sb1  1  0.159278  0.500428  0.342379  1
  Sb  Sb2  1  0.499313  0.657636  0.840720  1
  Sb  Sb3  1  0.341931  0.841350  0.183282  1
  Sb  Sb4  1  0.816915  0.658593  0.159280  1
  Sb  Sb5  1  0.658087  0.841045  0.499133  1
  Sb  Sb6  1  0.183085  0.341407  0.840720  1
  Sb  Sb7  1  0.658069  0.158650  0.816718  1
  Sb  Sb8  1  0.341913  0.158955  0.500867  1
  Sb  Sb9  1  0.500687  0.342364  0.159280  1
  Sb  Sb10  1  0.840722  0.499572  0.657621  1
  Sb  Sb11  1  0.841951  0.183102  0.342379  1
  Sb  Sb12  1  0.158049  0.816898  0.657621  1
  Os  Os13  1  0.500000  0.000000  0.000000  1
  Os  Os14  1  0.000000  0.500000  0.000000  1
  Ru  Ru15  1  0.500000  0.500000  0.500000  1
  Ru  Ru16  1  0.000000  0.000000  0.500000  1
