# generated using pymatgen
data_Dy10(RuRh)3
_symmetry_space_group_name_H-M   'P 1'
_cell_length_a   10.86284807
_cell_length_b   10.86085100
_cell_length_c   6.39936560
_cell_angle_alpha   90.00000000
_cell_angle_beta   89.91978672
_cell_angle_gamma   90.00000000
_symmetry_Int_Tables_number   1
_chemical_formula_structural   Dy10(RuRh)3
_chemical_formula_sum   'Dy20 Ru6 Rh6'
_cell_volume   754.99496982
_cell_formula_units_Z   2
loop_
 _symmetry_equiv_pos_site_id
 _symmetry_equiv_pos_as_xyz
  1  'x, y, z'
loop_
 _atom_site_type_symbol
 _atom_site_label
 _atom_site_symmetry_multiplicity
 _atom_site_fract_x
 _atom_site_fract_y
 _atom_site_fract_z
 _atom_site_occupancy
  Dy  Dy0  1  0.294018  0.086575  0.378614  1
  Dy  Dy1  1  0.294018  0.913425  0.878614  1
  Dy  Dy2  1  0.708265  0.086025  0.878570  1
  Dy  Dy3  1  0.708265  0.913975  0.378570  1
  Dy  Dy4  1  0.588375  0.794153  0.878468  1
  Dy  Dy5  1  0.588375  0.205847  0.378468  1
  Dy  Dy6  1  0.413493  0.794239  0.377953  1
  Dy  Dy7  1  0.413493  0.205761  0.877953  1
  Dy  Dy8  1  0.205624  0.413491  0.621513  1
  Dy  Dy9  1  0.205624  0.586509  0.121513  1
  Dy  Dy10  1  0.794086  0.411711  0.121906  1
  Dy  Dy11  1  0.794086  0.588289  0.621906  1
  Dy  Dy12  1  0.912667  0.706896  0.120536  1
  Dy  Dy13  1  0.912667  0.293104  0.620536  1
  Dy  Dy14  1  0.085124  0.707399  0.622429  1
  Dy  Dy15  1  0.085124  0.292601  0.122429  1
  Dy  Dy16  1  0.998177  0.000630  0.499890  1
  Dy  Dy17  1  0.998177  0.999370  0.999890  1
  Dy  Dy18  1  0.499860  0.500291  0.000116  1
  Dy  Dy19  1  0.499860  0.499709  0.500116  1
  Ru  Ru20  1  0.847450  0.152946  0.249777  1
  Ru  Ru21  1  0.847450  0.847054  0.749777  1
  Ru  Ru22  1  0.499276  0.000116  0.124434  1
  Ru  Ru23  1  0.499276  0.999884  0.624434  1
  Ru  Ru24  1  0.000147  0.500312  0.875577  1
  Ru  Ru25  1  0.000147  0.499688  0.375577  1
  Rh  Rh26  1  0.153906  0.153339  0.750144  1
  Rh  Rh27  1  0.153906  0.846661  0.250144  1
  Rh  Rh28  1  0.651828  0.348482  0.749615  1
  Rh  Rh29  1  0.651828  0.651518  0.249615  1
  Rh  Rh30  1  0.347700  0.347206  0.250457  1
  Rh  Rh31  1  0.347700  0.652794  0.750457  1
