# generated using pymatgen
data_Y16Cd4Pd3Ru
_symmetry_space_group_name_H-M   'P 1'
_cell_length_a   9.74866257
_cell_length_b   9.74866271
_cell_length_c   9.74866274
_cell_angle_alpha   59.52639887
_cell_angle_beta   59.52640190
_cell_angle_gamma   59.52639654
_symmetry_Int_Tables_number   1
_chemical_formula_structural   Y16Cd4Pd3Ru
_chemical_formula_sum   'Y16 Cd4 Pd3 Ru1'
_cell_volume   648.06377879
_cell_formula_units_Z   1
loop_
 _symmetry_equiv_pos_site_id
 _symmetry_equiv_pos_as_xyz
  1  'x, y, z'
loop_
 _atom_site_type_symbol
 _atom_site_label
 _atom_site_symmetry_multiplicity
 _atom_site_fract_x
 _atom_site_fract_y
 _atom_site_fract_z
 _atom_site_occupancy
  Y  Y0  1  0.353788  0.353788  0.353788  1
  Y  Y1  1  0.350855  0.350855  0.943176  1
  Y  Y2  1  0.350855  0.943176  0.350855  1
  Y  Y3  1  0.943176  0.350855  0.350855  1
  Y  Y4  1  0.816642  0.188116  0.188116  1
  Y  Y5  1  0.188483  0.810769  0.810769  1
  Y  Y6  1  0.188116  0.816642  0.188116  1
  Y  Y7  1  0.810769  0.188483  0.810769  1
  Y  Y8  1  0.188116  0.188116  0.816642  1
  Y  Y9  1  0.810769  0.810769  0.188483  1
  Y  Y10  1  0.934726  0.565855  0.565855  1
  Y  Y11  1  0.561301  0.935868  0.935868  1
  Y  Y12  1  0.565855  0.934726  0.565855  1
  Y  Y13  1  0.935868  0.561301  0.935868  1
  Y  Y14  1  0.565855  0.565855  0.934726  1
  Y  Y15  1  0.935868  0.935868  0.561301  1
  Cd  Cd16  1  0.580723  0.580723  0.580723  1
  Cd  Cd17  1  0.581540  0.581540  0.254207  1
  Cd  Cd18  1  0.581540  0.254207  0.581540  1
  Cd  Cd19  1  0.254207  0.581540  0.581540  1
  Pd  Pd20  1  0.144533  0.144533  0.567786  1
  Pd  Pd21  1  0.144533  0.567786  0.144533  1
  Pd  Pd22  1  0.567786  0.144533  0.144533  1
  Ru  Ru23  1  0.144094  0.144094  0.144094  1
