# generated using pymatgen
data_Mg4Zn6NiPd
_symmetry_space_group_name_H-M   'P 1'
_cell_length_a   5.16774900
_cell_length_b   5.17181080
_cell_length_c   8.31073800
_cell_angle_alpha   90.00000000
_cell_angle_beta   90.00000000
_cell_angle_gamma   121.16281395
_symmetry_Int_Tables_number   1
_chemical_formula_structural   Mg4Zn6NiPd
_chemical_formula_sum   'Mg4 Zn6 Ni1 Pd1'
_cell_volume   190.06638321
_cell_formula_units_Z   1
loop_
 _symmetry_equiv_pos_site_id
 _symmetry_equiv_pos_as_xyz
  1  'x, y, z'
loop_
 _atom_site_type_symbol
 _atom_site_label
 _atom_site_symmetry_multiplicity
 _atom_site_fract_x
 _atom_site_fract_y
 _atom_site_fract_z
 _atom_site_occupancy
  Mg  Mg0  1  0.327840  0.659347  0.062730  1
  Mg  Mg1  1  0.673184  0.331247  0.564559  1
  Mg  Mg2  1  0.673184  0.331247  0.935441  1
  Mg  Mg3  1  0.327840  0.659347  0.437270  1
  Zn  Zn4  1  0.007538  0.018113  0.993428  1
  Zn  Zn5  1  0.007538  0.018113  0.506572  1
  Zn  Zn6  1  0.334864  0.165881  0.250000  1
  Zn  Zn7  1  0.655383  0.818487  0.750000  1
  Zn  Zn8  1  0.167686  0.824801  0.750000  1
  Zn  Zn9  1  0.830855  0.665551  0.250000  1
  Ni  Ni10  1  0.171633  0.339917  0.750000  1
  Pd  Pd11  1  0.822454  0.167949  0.250000  1
