# generated using pymatgen
data_Sr4Ga4Sn5Au7
_symmetry_space_group_name_H-M   'P 1'
_cell_length_a   4.63464900
_cell_length_b   4.63464900
_cell_length_c   22.76087200
_cell_angle_alpha   90.00000000
_cell_angle_beta   90.00000000
_cell_angle_gamma   90.00000000
_symmetry_Int_Tables_number   1
_chemical_formula_structural   Sr4Ga4Sn5Au7
_chemical_formula_sum   'Sr4 Ga4 Sn5 Au7'
_cell_volume   488.90287853
_cell_formula_units_Z   1
loop_
 _symmetry_equiv_pos_site_id
 _symmetry_equiv_pos_as_xyz
  1  'x, y, z'
loop_
 _atom_site_type_symbol
 _atom_site_label
 _atom_site_symmetry_multiplicity
 _atom_site_fract_x
 _atom_site_fract_y
 _atom_site_fract_z
 _atom_site_occupancy
  Sr  Sr0  1  0.500000  0.000000  0.878188  1
  Sr  Sr1  1  0.500000  0.000000  0.385157  1
  Sr  Sr2  1  0.000000  0.500000  0.121812  1
  Sr  Sr3  1  0.000000  0.500000  0.614843  1
  Ga  Ga4  1  0.500000  0.000000  0.068146  1
  Ga  Ga5  1  0.500000  0.000000  0.555266  1
  Ga  Ga6  1  0.000000  0.500000  0.931854  1
  Ga  Ga7  1  0.000000  0.500000  0.444734  1
  Sn  Sn8  1  0.500000  0.500000  0.744034  1
  Sn  Sn9  1  0.500000  0.500000  0.255966  1
  Sn  Sn10  1  0.000000  0.000000  0.746139  1
  Sn  Sn11  1  0.000000  0.000000  0.253861  1
  Sn  Sn12  1  0.500000  0.500000  0.000000  1
  Au  Au13  1  0.500000  0.000000  0.178841  1
  Au  Au14  1  0.500000  0.000000  0.667740  1
  Au  Au15  1  0.000000  0.500000  0.821159  1
  Au  Au16  1  0.000000  0.500000  0.332260  1
  Au  Au17  1  0.500000  0.500000  0.500000  1
  Au  Au18  1  0.000000  0.000000  0.000000  1
  Au  Au19  1  0.000000  0.000000  0.500000  1
