# generated using pymatgen
data_Tm12Fe4CuBi
_symmetry_space_group_name_H-M   'P 1'
_cell_length_a   8.22473373
_cell_length_b   8.22473302
_cell_length_c   8.22473362
_cell_angle_alpha   110.91858211
_cell_angle_beta   111.14161600
_cell_angle_gamma   106.39660597
_symmetry_Int_Tables_number   1
_chemical_formula_structural   Tm12Fe4CuBi
_chemical_formula_sum   'Tm12 Fe4 Cu1 Bi1'
_cell_volume   427.37521888
_cell_formula_units_Z   1
loop_
 _symmetry_equiv_pos_site_id
 _symmetry_equiv_pos_as_xyz
  1  'x, y, z'
loop_
 _atom_site_type_symbol
 _atom_site_label
 _atom_site_symmetry_multiplicity
 _atom_site_fract_x
 _atom_site_fract_y
 _atom_site_fract_z
 _atom_site_occupancy
  Tm  Tm0  1  0.288726  0.186124  0.474850  1
  Tm  Tm1  1  0.711274  0.813876  0.525150  1
  Tm  Tm2  1  0.288726  0.813876  0.102600  1
  Tm  Tm3  1  0.711274  0.186124  0.897400  1
  Tm  Tm4  1  0.615010  0.310466  0.304544  1
  Tm  Tm5  1  0.384990  0.689534  0.695456  1
  Tm  Tm6  1  0.005922  0.310466  0.695456  1
  Tm  Tm7  1  0.994078  0.689534  0.304544  1
  Tm  Tm8  1  0.213304  0.419827  0.206525  1
  Tm  Tm9  1  0.786696  0.580173  0.793475  1
  Tm  Tm10  1  0.213304  0.006779  0.793475  1
  Tm  Tm11  1  0.786696  0.993221  0.206525  1
  Fe  Fe12  1  0.000000  0.383916  0.383916  1
  Fe  Fe13  1  0.000000  0.616084  0.616084  1
  Fe  Fe14  1  0.391937  0.891937  0.500000  1
  Fe  Fe15  1  0.608063  0.108063  0.500000  1
  Cu  Cu16  1  0.000000  0.000000  0.000000  1
  Bi  Bi17  1  0.500000  0.500000  0.000000  1
