# generated using pymatgen
data_Y4SnB4Ir9
_symmetry_space_group_name_H-M   'P 1'
_cell_length_a   10.93822800
_cell_length_b   10.93822777
_cell_length_c   10.93822804
_cell_angle_alpha   29.44829239
_cell_angle_beta   29.44829366
_cell_angle_gamma   29.44830015
_symmetry_Int_Tables_number   1
_chemical_formula_structural   Y4SnB4Ir9
_chemical_formula_sum   'Y4 Sn1 B4 Ir9'
_cell_volume   279.96670714
_cell_formula_units_Z   1
loop_
 _symmetry_equiv_pos_site_id
 _symmetry_equiv_pos_as_xyz
  1  'x, y, z'
loop_
 _atom_site_type_symbol
 _atom_site_label
 _atom_site_symmetry_multiplicity
 _atom_site_fract_x
 _atom_site_fract_y
 _atom_site_fract_z
 _atom_site_occupancy
  Y  Y0  1  0.149056  0.149056  0.149056  1
  Y  Y1  1  0.951025  0.951025  0.951025  1
  Y  Y2  1  0.850944  0.850944  0.850944  1
  Y  Y3  1  0.048975  0.048975  0.048975  1
  Sn  Sn4  1  0.500000  0.500000  0.500000  1
  B  B5  1  0.616600  0.616600  0.616600  1
  B  B6  1  0.716579  0.716579  0.716579  1
  B  B7  1  0.383400  0.383400  0.383400  1
  B  B8  1  0.283421  0.283421  0.283421  1
  Ir  Ir9  1  0.403634  0.906503  0.403634  1
  Ir  Ir10  1  0.906503  0.403634  0.403634  1
  Ir  Ir11  1  0.500000  0.500000  0.000000  1
  Ir  Ir12  1  0.500000  0.000000  0.500000  1
  Ir  Ir13  1  0.000000  0.500000  0.500000  1
  Ir  Ir14  1  0.596366  0.093497  0.596366  1
  Ir  Ir15  1  0.596366  0.596366  0.093497  1
  Ir  Ir16  1  0.093497  0.596366  0.596366  1
  Ir  Ir17  1  0.403634  0.403634  0.906503  1
