# generated using pymatgen
data_NbSi2Ru10W3
_symmetry_space_group_name_H-M   'P 1'
_cell_length_a   4.00546600
_cell_length_b   5.40652905
_cell_length_c   10.66441609
_cell_angle_alpha   90.01477337
_cell_angle_beta   90.00000000
_cell_angle_gamma   90.00000000
_symmetry_Int_Tables_number   1
_chemical_formula_structural   NbSi2Ru10W3
_chemical_formula_sum   'Nb1 Si2 Ru10 W3'
_cell_volume   230.94504940
_cell_formula_units_Z   1
loop_
 _symmetry_equiv_pos_site_id
 _symmetry_equiv_pos_as_xyz
  1  'x, y, z'
loop_
 _atom_site_type_symbol
 _atom_site_label
 _atom_site_symmetry_multiplicity
 _atom_site_fract_x
 _atom_site_fract_y
 _atom_site_fract_z
 _atom_site_occupancy
  Nb  Nb0  1  0.500000  0.824231  0.359985  1
  Si  Si1  1  0.000000  0.506051  0.500195  1
  Si  Si2  1  0.000000  0.002096  0.999029  1
  Ru  Ru3  1  0.000000  0.500988  0.997148  1
  Ru  Ru4  1  0.000000  0.013179  0.504847  1
  Ru  Ru5  1  0.000000  0.568146  0.243068  1
  Ru  Ru6  1  0.000000  0.422267  0.749914  1
  Ru  Ru7  1  0.000000  0.073018  0.251033  1
  Ru  Ru8  1  0.000000  0.922204  0.751269  1
  Ru  Ru9  1  0.500000  0.819962  0.101282  1
  Ru  Ru10  1  0.500000  0.180756  0.894193  1
  Ru  Ru11  1  0.500000  0.323999  0.395479  1
  Ru  Ru12  1  0.500000  0.680343  0.608492  1
  W  W13  1  0.500000  0.169154  0.641018  1
  W  W14  1  0.500000  0.325080  0.144081  1
  W  W15  1  0.500000  0.668526  0.858969  1
