# generated using pymatgen
data_Tb3Y(RuC2)2
_symmetry_space_group_name_H-M   'P 1'
_cell_length_a   5.15057200
_cell_length_b   6.46339200
_cell_length_c   9.82461400
_cell_angle_alpha   90.00000000
_cell_angle_beta   90.00000000
_cell_angle_gamma   90.00000000
_symmetry_Int_Tables_number   1
_chemical_formula_structural   Tb3Y(RuC2)2
_chemical_formula_sum   'Tb6 Y2 Ru4 C8'
_cell_volume   327.06302957
_cell_formula_units_Z   2
loop_
 _symmetry_equiv_pos_site_id
 _symmetry_equiv_pos_as_xyz
  1  'x, y, z'
loop_
 _atom_site_type_symbol
 _atom_site_label
 _atom_site_symmetry_multiplicity
 _atom_site_fract_x
 _atom_site_fract_y
 _atom_site_fract_z
 _atom_site_occupancy
  Tb  Tb0  1  0.750000  0.319541  0.446547  1
  Tb  Tb1  1  0.250000  0.180459  0.946547  1
  Tb  Tb2  1  0.750000  0.474815  0.783090  1
  Tb  Tb3  1  0.250000  0.025185  0.283090  1
  Tb  Tb4  1  0.750000  0.974181  0.716727  1
  Tb  Tb5  1  0.250000  0.525819  0.216727  1
  Y  Y6  1  0.750000  0.819727  0.053744  1
  Y  Y7  1  0.250000  0.680273  0.553744  1
  Ru  Ru8  1  0.750000  0.278666  0.135135  1
  Ru  Ru9  1  0.250000  0.221334  0.635135  1
  Ru  Ru10  1  0.750000  0.778849  0.364710  1
  Ru  Ru11  1  0.250000  0.721151  0.864710  1
  C  C12  1  0.750000  0.175574  0.947869  1
  C  C13  1  0.250000  0.824209  0.052137  1
  C  C14  1  0.750000  0.675791  0.552137  1
  C  C15  1  0.250000  0.324426  0.447869  1
  C  C16  1  0.750000  0.042591  0.256992  1
  C  C17  1  0.250000  0.457409  0.756992  1
  C  C18  1  0.750000  0.542226  0.243048  1
  C  C19  1  0.250000  0.957774  0.743048  1
