# generated using pymatgen
data_Zr6Zn19PPt4
_symmetry_space_group_name_H-M   'P 1'
_cell_length_a   8.80860342
_cell_length_b   8.80860249
_cell_length_c   8.80860313
_cell_angle_alpha   59.85459360
_cell_angle_beta   59.85459308
_cell_angle_gamma   59.85459220
_symmetry_Int_Tables_number   1
_chemical_formula_structural   Zr6Zn19PPt4
_chemical_formula_sum   'Zr6 Zn19 P1 Pt4'
_cell_volume   481.69338800
_cell_formula_units_Z   1
loop_
 _symmetry_equiv_pos_site_id
 _symmetry_equiv_pos_as_xyz
  1  'x, y, z'
loop_
 _atom_site_type_symbol
 _atom_site_label
 _atom_site_symmetry_multiplicity
 _atom_site_fract_x
 _atom_site_fract_y
 _atom_site_fract_z
 _atom_site_occupancy
  Zr  Zr0  1  0.702071  0.293697  0.293697  1
  Zr  Zr1  1  0.297929  0.706303  0.706303  1
  Zr  Zr2  1  0.293697  0.702071  0.293697  1
  Zr  Zr3  1  0.706303  0.297929  0.706303  1
  Zr  Zr4  1  0.293697  0.293697  0.702071  1
  Zr  Zr5  1  0.706303  0.706303  0.297929  1
  Zn  Zn6  1  0.120773  0.120773  0.120773  1
  Zn  Zn7  1  0.879227  0.879227  0.879227  1
  Zn  Zn8  1  0.122645  0.122645  0.632962  1
  Zn  Zn9  1  0.122645  0.632962  0.122645  1
  Zn  Zn10  1  0.877355  0.877355  0.367038  1
  Zn  Zn11  1  0.877355  0.367038  0.877355  1
  Zn  Zn12  1  0.632962  0.122645  0.122645  1
  Zn  Zn13  1  0.367038  0.877355  0.877355  1
  Zn  Zn14  1  0.500000  0.000000  0.000000  1
  Zn  Zn15  1  0.000000  0.500000  0.000000  1
  Zn  Zn16  1  0.000000  0.000000  0.500000  1
  Zn  Zn17  1  0.335324  0.335324  0.335324  1
  Zn  Zn18  1  0.664676  0.664676  0.664676  1
  Zn  Zn19  1  0.334927  0.334927  0.991167  1
  Zn  Zn20  1  0.334927  0.991167  0.334927  1
  Zn  Zn21  1  0.665073  0.665073  0.008833  1
  Zn  Zn22  1  0.665073  0.008833  0.665073  1
  Zn  Zn23  1  0.991167  0.334927  0.334927  1
  Zn  Zn24  1  0.008833  0.665073  0.665073  1
  P  P25  1  0.500000  0.500000  0.500000  1
  Pt  Pt26  1  0.000000  0.500000  0.500000  1
  Pt  Pt27  1  0.500000  0.000000  0.500000  1
  Pt  Pt28  1  0.500000  0.500000  0.000000  1
  Pt  Pt29  1  0.000000  0.000000  0.000000  1
