# generated using pymatgen
data_Tm4HfSc5Ga8
_symmetry_space_group_name_H-M   'P 1'
_cell_length_a   7.18973377
_cell_length_b   7.49613005
_cell_length_c   14.38667158
_cell_angle_alpha   89.98759494
_cell_angle_beta   90.08004198
_cell_angle_gamma   90.00601255
_symmetry_Int_Tables_number   1
_chemical_formula_structural   Tm4HfSc5Ga8
_chemical_formula_sum   'Tm8 Hf2 Sc10 Ga16'
_cell_volume   775.37146676
_cell_formula_units_Z   2
loop_
 _symmetry_equiv_pos_site_id
 _symmetry_equiv_pos_as_xyz
  1  'x, y, z'
loop_
 _atom_site_type_symbol
 _atom_site_label
 _atom_site_symmetry_multiplicity
 _atom_site_fract_x
 _atom_site_fract_y
 _atom_site_fract_z
 _atom_site_occupancy
  Tm  Tm0  1  0.010659  0.179187  0.094514  1
  Tm  Tm1  1  0.989341  0.820813  0.905486  1
  Tm  Tm2  1  0.489926  0.678678  0.905718  1
  Tm  Tm3  1  0.989358  0.821371  0.593977  1
  Tm  Tm4  1  0.510074  0.321322  0.094282  1
  Tm  Tm5  1  0.010642  0.178629  0.406023  1
  Tm  Tm6  1  0.510041  0.321998  0.405525  1
  Tm  Tm7  1  0.489959  0.678002  0.594475  1
  Hf  Hf8  1  0.329857  0.174573  0.624617  1
  Hf  Hf9  1  0.670143  0.825427  0.375383  1
  Sc  Sc10  1  0.162738  0.504078  0.750330  1
  Sc  Sc11  1  0.837262  0.495922  0.249670  1
  Sc  Sc12  1  0.337328  0.004417  0.249974  1
  Sc  Sc13  1  0.662672  0.995583  0.750026  1
  Sc  Sc14  1  0.170776  0.673828  0.376521  1
  Sc  Sc15  1  0.669823  0.826604  0.124126  1
  Sc  Sc16  1  0.829224  0.326172  0.623479  1
  Sc  Sc17  1  0.330177  0.173396  0.875874  1
  Sc  Sc18  1  0.829729  0.327240  0.876271  1
  Sc  Sc19  1  0.170271  0.672760  0.123729  1
  Ga  Ga20  1  0.032551  0.116639  0.748860  1
  Ga  Ga21  1  0.967449  0.883361  0.251140  1
  Ga  Ga22  1  0.469481  0.617304  0.250879  1
  Ga  Ga23  1  0.530519  0.382696  0.749121  1
  Ga  Ga24  1  0.284588  0.871244  0.748843  1
  Ga  Ga25  1  0.715412  0.128756  0.251157  1
  Ga  Ga26  1  0.216258  0.369480  0.250478  1
  Ga  Ga27  1  0.783742  0.630520  0.749522  1
  Ga  Ga28  1  0.163134  0.463368  0.540922  1
  Ga  Ga29  1  0.836866  0.536632  0.459078  1
  Ga  Ga30  1  0.339499  0.965273  0.460137  1
  Ga  Ga31  1  0.837647  0.534760  0.040444  1
  Ga  Ga32  1  0.660501  0.034727  0.539863  1
  Ga  Ga33  1  0.162353  0.465240  0.959556  1
  Ga  Ga34  1  0.661913  0.034734  0.959390  1
  Ga  Ga35  1  0.338087  0.965266  0.040610  1
