# generated using pymatgen
data_Er5TmTh2(MgCo)2
_symmetry_space_group_name_H-M   'P 1'
_cell_length_a   9.56046067
_cell_length_b   9.56131704
_cell_length_c   9.56131704
_cell_angle_alpha   59.99407933
_cell_angle_beta   60.00296266
_cell_angle_gamma   60.00296505
_symmetry_Int_Tables_number   1
_chemical_formula_structural   Er5TmTh2(MgCo)2
_chemical_formula_sum   'Er10 Tm2 Th4 Mg4 Co4'
_cell_volume   618.01536876
_cell_formula_units_Z   2
loop_
 _symmetry_equiv_pos_site_id
 _symmetry_equiv_pos_as_xyz
  1  'x, y, z'
loop_
 _atom_site_type_symbol
 _atom_site_label
 _atom_site_symmetry_multiplicity
 _atom_site_fract_x
 _atom_site_fract_y
 _atom_site_fract_z
 _atom_site_occupancy
  Er  Er0  1  0.435921  0.064079  0.435921  1
  Er  Er1  1  0.064079  0.435921  0.064079  1
  Er  Er2  1  0.435921  0.435921  0.064079  1
  Er  Er3  1  0.064079  0.064079  0.435921  1
  Er  Er4  1  0.184984  0.815016  0.815016  1
  Er  Er5  1  0.815016  0.184984  0.184984  1
  Er  Er6  1  0.815008  0.184992  0.815008  1
  Er  Er7  1  0.184992  0.815008  0.184992  1
  Er  Er8  1  0.815008  0.815008  0.184992  1
  Er  Er9  1  0.184992  0.184992  0.815008  1
  Tm  Tm10  1  0.063935  0.436065  0.436065  1
  Tm  Tm11  1  0.436065  0.063935  0.063935  1
  Th  Th12  1  0.595139  0.594808  0.594808  1
  Th  Th13  1  0.594808  0.595139  0.215246  1
  Th  Th14  1  0.594808  0.215246  0.595139  1
  Th  Th15  1  0.215246  0.594808  0.594808  1
  Mg  Mg16  1  0.830368  0.830474  0.830474  1
  Mg  Mg17  1  0.830474  0.830368  0.508686  1
  Mg  Mg18  1  0.830474  0.508686  0.830368  1
  Mg  Mg19  1  0.508686  0.830474  0.830474  1
  Co  Co20  1  0.394320  0.394609  0.394609  1
  Co  Co21  1  0.394609  0.394320  0.816462  1
  Co  Co22  1  0.394609  0.816462  0.394320  1
  Co  Co23  1  0.816462  0.394609  0.394609  1
