# generated using pymatgen
data_Ho12Co5Hg
_symmetry_space_group_name_H-M   'P 1'
_cell_length_a   8.21982231
_cell_length_b   8.21982364
_cell_length_c   8.21982203
_cell_angle_alpha   107.36716965
_cell_angle_beta   110.30222735
_cell_angle_gamma   110.76488094
_symmetry_Int_Tables_number   1
_chemical_formula_structural   Ho12Co5Hg
_chemical_formula_sum   'Ho12 Co5 Hg1'
_cell_volume   427.09120735
_cell_formula_units_Z   1
loop_
 _symmetry_equiv_pos_site_id
 _symmetry_equiv_pos_as_xyz
  1  'x, y, z'
loop_
 _atom_site_type_symbol
 _atom_site_label
 _atom_site_symmetry_multiplicity
 _atom_site_fract_x
 _atom_site_fract_y
 _atom_site_fract_z
 _atom_site_occupancy
  Ho  Ho0  1  0.807531  0.211241  0.018772  1
  Ho  Ho1  1  0.474067  0.289623  0.184443  1
  Ho  Ho2  1  0.894820  0.710376  0.184443  1
  Ho  Ho3  1  0.696031  0.011619  0.315588  1
  Ho  Ho4  1  0.303968  0.619556  0.315588  1
  Ho  Ho5  1  0.192469  0.211241  0.403709  1
  Ho  Ho6  1  0.807531  0.788759  0.596291  1
  Ho  Ho7  1  0.696031  0.380444  0.684411  1
  Ho  Ho8  1  0.303968  0.988380  0.684412  1
  Ho  Ho9  1  0.105179  0.289623  0.815556  1
  Ho  Ho10  1  0.525933  0.710377  0.815556  1
  Ho  Ho11  1  0.192469  0.788759  0.981228  1
  Co  Co12  1  0.000000  0.000000  0.000000  1
  Co  Co13  1  0.500000  0.613411  0.113411  1
  Co  Co14  1  0.376467  0.000000  0.376467  1
  Co  Co15  1  0.623534  0.000000  0.623534  1
  Co  Co16  1  0.500000  0.386589  0.886589  1
  Hg  Hg17  1  0.000000  0.500000  0.500000  1
