# generated using pymatgen
data_Yb3Tm(Si5Pt3)2
_symmetry_space_group_name_H-M   'P 1'
_cell_length_a   8.22507316
_cell_length_b   8.22930489
_cell_length_c   8.22930416
_cell_angle_alpha   138.08789210
_cell_angle_beta   103.99950487
_cell_angle_gamma   90.80489928
_symmetry_Int_Tables_number   1
_chemical_formula_structural   Yb3Tm(Si5Pt3)2
_chemical_formula_sum   'Yb3 Tm1 Si10 Pt6'
_cell_volume   344.46393162
_cell_formula_units_Z   1
loop_
 _symmetry_equiv_pos_site_id
 _symmetry_equiv_pos_as_xyz
  1  'x, y, z'
loop_
 _atom_site_type_symbol
 _atom_site_label
 _atom_site_symmetry_multiplicity
 _atom_site_fract_x
 _atom_site_fract_y
 _atom_site_fract_z
 _atom_site_occupancy
  Yb  Yb0  1  0.636492  0.370329  0.266163  1
  Yb  Yb1  1  0.362929  0.628918  0.734011  1
  Yb  Yb2  1  0.105255  0.871777  0.233477  1
  Tm  Tm3  1  0.897969  0.129213  0.768756  1
  Si  Si4  1  0.460633  0.112286  0.348348  1
  Si  Si5  1  0.540731  0.889021  0.651709  1
  Si  Si6  1  0.761827  0.612108  0.149720  1
  Si  Si7  1  0.236371  0.386828  0.849543  1
  Si  Si8  1  0.270636  0.521279  0.251593  1
  Si  Si9  1  0.727770  0.478596  0.748150  1
  Si  Si10  1  0.727770  0.979620  0.249172  1
  Si  Si11  1  0.270636  0.019043  0.749358  1
  Si  Si12  1  0.001230  0.252377  0.252425  1
  Si  Si13  1  0.001230  0.748805  0.748853  1
  Pt  Pt14  1  0.500444  0.249346  0.749892  1
  Pt  Pt15  1  0.500444  0.750552  0.251098  1
  Pt  Pt16  1  0.251296  0.135925  0.115371  1
  Pt  Pt17  1  0.749285  0.865128  0.884156  1
  Pt  Pt18  1  0.018158  0.636408  0.381749  1
  Pt  Pt19  1  0.978894  0.362443  0.616453  1
