# generated using pymatgen
data_Dy6Al13Os7W3
_symmetry_space_group_name_H-M   'P 1'
_cell_length_a   9.00521544
_cell_length_b   9.00521499
_cell_length_c   9.00521544
_cell_angle_alpha   59.51642566
_cell_angle_beta   59.51642854
_cell_angle_gamma   59.51642127
_symmetry_Int_Tables_number   1
_chemical_formula_structural   Dy6Al13Os7W3
_chemical_formula_sum   'Dy6 Al13 Os7 W3'
_cell_volume   510.69904575
_cell_formula_units_Z   1
loop_
 _symmetry_equiv_pos_site_id
 _symmetry_equiv_pos_as_xyz
  1  'x, y, z'
loop_
 _atom_site_type_symbol
 _atom_site_label
 _atom_site_symmetry_multiplicity
 _atom_site_fract_x
 _atom_site_fract_y
 _atom_site_fract_z
 _atom_site_occupancy
  Dy  Dy0  1  0.708280  0.708280  0.284869  1
  Dy  Dy1  1  0.294506  0.707466  0.294506  1
  Dy  Dy2  1  0.707466  0.294506  0.294506  1
  Dy  Dy3  1  0.294506  0.294506  0.707466  1
  Dy  Dy4  1  0.708280  0.284869  0.708280  1
  Dy  Dy5  1  0.284869  0.708280  0.708280  1
  Al  Al6  1  0.880179  0.880179  0.880179  1
  Al  Al7  1  0.121796  0.121796  0.639454  1
  Al  Al8  1  0.121796  0.639454  0.121796  1
  Al  Al9  1  0.639454  0.121796  0.121796  1
  Al  Al10  1  0.121760  0.121760  0.121760  1
  Al  Al11  1  0.668681  0.668681  0.996815  1
  Al  Al12  1  0.668681  0.996815  0.668681  1
  Al  Al13  1  0.996815  0.668681  0.668681  1
  Al  Al14  1  0.662534  0.662534  0.662534  1
  Al  Al15  1  0.330873  0.330873  0.009802  1
  Al  Al16  1  0.330873  0.009802  0.330873  1
  Al  Al17  1  0.009802  0.330873  0.330873  1
  Al  Al18  1  0.331657  0.331657  0.331657  1
  Os  Os19  1  0.004907  0.004907  0.004907  1
  Os  Os20  1  0.996739  0.996739  0.495999  1
  Os  Os21  1  0.505259  0.994209  0.505259  1
  Os  Os22  1  0.994209  0.505259  0.505259  1
  Os  Os23  1  0.505259  0.505259  0.994209  1
  Os  Os24  1  0.996739  0.495999  0.996739  1
  Os  Os25  1  0.495999  0.996739  0.996739  1
  W  W26  1  0.877102  0.877102  0.363875  1
  W  W27  1  0.877102  0.363875  0.877102  1
  W  W28  1  0.363875  0.877102  0.877102  1
