# generated using pymatgen
data_Ta12Al8Rh3WC4
_symmetry_space_group_name_H-M   'P 1'
_cell_length_a   8.31416826
_cell_length_b   8.34577948
_cell_length_c   8.31416700
_cell_angle_alpha   60.12521789
_cell_angle_beta   60.00000104
_cell_angle_gamma   60.12521526
_symmetry_Int_Tables_number   1
_chemical_formula_structural   Ta12Al8Rh3WC4
_chemical_formula_sum   'Ta12 Al8 Rh3 W1 C4'
_cell_volume   408.70395725
_cell_formula_units_Z   1
loop_
 _symmetry_equiv_pos_site_id
 _symmetry_equiv_pos_as_xyz
  1  'x, y, z'
loop_
 _atom_site_type_symbol
 _atom_site_label
 _atom_site_symmetry_multiplicity
 _atom_site_fract_x
 _atom_site_fract_y
 _atom_site_fract_z
 _atom_site_occupancy
  Ta  Ta0  1  0.563783  0.935908  0.563783  1
  Ta  Ta1  1  0.307510  0.684668  0.700311  1
  Ta  Ta2  1  0.686217  0.314092  0.313474  1
  Ta  Ta3  1  0.307510  0.684668  0.307510  1
  Ta  Ta4  1  0.700311  0.684668  0.307510  1
  Ta  Ta5  1  0.313474  0.314092  0.686217  1
  Ta  Ta6  1  0.549689  0.565332  0.942490  1
  Ta  Ta7  1  0.942490  0.565332  0.549689  1
  Ta  Ta8  1  0.563783  0.935908  0.936526  1
  Ta  Ta9  1  0.936526  0.935908  0.563783  1
  Ta  Ta10  1  0.686217  0.314092  0.686217  1
  Ta  Ta11  1  0.942490  0.565332  0.942490  1
  Al  Al12  1  0.912394  0.924998  0.912394  1
  Al  Al13  1  0.999786  0.325002  0.337606  1
  Al  Al14  1  0.335411  0.993768  0.335411  1
  Al  Al15  1  0.337606  0.325002  0.999786  1
  Al  Al16  1  0.914589  0.256232  0.914589  1
  Al  Al17  1  0.912394  0.924998  0.250214  1
  Al  Al18  1  0.250214  0.924998  0.912394  1
  Al  Al19  1  0.337606  0.325002  0.337606  1
  Rh  Rh20  1  0.125000  0.125000  0.125000  1
  Rh  Rh21  1  0.625000  0.125000  0.125000  1
  Rh  Rh22  1  0.125000  0.125000  0.625000  1
  W  W23  1  0.125000  0.625000  0.125000  1
  C  C24  1  0.625000  0.625000  0.625000  1
  C  C25  1  0.125000  0.625000  0.625000  1
  C  C26  1  0.625000  0.125000  0.625000  1
  C  C27  1  0.625000  0.625000  0.125000  1
