# generated using pymatgen
data_AcTb(Ni2B)12
_symmetry_space_group_name_H-M   'P 1'
_cell_length_a   6.06920895
_cell_length_b   6.06920702
_cell_length_c   11.04656299
_cell_angle_alpha   89.87589726
_cell_angle_beta   89.87589586
_cell_angle_gamma   104.70939520
_symmetry_Int_Tables_number   1
_chemical_formula_structural   AcTb(Ni2B)12
_chemical_formula_sum   'Ac1 Tb1 Ni24 B12'
_cell_volume   393.56503090
_cell_formula_units_Z   1
loop_
 _symmetry_equiv_pos_site_id
 _symmetry_equiv_pos_as_xyz
  1  'x, y, z'
loop_
 _atom_site_type_symbol
 _atom_site_label
 _atom_site_symmetry_multiplicity
 _atom_site_fract_x
 _atom_site_fract_y
 _atom_site_fract_z
 _atom_site_occupancy
  Ac  Ac0  1  0.831837  0.831837  0.998574  1
  Tb  Tb1  1  0.166822  0.166822  0.504108  1
  Ni  Ni2  1  0.995946  0.631336  0.562042  1
  Ni  Ni3  1  0.729262  0.342016  0.433421  1
  Ni  Ni4  1  0.342016  0.729262  0.433421  1
  Ni  Ni5  1  0.654625  0.274549  0.932170  1
  Ni  Ni6  1  0.005135  0.370580  0.063458  1
  Ni  Ni7  1  0.370580  0.005135  0.063458  1
  Ni  Ni8  1  0.631336  0.995946  0.562042  1
  Ni  Ni9  1  0.426871  0.426871  0.085514  1
  Ni  Ni10  1  0.209704  0.474235  0.722457  1
  Ni  Ni11  1  0.787909  0.523851  0.227827  1
  Ni  Ni12  1  0.523851  0.787909  0.227827  1
  Ni  Ni13  1  0.474235  0.209704  0.722457  1
  Ni  Ni14  1  0.565996  0.565996  0.581311  1
  Ni  Ni15  1  0.225258  0.225258  0.899365  1
  Ni  Ni16  1  0.146842  0.882115  0.741686  1
  Ni  Ni17  1  0.854277  0.121110  0.246442  1
  Ni  Ni18  1  0.121110  0.854277  0.246442  1
  Ni  Ni19  1  0.882115  0.146842  0.741686  1
  Ni  Ni20  1  0.539377  0.805461  0.762794  1
  Ni  Ni21  1  0.457701  0.195157  0.268253  1
  Ni  Ni22  1  0.195157  0.457701  0.268253  1
  Ni  Ni23  1  0.805461  0.539377  0.762794  1
  Ni  Ni24  1  0.781850  0.781850  0.401338  1
  Ni  Ni25  1  0.274549  0.654625  0.932170  1
  B  B26  1  0.395720  0.985593  0.876988  1
  B  B27  1  0.600024  0.012496  0.378632  1
  B  B28  1  0.012496  0.600024  0.378632  1
  B  B29  1  0.985593  0.395720  0.876988  1
  B  B30  1  0.325481  0.756501  0.613261  1
  B  B31  1  0.674908  0.250507  0.116094  1
  B  B32  1  0.250507  0.674908  0.116094  1
  B  B33  1  0.756501  0.325481  0.613261  1
  B  B34  1  0.512505  0.512505  0.346331  1
  B  B35  1  0.484826  0.484826  0.834193  1
  B  B36  1  0.165253  0.165253  0.169332  1
  B  B37  1  0.836364  0.836364  0.662887  1
