# generated using pymatgen
data_Eu2MoAsO8
_symmetry_space_group_name_H-M   'P 1'
_cell_length_a   6.96499371
_cell_length_b   6.96499337
_cell_length_c   6.96499359
_cell_angle_alpha   135.43843680
_cell_angle_beta   135.43843119
_cell_angle_gamma   64.84972322
_symmetry_Int_Tables_number   1
_chemical_formula_structural   Eu2MoAsO8
_chemical_formula_sum   'Eu2 Mo1 As1 O8'
_cell_volume   163.99333706
_cell_formula_units_Z   1
loop_
 _symmetry_equiv_pos_site_id
 _symmetry_equiv_pos_as_xyz
  1  'x, y, z'
loop_
 _atom_site_type_symbol
 _atom_site_label
 _atom_site_symmetry_multiplicity
 _atom_site_fract_x
 _atom_site_fract_y
 _atom_site_fract_z
 _atom_site_occupancy
  Eu  Eu0  1  0.750000  0.250000  0.500000  1
  Eu  Eu1  1  0.000000  0.000000  0.000000  1
  Mo  Mo2  1  0.500000  0.500000  0.000000  1
  As  As3  1  0.250000  0.750000  0.500000  1
  O  O4  1  0.316184  0.900529  0.879364  1
  O  O5  1  0.021165  0.436820  0.120636  1
  O  O6  1  0.163406  0.559846  0.883723  1
  O  O7  1  0.676123  0.279683  0.116277  1
  O  O8  1  0.440154  0.323877  0.603560  1
  O  O9  1  0.720317  0.836594  0.396440  1
  O  O10  1  0.563180  0.683816  0.584345  1
  O  O11  1  0.099471  0.978835  0.415655  1
