# generated using pymatgen
data_Nd4CdHgIrAu3
_symmetry_space_group_name_H-M   'P 1'
_cell_length_a   3.88959100
_cell_length_b   8.05369733
_cell_length_c   8.05940418
_cell_angle_alpha   90.19630469
_cell_angle_beta   90.00000000
_cell_angle_gamma   90.00000000
_symmetry_Int_Tables_number   1
_chemical_formula_structural   Nd4CdHgIrAu3
_chemical_formula_sum   'Nd4 Cd1 Hg1 Ir1 Au3'
_cell_volume   252.46409856
_cell_formula_units_Z   1
loop_
 _symmetry_equiv_pos_site_id
 _symmetry_equiv_pos_as_xyz
  1  'x, y, z'
loop_
 _atom_site_type_symbol
 _atom_site_label
 _atom_site_symmetry_multiplicity
 _atom_site_fract_x
 _atom_site_fract_y
 _atom_site_fract_z
 _atom_site_occupancy
  Nd  Nd0  1  0.500000  0.168902  0.671669  1
  Nd  Nd1  1  0.500000  0.813821  0.310261  1
  Nd  Nd2  1  0.500000  0.347508  0.178399  1
  Nd  Nd3  1  0.500000  0.681096  0.850017  1
  Cd  Cd4  1  0.000000  0.502778  0.500118  1
  Hg  Hg5  1  0.000000  0.999259  0.001869  1
  Ir  Ir6  1  0.000000  0.621023  0.126391  1
  Au  Au7  1  0.000000  0.374399  0.869221  1
  Au  Au8  1  0.000000  0.865769  0.620753  1
  Au  Au9  1  0.000000  0.125443  0.371303  1
