# generated using pymatgen
data_LiTbTm(Co3P2)3
_symmetry_space_group_name_H-M   'P 1'
_cell_length_a   3.65890000
_cell_length_b   10.22806100
_cell_length_c   11.78612800
_cell_angle_alpha   90.00000000
_cell_angle_beta   90.00000000
_cell_angle_gamma   90.00000000
_symmetry_Int_Tables_number   1
_chemical_formula_structural   LiTbTm(Co3P2)3
_chemical_formula_sum   'Li2 Tb2 Tm2 Co18 P12'
_cell_volume   441.07760010
_cell_formula_units_Z   2
loop_
 _symmetry_equiv_pos_site_id
 _symmetry_equiv_pos_as_xyz
  1  'x, y, z'
loop_
 _atom_site_type_symbol
 _atom_site_label
 _atom_site_symmetry_multiplicity
 _atom_site_fract_x
 _atom_site_fract_y
 _atom_site_fract_z
 _atom_site_occupancy
  Li  Li0  1  0.250000  0.703030  0.990889  1
  Li  Li1  1  0.250000  0.796970  0.490889  1
  Tb  Tb2  1  0.750000  0.419280  0.297341  1
  Tb  Tb3  1  0.750000  0.080720  0.797341  1
  Tm  Tm4  1  0.250000  0.579885  0.702028  1
  Tm  Tm5  1  0.250000  0.920115  0.202028  1
  Co  Co6  1  0.750000  0.288694  0.009316  1
  Co  Co7  1  0.750000  0.211306  0.509316  1
  Co  Co8  1  0.250000  0.404185  0.488089  1
  Co  Co9  1  0.250000  0.095815  0.988089  1
  Co  Co10  1  0.750000  0.591390  0.515639  1
  Co  Co11  1  0.750000  0.908610  0.015639  1
  Co  Co12  1  0.250000  0.223027  0.174994  1
  Co  Co13  1  0.250000  0.276973  0.674994  1
  Co  Co14  1  0.750000  0.780128  0.825896  1
  Co  Co15  1  0.750000  0.719872  0.325896  1
  Co  Co16  1  0.250000  0.880570  0.698312  1
  Co  Co17  1  0.250000  0.619430  0.198312  1
  Co  Co18  1  0.750000  0.119168  0.299534  1
  Co  Co19  1  0.750000  0.380832  0.799534  1
  Co  Co20  1  0.250000  0.464932  0.930864  1
  Co  Co21  1  0.250000  0.035068  0.430864  1
  Co  Co22  1  0.750000  0.533789  0.065847  1
  Co  Co23  1  0.750000  0.966211  0.565847  1
  P  P24  1  0.250000  0.421843  0.111312  1
  P  P25  1  0.250000  0.078157  0.611312  1
  P  P26  1  0.750000  0.578226  0.883235  1
  P  P27  1  0.750000  0.921774  0.383235  1
  P  P28  1  0.250000  0.269071  0.867542  1
  P  P29  1  0.250000  0.230929  0.367542  1
  P  P30  1  0.750000  0.730642  0.138060  1
  P  P31  1  0.750000  0.769358  0.638060  1
  P  P32  1  0.250000  0.601420  0.393312  1
  P  P33  1  0.250000  0.898580  0.893312  1
  P  P34  1  0.750000  0.396862  0.607789  1
  P  P35  1  0.750000  0.103138  0.107789  1
