# generated using pymatgen
data_Tl2Sn(PO4)2
_symmetry_space_group_name_H-M   'P 1'
_cell_length_a   5.06488200
_cell_length_b   5.06488245
_cell_length_c   9.23597400
_cell_angle_alpha   90.00000000
_cell_angle_beta   90.00000000
_cell_angle_gamma   119.99999705
_symmetry_Int_Tables_number   1
_chemical_formula_structural   Tl2Sn(PO4)2
_chemical_formula_sum   'Tl2 Sn1 P2 O8'
_cell_volume   205.18804257
_cell_formula_units_Z   1
loop_
 _symmetry_equiv_pos_site_id
 _symmetry_equiv_pos_as_xyz
  1  'x, y, z'
loop_
 _atom_site_type_symbol
 _atom_site_label
 _atom_site_symmetry_multiplicity
 _atom_site_fract_x
 _atom_site_fract_y
 _atom_site_fract_z
 _atom_site_occupancy
  Tl  Tl0  1  0.666667  0.333334  0.361130  1
  Tl  Tl1  1  0.333333  0.666666  0.638870  1
  Sn  Sn2  1  0.000000  0.000000  0.000000  1
  P  P3  1  0.333333  0.666666  0.184055  1
  P  P4  1  0.666667  0.333334  0.815945  1
  O  O5  1  0.292488  0.357603  0.129753  1
  O  O6  1  0.065115  0.707512  0.129753  1
  O  O7  1  0.642397  0.934884  0.129753  1
  O  O8  1  0.333333  0.666666  0.349540  1
  O  O9  1  0.666667  0.333334  0.650460  1
  O  O10  1  0.357604  0.065117  0.870246  1
  O  O11  1  0.934884  0.292487  0.870246  1
  O  O12  1  0.707512  0.642397  0.870246  1
