# generated using pymatgen
data_Er3U2O10
_symmetry_space_group_name_H-M   'P 1'
_cell_length_a   6.41468380
_cell_length_b   6.41471779
_cell_length_c   8.30312231
_cell_angle_alpha   51.48265048
_cell_angle_beta   51.48288609
_cell_angle_gamma   48.97732484
_symmetry_Int_Tables_number   1
_chemical_formula_structural   Er3U2O10
_chemical_formula_sum   'Er3 U2 O10'
_cell_volume   187.96073986
_cell_formula_units_Z   1
loop_
 _symmetry_equiv_pos_site_id
 _symmetry_equiv_pos_as_xyz
  1  'x, y, z'
loop_
 _atom_site_type_symbol
 _atom_site_label
 _atom_site_symmetry_multiplicity
 _atom_site_fract_x
 _atom_site_fract_y
 _atom_site_fract_z
 _atom_site_occupancy
  Er  Er0  1  0.102378  0.102375  0.596422  1
  Er  Er1  1  0.500000  0.500000  0.000000  1
  Er  Er2  1  0.897622  0.897625  0.403578  1
  U  U3  1  0.302446  0.302446  0.794473  1
  U  U4  1  0.697554  0.697554  0.205527  1
  O  O5  1  0.552877  0.040533  0.292294  1
  O  O6  1  0.959466  0.447115  0.707705  1
  O  O7  1  0.040534  0.552885  0.292295  1
  O  O8  1  0.355267  0.853087  0.106064  1
  O  O9  1  0.447123  0.959467  0.707706  1
  O  O10  1  0.736506  0.263493  0.500002  1
  O  O11  1  0.853097  0.355255  0.106067  1
  O  O12  1  0.146903  0.644745  0.893933  1
  O  O13  1  0.263494  0.736507  0.499998  1
  O  O14  1  0.644733  0.146913  0.893936  1
