# generated using pymatgen
data_Rb6Ti3VCl18
_symmetry_space_group_name_H-M   'P 1'
_cell_length_a   7.08635600
_cell_length_b   7.08635523
_cell_length_c   17.56731000
_cell_angle_alpha   90.00000000
_cell_angle_beta   90.00000000
_cell_angle_gamma   119.99999428
_symmetry_Int_Tables_number   1
_chemical_formula_structural   Rb6Ti3VCl18
_chemical_formula_sum   'Rb6 Ti3 V1 Cl18'
_cell_volume   763.97967929
_cell_formula_units_Z   1
loop_
 _symmetry_equiv_pos_site_id
 _symmetry_equiv_pos_as_xyz
  1  'x, y, z'
loop_
 _atom_site_type_symbol
 _atom_site_label
 _atom_site_symmetry_multiplicity
 _atom_site_fract_x
 _atom_site_fract_y
 _atom_site_fract_z
 _atom_site_occupancy
  Rb  Rb0  1  0.666667  0.333333  0.570404  1
  Rb  Rb1  1  0.333333  0.666667  0.074890  1
  Rb  Rb2  1  0.333333  0.666667  0.426418  1
  Rb  Rb3  1  0.666667  0.333333  0.937336  1
  Rb  Rb4  1  0.000000  0.000000  0.240657  1
  Rb  Rb5  1  0.000000  0.000000  0.749853  1
  Ti  Ti6  1  0.333333  0.666667  0.663106  1
  Ti  Ti7  1  0.666667  0.333333  0.337315  1
  Ti  Ti8  1  0.333333  0.666667  0.836104  1
  V  V9  1  0.666667  0.333333  0.164114  1
  Cl  Cl10  1  0.826906  0.653812  0.409928  1
  Cl  Cl11  1  0.172486  0.827514  0.590862  1
  Cl  Cl12  1  0.655029  0.827514  0.590862  1
  Cl  Cl13  1  0.826906  0.173094  0.409928  1
  Cl  Cl14  1  0.346188  0.173094  0.409928  1
  Cl  Cl15  1  0.172792  0.345583  0.906953  1
  Cl  Cl16  1  0.008995  0.504497  0.749164  1
  Cl  Cl17  1  0.654417  0.827208  0.906953  1
  Cl  Cl18  1  0.827093  0.654187  0.090888  1
  Cl  Cl19  1  0.172486  0.344971  0.590862  1
  Cl  Cl20  1  0.495503  0.991005  0.749164  1
  Cl  Cl21  1  0.507266  0.492734  0.252139  1
  Cl  Cl22  1  0.495503  0.504497  0.749164  1
  Cl  Cl23  1  0.172792  0.827208  0.906953  1
  Cl  Cl24  1  0.345813  0.172907  0.090888  1
  Cl  Cl25  1  0.985467  0.492734  0.252139  1
  Cl  Cl26  1  0.507266  0.014533  0.252139  1
  Cl  Cl27  1  0.827093  0.172907  0.090888  1
