# generated using pymatgen
data_Tb2Sm2MgSn4
_symmetry_space_group_name_H-M   'P 1'
_cell_length_a   7.76079200
_cell_length_b   8.31486600
_cell_length_c   15.49739400
_cell_angle_alpha   90.00000000
_cell_angle_beta   90.00000000
_cell_angle_gamma   90.00000000
_symmetry_Int_Tables_number   1
_chemical_formula_structural   Tb2Sm2MgSn4
_chemical_formula_sum   'Tb8 Sm8 Mg4 Sn16'
_cell_volume   1000.04599074
_cell_formula_units_Z   4
loop_
 _symmetry_equiv_pos_site_id
 _symmetry_equiv_pos_as_xyz
  1  'x, y, z'
loop_
 _atom_site_type_symbol
 _atom_site_label
 _atom_site_symmetry_multiplicity
 _atom_site_fract_x
 _atom_site_fract_y
 _atom_site_fract_z
 _atom_site_occupancy
  Tb  Tb0  1  0.339305  0.827571  0.871849  1
  Tb  Tb1  1  0.839305  0.672429  0.628151  1
  Tb  Tb2  1  0.660695  0.172429  0.371849  1
  Tb  Tb3  1  0.160695  0.327571  0.128151  1
  Tb  Tb4  1  0.660695  0.172429  0.128151  1
  Tb  Tb5  1  0.160695  0.327571  0.371849  1
  Tb  Tb6  1  0.339305  0.827571  0.628151  1
  Tb  Tb7  1  0.839305  0.672429  0.871849  1
  Sm  Sm8  1  0.500555  0.318316  0.906498  1
  Sm  Sm9  1  0.000555  0.181684  0.593502  1
  Sm  Sm10  1  0.499445  0.681684  0.406498  1
  Sm  Sm11  1  0.999445  0.818316  0.093502  1
  Sm  Sm12  1  0.499445  0.681684  0.093502  1
  Sm  Sm13  1  0.999445  0.818316  0.406498  1
  Sm  Sm14  1  0.500555  0.318316  0.593502  1
  Sm  Sm15  1  0.000555  0.181684  0.906498  1
  Mg  Mg16  1  0.166292  0.492563  0.750000  1
  Mg  Mg17  1  0.666292  0.007437  0.750000  1
  Mg  Mg18  1  0.833708  0.507437  0.250000  1
  Mg  Mg19  1  0.333708  0.992563  0.250000  1
  Sn  Sn20  1  0.320212  0.038026  0.037179  1
  Sn  Sn21  1  0.820212  0.461974  0.462821  1
  Sn  Sn22  1  0.679788  0.961974  0.537179  1
  Sn  Sn23  1  0.179788  0.538026  0.962821  1
  Sn  Sn24  1  0.679788  0.961974  0.962821  1
  Sn  Sn25  1  0.179788  0.538026  0.537179  1
  Sn  Sn26  1  0.320212  0.038026  0.462821  1
  Sn  Sn27  1  0.820212  0.461974  0.037179  1
  Sn  Sn28  1  0.528806  0.595587  0.750000  1
  Sn  Sn29  1  0.028806  0.904413  0.750000  1
  Sn  Sn30  1  0.471194  0.404413  0.250000  1
  Sn  Sn31  1  0.971194  0.095587  0.250000  1
  Sn  Sn32  1  0.306487  0.145392  0.750000  1
  Sn  Sn33  1  0.806487  0.354608  0.750000  1
  Sn  Sn34  1  0.693513  0.854608  0.250000  1
  Sn  Sn35  1  0.193513  0.645392  0.250000  1
