# generated using pymatgen
data_Cs8Li4SmDy3Sb8
_symmetry_space_group_name_H-M   'P 1'
_cell_length_a   11.55468017
_cell_length_b   11.55468118
_cell_length_c   7.30196600
_cell_angle_alpha   89.96491745
_cell_angle_beta   90.03508751
_cell_angle_gamma   101.66883030
_symmetry_Int_Tables_number   1
_chemical_formula_structural   Cs8Li4SmDy3Sb8
_chemical_formula_sum   'Cs8 Li4 Sm1 Dy3 Sb8'
_cell_volume   954.74182549
_cell_formula_units_Z   1
loop_
 _symmetry_equiv_pos_site_id
 _symmetry_equiv_pos_as_xyz
  1  'x, y, z'
loop_
 _atom_site_type_symbol
 _atom_site_label
 _atom_site_symmetry_multiplicity
 _atom_site_fract_x
 _atom_site_fract_y
 _atom_site_fract_z
 _atom_site_occupancy
  Cs  Cs0  1  0.571173  0.928286  0.749730  1
  Cs  Cs1  1  0.928286  0.571173  0.250270  1
  Cs  Cs2  1  0.428860  0.073319  0.251740  1
  Cs  Cs3  1  0.073319  0.428860  0.748260  1
  Cs  Cs4  1  0.674992  0.322795  0.777315  1
  Cs  Cs5  1  0.824608  0.175772  0.279357  1
  Cs  Cs6  1  0.322795  0.674992  0.222685  1
  Cs  Cs7  1  0.175772  0.824608  0.720643  1
  Li  Li8  1  0.620374  0.620374  0.000000  1
  Li  Li9  1  0.878397  0.878397  0.500000  1
  Li  Li10  1  0.378829  0.378829  0.000000  1
  Li  Li11  1  0.121621  0.121621  0.500000  1
  Sm  Sm12  1  0.369645  0.369645  0.500000  1
  Dy  Dy13  1  0.869338  0.869338  0.000000  1
  Dy  Dy14  1  0.631153  0.631153  0.500000  1
  Dy  Dy15  1  0.130076  0.130076  0.000000  1
  Sb  Sb16  1  0.341642  0.156511  0.753324  1
  Sb  Sb17  1  0.156511  0.341642  0.246676  1
  Sb  Sb18  1  0.658485  0.840514  0.249419  1
  Sb  Sb19  1  0.840514  0.658485  0.750581  1
  Sb  Sb20  1  0.911283  0.088477  0.759593  1
  Sb  Sb21  1  0.591678  0.412169  0.257390  1
  Sb  Sb22  1  0.088477  0.911283  0.240407  1
  Sb  Sb23  1  0.412169  0.591678  0.742610  1
