# generated using pymatgen
data_LuMg2ZrIn4
_symmetry_space_group_name_H-M   'P 1'
_cell_length_a   6.32429672
_cell_length_b   6.32429693
_cell_length_c   4.52500700
_cell_angle_alpha   90.00000000
_cell_angle_beta   90.00000000
_cell_angle_gamma   91.80562674
_symmetry_Int_Tables_number   1
_chemical_formula_structural   LuMg2ZrIn4
_chemical_formula_sum   'Lu1 Mg2 Zr1 In4'
_cell_volume   180.89562012
_cell_formula_units_Z   1
loop_
 _symmetry_equiv_pos_site_id
 _symmetry_equiv_pos_as_xyz
  1  'x, y, z'
loop_
 _atom_site_type_symbol
 _atom_site_label
 _atom_site_symmetry_multiplicity
 _atom_site_fract_x
 _atom_site_fract_y
 _atom_site_fract_z
 _atom_site_occupancy
  Lu  Lu0  1  0.500000  0.500000  0.500000  1
  Mg  Mg1  1  0.754317  0.245683  0.000000  1
  Mg  Mg2  1  0.245683  0.754317  0.000000  1
  Zr  Zr3  1  0.000000  0.000000  0.500000  1
  In  In4  1  0.500000  0.000000  0.500000  1
  In  In5  1  0.000000  0.500000  0.500000  1
  In  In6  1  0.752190  0.752190  0.000000  1
  In  In7  1  0.247810  0.247810  0.000000  1
