# generated using pymatgen
data_Nd2HoThAl3(Ga5Ir2)3
_symmetry_space_group_name_H-M   'P 1'
_cell_length_a   7.62719067
_cell_length_b   7.64451576
_cell_length_c   9.54084501
_cell_angle_alpha   90.00020769
_cell_angle_beta   89.98662875
_cell_angle_gamma   119.52408099
_symmetry_Int_Tables_number   1
_chemical_formula_structural   Nd2HoThAl3(Ga5Ir2)3
_chemical_formula_sum   'Nd2 Ho1 Th1 Al3 Ga15 Ir6'
_cell_volume   484.05517077
_cell_formula_units_Z   1
loop_
 _symmetry_equiv_pos_site_id
 _symmetry_equiv_pos_as_xyz
  1  'x, y, z'
loop_
 _atom_site_type_symbol
 _atom_site_label
 _atom_site_symmetry_multiplicity
 _atom_site_fract_x
 _atom_site_fract_y
 _atom_site_fract_z
 _atom_site_occupancy
  Nd  Nd0  1  0.998792  0.330179  0.749274  1
  Nd  Nd1  1  0.672945  0.998867  0.249822  1
  Ho  Ho2  1  0.328837  0.999021  0.749308  1
  Th  Th3  1  0.998821  0.671177  0.250416  1
  Al  Al4  1  0.659874  0.662044  0.456372  1
  Al  Al5  1  0.664710  0.666745  0.043930  1
  Al  Al6  1  0.331497  0.329748  0.945059  1
  Ga  Ga7  1  0.132809  0.132937  0.249261  1
  Ga  Ga8  1  0.874100  0.875831  0.749122  1
  Ga  Ga9  1  0.002975  0.332791  0.077336  1
  Ga  Ga10  1  0.000641  0.667038  0.915440  1
  Ga  Ga11  1  0.999864  0.666685  0.584398  1
  Ga  Ga12  1  0.340298  0.006699  0.422850  1
  Ga  Ga13  1  0.004780  0.332799  0.421092  1
  Ga  Ga14  1  0.661895  0.998809  0.580260  1
  Ga  Ga15  1  0.662064  0.999501  0.919130  1
  Ga  Ga16  1  0.339703  0.004629  0.075516  1
  Ga  Ga17  1  0.327683  0.325596  0.568670  1
  Ga  Ga18  1  0.352333  0.551445  0.249831  1
  Ga  Ga19  1  0.651891  0.448111  0.750015  1
  Ga  Ga20  1  0.546645  0.346480  0.249805  1
  Ga  Ga21  1  0.450448  0.658251  0.749890  1
  Ir  Ir22  1  0.670480  0.333253  0.999784  1
  Ir  Ir23  1  0.328406  0.667907  0.999873  1
  Ir  Ir24  1  0.327941  0.671134  0.498753  1
  Ir  Ir25  1  0.673769  0.333123  0.498680  1
  Ir  Ir26  1  0.000648  0.997374  0.000013  1
  Ir  Ir27  1  0.995149  0.991827  0.496102  1
