# generated using pymatgen
data_Zr7Sc(V3Si4)4
_symmetry_space_group_name_H-M   'P 1'
_cell_length_a   6.63781207
_cell_length_b   6.63755816
_cell_length_c   12.31064241
_cell_angle_alpha   89.97526515
_cell_angle_beta   90.01644582
_cell_angle_gamma   90.00486153
_symmetry_Int_Tables_number   1
_chemical_formula_structural   Zr7Sc(V3Si4)4
_chemical_formula_sum   'Zr7 Sc1 V12 Si16'
_cell_volume   542.39284136
_cell_formula_units_Z   1
loop_
 _symmetry_equiv_pos_site_id
 _symmetry_equiv_pos_as_xyz
  1  'x, y, z'
loop_
 _atom_site_type_symbol
 _atom_site_label
 _atom_site_symmetry_multiplicity
 _atom_site_fract_x
 _atom_site_fract_y
 _atom_site_fract_z
 _atom_site_occupancy
  Zr  Zr0  1  0.002520  0.661470  0.030450  1
  Zr  Zr1  1  0.838449  0.502452  0.280596  1
  Zr  Zr2  1  0.161520  0.497135  0.780424  1
  Zr  Zr3  1  0.502498  0.838217  0.719222  1
  Zr  Zr4  1  0.497434  0.161037  0.219331  1
  Zr  Zr5  1  0.996360  0.339508  0.530384  1
  Zr  Zr6  1  0.661516  0.002554  0.969582  1
  Sc  Sc7  1  0.337841  0.998373  0.470495  1
  V  V8  1  0.332858  0.332890  0.000023  1
  V  V9  1  0.167334  0.833197  0.250076  1
  V  V10  1  0.833122  0.166944  0.749490  1
  V  V11  1  0.668695  0.665743  0.499796  1
  V  V12  1  0.004677  0.159631  0.126602  1
  V  V13  1  0.341023  0.505205  0.375960  1
  V  V14  1  0.659799  0.495064  0.876626  1
  V  V15  1  0.505180  0.340282  0.623669  1
  V  V16  1  0.494681  0.659422  0.123805  1
  V  V17  1  0.994140  0.840261  0.626491  1
  V  V18  1  0.159894  0.005133  0.873764  1
  V  V19  1  0.841272  0.994525  0.372922  1
  Si  Si20  1  0.289567  0.959656  0.064246  1
  Si  Si21  1  0.538604  0.791968  0.315648  1
  Si  Si22  1  0.460082  0.210332  0.814083  1
  Si  Si23  1  0.789839  0.540007  0.685768  1
  Si  Si24  1  0.209963  0.459585  0.185815  1
  Si  Si25  1  0.707645  0.038900  0.563228  1
  Si  Si26  1  0.959845  0.289704  0.935743  1
  Si  Si27  1  0.041649  0.711581  0.435806  1
  Si  Si28  1  0.705145  0.374062  0.071099  1
  Si  Si29  1  0.128119  0.203878  0.321584  1
  Si  Si30  1  0.874187  0.794845  0.820681  1
  Si  Si31  1  0.205102  0.125712  0.679004  1
  Si  Si32  1  0.794276  0.873491  0.179284  1
  Si  Si33  1  0.295973  0.627816  0.570061  1
  Si  Si34  1  0.374070  0.705258  0.928983  1
  Si  Si35  1  0.625119  0.294161  0.429259  1
