# generated using pymatgen
data_Dy2Ho3Bi2Pt
_symmetry_space_group_name_H-M   'P 1'
_cell_length_a   8.04732900
_cell_length_b   9.02623400
_cell_length_c   12.38287600
_cell_angle_alpha   90.00000000
_cell_angle_beta   90.00000000
_cell_angle_gamma   90.00000000
_symmetry_Int_Tables_number   1
_chemical_formula_structural   Dy2Ho3Bi2Pt
_chemical_formula_sum   'Dy8 Ho12 Bi8 Pt4'
_cell_volume   899.45588813
_cell_formula_units_Z   4
loop_
 _symmetry_equiv_pos_site_id
 _symmetry_equiv_pos_as_xyz
  1  'x, y, z'
loop_
 _atom_site_type_symbol
 _atom_site_label
 _atom_site_symmetry_multiplicity
 _atom_site_fract_x
 _atom_site_fract_y
 _atom_site_fract_z
 _atom_site_occupancy
  Dy  Dy0  1  0.339909  0.750000  0.710081  1
  Dy  Dy1  1  0.660091  0.250000  0.289919  1
  Dy  Dy2  1  0.839909  0.250000  0.789919  1
  Dy  Dy3  1  0.160091  0.750000  0.210081  1
  Dy  Dy4  1  0.873032  0.750000  0.801581  1
  Dy  Dy5  1  0.126968  0.250000  0.198419  1
  Dy  Dy6  1  0.373032  0.250000  0.698419  1
  Dy  Dy7  1  0.626968  0.750000  0.301581  1
  Ho  Ho8  1  0.679705  0.546130  0.566692  1
  Ho  Ho9  1  0.320295  0.453870  0.433308  1
  Ho  Ho10  1  0.179705  0.453870  0.933308  1
  Ho  Ho11  1  0.320295  0.046130  0.433308  1
  Ho  Ho12  1  0.820295  0.546130  0.066692  1
  Ho  Ho13  1  0.679705  0.953870  0.566692  1
  Ho  Ho14  1  0.820295  0.953870  0.066692  1
  Ho  Ho15  1  0.179705  0.046130  0.933308  1
  Ho  Ho16  1  0.051314  0.750000  0.500514  1
  Ho  Ho17  1  0.948686  0.250000  0.499486  1
  Ho  Ho18  1  0.551314  0.250000  0.999486  1
  Ho  Ho19  1  0.448686  0.750000  0.000514  1
  Bi  Bi20  1  0.570458  0.509531  0.828160  1
  Bi  Bi21  1  0.429542  0.490469  0.171840  1
  Bi  Bi22  1  0.070458  0.490469  0.671840  1
  Bi  Bi23  1  0.429542  0.009531  0.171840  1
  Bi  Bi24  1  0.929542  0.509531  0.328160  1
  Bi  Bi25  1  0.570458  0.990469  0.828160  1
  Bi  Bi26  1  0.929542  0.990469  0.328160  1
  Bi  Bi27  1  0.070458  0.009531  0.671840  1
  Pt  Pt28  1  0.075048  0.750000  0.988563  1
  Pt  Pt29  1  0.924952  0.250000  0.011437  1
  Pt  Pt30  1  0.575048  0.250000  0.511437  1
  Pt  Pt31  1  0.424952  0.750000  0.488563  1
