# generated using pymatgen
data_LaTh7Zn8IrRh7
_symmetry_space_group_name_H-M   'P 1'
_cell_length_a   3.94962300
_cell_length_b   7.54197503
_cell_length_c   16.62304520
_cell_angle_alpha   89.66655130
_cell_angle_beta   90.00000000
_cell_angle_gamma   90.00000000
_symmetry_Int_Tables_number   1
_chemical_formula_structural   LaTh7Zn8IrRh7
_chemical_formula_sum   'La1 Th7 Zn8 Ir1 Rh7'
_cell_volume   495.15818730
_cell_formula_units_Z   1
loop_
 _symmetry_equiv_pos_site_id
 _symmetry_equiv_pos_as_xyz
  1  'x, y, z'
loop_
 _atom_site_type_symbol
 _atom_site_label
 _atom_site_symmetry_multiplicity
 _atom_site_fract_x
 _atom_site_fract_y
 _atom_site_fract_z
 _atom_site_occupancy
  La  La0  1  0.750000  0.940804  0.285369  1
  Th  Th1  1  0.750000  0.327357  0.440170  1
  Th  Th2  1  0.250000  0.062232  0.715643  1
  Th  Th3  1  0.250000  0.559881  0.785311  1
  Th  Th4  1  0.250000  0.674516  0.560409  1
  Th  Th5  1  0.750000  0.822810  0.060233  1
  Th  Th6  1  0.250000  0.172648  0.939547  1
  Th  Th7  1  0.750000  0.440156  0.214757  1
  Zn  Zn8  1  0.250000  0.113080  0.152675  1
  Zn  Zn9  1  0.250000  0.997720  0.440722  1
  Zn  Zn10  1  0.750000  0.886460  0.847024  1
  Zn  Zn11  1  0.750000  0.005327  0.559872  1
  Zn  Zn12  1  0.250000  0.491510  0.057874  1
  Zn  Zn13  1  0.750000  0.387798  0.653406  1
  Zn  Zn14  1  0.750000  0.503155  0.940642  1
  Zn  Zn15  1  0.250000  0.615748  0.347991  1
  Ir  Ir16  1  0.750000  0.258391  0.814659  1
  Rh  Rh17  1  0.250000  0.257741  0.315509  1
  Rh  Rh18  1  0.250000  0.754247  0.937290  1
  Rh  Rh19  1  0.250000  0.256929  0.562251  1
  Rh  Rh20  1  0.250000  0.728779  0.180094  1
  Rh  Rh21  1  0.750000  0.742443  0.440668  1
  Rh  Rh22  1  0.750000  0.240885  0.062150  1
  Rh  Rh23  1  0.750000  0.759385  0.685733  1
