# generated using pymatgen
data_AlCr5(SiRu2)6
_symmetry_space_group_name_H-M   'P 1'
_cell_length_a   4.19205901
_cell_length_b   5.92467300
_cell_length_c   12.55709502
_cell_angle_alpha   90.00000000
_cell_angle_beta   89.99426885
_cell_angle_gamma   90.00000000
_symmetry_Int_Tables_number   1
_chemical_formula_structural   AlCr5(SiRu2)6
_chemical_formula_sum   'Al1 Cr5 Si6 Ru12'
_cell_volume   311.87527833
_cell_formula_units_Z   1
loop_
 _symmetry_equiv_pos_site_id
 _symmetry_equiv_pos_as_xyz
  1  'x, y, z'
loop_
 _atom_site_type_symbol
 _atom_site_label
 _atom_site_symmetry_multiplicity
 _atom_site_fract_x
 _atom_site_fract_y
 _atom_site_fract_z
 _atom_site_occupancy
  Al  Al0  1  0.000000  0.500001  0.000000  1
  Cr  Cr1  1  0.499811  0.000000  0.164988  1
  Cr  Cr2  1  0.999956  0.500001  0.333464  1
  Cr  Cr3  1  0.500000  0.000000  0.500000  1
  Cr  Cr4  1  0.000045  0.500001  0.666536  1
  Cr  Cr5  1  0.500188  0.000000  0.835012  1
  Si  Si6  1  0.000000  0.000000  0.000000  1
  Si  Si7  1  0.499857  0.500001  0.168489  1
  Si  Si8  1  0.999827  0.000000  0.331283  1
  Si  Si9  1  0.500000  0.500001  0.500000  1
  Si  Si10  1  0.000174  0.000000  0.668717  1
  Si  Si11  1  0.500144  0.500001  0.831511  1
  Ru  Ru12  1  0.500000  0.250518  0.000000  1
  Ru  Ru13  1  0.500000  0.749482  0.000000  1
  Ru  Ru14  1  0.999927  0.250250  0.167082  1
  Ru  Ru15  1  0.999927  0.749750  0.167082  1
  Ru  Ru16  1  0.499858  0.249950  0.334182  1
  Ru  Ru17  1  0.499858  0.750050  0.334182  1
  Ru  Ru18  1  0.000000  0.249175  0.500000  1
  Ru  Ru19  1  0.000000  0.750825  0.500000  1
  Ru  Ru20  1  0.500143  0.249950  0.665818  1
  Ru  Ru21  1  0.500143  0.750050  0.665818  1
  Ru  Ru22  1  0.000074  0.250250  0.832918  1
  Ru  Ru23  1  0.000074  0.749750  0.832918  1
