# generated using pymatgen
data_DyYTm2(Al3Ir)6
_symmetry_space_group_name_H-M   'P 1'
_cell_length_a   7.54719656
_cell_length_b   7.54660172
_cell_length_c   9.45880600
_cell_angle_alpha   90.00000000
_cell_angle_beta   90.00000000
_cell_angle_gamma   119.48885399
_symmetry_Int_Tables_number   1
_chemical_formula_structural   DyYTm2(Al3Ir)6
_chemical_formula_sum   'Dy1 Y1 Tm2 Al18 Ir6'
_cell_volume   468.94075048
_cell_formula_units_Z   1
loop_
 _symmetry_equiv_pos_site_id
 _symmetry_equiv_pos_as_xyz
  1  'x, y, z'
loop_
 _atom_site_type_symbol
 _atom_site_label
 _atom_site_symmetry_multiplicity
 _atom_site_fract_x
 _atom_site_fract_y
 _atom_site_fract_z
 _atom_site_occupancy
  Dy  Dy0  1  0.994785  0.671446  0.250000  1
  Y  Y1  1  0.671414  0.994697  0.250000  1
  Tm  Tm2  1  0.005494  0.328107  0.750000  1
  Tm  Tm3  1  0.328172  0.005567  0.750000  1
  Al  Al4  1  0.129792  0.129489  0.250000  1
  Al  Al5  1  0.871244  0.871340  0.750000  1
  Al  Al6  1  0.001317  0.335448  0.073072  1
  Al  Al7  1  0.999435  0.664666  0.924635  1
  Al  Al8  1  0.999435  0.664666  0.575365  1
  Al  Al9  1  0.334934  0.001011  0.426936  1
  Al  Al10  1  0.001317  0.335448  0.426928  1
  Al  Al11  1  0.664661  0.999481  0.575498  1
  Al  Al12  1  0.664661  0.999481  0.924502  1
  Al  Al13  1  0.334934  0.001011  0.073064  1
  Al  Al14  1  0.333017  0.333024  0.552815  1
  Al  Al15  1  0.666733  0.666473  0.449505  1
  Al  Al16  1  0.666733  0.666473  0.050495  1
  Al  Al17  1  0.333017  0.333024  0.947185  1
  Al  Al18  1  0.339118  0.548119  0.250000  1
  Al  Al19  1  0.660301  0.450681  0.750000  1
  Al  Al20  1  0.548468  0.339679  0.250000  1
  Al  Al21  1  0.450616  0.660374  0.750000  1
  Ir  Ir22  1  0.671967  0.327814  0.999341  1
  Ir  Ir23  1  0.327606  0.671849  0.999368  1
  Ir  Ir24  1  0.327606  0.671849  0.500632  1
  Ir  Ir25  1  0.671967  0.327814  0.500659  1
  Ir  Ir26  1  0.000629  0.000487  0.999185  1
  Ir  Ir27  1  0.000629  0.000487  0.500815  1
