# generated using pymatgen
data_Rb12In2AsP5
_symmetry_space_group_name_H-M   'P 1'
_cell_length_a   9.39611377
_cell_length_b   9.40475244
_cell_length_c   10.58734915
_cell_angle_alpha   82.03402525
_cell_angle_beta   106.86526977
_cell_angle_gamma   119.21272110
_symmetry_Int_Tables_number   1
_chemical_formula_structural   Rb12In2AsP5
_chemical_formula_sum   'Rb12 In2 As1 P5'
_cell_volume   781.46377489
_cell_formula_units_Z   1
loop_
 _symmetry_equiv_pos_site_id
 _symmetry_equiv_pos_as_xyz
  1  'x, y, z'
loop_
 _atom_site_type_symbol
 _atom_site_label
 _atom_site_symmetry_multiplicity
 _atom_site_fract_x
 _atom_site_fract_y
 _atom_site_fract_z
 _atom_site_occupancy
  Rb  Rb0  1  0.733031  0.125563  0.616958  1
  Rb  Rb1  1  0.255792  0.860961  0.392542  1
  Rb  Rb2  1  0.969037  0.816764  0.629908  1
  Rb  Rb3  1  0.022424  0.194092  0.392325  1
  Rb  Rb4  1  0.625409  0.447318  0.399287  1
  Rb  Rb5  1  0.398731  0.562234  0.596984  1
  Rb  Rb6  1  0.866244  0.484581  0.139530  1
  Rb  Rb7  1  0.108331  0.499995  0.842805  1
  Rb  Rb8  1  0.749199  0.093357  0.985610  1
  Rb  Rb9  1  0.244421  0.876060  0.003707  1
  Rb  Rb10  1  0.573046  0.628268  0.945063  1
  Rb  Rb11  1  0.246418  0.207885  0.107871  1
  In  In12  1  0.592155  0.833597  0.256808  1
  In  In13  1  0.418504  0.176540  0.750035  1
  As  As14  1  0.295556  0.558901  0.231465  1
  P  P15  1  0.703719  0.431089  0.760771  1
  P  P16  1  0.599140  0.109527  0.260912  1
  P  P17  1  0.388348  0.886035  0.740697  1
  P  P18  1  0.855652  0.821849  0.245650  1
  P  P19  1  0.164221  0.202125  0.762452  1
