# generated using pymatgen
data_Dy2V3Co9P7
_symmetry_space_group_name_H-M   'P 1'
_cell_length_a   3.63489700
_cell_length_b   9.04567532
_cell_length_c   9.04567500
_cell_angle_alpha   119.99999518
_cell_angle_beta   90.00000000
_cell_angle_gamma   90.00000000
_symmetry_Int_Tables_number   1
_chemical_formula_structural   Dy2V3Co9P7
_chemical_formula_sum   'Dy2 V3 Co9 P7'
_cell_volume   257.57561005
_cell_formula_units_Z   1
loop_
 _symmetry_equiv_pos_site_id
 _symmetry_equiv_pos_as_xyz
  1  'x, y, z'
loop_
 _atom_site_type_symbol
 _atom_site_label
 _atom_site_symmetry_multiplicity
 _atom_site_fract_x
 _atom_site_fract_y
 _atom_site_fract_z
 _atom_site_occupancy
  Dy  Dy0  1  0.000000  0.666667  0.333333  1
  Dy  Dy1  1  0.500000  0.333333  0.666667  1
  V  V2  1  0.500000  0.781625  0.900873  1
  V  V3  1  0.500000  0.119249  0.218375  1
  V  V4  1  0.500000  0.099127  0.880751  1
  Co  Co5  1  0.000000  0.568219  0.939268  1
  Co  Co6  1  0.000000  0.371048  0.431781  1
  Co  Co7  1  0.000000  0.060732  0.628952  1
  Co  Co8  1  0.000000  0.879655  0.157545  1
  Co  Co9  1  0.000000  0.277891  0.120345  1
  Co  Co10  1  0.000000  0.842455  0.722109  1
  Co  Co11  1  0.500000  0.950115  0.385262  1
  Co  Co12  1  0.500000  0.435145  0.049885  1
  Co  Co13  1  0.500000  0.614738  0.564855  1
  P  P14  1  0.000000  0.000000  0.000000  1
  P  P15  1  0.500000  0.709346  0.115841  1
  P  P16  1  0.500000  0.406495  0.290654  1
  P  P17  1  0.500000  0.884159  0.593505  1
  P  P18  1  0.000000  0.588969  0.700856  1
  P  P19  1  0.000000  0.111888  0.411031  1
  P  P20  1  0.000000  0.299144  0.888112  1
