# generated using pymatgen
data_Y13Th3Cd3HgIr4
_symmetry_space_group_name_H-M   'P 1'
_cell_length_a   9.74496748
_cell_length_b   9.75430901
_cell_length_c   9.75430954
_cell_angle_alpha   59.91991646
_cell_angle_beta   59.88886310
_cell_angle_gamma   59.88886748
_symmetry_Int_Tables_number   1
_chemical_formula_structural   Y13Th3Cd3HgIr4
_chemical_formula_sum   'Y13 Th3 Cd3 Hg1 Ir4'
_cell_volume   654.13021831
_cell_formula_units_Z   1
loop_
 _symmetry_equiv_pos_site_id
 _symmetry_equiv_pos_as_xyz
  1  'x, y, z'
loop_
 _atom_site_type_symbol
 _atom_site_label
 _atom_site_symmetry_multiplicity
 _atom_site_fract_x
 _atom_site_fract_y
 _atom_site_fract_z
 _atom_site_occupancy
  Y  Y0  1  0.947159  0.351269  0.351269  1
  Y  Y1  1  0.810727  0.190093  0.190093  1
  Y  Y2  1  0.187951  0.812116  0.812116  1
  Y  Y3  1  0.188763  0.811728  0.187487  1
  Y  Y4  1  0.810881  0.189374  0.809243  1
  Y  Y5  1  0.188763  0.187487  0.811728  1
  Y  Y6  1  0.810881  0.809243  0.189374  1
  Y  Y7  1  0.935573  0.563462  0.563462  1
  Y  Y8  1  0.563655  0.936097  0.936097  1
  Y  Y9  1  0.563707  0.935723  0.564079  1
  Y  Y10  1  0.936316  0.563309  0.936729  1
  Y  Y11  1  0.563707  0.564079  0.935723  1
  Y  Y12  1  0.936316  0.936729  0.563309  1
  Th  Th13  1  0.346763  0.349497  0.349497  1
  Th  Th14  1  0.347823  0.350776  0.951548  1
  Th  Th15  1  0.347823  0.951548  0.350776  1
  Cd  Cd16  1  0.583997  0.580419  0.253594  1
  Cd  Cd17  1  0.583997  0.253594  0.580419  1
  Cd  Cd18  1  0.252523  0.581865  0.581865  1
  Hg  Hg19  1  0.588158  0.583474  0.583474  1
  Ir  Ir20  1  0.145138  0.142004  0.142004  1
  Ir  Ir21  1  0.145204  0.141476  0.571115  1
  Ir  Ir22  1  0.145204  0.571115  0.141476  1
  Ir  Ir23  1  0.568978  0.143518  0.143518  1
