# generated using pymatgen
data_Dy16HoLu3Sn16
_symmetry_space_group_name_H-M   'P 1'
_cell_length_a   8.00820648
_cell_length_b   8.15762011
_cell_length_c   15.44904500
_cell_angle_alpha   90.00000000
_cell_angle_beta   90.00000000
_cell_angle_gamma   90.02901832
_symmetry_Int_Tables_number   1
_chemical_formula_structural   Dy16HoLu3Sn16
_chemical_formula_sum   'Dy16 Ho1 Lu3 Sn16'
_cell_volume   1009.25363273
_cell_formula_units_Z   1
loop_
 _symmetry_equiv_pos_site_id
 _symmetry_equiv_pos_as_xyz
  1  'x, y, z'
loop_
 _atom_site_type_symbol
 _atom_site_label
 _atom_site_symmetry_multiplicity
 _atom_site_fract_x
 _atom_site_fract_y
 _atom_site_fract_z
 _atom_site_occupancy
  Dy  Dy0  1  0.368034  0.836297  0.878110  1
  Dy  Dy1  1  0.867595  0.664051  0.621885  1
  Dy  Dy2  1  0.632105  0.163881  0.378073  1
  Dy  Dy3  1  0.132098  0.336150  0.121994  1
  Dy  Dy4  1  0.632105  0.163881  0.121927  1
  Dy  Dy5  1  0.132098  0.336150  0.378006  1
  Dy  Dy6  1  0.368034  0.836297  0.621890  1
  Dy  Dy7  1  0.867595  0.664051  0.878115  1
  Dy  Dy8  1  0.521198  0.320188  0.902407  1
  Dy  Dy9  1  0.020966  0.179635  0.597602  1
  Dy  Dy10  1  0.478882  0.679701  0.402332  1
  Dy  Dy11  1  0.978918  0.820266  0.097632  1
  Dy  Dy12  1  0.478882  0.679701  0.097668  1
  Dy  Dy13  1  0.978918  0.820266  0.402368  1
  Dy  Dy14  1  0.521198  0.320188  0.597593  1
  Dy  Dy15  1  0.020966  0.179635  0.902398  1
  Ho  Ho16  1  0.198432  0.502637  0.750000  1
  Lu  Lu17  1  0.698740  0.997192  0.750000  1
  Lu  Lu18  1  0.801343  0.497256  0.250000  1
  Lu  Lu19  1  0.301345  0.002722  0.250000  1
  Sn  Sn20  1  0.292223  0.034956  0.042360  1
  Sn  Sn21  1  0.792222  0.465118  0.457638  1
  Sn  Sn22  1  0.707739  0.965008  0.542311  1
  Sn  Sn23  1  0.207732  0.535015  0.958074  1
  Sn  Sn24  1  0.707739  0.965008  0.957689  1
  Sn  Sn25  1  0.207732  0.535015  0.541926  1
  Sn  Sn26  1  0.292223  0.034956  0.457640  1
  Sn  Sn27  1  0.792222  0.465118  0.042362  1
  Sn  Sn28  1  0.565497  0.619203  0.750000  1
  Sn  Sn29  1  0.064265  0.881575  0.750000  1
  Sn  Sn30  1  0.435694  0.381023  0.250000  1
  Sn  Sn31  1  0.935554  0.118823  0.250000  1
  Sn  Sn32  1  0.329725  0.147092  0.750000  1
  Sn  Sn33  1  0.829321  0.351766  0.750000  1
  Sn  Sn34  1  0.670387  0.851940  0.250000  1
  Sn  Sn35  1  0.170277  0.648234  0.250000  1
