# generated using pymatgen
data_Pr16CdHg3IrRu3
_symmetry_space_group_name_H-M   'P 1'
_cell_length_a   9.97094522
_cell_length_b   9.98817025
_cell_length_c   9.98817000
_cell_angle_alpha   60.00000084
_cell_angle_beta   59.94283838
_cell_angle_gamma   59.94283987
_symmetry_Int_Tables_number   1
_chemical_formula_structural   Pr16CdHg3IrRu3
_chemical_formula_sum   'Pr16 Cd1 Hg3 Ir1 Ru3'
_cell_volume   702.77682543
_cell_formula_units_Z   1
loop_
 _symmetry_equiv_pos_site_id
 _symmetry_equiv_pos_as_xyz
  1  'x, y, z'
loop_
 _atom_site_type_symbol
 _atom_site_label
 _atom_site_symmetry_multiplicity
 _atom_site_fract_x
 _atom_site_fract_y
 _atom_site_fract_z
 _atom_site_occupancy
  Pr  Pr0  1  0.346359  0.348621  0.348621  1
  Pr  Pr1  1  0.346359  0.348621  0.956397  1
  Pr  Pr2  1  0.346359  0.956397  0.348621  1
  Pr  Pr3  1  0.954977  0.348341  0.348341  1
  Pr  Pr4  1  0.810678  0.191317  0.191317  1
  Pr  Pr5  1  0.190291  0.810272  0.810272  1
  Pr  Pr6  1  0.190291  0.810272  0.189165  1
  Pr  Pr7  1  0.810678  0.191317  0.806689  1
  Pr  Pr8  1  0.190291  0.189165  0.810272  1
  Pr  Pr9  1  0.810678  0.806689  0.191317  1
  Pr  Pr10  1  0.938568  0.561658  0.561658  1
  Pr  Pr11  1  0.559395  0.939596  0.939596  1
  Pr  Pr12  1  0.559395  0.939596  0.561413  1
  Pr  Pr13  1  0.938568  0.561658  0.938117  1
  Pr  Pr14  1  0.559395  0.561413  0.939596  1
  Pr  Pr15  1  0.938568  0.938117  0.561658  1
  Cd  Cd16  1  0.263861  0.578713  0.578713  1
  Hg  Hg17  1  0.582280  0.584402  0.584402  1
  Hg  Hg18  1  0.582280  0.584402  0.248914  1
  Hg  Hg19  1  0.582280  0.248914  0.584402  1
  Ir  Ir20  1  0.579260  0.140247  0.140247  1
  Ru  Ru21  1  0.139729  0.137682  0.137682  1
  Ru  Ru22  1  0.139729  0.137682  0.584907  1
  Ru  Ru23  1  0.139729  0.584907  0.137682  1
