# generated using pymatgen
data_NdSmGa5Pd3
_symmetry_space_group_name_H-M   'P 1'
_cell_length_a   8.72226130
_cell_length_b   8.72041732
_cell_length_c   8.72041715
_cell_angle_alpha   140.69789333
_cell_angle_beta   107.95628172
_cell_angle_gamma   85.28749891
_symmetry_Int_Tables_number   1
_chemical_formula_structural   NdSmGa5Pd3
_chemical_formula_sum   'Nd2 Sm2 Ga10 Pd6'
_cell_volume   385.97150694
_cell_formula_units_Z   2
loop_
 _symmetry_equiv_pos_site_id
 _symmetry_equiv_pos_as_xyz
  1  'x, y, z'
loop_
 _atom_site_type_symbol
 _atom_site_label
 _atom_site_symmetry_multiplicity
 _atom_site_fract_x
 _atom_site_fract_y
 _atom_site_fract_z
 _atom_site_occupancy
  Nd  Nd0  1  0.636437  0.861947  0.774490  1
  Nd  Nd1  1  0.363563  0.138053  0.225510  1
  Sm  Sm2  1  0.087100  0.361693  0.725407  1
  Sm  Sm3  1  0.912900  0.638307  0.274593  1
  Ga  Ga4  1  0.289858  0.040357  0.749762  1
  Ga  Ga5  1  0.710142  0.959643  0.250238  1
  Ga  Ga6  1  0.710142  0.459905  0.750499  1
  Ga  Ga7  1  0.289858  0.540095  0.249501  1
  Ga  Ga8  1  0.430694  0.596261  0.834433  1
  Ga  Ga9  1  0.569306  0.403739  0.165567  1
  Ga  Ga10  1  0.762288  0.096635  0.665654  1
  Ga  Ga11  1  0.237712  0.903365  0.334346  1
  Ga  Ga12  1  0.000000  0.749650  0.749650  1
  Ga  Ga13  1  0.000000  0.250350  0.250350  1
  Pd  Pd14  1  0.240419  0.644241  0.596180  1
  Pd  Pd15  1  0.759581  0.355759  0.403820  1
  Pd  Pd16  1  0.047283  0.144339  0.902944  1
  Pd  Pd17  1  0.952717  0.855661  0.097056  1
  Pd  Pd18  1  0.500000  0.749863  0.249863  1
  Pd  Pd19  1  0.500000  0.250137  0.750137  1
