# generated using pymatgen
data_KSm3CCl6
_symmetry_space_group_name_H-M   'P 1'
_cell_length_a   8.48333966
_cell_length_b   8.52551374
_cell_length_c   9.14716100
_cell_angle_alpha   69.67758925
_cell_angle_beta   85.80854298
_cell_angle_gamma   89.24521001
_symmetry_Int_Tables_number   1
_chemical_formula_structural   KSm3CCl6
_chemical_formula_sum   'K2 Sm6 C2 Cl12'
_cell_volume   618.67437523
_cell_formula_units_Z   2
loop_
 _symmetry_equiv_pos_site_id
 _symmetry_equiv_pos_as_xyz
  1  'x, y, z'
loop_
 _atom_site_type_symbol
 _atom_site_label
 _atom_site_symmetry_multiplicity
 _atom_site_fract_x
 _atom_site_fract_y
 _atom_site_fract_z
 _atom_site_occupancy
  K  K0  1  0.490759  0.312611  0.355176  1
  K  K1  1  0.509242  0.687389  0.644824  1
  Sm  Sm2  1  0.911283  0.730110  0.003041  1
  Sm  Sm3  1  0.088717  0.269890  0.996958  1
  Sm  Sm4  1  0.728474  0.089670  0.003252  1
  Sm  Sm5  1  0.271525  0.910330  0.996749  1
  Sm  Sm6  1  0.983036  0.862657  0.342047  1
  Sm  Sm7  1  0.016963  0.137343  0.657954  1
  C  C8  1  0.004199  0.031390  0.917594  1
  C  C9  1  0.995800  0.968610  0.082406  1
  Cl  Cl10  1  0.095947  0.185018  0.327852  1
  Cl  Cl11  1  0.904053  0.814982  0.672148  1
  Cl  Cl12  1  0.209633  0.591932  0.996886  1
  Cl  Cl13  1  0.790368  0.408068  0.003114  1
  Cl  Cl14  1  0.405820  0.202619  0.008965  1
  Cl  Cl15  1  0.594179  0.797382  0.991034  1
  Cl  Cl16  1  0.672243  0.993267  0.334225  1
  Cl  Cl17  1  0.327757  0.006733  0.665775  1
  Cl  Cl18  1  0.293976  0.759584  0.324242  1
  Cl  Cl19  1  0.706024  0.240416  0.675758  1
  Cl  Cl20  1  0.848928  0.576539  0.327683  1
  Cl  Cl21  1  0.151071  0.423461  0.672317  1
