# generated using pymatgen
data_TbDy9(TlBi2)2
_symmetry_space_group_name_H-M   'P 1'
_cell_length_a   9.11098600
_cell_length_b   9.12781709
_cell_length_c   6.53536200
_cell_angle_alpha   90.00000000
_cell_angle_beta   90.00000000
_cell_angle_gamma   120.06113825
_symmetry_Int_Tables_number   1
_chemical_formula_structural   TbDy9(TlBi2)2
_chemical_formula_sum   'Tb1 Dy9 Tl2 Bi4'
_cell_volume   470.39717288
_cell_formula_units_Z   1
loop_
 _symmetry_equiv_pos_site_id
 _symmetry_equiv_pos_as_xyz
  1  'x, y, z'
loop_
 _atom_site_type_symbol
 _atom_site_label
 _atom_site_symmetry_multiplicity
 _atom_site_fract_x
 _atom_site_fract_y
 _atom_site_fract_z
 _atom_site_occupancy
  Tb  Tb0  1  0.000000  0.760973  0.250000  1
  Dy  Dy1  1  0.660587  0.328997  0.997780  1
  Dy  Dy2  1  0.339413  0.668410  0.997780  1
  Dy  Dy3  1  0.339413  0.668410  0.502220  1
  Dy  Dy4  1  0.660587  0.328997  0.502220  1
  Dy  Dy5  1  0.756138  0.764510  0.750000  1
  Dy  Dy6  1  0.243862  0.008372  0.750000  1
  Dy  Dy7  1  0.000000  0.235365  0.750000  1
  Dy  Dy8  1  0.238844  0.237090  0.250000  1
  Dy  Dy9  1  0.761156  0.998247  0.250000  1
  Tl  Tl10  1  0.392824  0.394572  0.750000  1
  Tl  Tl11  1  0.607176  0.001748  0.750000  1
  Bi  Bi12  1  0.000000  0.609794  0.750000  1
  Bi  Bi13  1  0.607610  0.604916  0.250000  1
  Bi  Bi14  1  0.392390  0.997305  0.250000  1
  Bi  Bi15  1  0.000000  0.392293  0.250000  1
