# generated using pymatgen
data_Ho4As5Ir7Pd
_symmetry_space_group_name_H-M   'P 1'
_cell_length_a   7.28927215
_cell_length_b   7.28927210
_cell_length_c   7.28927282
_cell_angle_alpha   106.91001395
_cell_angle_beta   110.76680825
_cell_angle_gamma   110.76680656
_symmetry_Int_Tables_number   1
_chemical_formula_structural   Ho4As5Ir7Pd
_chemical_formula_sum   'Ho4 As5 Ir7 Pd1'
_cell_volume   297.70280174
_cell_formula_units_Z   1
loop_
 _symmetry_equiv_pos_site_id
 _symmetry_equiv_pos_as_xyz
  1  'x, y, z'
loop_
 _atom_site_type_symbol
 _atom_site_label
 _atom_site_symmetry_multiplicity
 _atom_site_fract_x
 _atom_site_fract_y
 _atom_site_fract_z
 _atom_site_occupancy
  Ho  Ho0  1  0.000000  0.985951  0.498229  1
  Ho  Ho1  1  0.000000  0.498229  0.985951  1
  Ho  Ho2  1  0.487721  0.985951  0.985951  1
  Ho  Ho3  1  0.512279  0.498229  0.498229  1
  As  As4  1  0.686425  0.685695  0.999270  1
  As  As5  1  0.313575  0.999270  0.312846  1
  As  As6  1  0.000000  0.332247  0.332247  1
  As  As7  1  0.313575  0.312846  0.999270  1
  As  As8  1  0.686425  0.999270  0.685695  1
  Ir  Ir9  1  0.747061  0.237505  0.490444  1
  Ir  Ir10  1  0.747061  0.490444  0.237505  1
  Ir  Ir11  1  0.500000  0.244725  0.744725  1
  Ir  Ir12  1  0.252939  0.490444  0.743383  1
  Ir  Ir13  1  0.252939  0.743383  0.490444  1
  Ir  Ir14  1  0.500000  0.744725  0.244725  1
  Ir  Ir15  1  0.000000  0.038829  0.038829  1
  Pd  Pd16  1  0.000000  0.712253  0.712253  1
