# generated using pymatgen
data_ZnHg4(PBr2)2
_symmetry_space_group_name_H-M   'P 1'
_cell_length_a   12.84992800
_cell_length_b   7.78416349
_cell_length_c   7.85157237
_cell_angle_alpha   62.34540005
_cell_angle_beta   90.00000000
_cell_angle_gamma   90.00000000
_symmetry_Int_Tables_number   1
_chemical_formula_structural   ZnHg4(PBr2)2
_chemical_formula_sum   'Zn2 Hg8 P4 Br8'
_cell_volume   695.64259923
_cell_formula_units_Z   2
loop_
 _symmetry_equiv_pos_site_id
 _symmetry_equiv_pos_as_xyz
  1  'x, y, z'
loop_
 _atom_site_type_symbol
 _atom_site_label
 _atom_site_symmetry_multiplicity
 _atom_site_fract_x
 _atom_site_fract_y
 _atom_site_fract_z
 _atom_site_occupancy
  Zn  Zn0  1  0.839993  0.993251  0.006693  1
  Zn  Zn1  1  0.339993  0.006749  0.993307  1
  Hg  Hg2  1  0.791938  0.673721  0.667203  1
  Hg  Hg3  1  0.549648  0.027538  0.573978  1
  Hg  Hg4  1  0.049648  0.972462  0.426022  1
  Hg  Hg5  1  0.553197  0.518204  0.053395  1
  Hg  Hg6  1  0.291938  0.326279  0.332797  1
  Hg  Hg7  1  0.023376  0.469961  0.450272  1
  Hg  Hg8  1  0.523376  0.530039  0.549728  1
  Hg  Hg9  1  0.053197  0.481796  0.946605  1
  P  P10  1  0.478755  0.350848  0.375214  1
  P  P11  1  0.605505  0.690500  0.717446  1
  P  P12  1  0.978755  0.649152  0.624786  1
  P  P13  1  0.105505  0.309500  0.282554  1
  Br  Br14  1  0.246527  0.298922  0.769305  1
  Br  Br15  1  0.316188  0.739377  0.916342  1
  Br  Br16  1  0.025319  0.897288  0.058649  1
  Br  Br17  1  0.746527  0.701078  0.230695  1
  Br  Br18  1  0.525319  0.102712  0.941351  1
  Br  Br19  1  0.816188  0.260623  0.083658  1
  Br  Br20  1  0.808284  0.102227  0.665005  1
  Br  Br21  1  0.308284  0.897773  0.334995  1
