# generated using pymatgen
data_Pr15ThMgHg3Ir4
_symmetry_space_group_name_H-M   'P 1'
_cell_length_a   10.01580418
_cell_length_b   10.07301271
_cell_length_c   10.07301315
_cell_angle_alpha   59.75114653
_cell_angle_beta   59.74480867
_cell_angle_gamma   59.74481283
_symmetry_Int_Tables_number   1
_chemical_formula_structural   Pr15ThMgHg3Ir4
_chemical_formula_sum   'Pr15 Th1 Mg1 Hg3 Ir4'
_cell_volume   714.47417221
_cell_formula_units_Z   1
loop_
 _symmetry_equiv_pos_site_id
 _symmetry_equiv_pos_as_xyz
  1  'x, y, z'
loop_
 _atom_site_type_symbol
 _atom_site_label
 _atom_site_symmetry_multiplicity
 _atom_site_fract_x
 _atom_site_fract_y
 _atom_site_fract_z
 _atom_site_occupancy
  Pr  Pr0  1  0.349606  0.348921  0.953874  1
  Pr  Pr1  1  0.349606  0.953874  0.348921  1
  Pr  Pr2  1  0.947471  0.351363  0.351363  1
  Pr  Pr3  1  0.808483  0.191565  0.191565  1
  Pr  Pr4  1  0.186390  0.810388  0.810388  1
  Pr  Pr5  1  0.187430  0.811858  0.189158  1
  Pr  Pr6  1  0.805618  0.191740  0.807004  1
  Pr  Pr7  1  0.187430  0.189158  0.811858  1
  Pr  Pr8  1  0.805618  0.807004  0.191740  1
  Pr  Pr9  1  0.942215  0.562099  0.562099  1
  Pr  Pr10  1  0.557999  0.939895  0.939895  1
  Pr  Pr11  1  0.560369  0.942314  0.562471  1
  Pr  Pr12  1  0.939972  0.558481  0.938721  1
  Pr  Pr13  1  0.560369  0.562471  0.942314  1
  Pr  Pr14  1  0.939972  0.938721  0.558481  1
  Th  Th15  1  0.343308  0.343773  0.343773  1
  Mg  Mg16  1  0.285300  0.569628  0.569628  1
  Hg  Hg17  1  0.580537  0.586387  0.586387  1
  Hg  Hg18  1  0.579722  0.585848  0.246012  1
  Hg  Hg19  1  0.579722  0.246012  0.585848  1
  Ir  Ir20  1  0.140789  0.143043  0.143043  1
  Ir  Ir21  1  0.145791  0.147040  0.571170  1
  Ir  Ir22  1  0.145791  0.571170  0.147040  1
  Ir  Ir23  1  0.570494  0.147252  0.147252  1
