# generated using pymatgen
data_Pr2Nd2B4I5
_symmetry_space_group_name_H-M   'P 1'
_cell_length_a   9.93044504
_cell_length_b   9.93044425
_cell_length_c   10.10980613
_cell_angle_alpha   75.00885220
_cell_angle_beta   75.00885355
_cell_angle_gamma   25.26892315
_symmetry_Int_Tables_number   1
_chemical_formula_structural   Pr2Nd2B4I5
_chemical_formula_sum   'Pr2 Nd2 B4 I5'
_cell_volume   410.34691694
_cell_formula_units_Z   1
loop_
 _symmetry_equiv_pos_site_id
 _symmetry_equiv_pos_as_xyz
  1  'x, y, z'
loop_
 _atom_site_type_symbol
 _atom_site_label
 _atom_site_symmetry_multiplicity
 _atom_site_fract_x
 _atom_site_fract_y
 _atom_site_fract_z
 _atom_site_occupancy
  Pr  Pr0  1  0.133513  0.133513  0.932480  1
  Pr  Pr1  1  0.868086  0.868086  0.066276  1
  Nd  Nd2  1  0.503832  0.503832  0.751089  1
  Nd  Nd3  1  0.497939  0.497939  0.247756  1
  B  B4  1  0.316284  0.685302  0.999495  1
  B  B5  1  0.685302  0.316284  0.999495  1
  B  B6  1  0.000441  0.000441  0.092980  1
  B  B7  1  0.001123  0.001123  0.906018  1
  I  I8  1  0.675006  0.675006  0.679149  1
  I  I9  1  0.326803  0.326803  0.320137  1
  I  I10  1  0.328615  0.328615  0.847921  1
  I  I11  1  0.673426  0.673426  0.149644  1
  I  I12  1  0.003928  0.003928  0.497761  1
