# generated using pymatgen
data_HfCr2O8
_symmetry_space_group_name_H-M   'P 1'
_cell_length_a   5.60001324
_cell_length_b   5.60010279
_cell_length_c   7.29867919
_cell_angle_alpha   87.06644345
_cell_angle_beta   87.06747009
_cell_angle_gamma   61.36252681
_symmetry_Int_Tables_number   1
_chemical_formula_structural   HfCr2O8
_chemical_formula_sum   'Hf1 Cr2 O8'
_cell_volume   200.53509382
_cell_formula_units_Z   1
loop_
 _symmetry_equiv_pos_site_id
 _symmetry_equiv_pos_as_xyz
  1  'x, y, z'
loop_
 _atom_site_type_symbol
 _atom_site_label
 _atom_site_symmetry_multiplicity
 _atom_site_fract_x
 _atom_site_fract_y
 _atom_site_fract_z
 _atom_site_occupancy
  Hf  Hf0  1  0.000018  0.000014  0.500027  1
  Cr  Cr1  1  0.356645  0.356668  0.264060  1
  Cr  Cr2  1  0.643356  0.643338  0.735937  1
  O  O3  1  0.795503  0.310766  0.682411  1
  O  O4  1  0.201704  0.201740  0.385668  1
  O  O5  1  0.204487  0.689243  0.317609  1
  O  O6  1  0.667784  0.667771  0.949332  1
  O  O7  1  0.310785  0.795472  0.682408  1
  O  O8  1  0.332242  0.332238  0.050641  1
  O  O9  1  0.689215  0.204492  0.317626  1
  O  O10  1  0.798259  0.798259  0.614279  1
