# generated using pymatgen
data_Sc5Co16Si7Ru
_symmetry_space_group_name_H-M   'P 1'
_cell_length_a   8.00600996
_cell_length_b   8.00600893
_cell_length_c   7.96662200
_cell_angle_alpha   60.16260839
_cell_angle_beta   60.16261263
_cell_angle_gamma   59.67477784
_symmetry_Int_Tables_number   1
_chemical_formula_structural   Sc5Co16Si7Ru
_chemical_formula_sum   'Sc5 Co16 Si7 Ru1'
_cell_volume   361.05260660
_cell_formula_units_Z   1
loop_
 _symmetry_equiv_pos_site_id
 _symmetry_equiv_pos_as_xyz
  1  'x, y, z'
loop_
 _atom_site_type_symbol
 _atom_site_label
 _atom_site_symmetry_multiplicity
 _atom_site_fract_x
 _atom_site_fract_y
 _atom_site_fract_z
 _atom_site_occupancy
  Sc  Sc0  1  0.298544  0.707555  0.292445  1
  Sc  Sc1  1  0.707555  0.298544  0.292445  1
  Sc  Sc2  1  0.285191  0.285191  0.714809  1
  Sc  Sc3  1  0.707555  0.298544  0.701456  1
  Sc  Sc4  1  0.298544  0.707555  0.701456  1
  Co  Co5  1  0.879997  0.879997  0.354236  1
  Co  Co6  1  0.879856  0.360943  0.879600  1
  Co  Co7  1  0.360943  0.879856  0.879600  1
  Co  Co8  1  0.879997  0.879997  0.885768  1
  Co  Co9  1  0.120400  0.120400  0.639057  1
  Co  Co10  1  0.114232  0.645764  0.120003  1
  Co  Co11  1  0.645764  0.114232  0.120003  1
  Co  Co12  1  0.120400  0.120400  0.120144  1
  Co  Co13  1  0.672132  0.672132  0.979583  1
  Co  Co14  1  0.671076  0.982376  0.673274  1
  Co  Co15  1  0.982376  0.671076  0.673274  1
  Co  Co16  1  0.672132  0.672132  0.676152  1
  Co  Co17  1  0.326726  0.326726  0.017624  1
  Co  Co18  1  0.323848  0.020417  0.327868  1
  Co  Co19  1  0.020417  0.323848  0.327868  1
  Co  Co20  1  0.326726  0.326726  0.328924  1
  Si  Si21  1  0.004911  0.004911  0.995089  1
  Si  Si22  1  0.998253  0.998253  0.501747  1
  Si  Si23  1  0.508984  0.992467  0.491016  1
  Si  Si24  1  0.992467  0.508984  0.491016  1
  Si  Si25  1  0.498253  0.498253  0.001747  1
  Si  Si26  1  0.992467  0.508984  0.007533  1
  Si  Si27  1  0.508984  0.992467  0.007533  1
  Ru  Ru28  1  0.701270  0.701270  0.298730  1
