# generated using pymatgen
data_Nb3Sn2B4Ru10W
_symmetry_space_group_name_H-M   'P 1'
_cell_length_a   9.52507952
_cell_length_b   9.52507952
_cell_length_c   2.99515300
_cell_angle_alpha   90.00000000
_cell_angle_beta   90.00000000
_cell_angle_gamma   89.77400673
_symmetry_Int_Tables_number   1
_chemical_formula_structural   Nb3Sn2B4Ru10W
_chemical_formula_sum   'Nb3 Sn2 B4 Ru10 W1'
_cell_volume   271.73955151
_cell_formula_units_Z   1
loop_
 _symmetry_equiv_pos_site_id
 _symmetry_equiv_pos_as_xyz
  1  'x, y, z'
loop_
 _atom_site_type_symbol
 _atom_site_label
 _atom_site_symmetry_multiplicity
 _atom_site_fract_x
 _atom_site_fract_y
 _atom_site_fract_z
 _atom_site_occupancy
  Nb  Nb0  1  0.176829  0.323171  0.000000  1
  Nb  Nb1  1  0.322349  0.823125  0.000000  1
  Nb  Nb2  1  0.676875  0.177651  0.000000  1
  Sn  Sn3  1  0.498316  0.498997  0.000000  1
  Sn  Sn4  1  0.001003  0.001684  0.000000  1
  B  B5  1  0.621395  0.878605  0.000000  1
  B  B6  1  0.378774  0.121226  0.000000  1
  B  B7  1  0.122103  0.621509  0.000000  1
  B  B8  1  0.878491  0.377897  0.000000  1
  Ru  Ru9  1  0.576177  0.719396  0.500000  1
  Ru  Ru10  1  0.430896  0.277013  0.500000  1
  Ru  Ru11  1  0.063115  0.776527  0.500000  1
  Ru  Ru12  1  0.929141  0.223186  0.500000  1
  Ru  Ru13  1  0.276814  0.570859  0.500000  1
  Ru  Ru14  1  0.723473  0.436885  0.500000  1
  Ru  Ru15  1  0.222987  0.069104  0.500000  1
  Ru  Ru16  1  0.780604  0.923823  0.500000  1
  Ru  Ru17  1  0.501386  0.998614  0.500000  1
  Ru  Ru18  1  0.996546  0.503454  0.500000  1
  W  W19  1  0.822725  0.677275  0.000000  1
