# generated using pymatgen
data_Zr4FePd
_symmetry_space_group_name_H-M   'P 1'
_cell_length_a   8.73157272
_cell_length_b   8.73157397
_cell_length_c   8.73157400
_cell_angle_alpha   60.00000747
_cell_angle_beta   60.00000273
_cell_angle_gamma   60.00000656
_symmetry_Int_Tables_number   1
_chemical_formula_structural   Zr4FePd
_chemical_formula_sum   'Zr16 Fe4 Pd4'
_cell_volume   470.71995456
_cell_formula_units_Z   4
loop_
 _symmetry_equiv_pos_site_id
 _symmetry_equiv_pos_as_xyz
  1  'x, y, z'
loop_
 _atom_site_type_symbol
 _atom_site_label
 _atom_site_symmetry_multiplicity
 _atom_site_fract_x
 _atom_site_fract_y
 _atom_site_fract_z
 _atom_site_occupancy
  Zr  Zr0  1  0.061005  0.646332  0.646332  1
  Zr  Zr1  1  0.646332  0.061005  0.646332  1
  Zr  Zr2  1  0.646332  0.646332  0.061005  1
  Zr  Zr3  1  0.646332  0.646332  0.646332  1
  Zr  Zr4  1  0.810115  0.810115  0.189885  1
  Zr  Zr5  1  0.189885  0.189885  0.810115  1
  Zr  Zr6  1  0.810115  0.189885  0.810115  1
  Zr  Zr7  1  0.189885  0.810115  0.189885  1
  Zr  Zr8  1  0.189885  0.810115  0.810115  1
  Zr  Zr9  1  0.810115  0.189885  0.189885  1
  Zr  Zr10  1  0.439155  0.439155  0.060845  1
  Zr  Zr11  1  0.060845  0.060845  0.439155  1
  Zr  Zr12  1  0.439155  0.060845  0.439155  1
  Zr  Zr13  1  0.060845  0.439155  0.060845  1
  Zr  Zr14  1  0.060845  0.439155  0.439155  1
  Zr  Zr15  1  0.439155  0.060845  0.060845  1
  Fe  Fe16  1  0.426351  0.857883  0.857883  1
  Fe  Fe17  1  0.857883  0.426351  0.857883  1
  Fe  Fe18  1  0.857883  0.857883  0.426351  1
  Fe  Fe19  1  0.857883  0.857883  0.857883  1
  Pd  Pd20  1  0.756661  0.414447  0.414447  1
  Pd  Pd21  1  0.414447  0.756661  0.414447  1
  Pd  Pd22  1  0.414447  0.414447  0.756661  1
  Pd  Pd23  1  0.414447  0.414447  0.414447  1
