# generated using pymatgen
data_Y6P5Se
_symmetry_space_group_name_H-M   'P 1'
_cell_length_a   4.01902748
_cell_length_b   9.89951297
_cell_length_c   8.04320015
_cell_angle_alpha   90.07828843
_cell_angle_beta   60.02421852
_cell_angle_gamma   89.96673353
_symmetry_Int_Tables_number   1
_chemical_formula_structural   Y6P5Se
_chemical_formula_sum   'Y6 P5 Se1'
_cell_volume   277.20392764
_cell_formula_units_Z   1
loop_
 _symmetry_equiv_pos_site_id
 _symmetry_equiv_pos_as_xyz
  1  'x, y, z'
loop_
 _atom_site_type_symbol
 _atom_site_label
 _atom_site_symmetry_multiplicity
 _atom_site_fract_x
 _atom_site_fract_y
 _atom_site_fract_z
 _atom_site_occupancy
  Y  Y0  1  0.944952  0.892624  0.648355  1
  Y  Y1  1  0.265328  0.237251  0.329967  1
  Y  Y2  1  0.605743  0.564974  0.988964  1
  Y  Y3  1  0.282036  0.243077  0.813095  1
  Y  Y4  1  0.605648  0.564968  0.488937  1
  Y  Y5  1  0.928162  0.886928  0.165198  1
  P  P6  1  0.270887  0.729038  0.322640  1
  P  P7  1  0.939838  0.400929  0.655456  1
  P  P8  1  0.604961  0.064949  0.489279  1
  P  P9  1  0.940884  0.397049  0.154611  1
  P  P10  1  0.270225  0.732925  0.823485  1
  Se  Se11  1  0.604845  0.065019  0.989108  1
