# generated using pymatgen
data_Nd4YRuRh
_symmetry_space_group_name_H-M   'P 1'
_cell_length_a   6.55626444
_cell_length_b   7.28145700
_cell_length_c   8.95599058
_cell_angle_alpha   96.32337865
_cell_angle_beta   111.47078460
_cell_angle_gamma   89.99999597
_symmetry_Int_Tables_number   1
_chemical_formula_structural   Nd4YRuRh
_chemical_formula_sum   'Nd8 Y2 Ru2 Rh2'
_cell_volume   395.08474904
_cell_formula_units_Z   2
loop_
 _symmetry_equiv_pos_site_id
 _symmetry_equiv_pos_as_xyz
  1  'x, y, z'
loop_
 _atom_site_type_symbol
 _atom_site_label
 _atom_site_symmetry_multiplicity
 _atom_site_fract_x
 _atom_site_fract_y
 _atom_site_fract_z
 _atom_site_occupancy
  Nd  Nd0  1  0.986157  0.918198  0.185448  1
  Nd  Nd1  1  0.800709  0.581802  0.814552  1
  Nd  Nd2  1  0.021365  0.084137  0.816919  1
  Nd  Nd3  1  0.204446  0.415863  0.183081  1
  Nd  Nd4  1  0.638261  0.814566  0.427547  1
  Nd  Nd5  1  0.210714  0.685434  0.572453  1
  Nd  Nd6  1  0.355399  0.188936  0.568024  1
  Nd  Nd7  1  0.787375  0.311064  0.431976  1
  Y  Y8  1  0.431099  0.750000  0.000000  1
  Y  Y9  1  0.570063  0.250000  0.000000  1
  Ru  Ru10  1  0.181802  0.426602  0.780785  1
  Ru  Ru11  1  0.401017  0.073398  0.219215  1
  Rh  Rh12  1  0.814738  0.574169  0.217883  1
  Rh  Rh13  1  0.596855  0.925831  0.782117  1
