# generated using pymatgen
data_Ca2YPaN4
_symmetry_space_group_name_H-M   'P 1'
_cell_length_a   6.95399081
_cell_length_b   9.27937604
_cell_length_c   6.14400584
_cell_angle_alpha   29.05380559
_cell_angle_beta   55.53403170
_cell_angle_gamma   41.46132159
_symmetry_Int_Tables_number   1
_chemical_formula_structural   Ca2YPaN4
_chemical_formula_sum   'Ca2 Y1 Pa1 N4'
_cell_volume   122.47876944
_cell_formula_units_Z   1
loop_
 _symmetry_equiv_pos_site_id
 _symmetry_equiv_pos_as_xyz
  1  'x, y, z'
loop_
 _atom_site_type_symbol
 _atom_site_label
 _atom_site_symmetry_multiplicity
 _atom_site_fract_x
 _atom_site_fract_y
 _atom_site_fract_z
 _atom_site_occupancy
  Ca  Ca0  1  0.750000  0.500000  0.000000  1
  Ca  Ca1  1  0.500000  0.000000  0.000000  1
  Y  Y2  1  0.250000  0.500000  0.000000  1
  Pa  Pa3  1  0.000000  0.000000  0.000000  1
  N  N4  1  0.489606  0.500000  0.520788  1
  N  N5  1  0.217707  0.000000  0.564585  1
  N  N6  1  0.010394  0.500000  0.479212  1
  N  N7  1  0.782293  0.000000  0.435415  1
