# generated using pymatgen
data_Ho2ErGa5Co
_symmetry_space_group_name_H-M   'P 1'
_cell_length_a   6.87577936
_cell_length_b   6.87578002
_cell_length_c   4.20313200
_cell_angle_alpha   90.00000000
_cell_angle_beta   90.00000000
_cell_angle_gamma   119.96299911
_symmetry_Int_Tables_number   1
_chemical_formula_structural   Ho2ErGa5Co
_chemical_formula_sum   'Ho2 Er1 Ga5 Co1'
_cell_volume   172.15092885
_cell_formula_units_Z   1
loop_
 _symmetry_equiv_pos_site_id
 _symmetry_equiv_pos_as_xyz
  1  'x, y, z'
loop_
 _atom_site_type_symbol
 _atom_site_label
 _atom_site_symmetry_multiplicity
 _atom_site_fract_x
 _atom_site_fract_y
 _atom_site_fract_z
 _atom_site_occupancy
  Ho  Ho0  1  0.599276  0.999932  0.000000  1
  Ho  Ho1  1  0.999932  0.599276  0.000000  1
  Er  Er2  1  0.400287  0.400287  0.000000  1
  Ga  Ga3  1  0.230843  0.000175  0.500000  1
  Ga  Ga4  1  0.000175  0.230843  0.500000  1
  Ga  Ga5  1  0.769198  0.769198  0.500000  1
  Ga  Ga6  1  0.333469  0.666468  0.500000  1
  Ga  Ga7  1  0.666468  0.333469  0.500000  1
  Co  Co8  1  0.000352  0.000352  0.000000  1
