# generated using pymatgen
data_Li4LaPr3(Si2Pb)2
_symmetry_space_group_name_H-M   'P 1'
_cell_length_a   9.94560891
_cell_length_b   9.94560837
_cell_length_c   6.95985100
_cell_angle_alpha   90.00000000
_cell_angle_beta   90.00000000
_cell_angle_gamma   153.22689265
_symmetry_Int_Tables_number   1
_chemical_formula_structural   Li4LaPr3(Si2Pb)2
_chemical_formula_sum   'Li4 La1 Pr3 Si4 Pb2'
_cell_volume   310.11123485
_cell_formula_units_Z   1
loop_
 _symmetry_equiv_pos_site_id
 _symmetry_equiv_pos_as_xyz
  1  'x, y, z'
loop_
 _atom_site_type_symbol
 _atom_site_label
 _atom_site_symmetry_multiplicity
 _atom_site_fract_x
 _atom_site_fract_y
 _atom_site_fract_z
 _atom_site_occupancy
  Li  Li0  1  0.182532  0.817468  0.054255  1
  Li  Li1  1  0.182532  0.817468  0.445745  1
  Li  Li2  1  0.817317  0.182683  0.946148  1
  Li  Li3  1  0.817317  0.182683  0.553852  1
  La  La4  1  0.451989  0.548011  0.750000  1
  Pr  Pr5  1  0.351998  0.648002  0.250000  1
  Pr  Pr6  1  0.648191  0.351809  0.750000  1
  Pr  Pr7  1  0.548194  0.451806  0.250000  1
  Si  Si8  1  0.056229  0.943771  0.924569  1
  Si  Si9  1  0.943976  0.056024  0.076243  1
  Si  Si10  1  0.943976  0.056024  0.423757  1
  Si  Si11  1  0.056229  0.943771  0.575431  1
  Pb  Pb12  1  0.719442  0.280558  0.250000  1
  Pb  Pb13  1  0.280079  0.719921  0.750000  1
