# generated using pymatgen
data_Th2CuSi4Rh
_symmetry_space_group_name_H-M   'P 1'
_cell_length_a   8.59483286
_cell_length_b   8.59483431
_cell_length_c   4.17270300
_cell_angle_alpha   90.00000000
_cell_angle_beta   90.00000000
_cell_angle_gamma   151.39453200
_symmetry_Int_Tables_number   1
_chemical_formula_structural   Th2CuSi4Rh
_chemical_formula_sum   'Th2 Cu1 Si4 Rh1'
_cell_volume   147.57896806
_cell_formula_units_Z   1
loop_
 _symmetry_equiv_pos_site_id
 _symmetry_equiv_pos_as_xyz
  1  'x, y, z'
loop_
 _atom_site_type_symbol
 _atom_site_label
 _atom_site_symmetry_multiplicity
 _atom_site_fract_x
 _atom_site_fract_y
 _atom_site_fract_z
 _atom_site_occupancy
  Th  Th0  1  0.601115  0.398885  0.250000  1
  Th  Th1  1  0.391737  0.608263  0.750000  1
  Cu  Cu2  1  0.824686  0.175314  0.250000  1
  Si  Si3  1  0.963616  0.036384  0.250000  1
  Si  Si4  1  0.037300  0.962700  0.750000  1
  Si  Si5  1  0.252553  0.747447  0.250000  1
  Si  Si6  1  0.748336  0.251664  0.750000  1
  Rh  Rh7  1  0.180658  0.819342  0.750000  1
