# generated using pymatgen
data_Sc7Ta(Co4As3)4
_symmetry_space_group_name_H-M   'P 1'
_cell_length_a   12.53956449
_cell_length_b   12.53956529
_cell_length_c   3.73936900
_cell_angle_alpha   90.00000000
_cell_angle_beta   90.00000000
_cell_angle_gamma   120.01339468
_symmetry_Int_Tables_number   1
_chemical_formula_structural   Sc7Ta(Co4As3)4
_chemical_formula_sum   'Sc7 Ta1 Co16 As12'
_cell_volume   509.13769878
_cell_formula_units_Z   1
loop_
 _symmetry_equiv_pos_site_id
 _symmetry_equiv_pos_as_xyz
  1  'x, y, z'
loop_
 _atom_site_type_symbol
 _atom_site_label
 _atom_site_symmetry_multiplicity
 _atom_site_fract_x
 _atom_site_fract_y
 _atom_site_fract_z
 _atom_site_occupancy
  Sc  Sc0  1  0.816973  0.999100  0.500000  1
  Sc  Sc1  1  0.999100  0.816973  0.500000  1
  Sc  Sc2  1  0.182999  0.182999  0.500000  1
  Sc  Sc3  1  0.333227  0.665181  0.000000  1
  Sc  Sc4  1  0.665181  0.333227  0.000000  1
  Sc  Sc5  1  0.442418  0.999568  0.000000  1
  Sc  Sc6  1  0.999568  0.442418  0.000000  1
  Ta  Ta7  1  0.558208  0.558208  0.000000  1
  Co  Co8  1  0.281648  0.001032  0.500000  1
  Co  Co9  1  0.001032  0.281648  0.500000  1
  Co  Co10  1  0.717093  0.717093  0.500000  1
  Co  Co11  1  0.628137  0.801080  0.000000  1
  Co  Co12  1  0.194980  0.823042  0.000000  1
  Co  Co13  1  0.178849  0.374687  0.000000  1
  Co  Co14  1  0.374687  0.178849  0.000000  1
  Co  Co15  1  0.801080  0.628137  0.000000  1
  Co  Co16  1  0.823042  0.194980  0.000000  1
  Co  Co17  1  0.519831  0.873453  0.500000  1
  Co  Co18  1  0.122074  0.645071  0.500000  1
  Co  Co19  1  0.358163  0.480976  0.500000  1
  Co  Co20  1  0.480976  0.358163  0.500000  1
  Co  Co21  1  0.873453  0.519831  0.500000  1
  Co  Co22  1  0.645071  0.122074  0.500000  1
  Co  Co23  1  0.001479  0.001479  0.000000  1
  As  As24  1  0.176556  0.000738  0.000000  1
  As  As25  1  0.000738  0.176556  0.000000  1
  As  As26  1  0.826292  0.826292  0.000000  1
  As  As27  1  0.513769  0.687024  0.500000  1
  As  As28  1  0.311074  0.825000  0.500000  1
  As  As29  1  0.174465  0.487183  0.500000  1
  As  As30  1  0.487183  0.174465  0.500000  1
  As  As31  1  0.687024  0.513769  0.500000  1
  As  As32  1  0.825000  0.311074  0.500000  1
  As  As33  1  0.650581  0.998595  0.000000  1
  As  As34  1  0.998595  0.650581  0.000000  1
  As  As35  1  0.349452  0.349452  0.000000  1
