# generated using pymatgen
data_Gd4LuIr3O14
_symmetry_space_group_name_H-M   'P 1'
_cell_length_a   7.40711301
_cell_length_b   7.40711319
_cell_length_c   7.40711300
_cell_angle_alpha   59.40708472
_cell_angle_beta   59.40707490
_cell_angle_gamma   59.40707420
_symmetry_Int_Tables_number   1
_chemical_formula_structural   Gd4LuIr3O14
_chemical_formula_sum   'Gd4 Lu1 Ir3 O14'
_cell_volume   283.48653821
_cell_formula_units_Z   1
loop_
 _symmetry_equiv_pos_site_id
 _symmetry_equiv_pos_as_xyz
  1  'x, y, z'
loop_
 _atom_site_type_symbol
 _atom_site_label
 _atom_site_symmetry_multiplicity
 _atom_site_fract_x
 _atom_site_fract_y
 _atom_site_fract_z
 _atom_site_occupancy
  Gd  Gd0  1  0.625000  0.125000  0.125000  1
  Gd  Gd1  1  0.125000  0.625000  0.125000  1
  Gd  Gd2  1  0.125000  0.125000  0.625000  1
  Gd  Gd3  1  0.125000  0.125000  0.125000  1
  Lu  Lu4  1  0.625000  0.625000  0.625000  1
  Ir  Ir5  1  0.125000  0.625000  0.625000  1
  Ir  Ir6  1  0.625000  0.125000  0.625000  1
  Ir  Ir7  1  0.625000  0.625000  0.125000  1
  O  O8  1  0.723050  0.723050  0.262068  1
  O  O9  1  0.300031  0.300031  0.719925  1
  O  O10  1  0.723050  0.262068  0.723050  1
  O  O11  1  0.300031  0.719925  0.300031  1
  O  O12  1  0.262068  0.723050  0.723050  1
  O  O13  1  0.719925  0.300031  0.300031  1
  O  O14  1  0.526950  0.526950  0.987932  1
  O  O15  1  0.949969  0.949969  0.530075  1
  O  O16  1  0.526950  0.987932  0.526950  1
  O  O17  1  0.949969  0.530075  0.949969  1
  O  O18  1  0.987932  0.526950  0.526950  1
  O  O19  1  0.530075  0.949969  0.949969  1
  O  O20  1  0.246593  0.246593  0.246593  1
  O  O21  1  0.003407  0.003407  0.003407  1
