# generated using pymatgen
data_Er11Lu2Th3(InRh)4
_symmetry_space_group_name_H-M   'P 1'
_cell_length_a   9.67441870
_cell_length_b   9.67394406
_cell_length_c   9.69225204
_cell_angle_alpha   59.93957281
_cell_angle_beta   59.93052634
_cell_angle_gamma   60.02783373
_symmetry_Int_Tables_number   1
_chemical_formula_structural   Er11Lu2Th3(InRh)4
_chemical_formula_sum   'Er11 Lu2 Th3 In4 Rh4'
_cell_volume   640.91757849
_cell_formula_units_Z   1
loop_
 _symmetry_equiv_pos_site_id
 _symmetry_equiv_pos_as_xyz
  1  'x, y, z'
loop_
 _atom_site_type_symbol
 _atom_site_label
 _atom_site_symmetry_multiplicity
 _atom_site_fract_x
 _atom_site_fract_y
 _atom_site_fract_z
 _atom_site_occupancy
  Er  Er0  1  0.195723  0.601612  0.601334  1
  Er  Er1  1  0.062262  0.439467  0.439000  1
  Er  Er2  1  0.438378  0.062216  0.061786  1
  Er  Er3  1  0.438377  0.062224  0.437617  1
  Er  Er4  1  0.062267  0.439461  0.059276  1
  Er  Er5  1  0.438537  0.437630  0.061916  1
  Er  Er6  1  0.062393  0.059214  0.439193  1
  Er  Er7  1  0.185047  0.813974  0.813720  1
  Er  Er8  1  0.814582  0.185000  0.185716  1
  Er  Er9  1  0.814579  0.184993  0.814696  1
  Er  Er10  1  0.185050  0.813965  0.187248  1
  Lu  Lu11  1  0.813900  0.814706  0.185693  1
  Lu  Lu12  1  0.186531  0.188063  0.812698  1
  Th  Th13  1  0.596636  0.599471  0.599593  1
  Th  Th14  1  0.596623  0.599476  0.204299  1
  Th  Th15  1  0.596470  0.203542  0.600007  1
  In  In16  1  0.837238  0.833665  0.833945  1
  In  In17  1  0.837248  0.833680  0.495144  1
  In  In18  1  0.837259  0.495689  0.833524  1
  In  In19  1  0.495386  0.835065  0.834771  1
  Rh  Rh20  1  0.394875  0.390932  0.392387  1
  Rh  Rh21  1  0.394889  0.390948  0.821799  1
  Rh  Rh22  1  0.394872  0.821866  0.391638  1
  Rh  Rh23  1  0.820877  0.393139  0.392996  1
