# generated using pymatgen
data_Tb7Dy2Er(CoSb2)2
_symmetry_space_group_name_H-M   'P 1'
_cell_length_a   7.92035400
_cell_length_b   8.76865883
_cell_length_c   12.23443000
_cell_angle_alpha   90.00000000
_cell_angle_beta   90.00000000
_cell_angle_gamma   89.94071043
_symmetry_Int_Tables_number   1
_chemical_formula_structural   Tb7Dy2Er(CoSb2)2
_chemical_formula_sum   'Tb14 Dy4 Er2 Co4 Sb8'
_cell_volume   849.69149954
_cell_formula_units_Z   2
loop_
 _symmetry_equiv_pos_site_id
 _symmetry_equiv_pos_as_xyz
  1  'x, y, z'
loop_
 _atom_site_type_symbol
 _atom_site_label
 _atom_site_symmetry_multiplicity
 _atom_site_fract_x
 _atom_site_fract_y
 _atom_site_fract_z
 _atom_site_occupancy
  Tb  Tb0  1  0.154146  0.750175  0.202983  1
  Tb  Tb1  1  0.345854  0.749825  0.702983  1
  Tb  Tb2  1  0.846245  0.249748  0.797112  1
  Tb  Tb3  1  0.653755  0.250252  0.297112  1
  Tb  Tb4  1  0.453984  0.750340  0.998004  1
  Tb  Tb5  1  0.046016  0.749660  0.498004  1
  Tb  Tb6  1  0.544236  0.249695  0.002022  1
  Tb  Tb7  1  0.955764  0.250305  0.502022  1
  Tb  Tb8  1  0.621515  0.749477  0.306907  1
  Tb  Tb9  1  0.878485  0.750523  0.806907  1
  Tb  Tb10  1  0.377343  0.250522  0.693255  1
  Tb  Tb11  1  0.122657  0.249478  0.193255  1
  Tb  Tb12  1  0.821109  0.534652  0.064910  1
  Tb  Tb13  1  0.678891  0.965348  0.564910  1
  Dy  Dy14  1  0.178135  0.464923  0.934806  1
  Dy  Dy15  1  0.321865  0.035077  0.434806  1
  Dy  Dy16  1  0.822345  0.965279  0.064847  1
  Dy  Dy17  1  0.677655  0.534721  0.564847  1
  Er  Er18  1  0.176825  0.035311  0.934841  1
  Er  Er19  1  0.323175  0.464689  0.434841  1
  Co  Co20  1  0.434429  0.749304  0.490725  1
  Co  Co21  1  0.065571  0.750696  0.990725  1
  Co  Co22  1  0.563275  0.250653  0.508911  1
  Co  Co23  1  0.936725  0.249347  0.008911  1
  Sb  Sb24  1  0.928937  0.507864  0.327108  1
  Sb  Sb25  1  0.571063  0.992136  0.827108  1
  Sb  Sb26  1  0.072493  0.008230  0.673411  1
  Sb  Sb27  1  0.427507  0.491770  0.173411  1
  Sb  Sb28  1  0.071458  0.491994  0.673237  1
  Sb  Sb29  1  0.428542  0.008006  0.173237  1
  Sb  Sb30  1  0.928062  0.991982  0.326921  1
  Sb  Sb31  1  0.571938  0.508018  0.826921  1
