# generated using pymatgen
data_Ce2Mn12P7
_symmetry_space_group_name_H-M   'P 1'
_cell_length_a   9.31866200
_cell_length_b   9.31866335
_cell_length_c   3.63158700
_cell_angle_alpha   90.00000000
_cell_angle_beta   90.00000000
_cell_angle_gamma   120.00000232
_symmetry_Int_Tables_number   1
_chemical_formula_structural   Ce2Mn12P7
_chemical_formula_sum   'Ce2 Mn12 P7'
_cell_volume   273.10789590
_cell_formula_units_Z   1
loop_
 _symmetry_equiv_pos_site_id
 _symmetry_equiv_pos_as_xyz
  1  'x, y, z'
loop_
 _atom_site_type_symbol
 _atom_site_label
 _atom_site_symmetry_multiplicity
 _atom_site_fract_x
 _atom_site_fract_y
 _atom_site_fract_z
 _atom_site_occupancy
  Ce  Ce0  1  0.333333  0.666667  0.000000  1
  Ce  Ce1  1  0.000000  0.000000  0.500000  1
  Mn  Mn2  1  0.041554  0.281717  0.000000  1
  Mn  Mn3  1  0.718283  0.759837  0.000000  1
  Mn  Mn4  1  0.240163  0.958446  0.000000  1
  Mn  Mn5  1  0.546064  0.058400  0.000000  1
  Mn  Mn6  1  0.941600  0.487665  0.000000  1
  Mn  Mn7  1  0.512335  0.453936  0.000000  1
  Mn  Mn8  1  0.619418  0.894300  0.500000  1
  Mn  Mn9  1  0.105700  0.725118  0.500000  1
  Mn  Mn10  1  0.274882  0.380582  0.500000  1
  Mn  Mn11  1  0.788877  0.227258  0.500000  1
  Mn  Mn12  1  0.772742  0.561618  0.500000  1
  Mn  Mn13  1  0.438382  0.211123  0.500000  1
  P  P14  1  0.781205  0.041274  0.000000  1
  P  P15  1  0.958726  0.739931  0.000000  1
  P  P16  1  0.260069  0.218795  0.000000  1
  P  P17  1  0.386139  0.930366  0.500000  1
  P  P18  1  0.069634  0.455774  0.500000  1
  P  P19  1  0.544226  0.613861  0.500000  1
  P  P20  1  0.666667  0.333333  0.000000  1
