# generated using pymatgen
data_TbDyMn4Fe8P7
_symmetry_space_group_name_H-M   'P 1'
_cell_length_a   9.17052106
_cell_length_b   9.05738115
_cell_length_c   3.60587200
_cell_angle_alpha   90.00000000
_cell_angle_beta   90.00000000
_cell_angle_gamma   120.18968468
_symmetry_Int_Tables_number   1
_chemical_formula_structural   TbDyMn4Fe8P7
_chemical_formula_sum   'Tb1 Dy1 Mn4 Fe8 P7'
_cell_volume   258.88346423
_cell_formula_units_Z   1
loop_
 _symmetry_equiv_pos_site_id
 _symmetry_equiv_pos_as_xyz
  1  'x, y, z'
loop_
 _atom_site_type_symbol
 _atom_site_label
 _atom_site_symmetry_multiplicity
 _atom_site_fract_x
 _atom_site_fract_y
 _atom_site_fract_z
 _atom_site_occupancy
  Tb  Tb0  1  0.338527  0.668530  0.500000  1
  Dy  Dy1  1  0.660363  0.330744  0.000000  1
  Mn  Mn2  1  0.951735  0.389282  0.500000  1
  Mn  Mn3  1  0.107591  0.876940  0.500000  1
  Mn  Mn4  1  0.776121  0.896409  0.500000  1
  Mn  Mn5  1  0.123060  0.227411  0.500000  1
  Fe  Fe6  1  0.052153  0.623108  0.000000  1
  Fe  Fe7  1  0.573736  0.942651  0.000000  1
  Fe  Fe8  1  0.372289  0.425886  0.000000  1
  Fe  Fe9  1  0.270977  0.118004  0.000000  1
  Fe  Fe10  1  0.846989  0.728453  0.000000  1
  Fe  Fe11  1  0.880559  0.158511  0.000000  1
  Fe  Fe12  1  0.433338  0.049544  0.500000  1
  Fe  Fe13  1  0.613294  0.564533  0.500000  1
  P  P14  1  0.303392  0.891156  0.000000  1
  P  P15  1  0.589590  0.698380  0.000000  1
  P  P16  1  0.122519  0.411096  0.000000  1
  P  P17  1  0.405014  0.287884  0.500000  1
  P  P18  1  0.874046  0.596462  0.500000  1
  P  P19  1  0.704670  0.112696  0.500000  1
  P  P20  1  0.000038  0.002323  0.000000  1
