# generated using pymatgen
data_SmBi3Te10
_symmetry_space_group_name_H-M   'P 1'
_cell_length_a   24.05067133
_cell_length_b   24.05067001
_cell_length_c   3.18328900
_cell_angle_alpha   90.00000000
_cell_angle_beta   90.00000000
_cell_angle_gamma   166.42274550
_symmetry_Int_Tables_number   1
_chemical_formula_structural   SmBi3Te10
_chemical_formula_sum   'Sm1 Bi3 Te10'
_cell_volume   432.26253887
_cell_formula_units_Z   1
loop_
 _symmetry_equiv_pos_site_id
 _symmetry_equiv_pos_as_xyz
  1  'x, y, z'
loop_
 _atom_site_type_symbol
 _atom_site_label
 _atom_site_symmetry_multiplicity
 _atom_site_fract_x
 _atom_site_fract_y
 _atom_site_fract_z
 _atom_site_occupancy
  Sm  Sm0  1  0.103554  0.896446  0.750000  1
  Bi  Bi1  1  0.683971  0.316029  0.250000  1
  Bi  Bi2  1  0.319433  0.680567  0.750000  1
  Bi  Bi3  1  0.886354  0.113646  0.250000  1
  Te  Te4  1  0.620282  0.379718  0.250000  1
  Te  Te5  1  0.384954  0.615046  0.750000  1
  Te  Te6  1  0.821025  0.178975  0.250000  1
  Te  Te7  1  0.174837  0.825163  0.750000  1
  Te  Te8  1  0.954721  0.045279  0.750000  1
  Te  Te9  1  0.045304  0.954696  0.250000  1
  Te  Te10  1  0.545294  0.454706  0.750000  1
  Te  Te11  1  0.458476  0.541524  0.250000  1
  Te  Te12  1  0.749180  0.250820  0.750000  1
  Te  Te13  1  0.252614  0.747386  0.250000  1
