# generated using pymatgen
data_Ho4Lu4B24Os3W
_symmetry_space_group_name_H-M   'P 1'
_cell_length_a   3.60524700
_cell_length_b   9.10747659
_cell_length_c   11.50481900
_cell_angle_alpha   89.89987841
_cell_angle_beta   90.00000000
_cell_angle_gamma   90.00000000
_symmetry_Int_Tables_number   1
_chemical_formula_structural   Ho4Lu4B24Os3W
_chemical_formula_sum   'Ho4 Lu4 B24 Os3 W1'
_cell_volume   377.75673417
_cell_formula_units_Z   1
loop_
 _symmetry_equiv_pos_site_id
 _symmetry_equiv_pos_as_xyz
  1  'x, y, z'
loop_
 _atom_site_type_symbol
 _atom_site_label
 _atom_site_symmetry_multiplicity
 _atom_site_fract_x
 _atom_site_fract_y
 _atom_site_fract_z
 _atom_site_occupancy
  Ho  Ho0  1  0.000000  0.320202  0.413465  1
  Ho  Ho1  1  0.000000  0.678825  0.585624  1
  Ho  Ho2  1  0.000000  0.819496  0.086613  1
  Ho  Ho3  1  0.000000  0.178093  0.914489  1
  Lu  Lu4  1  0.000000  0.945754  0.373567  1
  Lu  Lu5  1  0.000000  0.057506  0.628073  1
  Lu  Lu6  1  0.000000  0.442673  0.125843  1
  Lu  Lu7  1  0.000000  0.556649  0.871849  1
  B  B8  1  0.500000  0.549953  0.436443  1
  B  B9  1  0.500000  0.445867  0.568574  1
  B  B10  1  0.500000  0.053979  0.066744  1
  B  B11  1  0.500000  0.946195  0.933177  1
  B  B12  1  0.500000  0.753467  0.422277  1
  B  B13  1  0.500000  0.250671  0.581535  1
  B  B14  1  0.500000  0.249422  0.080099  1
  B  B15  1  0.500000  0.750366  0.918827  1
  B  B16  1  0.500000  0.795991  0.264020  1
  B  B17  1  0.500000  0.208320  0.734511  1
  B  B18  1  0.500000  0.290570  0.232413  1
  B  B19  1  0.500000  0.709091  0.765782  1
  B  B20  1  0.500000  0.630762  0.181310  1
  B  B21  1  0.500000  0.369261  0.815548  1
  B  B22  1  0.500000  0.130536  0.314548  1
  B  B23  1  0.500000  0.870597  0.685112  1
  B  B24  1  0.500000  0.982937  0.213113  1
  B  B25  1  0.500000  0.018177  0.787632  1
  B  B26  1  0.500000  0.476014  0.285661  1
  B  B27  1  0.500000  0.517483  0.713746  1
  B  B28  1  0.500000  0.603040  0.026761  1
  B  B29  1  0.500000  0.395857  0.970409  1
  B  B30  1  0.500000  0.104620  0.471912  1
  B  B31  1  0.500000  0.899193  0.529913  1
  Os  Os32  1  0.000000  0.361358  0.680769  1
  Os  Os33  1  0.000000  0.137409  0.178310  1
  Os  Os34  1  0.000000  0.862164  0.820301  1
  W  W35  1  0.000000  0.637501  0.321031  1
