# generated using pymatgen
data_DyEr5Al24ZnRu7
_symmetry_space_group_name_H-M   'P 1'
_cell_length_a   8.82301207
_cell_length_b   8.82157847
_cell_length_c   9.52506210
_cell_angle_alpha   89.96591734
_cell_angle_beta   90.02048440
_cell_angle_gamma   119.94444836
_symmetry_Int_Tables_number   1
_chemical_formula_structural   DyEr5Al24ZnRu7
_chemical_formula_sum   'Dy1 Er5 Al24 Zn1 Ru7'
_cell_volume   642.39829516
_cell_formula_units_Z   1
loop_
 _symmetry_equiv_pos_site_id
 _symmetry_equiv_pos_as_xyz
  1  'x, y, z'
loop_
 _atom_site_type_symbol
 _atom_site_label
 _atom_site_symmetry_multiplicity
 _atom_site_fract_x
 _atom_site_fract_y
 _atom_site_fract_z
 _atom_site_occupancy
  Dy  Dy0  1  0.192817  0.386538  0.247716  1
  Er  Er1  1  0.807235  0.612947  0.752132  1
  Er  Er2  1  0.613039  0.807401  0.247967  1
  Er  Er3  1  0.387044  0.192747  0.752094  1
  Er  Er4  1  0.194667  0.805385  0.252351  1
  Er  Er5  1  0.805315  0.194746  0.747603  1
  Al  Al6  1  0.329408  0.670939  0.021303  1
  Al  Al7  1  0.670680  0.329315  0.978502  1
  Al  Al8  1  0.666414  0.333588  0.516753  1
  Al  Al9  1  0.333690  0.666635  0.483401  1
  Al  Al10  1  0.162105  0.324087  0.577232  1
  Al  Al11  1  0.837901  0.675887  0.422967  1
  Al  Al12  1  0.675909  0.837881  0.577097  1
  Al  Al13  1  0.849074  0.678034  0.081850  1
  Al  Al14  1  0.324151  0.161985  0.423028  1
  Al  Al15  1  0.150923  0.321936  0.917955  1
  Al  Al16  1  0.162402  0.837566  0.578259  1
  Al  Al17  1  0.321980  0.150799  0.081768  1
  Al  Al18  1  0.837417  0.162338  0.421842  1
  Al  Al19  1  0.678073  0.849104  0.918106  1
  Al  Al20  1  0.837157  0.162507  0.078660  1
  Al  Al21  1  0.162655  0.837382  0.921222  1
  Al  Al22  1  0.560874  0.120894  0.248574  1
  Al  Al23  1  0.439086  0.879044  0.751436  1
  Al  Al24  1  0.878786  0.439183  0.248584  1
  Al  Al25  1  0.120928  0.560899  0.751396  1
  Al  Al26  1  0.563438  0.436974  0.254418  1
  Al  Al27  1  0.436903  0.563103  0.745614  1
  Al  Al28  1  0.998966  0.000543  0.250363  1
  Al  Al29  1  0.000833  0.999139  0.749643  1
  Zn  Zn30  1  0.500018  0.500025  0.999964  1
  Ru  Ru31  1  0.500040  0.000075  0.999967  1
  Ru  Ru32  1  0.999888  0.500094  0.999829  1
  Ru  Ru33  1  0.500066  0.000139  0.500065  1
  Ru  Ru34  1  0.999883  0.500065  0.500153  1
  Ru  Ru35  1  0.500217  0.500076  0.500184  1
  Ru  Ru36  1  0.000024  0.000024  0.999984  1
  Ru  Ru37  1  0.999994  0.999977  0.500017  1
