# generated using pymatgen
data_K3B2Pt7
_symmetry_space_group_name_H-M   'P 1'
_cell_length_a   8.36119890
_cell_length_b   8.36119898
_cell_length_c   8.36119774
_cell_angle_alpha   39.64073465
_cell_angle_beta   39.64073410
_cell_angle_gamma   39.64073415
_symmetry_Int_Tables_number   1
_chemical_formula_structural   K3B2Pt7
_chemical_formula_sum   'K3 B2 Pt7'
_cell_volume   214.21381258
_cell_formula_units_Z   1
loop_
 _symmetry_equiv_pos_site_id
 _symmetry_equiv_pos_as_xyz
  1  'x, y, z'
loop_
 _atom_site_type_symbol
 _atom_site_label
 _atom_site_symmetry_multiplicity
 _atom_site_fract_x
 _atom_site_fract_y
 _atom_site_fract_z
 _atom_site_occupancy
  K  K0  1  0.856939  0.856939  0.856939  1
  K  K1  1  0.143061  0.143061  0.143061  1
  K  K2  1  0.000000  0.000000  0.000000  1
  B  B3  1  0.669196  0.669196  0.669196  1
  B  B4  1  0.330804  0.330804  0.330804  1
  Pt  Pt5  1  0.440430  0.928795  0.440430  1
  Pt  Pt6  1  0.440430  0.440430  0.928795  1
  Pt  Pt7  1  0.928795  0.440430  0.440430  1
  Pt  Pt8  1  0.559570  0.071205  0.559570  1
  Pt  Pt9  1  0.559570  0.559570  0.071205  1
  Pt  Pt10  1  0.071205  0.559570  0.559570  1
  Pt  Pt11  1  0.500000  0.500000  0.500000  1
