# generated using pymatgen
data_Tm17Mg3(Cd3Ir)2
_symmetry_space_group_name_H-M   'P 1'
_cell_length_a   9.37933400
_cell_length_b   9.37933423
_cell_length_c   9.56624800
_cell_angle_alpha   90.00000000
_cell_angle_beta   90.00000000
_cell_angle_gamma   120.34233170
_symmetry_Int_Tables_number   1
_chemical_formula_structural   Tm17Mg3(Cd3Ir)2
_chemical_formula_sum   'Tm17 Mg3 Cd6 Ir2'
_cell_volume   726.28620560
_cell_formula_units_Z   1
loop_
 _symmetry_equiv_pos_site_id
 _symmetry_equiv_pos_as_xyz
  1  'x, y, z'
loop_
 _atom_site_type_symbol
 _atom_site_label
 _atom_site_symmetry_multiplicity
 _atom_site_fract_x
 _atom_site_fract_y
 _atom_site_fract_z
 _atom_site_occupancy
  Tm  Tm0  1  0.207183  0.792817  0.443447  1
  Tm  Tm1  1  0.211188  0.415578  0.441540  1
  Tm  Tm2  1  0.584422  0.788812  0.441540  1
  Tm  Tm3  1  0.792799  0.207201  0.556871  1
  Tm  Tm4  1  0.790778  0.583715  0.556027  1
  Tm  Tm5  1  0.416285  0.209222  0.556027  1
  Tm  Tm6  1  0.792799  0.207201  0.943129  1
  Tm  Tm7  1  0.790778  0.583715  0.943973  1
  Tm  Tm8  1  0.416285  0.209222  0.943973  1
  Tm  Tm9  1  0.207183  0.792817  0.056553  1
  Tm  Tm10  1  0.211188  0.415578  0.058460  1
  Tm  Tm11  1  0.584422  0.788812  0.058460  1
  Tm  Tm12  1  0.539688  0.081884  0.250000  1
  Tm  Tm13  1  0.918116  0.460312  0.250000  1
  Tm  Tm14  1  0.458445  0.541555  0.750000  1
  Tm  Tm15  1  0.458584  0.918200  0.750000  1
  Tm  Tm16  1  0.081800  0.541416  0.750000  1
  Mg  Mg17  1  0.000252  0.999748  0.499285  1
  Mg  Mg18  1  0.000252  0.999748  0.000715  1
  Mg  Mg19  1  0.541488  0.458512  0.250000  1
  Cd  Cd20  1  0.888516  0.111484  0.250000  1
  Cd  Cd21  1  0.884704  0.773552  0.250000  1
  Cd  Cd22  1  0.226448  0.115296  0.250000  1
  Cd  Cd23  1  0.110457  0.889543  0.750000  1
  Cd  Cd24  1  0.110328  0.221423  0.750000  1
  Cd  Cd25  1  0.778577  0.889672  0.750000  1
  Ir  Ir26  1  0.329330  0.670670  0.250000  1
  Ir  Ir27  1  0.667704  0.332296  0.750000  1
