# generated using pymatgen
data_Ac8Ir5Au
_symmetry_space_group_name_H-M   'P 1'
_cell_length_a   8.15328875
_cell_length_b   8.15328904
_cell_length_c   8.15328729
_cell_angle_alpha   109.14293470
_cell_angle_beta   110.12980179
_cell_angle_gamma   109.14294399
_symmetry_Int_Tables_number   1
_chemical_formula_structural   Ac8Ir5Au
_chemical_formula_sum   'Ac8 Ir5 Au1'
_cell_volume   417.18952769
_cell_formula_units_Z   1
loop_
 _symmetry_equiv_pos_site_id
 _symmetry_equiv_pos_as_xyz
  1  'x, y, z'
loop_
 _atom_site_type_symbol
 _atom_site_label
 _atom_site_symmetry_multiplicity
 _atom_site_fract_x
 _atom_site_fract_y
 _atom_site_fract_z
 _atom_site_occupancy
  Ac  Ac0  1  0.123647  0.506699  0.993151  1
  Ac  Ac1  1  0.495133  0.996104  0.607236  1
  Ac  Ac2  1  0.392764  0.387898  0.388868  1
  Ac  Ac3  1  0.000970  0.112102  0.504867  1
  Ac  Ac4  1  0.883051  0.869504  0.876353  1
  Ac  Ac5  1  0.006849  0.630496  0.513547  1
  Ac  Ac6  1  0.611132  0.503896  0.999030  1
  Ac  Ac7  1  0.486453  0.993301  0.116949  1
  Ir  Ir8  1  0.120118  0.868625  0.245347  1
  Ir  Ir9  1  0.376723  0.631375  0.751494  1
  Ir  Ir10  1  0.248506  0.125229  0.879882  1
  Ir  Ir11  1  0.754653  0.374771  0.623277  1
  Ir  Ir12  1  0.625000  0.750000  0.375000  1
  Au  Au13  1  0.875000  0.250000  0.125000  1
