# generated using pymatgen
data_LiLa4Al3IrPt3
_symmetry_space_group_name_H-M   'P 1'
_cell_length_a   4.47182100
_cell_length_b   7.16920762
_cell_length_c   8.13856311
_cell_angle_alpha   89.82941240
_cell_angle_beta   90.00000000
_cell_angle_gamma   90.00000000
_symmetry_Int_Tables_number   1
_chemical_formula_structural   LiLa4Al3IrPt3
_chemical_formula_sum   'Li1 La4 Al3 Ir1 Pt3'
_cell_volume   260.91640107
_cell_formula_units_Z   1
loop_
 _symmetry_equiv_pos_site_id
 _symmetry_equiv_pos_as_xyz
  1  'x, y, z'
loop_
 _atom_site_type_symbol
 _atom_site_label
 _atom_site_symmetry_multiplicity
 _atom_site_fract_x
 _atom_site_fract_y
 _atom_site_fract_z
 _atom_site_occupancy
  Li  Li0  1  0.750000  0.873352  0.935132  1
  La  La1  1  0.250000  0.034663  0.681193  1
  La  La2  1  0.250000  0.535468  0.816896  1
  La  La3  1  0.750000  0.975706  0.314443  1
  La  La4  1  0.750000  0.461903  0.187212  1
  Al  Al5  1  0.250000  0.139524  0.064271  1
  Al  Al6  1  0.250000  0.630299  0.437934  1
  Al  Al7  1  0.750000  0.352138  0.563059  1
  Ir  Ir8  1  0.250000  0.271518  0.387234  1
  Pt  Pt9  1  0.250000  0.773569  0.128830  1
  Pt  Pt10  1  0.750000  0.714239  0.598928  1
  Pt  Pt11  1  0.750000  0.237621  0.884869  1
