# generated using pymatgen
data_Dy4InOs
_symmetry_space_group_name_H-M   'P 1'
_cell_length_a   9.65639802
_cell_length_b   9.65639804
_cell_length_c   9.65639800
_cell_angle_alpha   60.00000014
_cell_angle_beta   60.00000007
_cell_angle_gamma   60.00000012
_symmetry_Int_Tables_number   1
_chemical_formula_structural   Dy4InOs
_chemical_formula_sum   'Dy16 In4 Os4'
_cell_volume   636.69359112
_cell_formula_units_Z   4
loop_
 _symmetry_equiv_pos_site_id
 _symmetry_equiv_pos_as_xyz
  1  'x, y, z'
loop_
 _atom_site_type_symbol
 _atom_site_label
 _atom_site_symmetry_multiplicity
 _atom_site_fract_x
 _atom_site_fract_y
 _atom_site_fract_z
 _atom_site_occupancy
  Dy  Dy0  1  0.692148  0.307852  0.307852  1
  Dy  Dy1  1  0.692148  0.692148  0.307852  1
  Dy  Dy2  1  0.307852  0.692148  0.307852  1
  Dy  Dy3  1  0.944400  0.944400  0.555600  1
  Dy  Dy4  1  0.152424  0.152424  0.542726  1
  Dy  Dy5  1  0.555600  0.944400  0.555600  1
  Dy  Dy6  1  0.152424  0.152424  0.152424  1
  Dy  Dy7  1  0.307852  0.307852  0.692148  1
  Dy  Dy8  1  0.944400  0.555600  0.555600  1
  Dy  Dy9  1  0.555600  0.555600  0.944400  1
  Dy  Dy10  1  0.555600  0.944400  0.944400  1
  Dy  Dy11  1  0.944400  0.555600  0.944400  1
  Dy  Dy12  1  0.152424  0.542726  0.152424  1
  Dy  Dy13  1  0.307852  0.692148  0.692148  1
  Dy  Dy14  1  0.692148  0.307852  0.692148  1
  Dy  Dy15  1  0.542726  0.152424  0.152424  1
  In  In16  1  0.917510  0.917510  0.247470  1
  In  In17  1  0.247470  0.917510  0.917510  1
  In  In18  1  0.917510  0.247470  0.917510  1
  In  In19  1  0.917510  0.917510  0.917510  1
  Os  Os20  1  0.361107  0.361107  0.361107  1
  Os  Os21  1  0.916679  0.361107  0.361107  1
  Os  Os22  1  0.361107  0.361107  0.916679  1
  Os  Os23  1  0.361107  0.916679  0.361107  1
