# generated using pymatgen
data_Tm12Tl2TcOs2
_symmetry_space_group_name_H-M   'P 1'
_cell_length_a   8.35722218
_cell_length_b   8.35722242
_cell_length_c   8.35722300
_cell_angle_alpha   109.50176613
_cell_angle_beta   109.50177398
_cell_angle_gamma   109.41014404
_symmetry_Int_Tables_number   1
_chemical_formula_structural   Tm12Tl2TcOs2
_chemical_formula_sum   'Tm12 Tl2 Tc1 Os2'
_cell_volume   449.32813390
_cell_formula_units_Z   1
loop_
 _symmetry_equiv_pos_site_id
 _symmetry_equiv_pos_as_xyz
  1  'x, y, z'
loop_
 _atom_site_type_symbol
 _atom_site_label
 _atom_site_symmetry_multiplicity
 _atom_site_fract_x
 _atom_site_fract_y
 _atom_site_fract_z
 _atom_site_occupancy
  Tm  Tm0  1  0.185444  0.427114  0.241670  1
  Tm  Tm1  1  0.814556  0.572886  0.758330  1
  Tm  Tm2  1  0.185444  0.943775  0.758330  1
  Tm  Tm3  1  0.943775  0.185444  0.758330  1
  Tm  Tm4  1  0.814556  0.056225  0.241670  1
  Tm  Tm5  1  0.056225  0.814556  0.241670  1
  Tm  Tm6  1  0.427114  0.185444  0.241670  1
  Tm  Tm7  1  0.572886  0.814556  0.758330  1
  Tm  Tm8  1  0.317992  0.317992  0.635984  1
  Tm  Tm9  1  0.682008  0.682008  0.364016  1
  Tm  Tm10  1  0.682008  0.317992  0.000000  1
  Tm  Tm11  1  0.317992  0.682008  0.000000  1
  Tl  Tl12  1  0.000000  0.500000  0.500000  1
  Tl  Tl13  1  0.500000  0.000000  0.500000  1
  Tc  Tc14  1  0.000000  0.000000  0.000000  1
  Os  Os15  1  0.345512  0.345512  0.000000  1
  Os  Os16  1  0.654488  0.654488  0.000000  1
