# generated using pymatgen
data_HoZn2Cu2Pd
_symmetry_space_group_name_H-M   'P 1'
_cell_length_a   5.07322006
_cell_length_b   5.07322018
_cell_length_c   5.11256300
_cell_angle_alpha   59.74313992
_cell_angle_beta   59.74313916
_cell_angle_gamma   59.78154537
_symmetry_Int_Tables_number   1
_chemical_formula_structural   HoZn2Cu2Pd
_chemical_formula_sum   'Ho1 Zn2 Cu2 Pd1'
_cell_volume   92.52891456
_cell_formula_units_Z   1
loop_
 _symmetry_equiv_pos_site_id
 _symmetry_equiv_pos_as_xyz
  1  'x, y, z'
loop_
 _atom_site_type_symbol
 _atom_site_label
 _atom_site_symmetry_multiplicity
 _atom_site_fract_x
 _atom_site_fract_y
 _atom_site_fract_z
 _atom_site_occupancy
  Ho  Ho0  1  0.247601  0.247601  0.252399  1
  Zn  Zn1  1  0.627487  0.627487  0.627201  1
  Zn  Zn2  1  0.627487  0.627487  0.117825  1
  Cu  Cu3  1  0.626204  0.122979  0.625408  1
  Cu  Cu4  1  0.122979  0.626204  0.625408  1
  Pd  Pd5  1  0.998241  0.998241  0.001759  1
