# generated using pymatgen
data_Sc5Nb2Cr(P3Ir4)4
_symmetry_space_group_name_H-M   'P 1'
_cell_length_a   12.60354200
_cell_length_b   12.67009572
_cell_length_c   3.91873800
_cell_angle_alpha   90.00000000
_cell_angle_beta   90.00000000
_cell_angle_gamma   119.82638975
_symmetry_Int_Tables_number   1
_chemical_formula_structural   Sc5Nb2Cr(P3Ir4)4
_chemical_formula_sum   'Sc5 Nb2 Cr1 P12 Ir16'
_cell_volume   542.88328914
_cell_formula_units_Z   1
loop_
 _symmetry_equiv_pos_site_id
 _symmetry_equiv_pos_as_xyz
  1  'x, y, z'
loop_
 _atom_site_type_symbol
 _atom_site_label
 _atom_site_symmetry_multiplicity
 _atom_site_fract_x
 _atom_site_fract_y
 _atom_site_fract_z
 _atom_site_occupancy
  Sc  Sc0  1  0.333292  0.665390  0.000000  1
  Sc  Sc1  1  0.667902  0.334610  0.000000  1
  Sc  Sc2  1  0.813114  0.000000  0.500000  1
  Sc  Sc3  1  0.997860  0.814174  0.500000  1
  Sc  Sc4  1  0.183686  0.185826  0.500000  1
  Nb  Nb5  1  0.999903  0.451518  0.000000  1
  Nb  Nb6  1  0.548384  0.548482  0.000000  1
  Cr  Cr7  1  0.455653  0.000000  0.000000  1
  P  P8  1  0.176942  0.000000  0.000000  1
  P  P9  1  0.999318  0.173519  0.000000  1
  P  P10  1  0.825799  0.826481  0.000000  1
  P  P11  1  0.167648  0.483864  0.500000  1
  P  P12  1  0.515302  0.686182  0.500000  1
  P  P13  1  0.316034  0.832075  0.500000  1
  P  P14  1  0.683783  0.516136  0.500000  1
  P  P15  1  0.829119  0.313818  0.500000  1
  P  P16  1  0.483958  0.167925  0.500000  1
  P  P17  1  0.638226  0.000000  0.000000  1
  P  P18  1  0.002478  0.645254  0.000000  1
  P  P19  1  0.357224  0.354746  0.000000  1
  Ir  Ir20  1  0.355940  0.494722  0.500000  1
  Ir  Ir21  1  0.507499  0.866423  0.500000  1
  Ir  Ir22  1  0.137113  0.645228  0.500000  1
  Ir  Ir23  1  0.861218  0.505278  0.500000  1
  Ir  Ir24  1  0.641077  0.133577  0.500000  1
  Ir  Ir25  1  0.491886  0.354772  0.500000  1
  Ir  Ir26  1  0.178885  0.367963  0.000000  1
  Ir  Ir27  1  0.628623  0.809682  0.000000  1
  Ir  Ir28  1  0.194760  0.823282  0.000000  1
  Ir  Ir29  1  0.810923  0.632037  0.000000  1
  Ir  Ir30  1  0.818942  0.190318  0.000000  1
  Ir  Ir31  1  0.371478  0.176718  0.000000  1
  Ir  Ir32  1  0.286474  0.000000  0.500000  1
  Ir  Ir33  1  0.999066  0.280306  0.500000  1
  Ir  Ir34  1  0.718759  0.719694  0.500000  1
  Ir  Ir35  1  0.001733  0.000000  0.000000  1
