# generated using pymatgen
data_Nd4Zn3GaPd4
_symmetry_space_group_name_H-M   'P 1'
_cell_length_a   4.48279700
_cell_length_b   7.16987878
_cell_length_c   7.92078542
_cell_angle_alpha   89.79065098
_cell_angle_beta   90.00000000
_cell_angle_gamma   90.00000000
_symmetry_Int_Tables_number   1
_chemical_formula_structural   Nd4Zn3GaPd4
_chemical_formula_sum   'Nd4 Zn3 Ga1 Pd4'
_cell_volume   254.58114481
_cell_formula_units_Z   1
loop_
 _symmetry_equiv_pos_site_id
 _symmetry_equiv_pos_as_xyz
  1  'x, y, z'
loop_
 _atom_site_type_symbol
 _atom_site_label
 _atom_site_symmetry_multiplicity
 _atom_site_fract_x
 _atom_site_fract_y
 _atom_site_fract_z
 _atom_site_occupancy
  Nd  Nd0  1  0.250000  0.022651  0.695132  1
  Nd  Nd1  1  0.250000  0.522548  0.803328  1
  Nd  Nd2  1  0.750000  0.979867  0.303745  1
  Nd  Nd3  1  0.750000  0.476509  0.196163  1
  Zn  Zn4  1  0.250000  0.166020  0.075134  1
  Zn  Zn5  1  0.250000  0.667767  0.425834  1
  Zn  Zn6  1  0.750000  0.834749  0.926243  1
  Ga  Ga7  1  0.750000  0.333074  0.572530  1
  Pd  Pd8  1  0.250000  0.280234  0.401130  1
  Pd  Pd9  1  0.250000  0.777994  0.102212  1
  Pd  Pd10  1  0.750000  0.716459  0.601416  1
  Pd  Pd11  1  0.750000  0.222126  0.897133  1
