# generated using pymatgen
data_Hf16Fe4Ir3Au
_symmetry_space_group_name_H-M   'P 1'
_cell_length_a   8.60139009
_cell_length_b   8.60139087
_cell_length_c   8.60139100
_cell_angle_alpha   59.76580583
_cell_angle_beta   59.76580281
_cell_angle_gamma   59.76580173
_symmetry_Int_Tables_number   1
_chemical_formula_structural   Hf16Fe4Ir3Au
_chemical_formula_sum   'Hf16 Fe4 Ir3 Au1'
_cell_volume   447.58493252
_cell_formula_units_Z   1
loop_
 _symmetry_equiv_pos_site_id
 _symmetry_equiv_pos_as_xyz
  1  'x, y, z'
loop_
 _atom_site_type_symbol
 _atom_site_label
 _atom_site_symmetry_multiplicity
 _atom_site_fract_x
 _atom_site_fract_y
 _atom_site_fract_z
 _atom_site_occupancy
  Hf  Hf0  1  0.189911  0.602392  0.602392  1
  Hf  Hf1  1  0.602392  0.189911  0.602392  1
  Hf  Hf2  1  0.602392  0.602392  0.189911  1
  Hf  Hf3  1  0.603085  0.603085  0.603085  1
  Hf  Hf4  1  0.811164  0.811164  0.197357  1
  Hf  Hf5  1  0.189126  0.189126  0.811470  1
  Hf  Hf6  1  0.811164  0.197357  0.811164  1
  Hf  Hf7  1  0.189126  0.811470  0.189126  1
  Hf  Hf8  1  0.197357  0.811164  0.811164  1
  Hf  Hf9  1  0.811470  0.189126  0.189126  1
  Hf  Hf10  1  0.445449  0.445449  0.054926  1
  Hf  Hf11  1  0.056305  0.056305  0.440363  1
  Hf  Hf12  1  0.445449  0.054926  0.445449  1
  Hf  Hf13  1  0.056305  0.440363  0.056305  1
  Hf  Hf14  1  0.054926  0.445449  0.445449  1
  Hf  Hf15  1  0.440363  0.056305  0.056305  1
  Fe  Fe16  1  0.826201  0.390956  0.390956  1
  Fe  Fe17  1  0.390956  0.826201  0.390956  1
  Fe  Fe18  1  0.390956  0.390956  0.826201  1
  Fe  Fe19  1  0.391647  0.391647  0.391647  1
  Ir  Ir20  1  0.493885  0.833577  0.833577  1
  Ir  Ir21  1  0.833577  0.493885  0.833577  1
  Ir  Ir22  1  0.833577  0.833577  0.493885  1
  Au  Au23  1  0.833218  0.833218  0.833218  1
