# generated using pymatgen
data_Tb4PtAu3
_symmetry_space_group_name_H-M   'P 1'
_cell_length_a   4.69581600
_cell_length_b   5.65644926
_cell_length_c   7.19684532
_cell_angle_alpha   90.93498622
_cell_angle_beta   90.00000000
_cell_angle_gamma   90.00000000
_symmetry_Int_Tables_number   1
_chemical_formula_structural   Tb4PtAu3
_chemical_formula_sum   'Tb4 Pt1 Au3'
_cell_volume   191.13459812
_cell_formula_units_Z   1
loop_
 _symmetry_equiv_pos_site_id
 _symmetry_equiv_pos_as_xyz
  1  'x, y, z'
loop_
 _atom_site_type_symbol
 _atom_site_label
 _atom_site_symmetry_multiplicity
 _atom_site_fract_x
 _atom_site_fract_y
 _atom_site_fract_z
 _atom_site_occupancy
  Tb  Tb0  1  0.250000  0.351851  0.693679  1
  Tb  Tb1  1  0.250000  0.152381  0.176274  1
  Tb  Tb2  1  0.750000  0.641534  0.311315  1
  Tb  Tb3  1  0.750000  0.858138  0.819307  1
  Pt  Pt4  1  0.750000  0.343694  0.959261  1
  Au  Au5  1  0.250000  0.844240  0.538904  1
  Au  Au6  1  0.250000  0.655566  0.042336  1
  Au  Au7  1  0.750000  0.152595  0.458925  1
