# generated using pymatgen
data_TbTm4(Hg2Pt)2
_symmetry_space_group_name_H-M   'P 1'
_cell_length_a   3.59030800
_cell_length_b   7.92249200
_cell_length_c   18.18853800
_cell_angle_alpha   90.00000000
_cell_angle_beta   90.00000000
_cell_angle_gamma   90.00000000
_symmetry_Int_Tables_number   1
_chemical_formula_structural   TbTm4(Hg2Pt)2
_chemical_formula_sum   'Tb2 Tm8 Hg8 Pt4'
_cell_volume   517.35816535
_cell_formula_units_Z   2
loop_
 _symmetry_equiv_pos_site_id
 _symmetry_equiv_pos_as_xyz
  1  'x, y, z'
loop_
 _atom_site_type_symbol
 _atom_site_label
 _atom_site_symmetry_multiplicity
 _atom_site_fract_x
 _atom_site_fract_y
 _atom_site_fract_z
 _atom_site_occupancy
  Tb  Tb0  1  0.000000  0.000000  0.000000  1
  Tb  Tb1  1  0.000000  0.500000  0.500000  1
  Tm  Tm2  1  0.000000  0.113816  0.414609  1
  Tm  Tm3  1  0.000000  0.886184  0.585391  1
  Tm  Tm4  1  0.000000  0.386184  0.914609  1
  Tm  Tm5  1  0.000000  0.613816  0.085391  1
  Tm  Tm6  1  0.000000  0.241625  0.217503  1
  Tm  Tm7  1  0.000000  0.758375  0.782497  1
  Tm  Tm8  1  0.000000  0.258375  0.717503  1
  Tm  Tm9  1  0.000000  0.741625  0.282497  1
  Hg  Hg10  1  0.500000  0.424427  0.353193  1
  Hg  Hg11  1  0.500000  0.575573  0.646807  1
  Hg  Hg12  1  0.500000  0.075573  0.853193  1
  Hg  Hg13  1  0.500000  0.924427  0.146807  1
  Hg  Hg14  1  0.500000  0.289810  0.063992  1
  Hg  Hg15  1  0.500000  0.710190  0.936008  1
  Hg  Hg16  1  0.500000  0.210190  0.563992  1
  Hg  Hg17  1  0.500000  0.789810  0.436008  1
  Pt  Pt18  1  0.500000  0.028266  0.303719  1
  Pt  Pt19  1  0.500000  0.971734  0.696281  1
  Pt  Pt20  1  0.500000  0.471734  0.803719  1
  Pt  Pt21  1  0.500000  0.528266  0.196281  1
