# generated using pymatgen
data_DyTm2Hf(Al8Pt3)3
_symmetry_space_group_name_H-M   'P 1'
_cell_length_a   7.51047123
_cell_length_b   7.51804483
_cell_length_c   13.07324205
_cell_angle_alpha   84.54904624
_cell_angle_beta   79.02248281
_cell_angle_gamma   59.90033725
_symmetry_Int_Tables_number   1
_chemical_formula_structural   DyTm2Hf(Al8Pt3)3
_chemical_formula_sum   'Dy1 Tm2 Hf1 Al24 Pt9'
_cell_volume   626.94377940
_cell_formula_units_Z   1
loop_
 _symmetry_equiv_pos_site_id
 _symmetry_equiv_pos_as_xyz
  1  'x, y, z'
loop_
 _atom_site_type_symbol
 _atom_site_label
 _atom_site_symmetry_multiplicity
 _atom_site_fract_x
 _atom_site_fract_y
 _atom_site_fract_z
 _atom_site_occupancy
  Dy  Dy0  1  0.606528  0.831890  0.191502  1
  Tm  Tm1  1  0.734079  0.498702  0.807181  1
  Tm  Tm2  1  0.266577  0.501088  0.192424  1
  Hf  Hf3  1  0.393647  0.168481  0.807808  1
  Al  Al4  1  0.681564  0.836505  0.940800  1
  Al  Al5  1  0.316419  0.166955  0.053941  1
  Al  Al6  1  0.146391  0.832691  0.562727  1
  Al  Al7  1  0.852981  0.167213  0.438296  1
  Al  Al8  1  0.479889  0.166737  0.560619  1
  Al  Al9  1  0.519348  0.833861  0.441480  1
  Al  Al10  1  0.217052  0.165807  0.329389  1
  Al  Al11  1  0.779533  0.836371  0.674345  1
  Al  Al12  1  0.435659  0.504721  0.674814  1
  Al  Al13  1  0.562614  0.493370  0.328503  1
  Al  Al14  1  0.110324  0.159646  0.673655  1
  Al  Al15  1  0.890789  0.839793  0.329749  1
  Al  Al16  1  0.354866  0.495966  0.941061  1
  Al  Al17  1  0.647231  0.500025  0.055372  1
  Al  Al18  1  0.019304  0.168698  0.948788  1
  Al  Al19  1  0.985075  0.832265  0.046875  1
  Al  Al20  1  0.186758  0.499199  0.441406  1
  Al  Al21  1  0.813732  0.500283  0.559160  1
  Al  Al22  1  0.733541  0.164545  0.183336  1
  Al  Al23  1  0.266559  0.841057  0.816683  1
  Al  Al24  1  0.065773  0.626277  0.815379  1
  Al  Al25  1  0.939913  0.368248  0.184177  1
  Al  Al26  1  0.850128  0.042245  0.815895  1
  Al  Al27  1  0.144644  0.958056  0.183623  1
  Pt  Pt28  1  0.119965  0.489547  0.640276  1
  Pt  Pt29  1  0.879586  0.508892  0.361084  1
  Pt  Pt30  1  0.657166  0.172124  0.998710  1
  Pt  Pt31  1  0.344012  0.827536  0.999243  1
  Pt  Pt32  1  0.536856  0.167039  0.361414  1
  Pt  Pt33  1  0.463801  0.832977  0.640052  1
  Pt  Pt34  1  0.776865  0.176895  0.638564  1
  Pt  Pt35  1  0.221010  0.824149  0.362911  1
  Pt  Pt36  1  0.999821  0.500140  0.998752  1
