# generated using pymatgen
data_Pr4Nd5Th(Al2Ru3)2
_symmetry_space_group_name_H-M   'P 1'
_cell_length_a   8.60687396
_cell_length_b   8.57213153
_cell_length_c   8.57213030
_cell_angle_alpha   109.05197613
_cell_angle_beta   109.83995892
_cell_angle_gamma   109.35749436
_symmetry_Int_Tables_number   1
_chemical_formula_structural   Pr4Nd5Th(Al2Ru3)2
_chemical_formula_sum   'Pr4 Nd5 Th1 Al4 Ru6'
_cell_volume   487.82336414
_cell_formula_units_Z   1
loop_
 _symmetry_equiv_pos_site_id
 _symmetry_equiv_pos_as_xyz
  1  'x, y, z'
loop_
 _atom_site_type_symbol
 _atom_site_label
 _atom_site_symmetry_multiplicity
 _atom_site_fract_x
 _atom_site_fract_y
 _atom_site_fract_z
 _atom_site_occupancy
  Pr  Pr0  1  0.216808  0.214844  0.216504  1
  Pr  Pr1  1  0.502821  0.000324  0.285918  1
  Pr  Pr2  1  0.283192  0.499695  0.998036  1
  Pr  Pr3  1  0.997179  0.283097  0.497504  1
  Nd  Nd4  1  0.750000  0.814162  0.064162  1
  Nd  Nd5  1  0.437114  0.250549  0.686696  1
  Nd  Nd6  1  0.684733  0.436796  0.249618  1
  Nd  Nd7  1  0.062886  0.749582  0.813434  1
  Nd  Nd8  1  0.815267  0.064885  0.752064  1
  Th  Th9  1  0.250000  0.690715  0.440715  1
  Al  Al10  1  0.593282  0.591989  0.590941  1
  Al  Al11  1  0.502091  0.004547  0.911055  1
  Al  Al12  1  0.906718  0.497660  0.998707  1
  Al  Al13  1  0.997909  0.908963  0.502456  1
  Ru  Ru14  1  0.250000  0.119634  0.869634  1
  Ru  Ru15  1  0.750000  0.381858  0.631858  1
  Ru  Ru16  1  0.872692  0.251792  0.122204  1
  Ru  Ru17  1  0.125586  0.854715  0.260265  1
  Ru  Ru18  1  0.627307  0.749511  0.379099  1
  Ru  Ru19  1  0.374414  0.634680  0.729130  1
