# generated using pymatgen
data_Lu2Ga2NiRu
_symmetry_space_group_name_H-M   'P 1'
_cell_length_a   4.11576900
_cell_length_b   6.70474800
_cell_length_c   7.61469700
_cell_angle_alpha   90.00000000
_cell_angle_beta   90.00000000
_cell_angle_gamma   90.00000000
_symmetry_Int_Tables_number   1
_chemical_formula_structural   Lu2Ga2NiRu
_chemical_formula_sum   'Lu4 Ga4 Ni2 Ru2'
_cell_volume   210.12904075
_cell_formula_units_Z   2
loop_
 _symmetry_equiv_pos_site_id
 _symmetry_equiv_pos_as_xyz
  1  'x, y, z'
loop_
 _atom_site_type_symbol
 _atom_site_label
 _atom_site_symmetry_multiplicity
 _atom_site_fract_x
 _atom_site_fract_y
 _atom_site_fract_z
 _atom_site_occupancy
  Lu  Lu0  1  0.250000  0.024281  0.817759  1
  Lu  Lu1  1  0.250000  0.524281  0.682241  1
  Lu  Lu2  1  0.750000  0.979020  0.191305  1
  Lu  Lu3  1  0.750000  0.479020  0.308695  1
  Ga  Ga4  1  0.250000  0.159529  0.441715  1
  Ga  Ga5  1  0.250000  0.659529  0.058285  1
  Ga  Ga6  1  0.750000  0.844493  0.576531  1
  Ga  Ga7  1  0.750000  0.344493  0.923469  1
  Ni  Ni8  1  0.750000  0.224715  0.615516  1
  Ni  Ni9  1  0.750000  0.724715  0.884484  1
  Ru  Ru10  1  0.250000  0.767961  0.386236  1
  Ru  Ru11  1  0.250000  0.267961  0.113764  1
