# generated using pymatgen
data_Na4CeMoO6
_symmetry_space_group_name_H-M   'P 1'
_cell_length_a   5.77633434
_cell_length_b   5.77608987
_cell_length_c   5.87334660
_cell_angle_alpha   99.66985698
_cell_angle_beta   99.66814663
_cell_angle_gamma   119.63840867
_symmetry_Int_Tables_number   1
_chemical_formula_structural   Na4CeMoO6
_chemical_formula_sum   'Na4 Ce1 Mo1 O6'
_cell_volume   160.53662013
_cell_formula_units_Z   1
loop_
 _symmetry_equiv_pos_site_id
 _symmetry_equiv_pos_as_xyz
  1  'x, y, z'
loop_
 _atom_site_type_symbol
 _atom_site_label
 _atom_site_symmetry_multiplicity
 _atom_site_fract_x
 _atom_site_fract_y
 _atom_site_fract_z
 _atom_site_occupancy
  Na  Na0  1  0.500298  0.499692  0.999995  1
  Na  Na1  1  0.015896  0.984108  0.500007  1
  Na  Na2  1  0.655191  0.344822  0.500011  1
  Na  Na3  1  0.333978  0.665976  0.499988  1
  Ce  Ce4  1  0.830825  0.169240  0.999987  1
  Mo  Mo5  1  0.169708  0.830210  0.999978  1
  O  O6  1  0.936800  0.582855  0.213582  1
  O  O7  1  0.214347  0.192234  0.211006  1
  O  O8  1  0.541319  0.923303  0.215453  1
  O  O9  1  0.076670  0.458687  0.784522  1
  O  O10  1  0.807783  0.785650  0.789035  1
  O  O11  1  0.417181  0.063217  0.786435  1
