# generated using pymatgen
data_TbYHoTaO7
_symmetry_space_group_name_H-M   'P 1'
_cell_length_a   6.49611132
_cell_length_b   6.50935595
_cell_length_c   7.48473500
_cell_angle_alpha   89.99995415
_cell_angle_beta   90.00013530
_cell_angle_gamma   108.62047144
_symmetry_Int_Tables_number   1
_chemical_formula_structural   TbYHoTaO7
_chemical_formula_sum   'Tb2 Y2 Ho2 Ta2 O14'
_cell_volume   299.92860364
_cell_formula_units_Z   2
loop_
 _symmetry_equiv_pos_site_id
 _symmetry_equiv_pos_as_xyz
  1  'x, y, z'
loop_
 _atom_site_type_symbol
 _atom_site_label
 _atom_site_symmetry_multiplicity
 _atom_site_fract_x
 _atom_site_fract_y
 _atom_site_fract_z
 _atom_site_occupancy
  Tb  Tb0  1  0.536658  0.537767  0.499836  1
  Tb  Tb1  1  0.463343  0.462234  0.999834  1
  Y  Y2  1  0.999741  0.535071  0.240806  1
  Y  Y3  1  0.000257  0.464929  0.740805  1
  Ho  Ho4  1  0.534983  0.000451  0.758960  1
  Ho  Ho5  1  0.465016  0.999550  0.258955  1
  Ta  Ta6  1  0.002524  0.002485  0.500007  1
  Ta  Ta7  1  0.997476  0.997517  0.000007  1
  O  O8  1  0.930374  0.067109  0.750070  1
  O  O9  1  0.069627  0.932890  0.250069  1
  O  O10  1  0.360545  0.642218  0.249793  1
  O  O11  1  0.639458  0.357782  0.749796  1
  O  O12  1  0.371778  0.631509  0.750268  1
  O  O13  1  0.628220  0.368491  0.250269  1
  O  O14  1  0.328459  0.080738  0.975411  1
  O  O15  1  0.671544  0.919262  0.475409  1
  O  O16  1  0.306903  0.047072  0.545908  1
  O  O17  1  0.693093  0.952927  0.045907  1
  O  O18  1  0.050250  0.306943  0.455311  1
  O  O19  1  0.949751  0.693057  0.955312  1
  O  O20  1  0.916831  0.672147  0.523633  1
  O  O21  1  0.083171  0.327852  0.023633  1
