# generated using pymatgen
data_YPa(VB4)2
_symmetry_space_group_name_H-M   'P 1'
_cell_length_a   3.53779000
_cell_length_b   5.98321986
_cell_length_c   11.58994409
_cell_angle_alpha   89.79196241
_cell_angle_beta   90.00000000
_cell_angle_gamma   90.00000000
_symmetry_Int_Tables_number   1
_chemical_formula_structural   YPa(VB4)2
_chemical_formula_sum   'Y2 Pa2 V4 B16'
_cell_volume   245.32708033
_cell_formula_units_Z   2
loop_
 _symmetry_equiv_pos_site_id
 _symmetry_equiv_pos_as_xyz
  1  'x, y, z'
loop_
 _atom_site_type_symbol
 _atom_site_label
 _atom_site_symmetry_multiplicity
 _atom_site_fract_x
 _atom_site_fract_y
 _atom_site_fract_z
 _atom_site_occupancy
  Y  Y0  1  0.000000  0.123575  0.149080  1
  Y  Y1  1  0.000000  0.876425  0.850920  1
  Pa  Pa2  1  0.000000  0.626126  0.347540  1
  Pa  Pa3  1  0.000000  0.373874  0.652460  1
  V  V4  1  0.000000  0.624513  0.083361  1
  V  V5  1  0.000000  0.375487  0.916639  1
  V  V6  1  0.000000  0.127715  0.417500  1
  V  V7  1  0.000000  0.872285  0.582500  1
  B  B8  1  0.500000  0.783785  0.185089  1
  B  B9  1  0.500000  0.216215  0.814911  1
  B  B10  1  0.500000  0.284220  0.314866  1
  B  B11  1  0.500000  0.715780  0.685134  1
  B  B12  1  0.500000  0.864175  0.032711  1
  B  B13  1  0.500000  0.135825  0.967289  1
  B  B14  1  0.500000  0.364035  0.467222  1
  B  B15  1  0.500000  0.635965  0.532778  1
  B  B16  1  0.500000  0.887058  0.453289  1
  B  B17  1  0.500000  0.112942  0.546711  1
  B  B18  1  0.500000  0.386208  0.046022  1
  B  B19  1  0.500000  0.613792  0.953978  1
  B  B20  1  0.500000  0.974640  0.308353  1
  B  B21  1  0.500000  0.025360  0.691647  1
  B  B22  1  0.500000  0.477148  0.191312  1
  B  B23  1  0.500000  0.522852  0.808688  1
