# generated using pymatgen
data_Ba2Si2Br
_symmetry_space_group_name_H-M   'P 1'
_cell_length_a   4.37309400
_cell_length_b   4.37309357
_cell_length_c   18.01518100
_cell_angle_alpha   90.00000000
_cell_angle_beta   90.00000000
_cell_angle_gamma   120.00000326
_symmetry_Int_Tables_number   1
_chemical_formula_structural   Ba2Si2Br
_chemical_formula_sum   'Ba4 Si4 Br2'
_cell_volume   298.36428097
_cell_formula_units_Z   2
loop_
 _symmetry_equiv_pos_site_id
 _symmetry_equiv_pos_as_xyz
  1  'x, y, z'
loop_
 _atom_site_type_symbol
 _atom_site_label
 _atom_site_symmetry_multiplicity
 _atom_site_fract_x
 _atom_site_fract_y
 _atom_site_fract_z
 _atom_site_occupancy
  Ba  Ba0  1  0.000000  0.000000  0.124431  1
  Ba  Ba1  1  0.000000  0.000000  0.375569  1
  Ba  Ba2  1  0.000000  0.000000  0.624431  1
  Ba  Ba3  1  0.000000  0.000000  0.875569  1
  Si  Si4  1  0.333333  0.666666  0.005109  1
  Si  Si5  1  0.333333  0.666666  0.494891  1
  Si  Si6  1  0.666668  0.333334  0.505109  1
  Si  Si7  1  0.666668  0.333334  0.994891  1
  Br  Br8  1  0.666668  0.333334  0.250000  1
  Br  Br9  1  0.333333  0.666666  0.750000  1
