# generated using pymatgen
data_Ca12Cu7Si8Pd
_symmetry_space_group_name_H-M   'P 1'
_cell_length_a   5.61012967
_cell_length_b   8.10790712
_cell_length_c   13.20517860
_cell_angle_alpha   90.09072192
_cell_angle_beta   90.23818587
_cell_angle_gamma   90.23169318
_symmetry_Int_Tables_number   1
_chemical_formula_structural   Ca12Cu7Si8Pd
_chemical_formula_sum   'Ca12 Cu7 Si8 Pd1'
_cell_volume   600.64530116
_cell_formula_units_Z   1
loop_
 _symmetry_equiv_pos_site_id
 _symmetry_equiv_pos_as_xyz
  1  'x, y, z'
loop_
 _atom_site_type_symbol
 _atom_site_label
 _atom_site_symmetry_multiplicity
 _atom_site_fract_x
 _atom_site_fract_y
 _atom_site_fract_z
 _atom_site_occupancy
  Ca  Ca0  1  0.128516  0.619301  0.105801  1
  Ca  Ca1  1  0.125159  0.879232  0.894334  1
  Ca  Ca2  1  0.872509  0.121693  0.392549  1
  Ca  Ca3  1  0.871102  0.378278  0.605325  1
  Ca  Ca4  1  0.874178  0.380222  0.893753  1
  Ca  Ca5  1  0.877574  0.121134  0.105114  1
  Ca  Ca6  1  0.122936  0.881489  0.606429  1
  Ca  Ca7  1  0.130929  0.617475  0.393212  1
  Ca  Ca8  1  0.347143  0.261549  0.249782  1
  Ca  Ca9  1  0.342757  0.239242  0.750610  1
  Ca  Ca10  1  0.658055  0.759396  0.249079  1
  Ca  Ca11  1  0.655075  0.739743  0.750803  1
  Cu  Cu12  1  0.616255  0.470634  0.085709  1
  Cu  Cu13  1  0.613103  0.029009  0.914201  1
  Cu  Cu14  1  0.383074  0.971067  0.414289  1
  Cu  Cu15  1  0.381308  0.529429  0.589203  1
  Cu  Cu16  1  0.386880  0.528477  0.913670  1
  Cu  Cu17  1  0.388495  0.970880  0.085655  1
  Cu  Cu18  1  0.612016  0.028991  0.586755  1
  Si  Si19  1  0.371744  0.250682  0.999096  1
  Si  Si20  1  0.615431  0.753973  0.501052  1
  Si  Si21  1  0.627809  0.749583  0.999349  1
  Si  Si22  1  0.373458  0.246755  0.502388  1
  Si  Si23  1  0.822673  0.413271  0.247087  1
  Si  Si24  1  0.814440  0.084669  0.750963  1
  Si  Si25  1  0.186952  0.915525  0.249526  1
  Si  Si26  1  0.182594  0.585583  0.749789  1
  Pd  Pd27  1  0.617835  0.472717  0.414478  1
