# generated using pymatgen
data_Cs8Li4In3GaAs8
_symmetry_space_group_name_H-M   'P 1'
_cell_length_a   10.95796474
_cell_length_b   10.95798459
_cell_length_c   6.60768800
_cell_angle_alpha   89.99021696
_cell_angle_beta   90.00975943
_cell_angle_gamma   105.92780505
_symmetry_Int_Tables_number   1
_chemical_formula_structural   Cs8Li4In3GaAs8
_chemical_formula_sum   'Cs8 Li4 In3 Ga1 As8'
_cell_volume   762.97144032
_cell_formula_units_Z   1
loop_
 _symmetry_equiv_pos_site_id
 _symmetry_equiv_pos_as_xyz
  1  'x, y, z'
loop_
 _atom_site_type_symbol
 _atom_site_label
 _atom_site_symmetry_multiplicity
 _atom_site_fract_x
 _atom_site_fract_y
 _atom_site_fract_z
 _atom_site_occupancy
  Cs  Cs0  1  0.077662  0.421304  0.747697  1
  Cs  Cs1  1  0.669577  0.327129  0.778307  1
  Cs  Cs2  1  0.327128  0.669577  0.221694  1
  Cs  Cs3  1  0.577008  0.925044  0.750855  1
  Cs  Cs4  1  0.421305  0.077664  0.252304  1
  Cs  Cs5  1  0.925044  0.577009  0.249143  1
  Cs  Cs6  1  0.829462  0.172104  0.279661  1
  Cs  Cs7  1  0.172105  0.829463  0.720340  1
  Li  Li8  1  0.120669  0.120669  0.500000  1
  Li  Li9  1  0.880481  0.880481  0.500000  1
  Li  Li10  1  0.376579  0.376579  0.000000  1
  Li  Li11  1  0.620781  0.620782  0.999999  1
  In  In12  1  0.869922  0.869922  0.000000  1
  In  In13  1  0.365783  0.365783  0.500000  1
  In  In14  1  0.631224  0.631224  0.500000  1
  Ga  Ga15  1  0.130521  0.130521  0.000000  1
  As  As16  1  0.838982  0.662418  0.749819  1
  As  As17  1  0.089743  0.924365  0.217449  1
  As  As18  1  0.413973  0.585681  0.725677  1
  As  As19  1  0.585684  0.413972  0.274322  1
  As  As20  1  0.662418  0.838982  0.250181  1
  As  As21  1  0.161208  0.328376  0.238043  1
  As  As22  1  0.328376  0.161208  0.761957  1
  As  As23  1  0.924365  0.089743  0.782551  1
