# generated using pymatgen
data_Ca20Zn9Ga2Hg
_symmetry_space_group_name_H-M   'P 1'
_cell_length_a   7.97321100
_cell_length_b   7.97321100
_cell_length_c   14.98615200
_cell_angle_alpha   90.00000000
_cell_angle_beta   90.00000000
_cell_angle_gamma   90.00000000
_symmetry_Int_Tables_number   1
_chemical_formula_structural   Ca20Zn9Ga2Hg
_chemical_formula_sum   'Ca20 Zn9 Ga2 Hg1'
_cell_volume   952.70105840
_cell_formula_units_Z   1
loop_
 _symmetry_equiv_pos_site_id
 _symmetry_equiv_pos_as_xyz
  1  'x, y, z'
loop_
 _atom_site_type_symbol
 _atom_site_label
 _atom_site_symmetry_multiplicity
 _atom_site_fract_x
 _atom_site_fract_y
 _atom_site_fract_z
 _atom_site_occupancy
  Ca  Ca0  1  0.672400  0.165698  0.103700  1
  Ca  Ca1  1  0.171999  0.670324  0.600955  1
  Ca  Ca2  1  0.327600  0.834302  0.103700  1
  Ca  Ca3  1  0.828001  0.329676  0.600955  1
  Ca  Ca4  1  0.834302  0.672400  0.103700  1
  Ca  Ca5  1  0.329676  0.171999  0.600955  1
  Ca  Ca6  1  0.165698  0.327600  0.103700  1
  Ca  Ca7  1  0.670324  0.828001  0.600955  1
  Ca  Ca8  1  0.834302  0.327600  0.896300  1
  Ca  Ca9  1  0.329676  0.828001  0.399045  1
  Ca  Ca10  1  0.165698  0.672400  0.896300  1
  Ca  Ca11  1  0.670324  0.171999  0.399045  1
  Ca  Ca12  1  0.672400  0.834302  0.896300  1
  Ca  Ca13  1  0.171999  0.329676  0.399045  1
  Ca  Ca14  1  0.327600  0.165698  0.896300  1
  Ca  Ca15  1  0.828001  0.670324  0.399045  1
  Ca  Ca16  1  0.500000  0.500000  0.749530  1
  Ca  Ca17  1  0.000000  0.000000  0.256460  1
  Ca  Ca18  1  0.000000  0.000000  0.743540  1
  Ca  Ca19  1  0.500000  0.500000  0.250470  1
  Zn  Zn20  1  0.617388  0.117802  0.750786  1
  Zn  Zn21  1  0.117802  0.617388  0.249214  1
  Zn  Zn22  1  0.882198  0.382612  0.249214  1
  Zn  Zn23  1  0.382612  0.882198  0.750786  1
  Zn  Zn24  1  0.882198  0.617388  0.750786  1
  Zn  Zn25  1  0.382612  0.117802  0.249214  1
  Zn  Zn26  1  0.117802  0.382612  0.750786  1
  Zn  Zn27  1  0.617388  0.882198  0.249214  1
  Zn  Zn28  1  0.000000  0.000000  0.000000  1
  Ga  Ga29  1  0.500000  0.500000  0.500000  1
  Ga  Ga30  1  0.000000  0.000000  0.500000  1
  Hg  Hg31  1  0.500000  0.500000  0.000000  1
