# generated using pymatgen
data_TmPa3(Co2Sn)2
_symmetry_space_group_name_H-M   'P 1'
_cell_length_a   7.36318102
_cell_length_b   7.36318031
_cell_length_c   3.51094500
_cell_angle_alpha   90.00000000
_cell_angle_beta   90.00000000
_cell_angle_gamma   92.36773864
_symmetry_Int_Tables_number   1
_chemical_formula_structural   TmPa3(Co2Sn)2
_chemical_formula_sum   'Tm1 Pa3 Co4 Sn2'
_cell_volume   190.18838995
_cell_formula_units_Z   1
loop_
 _symmetry_equiv_pos_site_id
 _symmetry_equiv_pos_as_xyz
  1  'x, y, z'
loop_
 _atom_site_type_symbol
 _atom_site_label
 _atom_site_symmetry_multiplicity
 _atom_site_fract_x
 _atom_site_fract_y
 _atom_site_fract_z
 _atom_site_occupancy
  Tm  Tm0  1  0.829503  0.670497  0.500000  1
  Pa  Pa1  1  0.674026  0.169468  0.500000  1
  Pa  Pa2  1  0.330532  0.825974  0.500000  1
  Pa  Pa3  1  0.168451  0.331549  0.500000  1
  Co  Co4  1  0.877158  0.349306  0.000000  1
  Co  Co5  1  0.150694  0.622842  0.000000  1
  Co  Co6  1  0.357737  0.142263  0.000000  1
  Co  Co7  1  0.606048  0.893952  0.000000  1
  Sn  Sn8  1  0.509040  0.503188  0.000000  1
  Sn  Sn9  1  0.996812  0.990960  0.000000  1
