# generated using pymatgen
data_Lu12Si12Os3Rh
_symmetry_space_group_name_H-M   'P 1'
_cell_length_a   4.15462400
_cell_length_b   10.52636910
_cell_length_c   12.07856200
_cell_angle_alpha   90.09168338
_cell_angle_beta   90.00000000
_cell_angle_gamma   90.00000000
_symmetry_Int_Tables_number   1
_chemical_formula_structural   Lu12Si12Os3Rh
_chemical_formula_sum   'Lu12 Si12 Os3 Rh1'
_cell_volume   528.23235245
_cell_formula_units_Z   1
loop_
 _symmetry_equiv_pos_site_id
 _symmetry_equiv_pos_as_xyz
  1  'x, y, z'
loop_
 _atom_site_type_symbol
 _atom_site_label
 _atom_site_symmetry_multiplicity
 _atom_site_fract_x
 _atom_site_fract_y
 _atom_site_fract_z
 _atom_site_occupancy
  Lu  Lu0  1  0.250000  0.879730  0.021031  1
  Lu  Lu1  1  0.250000  0.620903  0.520095  1
  Lu  Lu2  1  0.750000  0.120966  0.980630  1
  Lu  Lu3  1  0.750000  0.380411  0.479502  1
  Lu  Lu4  1  0.250000  0.921100  0.603824  1
  Lu  Lu5  1  0.250000  0.578961  0.104723  1
  Lu  Lu6  1  0.750000  0.079003  0.395574  1
  Lu  Lu7  1  0.750000  0.420411  0.894925  1
  Lu  Lu8  1  0.250000  0.661216  0.799156  1
  Lu  Lu9  1  0.250000  0.837981  0.298912  1
  Lu  Lu10  1  0.750000  0.338572  0.200569  1
  Lu  Lu11  1  0.750000  0.160581  0.699477  1
  Si  Si12  1  0.250000  0.014004  0.822719  1
  Si  Si13  1  0.250000  0.488543  0.321157  1
  Si  Si14  1  0.750000  0.988424  0.178893  1
  Si  Si15  1  0.750000  0.511140  0.679043  1
  Si  Si16  1  0.250000  0.249078  0.841068  1
  Si  Si17  1  0.250000  0.250480  0.342054  1
  Si  Si18  1  0.750000  0.749854  0.158361  1
  Si  Si19  1  0.750000  0.749510  0.656990  1
  Si  Si20  1  0.250000  0.201432  0.544837  1
  Si  Si21  1  0.250000  0.300189  0.044975  1
  Si  Si22  1  0.750000  0.801040  0.454635  1
  Si  Si23  1  0.750000  0.696640  0.956441  1
  Os  Os24  1  0.250000  0.391096  0.679859  1
  Os  Os25  1  0.250000  0.108818  0.179837  1
  Os  Os26  1  0.750000  0.609422  0.320870  1
  Rh  Rh27  1  0.750000  0.890495  0.819843  1
