# generated using pymatgen
data_Zr5AlGeSb2
_symmetry_space_group_name_H-M   'P 1'
_cell_length_a   8.61964001
_cell_length_b   8.64454922
_cell_length_c   5.86947700
_cell_angle_alpha   90.00000000
_cell_angle_beta   90.00000000
_cell_angle_gamma   120.09564845
_symmetry_Int_Tables_number   1
_chemical_formula_structural   Zr5AlGeSb2
_chemical_formula_sum   'Zr10 Al2 Ge2 Sb4'
_cell_volume   378.39215914
_cell_formula_units_Z   2
loop_
 _symmetry_equiv_pos_site_id
 _symmetry_equiv_pos_as_xyz
  1  'x, y, z'
loop_
 _atom_site_type_symbol
 _atom_site_label
 _atom_site_symmetry_multiplicity
 _atom_site_fract_x
 _atom_site_fract_y
 _atom_site_fract_z
 _atom_site_occupancy
  Zr  Zr0  1  0.664048  0.331001  0.994902  1
  Zr  Zr1  1  0.335952  0.666954  0.994902  1
  Zr  Zr2  1  0.335952  0.666954  0.505098  1
  Zr  Zr3  1  0.664048  0.331001  0.505098  1
  Zr  Zr4  1  0.724223  0.732927  0.750000  1
  Zr  Zr5  1  0.275777  0.008703  0.750000  1
  Zr  Zr6  1  0.000000  0.268090  0.750000  1
  Zr  Zr7  1  0.261290  0.259446  0.250000  1
  Zr  Zr8  1  0.738710  0.998155  0.250000  1
  Zr  Zr9  1  0.000000  0.738670  0.250000  1
  Al  Al10  1  0.390279  0.391451  0.750000  1
  Al  Al11  1  0.609721  0.001172  0.750000  1
  Ge  Ge12  1  0.000000  0.000118  0.990840  1
  Ge  Ge13  1  0.000000  0.000118  0.509160  1
  Sb  Sb14  1  0.000000  0.612266  0.750000  1
  Sb  Sb15  1  0.601184  0.600399  0.250000  1
  Sb  Sb16  1  0.398816  0.999216  0.250000  1
  Sb  Sb17  1  0.000000  0.393359  0.250000  1
