# generated using pymatgen
data_Sc6AlTcNi
_symmetry_space_group_name_H-M   'P 1'
_cell_length_a   7.85774032
_cell_length_b   7.85774057
_cell_length_c   7.85774105
_cell_angle_alpha   113.70886349
_cell_angle_beta   111.05578100
_cell_angle_gamma   103.80592908
_symmetry_Int_Tables_number   1
_chemical_formula_structural   Sc6AlTcNi
_chemical_formula_sum   'Sc12 Al2 Tc2 Ni2'
_cell_volume   370.55971779
_cell_formula_units_Z   2
loop_
 _symmetry_equiv_pos_site_id
 _symmetry_equiv_pos_as_xyz
  1  'x, y, z'
loop_
 _atom_site_type_symbol
 _atom_site_label
 _atom_site_symmetry_multiplicity
 _atom_site_fract_x
 _atom_site_fract_y
 _atom_site_fract_z
 _atom_site_occupancy
  Sc  Sc0  1  0.050949  0.745270  0.305679  1
  Sc  Sc1  1  0.949051  0.254730  0.694321  1
  Sc  Sc2  1  0.560410  0.254730  0.305679  1
  Sc  Sc3  1  0.439590  0.745270  0.694321  1
  Sc  Sc4  1  0.668394  0.856232  0.187837  1
  Sc  Sc5  1  0.331606  0.519443  0.187837  1
  Sc  Sc6  1  0.331606  0.143768  0.812163  1
  Sc  Sc7  1  0.668394  0.480557  0.812163  1
  Sc  Sc8  1  0.182911  0.213761  0.396673  1
  Sc  Sc9  1  0.817089  0.213761  0.030850  1
  Sc  Sc10  1  0.182911  0.786239  0.969150  1
  Sc  Sc11  1  0.817089  0.786239  0.603327  1
  Al  Al12  1  0.000000  0.500000  0.500000  1
  Al  Al13  1  0.500000  0.000000  0.500000  1
  Tc  Tc14  1  0.681139  0.500000  0.181139  1
  Tc  Tc15  1  0.318861  0.500000  0.818861  1
  Ni  Ni16  1  0.875040  0.875040  0.000000  1
  Ni  Ni17  1  0.124960  0.124960  0.000000  1
