# generated using pymatgen
data_HfPa5(GaOs)6
_symmetry_space_group_name_H-M   'P 1'
_cell_length_a   7.16135712
_cell_length_b   7.16648272
_cell_length_c   7.68159817
_cell_angle_alpha   90.00019300
_cell_angle_beta   89.99912043
_cell_angle_gamma   119.99679870
_symmetry_Int_Tables_number   1
_chemical_formula_structural   HfPa5(GaOs)6
_chemical_formula_sum   'Hf1 Pa5 Ga6 Os6'
_cell_volume   341.42680607
_cell_formula_units_Z   1
loop_
 _symmetry_equiv_pos_site_id
 _symmetry_equiv_pos_as_xyz
  1  'x, y, z'
loop_
 _atom_site_type_symbol
 _atom_site_label
 _atom_site_symmetry_multiplicity
 _atom_site_fract_x
 _atom_site_fract_y
 _atom_site_fract_z
 _atom_site_occupancy
  Hf  Hf0  1  0.000061  0.596598  0.750080  1
  Pa  Pa1  1  0.412396  0.412747  0.249987  1
  Pa  Pa2  1  0.584091  0.998871  0.750029  1
  Pa  Pa3  1  0.415814  0.414961  0.750018  1
  Pa  Pa4  1  0.999896  0.584477  0.249976  1
  Pa  Pa5  1  0.587822  0.000688  0.249959  1
  Ga  Ga6  1  0.240234  0.991693  0.000201  1
  Ga  Ga7  1  0.240544  0.991631  0.499751  1
  Ga  Ga8  1  0.999975  0.256201  0.511736  1
  Ga  Ga9  1  0.000017  0.255908  0.988297  1
  Ga  Ga10  1  0.759734  0.751439  0.000279  1
  Ga  Ga11  1  0.759405  0.751132  0.499677  1
  Os  Os12  1  0.660437  0.326858  0.504111  1
  Os  Os13  1  0.999783  0.995662  0.749613  1
  Os  Os14  1  0.660447  0.326911  0.995917  1
  Os  Os15  1  0.339724  0.666844  0.996195  1
  Os  Os16  1  0.339635  0.666759  0.503814  1
  Os  Os17  1  0.999983  0.010621  0.250360  1
