# generated using pymatgen
data_TbEr4S5
_symmetry_space_group_name_H-M   'P 1'
_cell_length_a   14.01992577
_cell_length_b   14.01992623
_cell_length_c   14.01992554
_cell_angle_alpha   164.12204697
_cell_angle_beta   164.12205352
_cell_angle_gamma   22.52786209
_symmetry_Int_Tables_number   1
_chemical_formula_structural   TbEr4S5
_chemical_formula_sum   'Tb1 Er4 S5'
_cell_volume   206.23031288
_cell_formula_units_Z   1
loop_
 _symmetry_equiv_pos_site_id
 _symmetry_equiv_pos_as_xyz
  1  'x, y, z'
loop_
 _atom_site_type_symbol
 _atom_site_label
 _atom_site_symmetry_multiplicity
 _atom_site_fract_x
 _atom_site_fract_y
 _atom_site_fract_z
 _atom_site_occupancy
  Tb  Tb0  1  0.000000  0.000000  0.000000  1
  Er  Er1  1  0.400030  0.400030  0.000000  1
  Er  Er2  1  0.800120  0.800120  0.000000  1
  Er  Er3  1  0.199880  0.199880  0.000000  1
  Er  Er4  1  0.599970  0.599970  0.000000  1
  S  S5  1  0.100709  0.100709  0.000000  1
  S  S6  1  0.500000  0.500000  0.000000  1
  S  S7  1  0.899291  0.899291  0.000000  1
  S  S8  1  0.299992  0.299992  0.000000  1
  S  S9  1  0.700008  0.700008  0.000000  1
