# generated using pymatgen
data_Th2Mn4V(PRh)7
_symmetry_space_group_name_H-M   'P 1'
_cell_length_a   9.49932837
_cell_length_b   9.47370501
_cell_length_c   3.85777200
_cell_angle_alpha   90.00000000
_cell_angle_beta   90.00000000
_cell_angle_gamma   120.03425273
_symmetry_Int_Tables_number   1
_chemical_formula_structural   Th2Mn4V(PRh)7
_chemical_formula_sum   'Th2 Mn4 V1 P7 Rh7'
_cell_volume   300.55914391
_cell_formula_units_Z   1
loop_
 _symmetry_equiv_pos_site_id
 _symmetry_equiv_pos_as_xyz
  1  'x, y, z'
loop_
 _atom_site_type_symbol
 _atom_site_label
 _atom_site_symmetry_multiplicity
 _atom_site_fract_x
 _atom_site_fract_y
 _atom_site_fract_z
 _atom_site_occupancy
  Th  Th0  1  0.336057  0.668376  0.000000  1
  Th  Th1  1  0.998879  0.997474  0.500000  1
  Mn  Mn2  1  0.554650  0.069278  0.000000  1
  Mn  Mn3  1  0.934148  0.486099  0.000000  1
  Mn  Mn4  1  0.505719  0.442666  0.000000  1
  Mn  Mn5  1  0.443845  0.216657  0.500000  1
  V  V6  1  0.766294  0.542811  0.500000  1
  P  P7  1  0.769933  0.035644  0.000000  1
  P  P8  1  0.959312  0.730159  0.000000  1
  P  P9  1  0.263051  0.225349  0.000000  1
  P  P10  1  0.391501  0.945500  0.500000  1
  P  P11  1  0.060943  0.452695  0.500000  1
  P  P12  1  0.555644  0.607604  0.500000  1
  P  P13  1  0.666949  0.339385  0.000000  1
  Rh  Rh14  1  0.031872  0.269535  0.000000  1
  Rh  Rh15  1  0.730831  0.761524  0.000000  1
  Rh  Rh16  1  0.237493  0.968145  0.000000  1
  Rh  Rh17  1  0.613071  0.893993  0.500000  1
  Rh  Rh18  1  0.106547  0.719469  0.500000  1
  Rh  Rh19  1  0.278579  0.387902  0.500000  1
  Rh  Rh20  1  0.794682  0.239735  0.500000  1
