# generated using pymatgen
data_Be3AlV12(GaN)4
_symmetry_space_group_name_H-M   'P 1'
_cell_length_a   6.49009004
_cell_length_b   6.49009004
_cell_length_c   6.49009004
_cell_angle_alpha   90.00953405
_cell_angle_beta   89.99046595
_cell_angle_gamma   89.99046595
_symmetry_Int_Tables_number   1
_chemical_formula_structural   Be3AlV12(GaN)4
_chemical_formula_sum   'Be3 Al1 V12 Ga4 N4'
_cell_volume   273.37081591
_cell_formula_units_Z   1
loop_
 _symmetry_equiv_pos_site_id
 _symmetry_equiv_pos_as_xyz
  1  'x, y, z'
loop_
 _atom_site_type_symbol
 _atom_site_label
 _atom_site_symmetry_multiplicity
 _atom_site_fract_x
 _atom_site_fract_y
 _atom_site_fract_z
 _atom_site_occupancy
  Be  Be0  1  0.324000  0.178335  0.823683  1
  Be  Be1  1  0.821665  0.323683  0.176000  1
  Be  Be2  1  0.676317  0.676000  0.678335  1
  Al  Al3  1  0.178351  0.821649  0.321649  1
  V  V4  1  0.792358  0.961115  0.373784  1
  V  V5  1  0.705290  0.039490  0.873141  1
  V  V6  1  0.206854  0.457587  0.124860  1
  V  V7  1  0.294217  0.538420  0.627783  1
  V  V8  1  0.960510  0.373141  0.794710  1
  V  V9  1  0.038885  0.873784  0.707642  1
  V  V10  1  0.461580  0.127783  0.205783  1
  V  V11  1  0.542413  0.624860  0.293146  1
  V  V12  1  0.375140  0.793146  0.957587  1
  V  V13  1  0.872217  0.705783  0.038420  1
  V  V14  1  0.126216  0.207642  0.461115  1
  V  V15  1  0.626859  0.294710  0.539490  1
  Ga  Ga16  1  0.574899  0.425101  0.925101  1
  Ga  Ga17  1  0.435345  0.929953  0.584539  1
  Ga  Ga18  1  0.915461  0.564655  0.429953  1
  Ga  Ga19  1  0.070047  0.084539  0.064655  1
  N  N20  1  0.875221  0.124779  0.624779  1
  N  N21  1  0.625066  0.875352  0.123558  1
  N  N22  1  0.124648  0.623558  0.874934  1
  N  N23  1  0.376442  0.374934  0.375352  1
