# generated using pymatgen
data_La10P9Cl
_symmetry_space_group_name_H-M   'P 1'
_cell_length_a   7.24013419
_cell_length_b   8.38668769
_cell_length_c   9.35006900
_cell_angle_alpha   102.95362888
_cell_angle_beta   97.39227212
_cell_angle_gamma   106.85603438
_symmetry_Int_Tables_number   1
_chemical_formula_structural   La10P9Cl
_chemical_formula_sum   'La10 P9 Cl1'
_cell_volume   517.98277435
_cell_formula_units_Z   1
loop_
 _symmetry_equiv_pos_site_id
 _symmetry_equiv_pos_as_xyz
  1  'x, y, z'
loop_
 _atom_site_type_symbol
 _atom_site_label
 _atom_site_symmetry_multiplicity
 _atom_site_fract_x
 _atom_site_fract_y
 _atom_site_fract_z
 _atom_site_occupancy
  La  La0  1  0.901523  0.549223  0.799868  1
  La  La1  1  0.690759  0.154428  0.397688  1
  La  La2  1  0.500795  0.749377  0.001065  1
  La  La3  1  0.692665  0.639864  0.396390  1
  La  La4  1  0.307335  0.360136  0.603610  1
  La  La5  1  0.101632  0.946756  0.190925  1
  La  La6  1  0.499205  0.250623  0.998935  1
  La  La7  1  0.309241  0.845572  0.602312  1
  La  La8  1  0.098477  0.450777  0.200132  1
  La  La9  1  0.898368  0.053244  0.809075  1
  P  P10  1  0.800297  0.602327  0.102514  1
  P  P11  1  0.598606  0.197516  0.698120  1
  P  P12  1  0.401394  0.802484  0.301880  1
  P  P13  1  0.801596  0.099487  0.102641  1
  P  P14  1  0.199703  0.397673  0.897486  1
  P  P15  1  0.603540  0.702313  0.698932  1
  P  P16  1  0.396460  0.297687  0.301068  1
  P  P17  1  0.198404  0.900513  0.897359  1
  P  P18  1  0.000000  0.500000  0.500000  1
  Cl  Cl19  1  0.000000  0.000000  0.500000  1
