# generated using pymatgen
data_Rb4U2(MoH9)3
_symmetry_space_group_name_H-M   'P 1'
_cell_length_a   9.43429200
_cell_length_b   9.02208423
_cell_length_c   5.44666200
_cell_angle_alpha   90.00000000
_cell_angle_beta   90.00000000
_cell_angle_gamma   121.52324818
_symmetry_Int_Tables_number   1
_chemical_formula_structural   Rb4U2(MoH9)3
_chemical_formula_sum   'Rb4 U2 Mo3 H27'
_cell_volume   395.18856325
_cell_formula_units_Z   1
loop_
 _symmetry_equiv_pos_site_id
 _symmetry_equiv_pos_as_xyz
  1  'x, y, z'
loop_
 _atom_site_type_symbol
 _atom_site_label
 _atom_site_symmetry_multiplicity
 _atom_site_fract_x
 _atom_site_fract_y
 _atom_site_fract_z
 _atom_site_occupancy
  Rb  Rb0  1  0.255943  0.000000  0.500000  1
  Rb  Rb1  1  0.036872  0.630026  0.000000  1
  Rb  Rb2  1  0.406847  0.369974  0.000000  1
  Rb  Rb3  1  0.574215  0.000000  0.000000  1
  U  U4  1  0.987362  0.257303  0.500000  1
  U  U5  1  0.730059  0.742697  0.500000  1
  Mo  Mo6  1  0.715320  0.381990  0.500000  1
  Mo  Mo7  1  0.333328  0.618010  0.500000  1
  Mo  Mo8  1  0.956397  0.000000  0.000000  1
  H  H9  1  0.851839  0.367694  0.715683  1
  H  H10  1  0.717452  0.500559  0.757950  1
  H  H11  1  0.558609  0.242091  0.700800  1
  H  H12  1  0.216892  0.499441  0.242050  1
  H  H13  1  0.558609  0.242091  0.299200  1
  H  H14  1  0.851839  0.367694  0.284317  1
  H  H15  1  0.717452  0.500559  0.242050  1
  H  H16  1  0.316518  0.757909  0.700800  1
  H  H17  1  0.484145  0.632306  0.715683  1
  H  H18  1  0.138525  0.000000  0.000000  1
  H  H19  1  0.759795  0.797450  0.000000  1
  H  H20  1  0.962344  0.202550  0.000000  1
  H  H21  1  0.832196  0.000000  0.263690  1
  H  H22  1  0.099784  0.142350  0.773265  1
  H  H23  1  0.957433  0.857650  0.773265  1
  H  H24  1  0.957433  0.857650  0.226735  1
  H  H25  1  0.099784  0.142350  0.226735  1
  H  H26  1  0.832196  0.000000  0.736310  1
  H  H27  1  0.127764  0.569732  0.500000  1
  H  H28  1  0.519368  0.825627  0.500000  1
  H  H29  1  0.285007  0.395657  0.500000  1
  H  H30  1  0.558032  0.430268  0.500000  1
  H  H31  1  0.889350  0.604343  0.500000  1
  H  H32  1  0.693740  0.174373  0.500000  1
  H  H33  1  0.216892  0.499441  0.757950  1
  H  H34  1  0.316518  0.757909  0.299200  1
  H  H35  1  0.484145  0.632306  0.284317  1
