# generated using pymatgen
data_Sr8Ga2RuN8
_symmetry_space_group_name_H-M   'P 1'
_cell_length_a   9.90374577
_cell_length_b   5.40255739
_cell_length_c   7.55050404
_cell_angle_alpha   89.99999708
_cell_angle_beta   74.77932030
_cell_angle_gamma   74.17183442
_symmetry_Int_Tables_number   1
_chemical_formula_structural   Sr8Ga2RuN8
_chemical_formula_sum   'Sr8 Ga2 Ru1 N8'
_cell_volume   373.92462889
_cell_formula_units_Z   1
loop_
 _symmetry_equiv_pos_site_id
 _symmetry_equiv_pos_as_xyz
  1  'x, y, z'
loop_
 _atom_site_type_symbol
 _atom_site_label
 _atom_site_symmetry_multiplicity
 _atom_site_fract_x
 _atom_site_fract_y
 _atom_site_fract_z
 _atom_site_occupancy
  Sr  Sr0  1  0.067877  0.966062  0.739267  1
  Sr  Sr1  1  0.932123  0.033938  0.260733  1
  Sr  Sr2  1  0.652856  0.673572  0.492372  1
  Sr  Sr3  1  0.347144  0.326428  0.507628  1
  Sr  Sr4  1  0.804787  0.597607  0.941831  1
  Sr  Sr5  1  0.195213  0.402393  0.058169  1
  Sr  Sr6  1  0.391831  0.804085  0.188413  1
  Sr  Sr7  1  0.608169  0.195915  0.811587  1
  Ga  Ga8  1  0.374096  0.812953  0.797487  1
  Ga  Ga9  1  0.625904  0.187047  0.202513  1
  Ru  Ru10  1  0.000000  0.500000  0.500000  1
  N  N11  1  0.200434  0.899784  0.003088  1
  N  N12  1  0.799566  0.100216  0.996912  1
  N  N13  1  0.355731  0.822135  0.553963  1
  N  N14  1  0.644269  0.177865  0.446037  1
  N  N15  1  0.565832  0.717084  0.840315  1
  N  N16  1  0.434168  0.282916  0.159685  1
  N  N17  1  0.940248  0.529876  0.290676  1
  N  N18  1  0.059752  0.470124  0.709324  1
