# generated using pymatgen
data_SrBi3Te10
_symmetry_space_group_name_H-M   'P 1'
_cell_length_a   23.90827654
_cell_length_b   23.90827441
_cell_length_c   3.18827900
_cell_angle_alpha   90.00000000
_cell_angle_beta   90.00000000
_cell_angle_gamma   166.26938216
_symmetry_Int_Tables_number   1
_chemical_formula_structural   SrBi3Te10
_chemical_formula_sum   'Sr1 Bi3 Te10'
_cell_volume   432.56900444
_cell_formula_units_Z   1
loop_
 _symmetry_equiv_pos_site_id
 _symmetry_equiv_pos_as_xyz
  1  'x, y, z'
loop_
 _atom_site_type_symbol
 _atom_site_label
 _atom_site_symmetry_multiplicity
 _atom_site_fract_x
 _atom_site_fract_y
 _atom_site_fract_z
 _atom_site_occupancy
  Sr  Sr0  1  0.102073  0.897927  0.750000  1
  Bi  Bi1  1  0.683616  0.316384  0.250000  1
  Bi  Bi2  1  0.320458  0.679542  0.750000  1
  Bi  Bi3  1  0.887883  0.112117  0.250000  1
  Te  Te4  1  0.619146  0.380854  0.250000  1
  Te  Te5  1  0.386377  0.613623  0.750000  1
  Te  Te6  1  0.822469  0.177531  0.250000  1
  Te  Te7  1  0.176884  0.823116  0.750000  1
  Te  Te8  1  0.957124  0.042876  0.750000  1
  Te  Te9  1  0.040650  0.959350  0.250000  1
  Te  Te10  1  0.539752  0.460248  0.750000  1
  Te  Te11  1  0.460996  0.539004  0.250000  1
  Te  Te12  1  0.749561  0.250439  0.750000  1
  Te  Te13  1  0.253011  0.746989  0.250000  1
