# generated using pymatgen
data_Zr10Al12Ru7
_symmetry_space_group_name_H-M   'P 1'
_cell_length_a   8.95150412
_cell_length_b   8.95150349
_cell_length_c   8.95150300
_cell_angle_alpha   59.99999810
_cell_angle_beta   60.00000043
_cell_angle_gamma   60.00000222
_symmetry_Int_Tables_number   1
_chemical_formula_structural   Zr10Al12Ru7
_chemical_formula_sum   'Zr10 Al12 Ru7'
_cell_volume   507.19266829
_cell_formula_units_Z   1
loop_
 _symmetry_equiv_pos_site_id
 _symmetry_equiv_pos_as_xyz
  1  'x, y, z'
loop_
 _atom_site_type_symbol
 _atom_site_label
 _atom_site_symmetry_multiplicity
 _atom_site_fract_x
 _atom_site_fract_y
 _atom_site_fract_z
 _atom_site_occupancy
  Zr  Zr0  1  0.690602  0.690602  0.309398  1
  Zr  Zr1  1  0.309398  0.690602  0.309398  1
  Zr  Zr2  1  0.690602  0.309398  0.309398  1
  Zr  Zr3  1  0.309398  0.309398  0.690602  1
  Zr  Zr4  1  0.690602  0.309398  0.690602  1
  Zr  Zr5  1  0.309398  0.690602  0.690602  1
  Zr  Zr6  1  0.879922  0.879922  0.360233  1
  Zr  Zr7  1  0.879922  0.360233  0.879922  1
  Zr  Zr8  1  0.360233  0.879922  0.879922  1
  Zr  Zr9  1  0.879922  0.879922  0.879922  1
  Al  Al10  1  0.121443  0.121443  0.635671  1
  Al  Al11  1  0.121443  0.635671  0.121443  1
  Al  Al12  1  0.635671  0.121443  0.121443  1
  Al  Al13  1  0.121443  0.121443  0.121443  1
  Al  Al14  1  0.661945  0.661945  0.014166  1
  Al  Al15  1  0.661945  0.014166  0.661945  1
  Al  Al16  1  0.014166  0.661945  0.661945  1
  Al  Al17  1  0.661945  0.661945  0.661945  1
  Al  Al18  1  0.334655  0.334655  0.996038  1
  Al  Al19  1  0.334655  0.996038  0.334655  1
  Al  Al20  1  0.996038  0.334655  0.334655  1
  Al  Al21  1  0.334655  0.334655  0.334655  1
  Ru  Ru22  1  0.000000  0.000000  0.000000  1
  Ru  Ru23  1  0.000710  0.000710  0.499290  1
  Ru  Ru24  1  0.499290  0.000710  0.499290  1
  Ru  Ru25  1  0.000710  0.499290  0.499290  1
  Ru  Ru26  1  0.499290  0.499290  0.000710  1
  Ru  Ru27  1  0.000710  0.499290  0.000710  1
  Ru  Ru28  1  0.499290  0.000710  0.000710  1
