# generated using pymatgen
data_Yb3Pr17Si15Sn
_symmetry_space_group_name_H-M   'P 1'
_cell_length_a   7.97905426
_cell_length_b   7.97914271
_cell_length_c   15.18026356
_cell_angle_alpha   90.17632983
_cell_angle_beta   89.58337577
_cell_angle_gamma   89.57778722
_symmetry_Int_Tables_number   1
_chemical_formula_structural   Yb3Pr17Si15Sn
_chemical_formula_sum   'Yb3 Pr17 Si15 Sn1'
_cell_volume   966.41032342
_cell_formula_units_Z   1
loop_
 _symmetry_equiv_pos_site_id
 _symmetry_equiv_pos_as_xyz
  1  'x, y, z'
loop_
 _atom_site_type_symbol
 _atom_site_label
 _atom_site_symmetry_multiplicity
 _atom_site_fract_x
 _atom_site_fract_y
 _atom_site_fract_z
 _atom_site_occupancy
  Yb  Yb0  1  0.309657  0.308515  0.000817  1
  Yb  Yb1  1  0.191078  0.810136  0.250707  1
  Yb  Yb2  1  0.803611  0.189657  0.750923  1
  Pr  Pr3  1  0.691054  0.694637  0.497526  1
  Pr  Pr4  1  0.375280  0.013461  0.449459  1
  Pr  Pr5  1  0.496871  0.871583  0.699469  1
  Pr  Pr6  1  0.508711  0.119494  0.197030  1
  Pr  Pr7  1  0.877368  0.491581  0.299774  1
  Pr  Pr8  1  0.118368  0.514340  0.806556  1
  Pr  Pr9  1  0.622782  0.989264  0.949558  1
  Pr  Pr10  1  0.004564  0.383685  0.545936  1
  Pr  Pr11  1  0.990708  0.620665  0.053722  1
  Pr  Pr12  1  0.125874  0.983269  0.879161  1
  Pr  Pr13  1  0.514072  0.625780  0.126590  1
  Pr  Pr14  1  0.492634  0.383444  0.626394  1
  Pr  Pr15  1  0.627394  0.514993  0.876302  1
  Pr  Pr16  1  0.376034  0.483776  0.371553  1
  Pr  Pr17  1  0.873381  0.017114  0.374714  1
  Pr  Pr18  1  0.985571  0.125511  0.124690  1
  Pr  Pr19  1  0.007151  0.861288  0.621524  1
  Si  Si20  1  0.331437  0.698484  0.951984  1
  Si  Si21  1  0.667606  0.303650  0.449871  1
  Si  Si22  1  0.699345  0.330779  0.051223  1
  Si  Si23  1  0.305057  0.670585  0.547129  1
  Si  Si24  1  0.798367  0.834214  0.198040  1
  Si  Si25  1  0.166190  0.202253  0.300873  1
  Si  Si26  1  0.836299  0.797769  0.802692  1
  Si  Si27  1  0.287944  0.918729  0.060139  1
  Si  Si28  1  0.581279  0.789190  0.309257  1
  Si  Si29  1  0.428752  0.212460  0.814485  1
  Si  Si30  1  0.787689  0.581362  0.691653  1
  Si  Si31  1  0.212915  0.417079  0.189641  1
  Si  Si32  1  0.708021  0.079547  0.558828  1
  Si  Si33  1  0.919817  0.287397  0.942011  1
  Si  Si34  1  0.079556  0.710614  0.438621  1
  Sn  Sn35  1  0.197564  0.163698  0.691148  1
