# generated using pymatgen
data_Nd3Y(LuPt)4
_symmetry_space_group_name_H-M   'P 1'
_cell_length_a   4.78759300
_cell_length_b   7.18954880
_cell_length_c   8.75526890
_cell_angle_alpha   90.16441884
_cell_angle_beta   90.00000000
_cell_angle_gamma   90.00000000
_symmetry_Int_Tables_number   1
_chemical_formula_structural   Nd3Y(LuPt)4
_chemical_formula_sum   'Nd3 Y1 Lu4 Pt4'
_cell_volume   301.36066117
_cell_formula_units_Z   1
loop_
 _symmetry_equiv_pos_site_id
 _symmetry_equiv_pos_as_xyz
  1  'x, y, z'
loop_
 _atom_site_type_symbol
 _atom_site_label
 _atom_site_symmetry_multiplicity
 _atom_site_fract_x
 _atom_site_fract_y
 _atom_site_fract_z
 _atom_site_occupancy
  Nd  Nd0  1  0.250000  0.987378  0.325818  1
  Nd  Nd1  1  0.250000  0.488105  0.172333  1
  Nd  Nd2  1  0.750000  0.012648  0.675540  1
  Y  Y3  1  0.750000  0.512659  0.827830  1
  Lu  Lu4  1  0.250000  0.358966  0.578808  1
  Lu  Lu5  1  0.250000  0.855596  0.923324  1
  Lu  Lu6  1  0.750000  0.641933  0.426710  1
  Lu  Lu7  1  0.750000  0.142040  0.074615  1
  Pt  Pt8  1  0.250000  0.248678  0.903110  1
  Pt  Pt9  1  0.250000  0.743947  0.595316  1
  Pt  Pt10  1  0.750000  0.752892  0.091044  1
  Pt  Pt11  1  0.750000  0.255158  0.405552  1
