# generated using pymatgen
data_Na2TcO4
_symmetry_space_group_name_H-M   'P 1'
_cell_length_a   6.51611464
_cell_length_b   6.51611495
_cell_length_c   6.51611500
_cell_angle_alpha   60.00000484
_cell_angle_beta   60.00000326
_cell_angle_gamma   60.00000668
_symmetry_Int_Tables_number   1
_chemical_formula_structural   Na2TcO4
_chemical_formula_sum   'Na4 Tc2 O8'
_cell_volume   195.63711279
_cell_formula_units_Z   2
loop_
 _symmetry_equiv_pos_site_id
 _symmetry_equiv_pos_as_xyz
  1  'x, y, z'
loop_
 _atom_site_type_symbol
 _atom_site_label
 _atom_site_symmetry_multiplicity
 _atom_site_fract_x
 _atom_site_fract_y
 _atom_site_fract_z
 _atom_site_occupancy
  Na  Na0  1  0.625000  0.625000  0.625000  1
  Na  Na1  1  0.125000  0.625000  0.625000  1
  Na  Na2  1  0.625000  0.625000  0.125000  1
  Na  Na3  1  0.625000  0.125000  0.625000  1
  Tc  Tc4  1  0.000000  0.000000  0.000000  1
  Tc  Tc5  1  0.250000  0.250000  0.250000  1
  O  O6  1  0.362648  0.362648  0.362648  1
  O  O7  1  0.337944  0.887352  0.887352  1
  O  O8  1  0.887352  0.887352  0.337944  1
  O  O9  1  0.887352  0.337944  0.887352  1
  O  O10  1  0.362648  0.362648  0.912056  1
  O  O11  1  0.362648  0.912056  0.362648  1
  O  O12  1  0.887352  0.887352  0.887352  1
  O  O13  1  0.912056  0.362648  0.362648  1
