# generated using pymatgen
data_Rb4NpBiS6
_symmetry_space_group_name_H-M   'P 1'
_cell_length_a   7.38564285
_cell_length_b   7.38564354
_cell_length_c   7.95162400
_cell_angle_alpha   80.90006370
_cell_angle_beta   80.90006284
_cell_angle_gamma   120.10001182
_symmetry_Int_Tables_number   1
_chemical_formula_structural   Rb4NpBiS6
_chemical_formula_sum   'Rb4 Np1 Bi1 S6'
_cell_volume   355.92579886
_cell_formula_units_Z   1
loop_
 _symmetry_equiv_pos_site_id
 _symmetry_equiv_pos_as_xyz
  1  'x, y, z'
loop_
 _atom_site_type_symbol
 _atom_site_label
 _atom_site_symmetry_multiplicity
 _atom_site_fract_x
 _atom_site_fract_y
 _atom_site_fract_z
 _atom_site_occupancy
  Rb  Rb0  1  0.500113  0.499887  0.000000  1
  Rb  Rb1  1  0.655107  0.344893  0.500000  1
  Rb  Rb2  1  0.348003  0.651997  0.500000  1
  Rb  Rb3  1  0.995191  0.004809  0.500000  1
  Np  Np4  1  0.168611  0.831389  0.000000  1
  Bi  Bi5  1  0.832729  0.167271  0.000000  1
  S  S6  1  0.822097  0.800466  0.196440  1
  S  S7  1  0.199534  0.177903  0.803560  1
  S  S8  1  0.409194  0.040777  0.200847  1
  S  S9  1  0.548196  0.937998  0.798134  1
  S  S10  1  0.959223  0.590806  0.799153  1
  S  S11  1  0.062002  0.451804  0.201866  1
