# generated using pymatgen
data_Cs4Ag5Cl9
_symmetry_space_group_name_H-M   'P 1'
_cell_length_a   9.30483200
_cell_length_b   15.90545880
_cell_length_c   17.01837700
_cell_angle_alpha   73.79085260
_cell_angle_beta   90.00000000
_cell_angle_gamma   90.00000000
_symmetry_Int_Tables_number   1
_chemical_formula_structural   Cs4Ag5Cl9
_chemical_formula_sum   'Cs16 Ag20 Cl36'
_cell_volume   2418.55963607
_cell_formula_units_Z   4
loop_
 _symmetry_equiv_pos_site_id
 _symmetry_equiv_pos_as_xyz
  1  'x, y, z'
loop_
 _atom_site_type_symbol
 _atom_site_label
 _atom_site_symmetry_multiplicity
 _atom_site_fract_x
 _atom_site_fract_y
 _atom_site_fract_z
 _atom_site_occupancy
  Cs  Cs0  1  0.665841  0.997592  0.500383  1
  Cs  Cs1  1  0.334159  0.997592  0.000383  1
  Cs  Cs2  1  0.840164  0.984770  0.793850  1
  Cs  Cs3  1  0.159836  0.984770  0.293850  1
  Cs  Cs4  1  0.516545  0.472361  0.976949  1
  Cs  Cs5  1  0.483455  0.472361  0.476949  1
  Cs  Cs6  1  0.979051  0.477645  0.612996  1
  Cs  Cs7  1  0.020949  0.477645  0.112996  1
  Cs  Cs8  1  0.835153  0.731161  0.382286  1
  Cs  Cs9  1  0.164847  0.731161  0.882286  1
  Cs  Cs10  1  0.654172  0.743800  0.082637  1
  Cs  Cs11  1  0.345828  0.743800  0.582637  1
  Cs  Cs12  1  0.519302  0.256193  0.263983  1
  Cs  Cs13  1  0.480698  0.256193  0.763983  1
  Cs  Cs14  1  0.984091  0.261798  0.901351  1
  Cs  Cs15  1  0.015909  0.261798  0.401351  1
  Ag  Ag16  1  0.390954  0.557855  0.211741  1
  Ag  Ag17  1  0.609046  0.557855  0.711741  1
  Ag  Ag18  1  0.118587  0.557963  0.333222  1
  Ag  Ag19  1  0.881413  0.557963  0.833222  1
  Ag  Ag20  1  0.626183  0.168593  0.046434  1
  Ag  Ag21  1  0.373817  0.168593  0.546434  1
  Ag  Ag22  1  0.894796  0.173131  0.165823  1
  Ag  Ag23  1  0.105204  0.173131  0.665823  1
  Ag  Ag24  1  0.370351  0.749937  0.330352  1
  Ag  Ag25  1  0.629649  0.749937  0.830352  1
  Ag  Ag26  1  0.900589  0.776212  0.620741  1
  Ag  Ag27  1  0.099411  0.776212  0.120741  1
  Ag  Ag28  1  0.636075  0.975091  0.261879  1
  Ag  Ag29  1  0.363925  0.975091  0.761879  1
  Ag  Ag30  1  0.851504  0.988526  0.054345  1
  Ag  Ag31  1  0.148496  0.988526  0.554345  1
  Ag  Ag32  1  0.755934  0.513419  0.287330  1
  Ag  Ag33  1  0.244066  0.513419  0.787330  1
  Ag  Ag34  1  0.257893  0.221545  0.089330  1
  Ag  Ag35  1  0.742107  0.221545  0.589330  1
  Cl  Cl36  1  0.652932  0.468380  0.173143  1
  Cl  Cl37  1  0.347068  0.468380  0.673143  1
  Cl  Cl38  1  0.876332  0.475087  0.421186  1
  Cl  Cl39  1  0.123668  0.475087  0.921186  1
  Cl  Cl40  1  0.812208  0.093987  0.307946  1
  Cl  Cl41  1  0.187792  0.093987  0.807946  1
  Cl  Cl42  1  0.695975  0.086648  0.941623  1
  Cl  Cl43  1  0.304025  0.086648  0.441623  1
  Cl  Cl44  1  0.299932  0.841121  0.184397  1
  Cl  Cl45  1  0.700068  0.841121  0.684397  1
  Cl  Cl46  1  0.802530  0.885786  0.195329  1
  Cl  Cl47  1  0.197470  0.885786  0.695329  1
  Cl  Cl48  1  0.991615  0.870834  0.988243  1
  Cl  Cl49  1  0.008385  0.870834  0.488243  1
  Cl  Cl50  1  0.505594  0.866848  0.387277  1
  Cl  Cl51  1  0.494406  0.866848  0.887277  1
  Cl  Cl52  1  0.960478  0.644812  0.208649  1
  Cl  Cl53  1  0.039522  0.644812  0.708649  1
  Cl  Cl54  1  0.555835  0.639307  0.293020  1
  Cl  Cl55  1  0.444165  0.639307  0.793020  1
  Cl  Cl56  1  0.321396  0.627802  0.066955  1
  Cl  Cl57  1  0.678604  0.627802  0.566955  1
  Cl  Cl58  1  0.199152  0.645420  0.432539  1
  Cl  Cl59  1  0.800848  0.645420  0.932539  1
  Cl  Cl60  1  0.147394  0.260880  0.204925  1
  Cl  Cl61  1  0.852606  0.260880  0.704925  1
  Cl  Cl62  1  0.379068  0.256868  0.956824  1
  Cl  Cl63  1  0.620932  0.256868  0.456824  1
  Cl  Cl64  1  0.460553  0.087253  0.167994  1
  Cl  Cl65  1  0.539447  0.087253  0.667994  1
  Cl  Cl66  1  0.057800  0.092464  0.083504  1
  Cl  Cl67  1  0.942200  0.092464  0.583504  1
  Cl  Cl68  1  0.766808  0.299581  0.064909  1
  Cl  Cl69  1  0.233192  0.299581  0.564909  1
  Cl  Cl70  1  0.266710  0.430330  0.313402  1
  Cl  Cl71  1  0.733290  0.430330  0.813402  1
