# generated using pymatgen
data_LiTb2Pa(Co4P3)2
_symmetry_space_group_name_H-M   'P 1'
_cell_length_a   3.73336000
_cell_length_b   10.59159000
_cell_length_c   12.18301500
_cell_angle_alpha   90.00000000
_cell_angle_beta   90.00000000
_cell_angle_gamma   90.00000000
_symmetry_Int_Tables_number   1
_chemical_formula_structural   LiTb2Pa(Co4P3)2
_chemical_formula_sum   'Li2 Tb4 Pa2 Co16 P12'
_cell_volume   481.74344042
_cell_formula_units_Z   2
loop_
 _symmetry_equiv_pos_site_id
 _symmetry_equiv_pos_as_xyz
  1  'x, y, z'
loop_
 _atom_site_type_symbol
 _atom_site_label
 _atom_site_symmetry_multiplicity
 _atom_site_fract_x
 _atom_site_fract_y
 _atom_site_fract_z
 _atom_site_occupancy
  Li  Li0  1  0.500000  0.500000  0.150421  1
  Li  Li1  1  0.000000  0.000000  0.849579  1
  Tb  Tb2  1  0.500000  0.816221  0.204923  1
  Tb  Tb3  1  0.500000  0.183779  0.204923  1
  Tb  Tb4  1  0.000000  0.683779  0.795077  1
  Tb  Tb5  1  0.000000  0.316221  0.795077  1
  Pa  Pa6  1  0.000000  0.500000  0.528073  1
  Pa  Pa7  1  0.500000  0.000000  0.471927  1
  Co  Co8  1  0.500000  0.500000  0.696492  1
  Co  Co9  1  0.000000  0.000000  0.303508  1
  Co  Co10  1  0.000000  0.500000  0.985395  1
  Co  Co11  1  0.500000  0.000000  0.014605  1
  Co  Co12  1  0.500000  0.333423  0.995690  1
  Co  Co13  1  0.500000  0.666577  0.995690  1
  Co  Co14  1  0.000000  0.166577  0.004310  1
  Co  Co15  1  0.000000  0.833423  0.004310  1
  Co  Co16  1  0.500000  0.299943  0.432799  1
  Co  Co17  1  0.500000  0.700057  0.432799  1
  Co  Co18  1  0.000000  0.200057  0.567201  1
  Co  Co19  1  0.000000  0.799943  0.567201  1
  Co  Co20  1  0.500000  0.879040  0.707148  1
  Co  Co21  1  0.500000  0.120960  0.707148  1
  Co  Co22  1  0.000000  0.620960  0.292852  1
  Co  Co23  1  0.000000  0.379040  0.292852  1
  P  P24  1  0.500000  0.500000  0.881783  1
  P  P25  1  0.000000  0.000000  0.118217  1
  P  P26  1  0.500000  0.500000  0.343980  1
  P  P27  1  0.000000  0.000000  0.656020  1
  P  P28  1  0.500000  0.306351  0.616113  1
  P  P29  1  0.500000  0.693649  0.616113  1
  P  P30  1  0.000000  0.193649  0.383887  1
  P  P31  1  0.000000  0.806351  0.383887  1
  P  P32  1  0.500000  0.844458  0.895002  1
  P  P33  1  0.500000  0.155542  0.895002  1
  P  P34  1  0.000000  0.655542  0.104998  1
  P  P35  1  0.000000  0.344458  0.104998  1
