# generated using pymatgen
data_SrP12IrOs3
_symmetry_space_group_name_H-M   'P 1'
_cell_length_a   7.06027706
_cell_length_b   7.04626975
_cell_length_c   7.04627013
_cell_angle_alpha   109.43092030
_cell_angle_beta   109.51149036
_cell_angle_gamma   109.51149246
_symmetry_Int_Tables_number   1
_chemical_formula_structural   SrP12IrOs3
_chemical_formula_sum   'Sr1 P12 Ir1 Os3'
_cell_volume   269.71327390
_cell_formula_units_Z   1
loop_
 _symmetry_equiv_pos_site_id
 _symmetry_equiv_pos_as_xyz
  1  'x, y, z'
loop_
 _atom_site_type_symbol
 _atom_site_label
 _atom_site_symmetry_multiplicity
 _atom_site_fract_x
 _atom_site_fract_y
 _atom_site_fract_z
 _atom_site_occupancy
  Sr  Sr0  1  0.000000  0.000000  0.000000  1
  P  P1  1  0.856751  0.641939  0.499094  1
  P  P2  1  0.143249  0.358061  0.500906  1
  P  P3  1  0.139865  0.639069  0.783068  1
  P  P4  1  0.860135  0.360931  0.216932  1
  P  P5  1  0.642344  0.499094  0.857157  1
  P  P6  1  0.357656  0.500906  0.142843  1
  P  P7  1  0.643202  0.783068  0.143999  1
  P  P8  1  0.356798  0.216932  0.856001  1
  P  P9  1  0.499203  0.856001  0.639069  1
  P  P10  1  0.500797  0.143999  0.360931  1
  P  P11  1  0.785188  0.142843  0.641939  1
  P  P12  1  0.214812  0.857157  0.358061  1
  Ir  Ir13  1  0.500000  0.000000  0.000000  1
  Os  Os14  1  0.500000  0.500000  0.500000  1
  Os  Os15  1  0.000000  0.500000  0.000000  1
  Os  Os16  1  0.000000  0.000000  0.500000  1
