# generated using pymatgen
data_LaGa2BRu2
_symmetry_space_group_name_H-M   'P 1'
_cell_length_a   4.22314800
_cell_length_b   4.22314800
_cell_length_c   5.66107900
_cell_angle_alpha   90.00000000
_cell_angle_beta   90.00000000
_cell_angle_gamma   90.00000000
_symmetry_Int_Tables_number   1
_chemical_formula_structural   LaGa2BRu2
_chemical_formula_sum   'La1 Ga2 B1 Ru2'
_cell_volume   100.96522525
_cell_formula_units_Z   1
loop_
 _symmetry_equiv_pos_site_id
 _symmetry_equiv_pos_as_xyz
  1  'x, y, z'
loop_
 _atom_site_type_symbol
 _atom_site_label
 _atom_site_symmetry_multiplicity
 _atom_site_fract_x
 _atom_site_fract_y
 _atom_site_fract_z
 _atom_site_occupancy
  La  La0  1  0.000000  0.000000  0.500000  1
  Ga  Ga1  1  0.500000  0.500000  0.264943  1
  Ga  Ga2  1  0.500000  0.500000  0.735056  1
  B  B3  1  0.000000  0.000000  0.000000  1
  Ru  Ru4  1  0.500000  0.000000  0.000000  1
  Ru  Ru5  1  0.000000  0.500000  0.000000  1
