# generated using pymatgen
data_HoPa3(B4Os)4
_symmetry_space_group_name_H-M   'P 1'
_cell_length_a   3.59619000
_cell_length_b   5.99173931
_cell_length_c   11.61828260
_cell_angle_alpha   89.96305306
_cell_angle_beta   90.00000000
_cell_angle_gamma   90.00000000
_symmetry_Int_Tables_number   1
_chemical_formula_structural   HoPa3(B4Os)4
_chemical_formula_sum   'Ho1 Pa3 B16 Os4'
_cell_volume   250.34411387
_cell_formula_units_Z   1
loop_
 _symmetry_equiv_pos_site_id
 _symmetry_equiv_pos_as_xyz
  1  'x, y, z'
loop_
 _atom_site_type_symbol
 _atom_site_label
 _atom_site_symmetry_multiplicity
 _atom_site_fract_x
 _atom_site_fract_y
 _atom_site_fract_z
 _atom_site_occupancy
  Ho  Ho0  1  0.000000  0.870381  0.851020  1
  Pa  Pa1  1  0.000000  0.628643  0.350357  1
  Pa  Pa2  1  0.000000  0.371196  0.650905  1
  Pa  Pa3  1  0.000000  0.129087  0.148861  1
  B  B4  1  0.500000  0.789391  0.188063  1
  B  B5  1  0.500000  0.210845  0.812556  1
  B  B6  1  0.500000  0.290756  0.311342  1
  B  B7  1  0.500000  0.710233  0.687639  1
  B  B8  1  0.500000  0.864811  0.030529  1
  B  B9  1  0.500000  0.136170  0.967712  1
  B  B10  1  0.500000  0.364930  0.468095  1
  B  B11  1  0.500000  0.633517  0.532922  1
  B  B12  1  0.500000  0.886178  0.454721  1
  B  B13  1  0.500000  0.111986  0.546778  1
  B  B14  1  0.500000  0.387404  0.044738  1
  B  B15  1  0.500000  0.613899  0.953236  1
  B  B16  1  0.500000  0.972022  0.308630  1
  B  B17  1  0.500000  0.025784  0.691821  1
  B  B18  1  0.500000  0.472393  0.190906  1
  B  B19  1  0.500000  0.528297  0.809300  1
  Os  Os20  1  0.000000  0.643186  0.097177  1
  Os  Os21  1  0.000000  0.357703  0.905693  1
  Os  Os22  1  0.000000  0.142805  0.402577  1
  Os  Os23  1  0.000000  0.858383  0.594423  1
