# generated using pymatgen
data_Dy4Ga20TcRu5
_symmetry_space_group_name_H-M   'P 1'
_cell_length_a   8.96464594
_cell_length_b   8.96464594
_cell_length_c   6.43608000
_cell_angle_alpha   90.00000000
_cell_angle_beta   90.00000000
_cell_angle_gamma   90.10746341
_symmetry_Int_Tables_number   1
_chemical_formula_structural   Dy4Ga20TcRu5
_chemical_formula_sum   'Dy4 Ga20 Tc1 Ru5'
_cell_volume   517.23386692
_cell_formula_units_Z   1
loop_
 _symmetry_equiv_pos_site_id
 _symmetry_equiv_pos_as_xyz
  1  'x, y, z'
loop_
 _atom_site_type_symbol
 _atom_site_label
 _atom_site_symmetry_multiplicity
 _atom_site_fract_x
 _atom_site_fract_y
 _atom_site_fract_z
 _atom_site_occupancy
  Dy  Dy0  1  0.182083  0.682083  0.000000  1
  Dy  Dy1  1  0.817334  0.317334  0.000000  1
  Dy  Dy2  1  0.683446  0.818245  0.000000  1
  Dy  Dy3  1  0.318245  0.183446  0.000000  1
  Ga  Ga4  1  0.061301  0.206344  0.707190  1
  Ga  Ga5  1  0.939173  0.793576  0.705589  1
  Ga  Ga6  1  0.561256  0.293892  0.706271  1
  Ga  Ga7  1  0.439616  0.705384  0.707023  1
  Ga  Ga8  1  0.793892  0.061256  0.706271  1
  Ga  Ga9  1  0.205384  0.939616  0.707023  1
  Ga  Ga10  1  0.706344  0.561301  0.707190  1
  Ga  Ga11  1  0.293576  0.439173  0.705589  1
  Ga  Ga12  1  0.939173  0.793576  0.294411  1
  Ga  Ga13  1  0.061301  0.206344  0.292810  1
  Ga  Ga14  1  0.439616  0.705384  0.292977  1
  Ga  Ga15  1  0.561256  0.293892  0.293729  1
  Ga  Ga16  1  0.205384  0.939616  0.292977  1
  Ga  Ga17  1  0.793892  0.061256  0.293729  1
  Ga  Ga18  1  0.293576  0.439173  0.294411  1
  Ga  Ga19  1  0.706344  0.561301  0.292810  1
  Ga  Ga20  1  0.999457  0.499457  0.709005  1
  Ga  Ga21  1  0.500288  0.000288  0.710301  1
  Ga  Ga22  1  0.999457  0.499457  0.290995  1
  Ga  Ga23  1  0.500288  0.000288  0.289699  1
  Tc  Tc24  1  0.179352  0.679352  0.500000  1
  Ru  Ru25  1  0.821174  0.321174  0.500000  1
  Ru  Ru26  1  0.677575  0.821713  0.500000  1
  Ru  Ru27  1  0.321713  0.177575  0.500000  1
  Ru  Ru28  1  0.998994  0.999510  0.000000  1
  Ru  Ru29  1  0.499510  0.498994  0.000000  1
