# generated using pymatgen
data_Tb4MnTc4Os3
_symmetry_space_group_name_H-M   'P 1'
_cell_length_a   5.32854395
_cell_length_b   5.23368125
_cell_length_c   9.00316600
_cell_angle_alpha   90.00000000
_cell_angle_beta   90.00000000
_cell_angle_gamma   118.81995668
_symmetry_Int_Tables_number   1
_chemical_formula_structural   Tb4MnTc4Os3
_chemical_formula_sum   'Tb4 Mn1 Tc4 Os3'
_cell_volume   219.98040955
_cell_formula_units_Z   1
loop_
 _symmetry_equiv_pos_site_id
 _symmetry_equiv_pos_as_xyz
  1  'x, y, z'
loop_
 _atom_site_type_symbol
 _atom_site_label
 _atom_site_symmetry_multiplicity
 _atom_site_fract_x
 _atom_site_fract_y
 _atom_site_fract_z
 _atom_site_occupancy
  Tb  Tb0  1  0.667463  0.333891  0.561263  1
  Tb  Tb1  1  0.329131  0.665530  0.437673  1
  Tb  Tb2  1  0.329131  0.665530  0.062327  1
  Tb  Tb3  1  0.667463  0.333891  0.938737  1
  Mn  Mn4  1  0.340923  0.170741  0.250000  1
  Tc  Tc5  1  0.169696  0.338839  0.750000  1
  Tc  Tc6  1  0.170718  0.827119  0.750000  1
  Tc  Tc7  1  0.664159  0.832279  0.750000  1
  Tc  Tc8  1  0.836942  0.171743  0.250000  1
  Os  Os9  1  0.994735  0.002082  0.495541  1
  Os  Os10  1  0.994735  0.002082  0.004459  1
  Os  Os11  1  0.834905  0.656270  0.250000  1
