# generated using pymatgen
data_TbNd2Pa(Pd2Pb)2
_symmetry_space_group_name_H-M   'P 1'
_cell_length_a   3.68007600
_cell_length_b   8.06116143
_cell_length_c   8.05092152
_cell_angle_alpha   91.38671170
_cell_angle_beta   90.00000000
_cell_angle_gamma   90.00000000
_symmetry_Int_Tables_number   1
_chemical_formula_structural   TbNd2Pa(Pd2Pb)2
_chemical_formula_sum   'Tb1 Nd2 Pa1 Pd4 Pb2'
_cell_volume   238.76616751
_cell_formula_units_Z   1
loop_
 _symmetry_equiv_pos_site_id
 _symmetry_equiv_pos_as_xyz
  1  'x, y, z'
loop_
 _atom_site_type_symbol
 _atom_site_label
 _atom_site_symmetry_multiplicity
 _atom_site_fract_x
 _atom_site_fract_y
 _atom_site_fract_z
 _atom_site_occupancy
  Tb  Tb0  1  0.500000  0.326486  0.170079  1
  Nd  Nd1  1  0.500000  0.825644  0.324956  1
  Nd  Nd2  1  0.500000  0.669747  0.827043  1
  Pa  Pa3  1  0.500000  0.173117  0.669723  1
  Pd  Pd4  1  0.000000  0.610599  0.121343  1
  Pd  Pd5  1  0.000000  0.357929  0.864641  1
  Pd  Pd6  1  0.000000  0.896020  0.633681  1
  Pd  Pd7  1  0.000000  0.138004  0.389186  1
  Pb  Pb8  1  0.000000  0.999924  0.005070  1
  Pb  Pb9  1  0.000000  0.502529  0.494278  1
