# generated using pymatgen
data_ScVCo3Sn2
_symmetry_space_group_name_H-M   'P 1'
_cell_length_a   7.45954875
_cell_length_b   7.45954880
_cell_length_c   7.45955034
_cell_angle_alpha   33.02641400
_cell_angle_beta   33.02641204
_cell_angle_gamma   33.02640985
_symmetry_Int_Tables_number   1
_chemical_formula_structural   ScVCo3Sn2
_chemical_formula_sum   'Sc1 V1 Co3 Sn2'
_cell_volume   109.73320329
_cell_formula_units_Z   1
loop_
 _symmetry_equiv_pos_site_id
 _symmetry_equiv_pos_as_xyz
  1  'x, y, z'
loop_
 _atom_site_type_symbol
 _atom_site_label
 _atom_site_symmetry_multiplicity
 _atom_site_fract_x
 _atom_site_fract_y
 _atom_site_fract_z
 _atom_site_occupancy
  Sc  Sc0  1  0.246632  0.246632  0.246632  1
  V  V1  1  0.751618  0.751618  0.751618  1
  Co  Co2  1  0.117320  0.117320  0.117320  1
  Co  Co3  1  0.634307  0.634307  0.634307  1
  Co  Co4  1  0.377321  0.377321  0.377321  1
  Sn  Sn5  1  0.996858  0.996858  0.996858  1
  Sn  Sn6  1  0.500946  0.500946  0.500946  1
