# generated using pymatgen
data_Tb3Yb6YSn8
_symmetry_space_group_name_H-M   'P 1'
_cell_length_a   7.86494100
_cell_length_b   8.44002408
_cell_length_c   16.09817916
_cell_angle_alpha   90.01599112
_cell_angle_beta   90.00000000
_cell_angle_gamma   90.00000000
_symmetry_Int_Tables_number   1
_chemical_formula_structural   Tb3Yb6YSn8
_chemical_formula_sum   'Tb6 Yb12 Y2 Sn16'
_cell_volume   1068.60178254
_cell_formula_units_Z   2
loop_
 _symmetry_equiv_pos_site_id
 _symmetry_equiv_pos_as_xyz
  1  'x, y, z'
loop_
 _atom_site_type_symbol
 _atom_site_label
 _atom_site_symmetry_multiplicity
 _atom_site_fract_x
 _atom_site_fract_y
 _atom_site_fract_z
 _atom_site_occupancy
  Tb  Tb0  1  0.329722  0.832919  0.122033  1
  Tb  Tb1  1  0.829722  0.667081  0.377967  1
  Tb  Tb2  1  0.329783  0.832863  0.377939  1
  Tb  Tb3  1  0.829783  0.667137  0.122061  1
  Tb  Tb4  1  0.670087  0.167224  0.877784  1
  Tb  Tb5  1  0.170087  0.332776  0.622216  1
  Yb  Yb6  1  0.502398  0.687417  0.593234  1
  Yb  Yb7  1  0.002398  0.812583  0.906766  1
  Yb  Yb8  1  0.497632  0.312647  0.093241  1
  Yb  Yb9  1  0.997632  0.187353  0.406759  1
  Yb  Yb10  1  0.497686  0.312610  0.406780  1
  Yb  Yb11  1  0.997686  0.187390  0.093220  1
  Yb  Yb12  1  0.502326  0.687383  0.906720  1
  Yb  Yb13  1  0.002326  0.812617  0.593280  1
  Yb  Yb14  1  0.832667  0.511299  0.749973  1
  Yb  Yb15  1  0.332667  0.988701  0.750027  1
  Yb  Yb16  1  0.167315  0.488653  0.249968  1
  Yb  Yb17  1  0.667315  0.011347  0.250032  1
  Y  Y18  1  0.670471  0.166995  0.622142  1
  Y  Y19  1  0.170471  0.333005  0.877858  1
  Sn  Sn20  1  0.671790  0.965002  0.459708  1
  Sn  Sn21  1  0.171790  0.534998  0.040292  1
  Sn  Sn22  1  0.327895  0.035144  0.959542  1
  Sn  Sn23  1  0.827895  0.464856  0.540458  1
  Sn  Sn24  1  0.328575  0.035246  0.540495  1
  Sn  Sn25  1  0.828575  0.464754  0.959505  1
  Sn  Sn26  1  0.671702  0.964906  0.040402  1
  Sn  Sn27  1  0.171702  0.535094  0.459598  1
  Sn  Sn28  1  0.467859  0.376838  0.750219  1
  Sn  Sn29  1  0.967859  0.123162  0.749781  1
  Sn  Sn30  1  0.532133  0.623054  0.250010  1
  Sn  Sn31  1  0.032133  0.876946  0.249990  1
  Sn  Sn32  1  0.713135  0.872312  0.749989  1
  Sn  Sn33  1  0.213135  0.627688  0.750011  1
  Sn  Sn34  1  0.286824  0.127704  0.250011  1
  Sn  Sn35  1  0.786824  0.372296  0.249989  1
