# generated using pymatgen
data_Tb8Ho12Si15P
_symmetry_space_group_name_H-M   'P 1'
_cell_length_a   7.47798862
_cell_length_b   7.63909901
_cell_length_c   14.59566012
_cell_angle_alpha   89.79653834
_cell_angle_beta   86.33496426
_cell_angle_gamma   89.96738703
_symmetry_Int_Tables_number   1
_chemical_formula_structural   Tb8Ho12Si15P
_chemical_formula_sum   'Tb8 Ho12 Si15 P1'
_cell_volume   832.06794985
_cell_formula_units_Z   1
loop_
 _symmetry_equiv_pos_site_id
 _symmetry_equiv_pos_as_xyz
  1  'x, y, z'
loop_
 _atom_site_type_symbol
 _atom_site_label
 _atom_site_symmetry_multiplicity
 _atom_site_fract_x
 _atom_site_fract_y
 _atom_site_fract_z
 _atom_site_occupancy
  Tb  Tb0  1  0.026677  0.185405  0.101807  1
  Tb  Tb1  1  0.974158  0.815903  0.898080  1
  Tb  Tb2  1  0.474499  0.685045  0.898364  1
  Tb  Tb3  1  0.000889  0.819154  0.598668  1
  Tb  Tb4  1  0.525951  0.315596  0.101399  1
  Tb  Tb5  1  0.995649  0.176016  0.399402  1
  Tb  Tb6  1  0.497687  0.316426  0.401083  1
  Tb  Tb7  1  0.501777  0.680789  0.598272  1
  Ho  Ho8  1  0.169668  0.506628  0.746453  1
  Ho  Ho9  1  0.831022  0.494624  0.255059  1
  Ho  Ho10  1  0.329362  0.004477  0.255011  1
  Ho  Ho11  1  0.670221  0.995076  0.744934  1
  Ho  Ho12  1  0.354248  0.168902  0.619062  1
  Ho  Ho13  1  0.644640  0.834872  0.379570  1
  Ho  Ho14  1  0.146627  0.658177  0.384999  1
  Ho  Ho15  1  0.674881  0.823038  0.122794  1
  Ho  Ho16  1  0.858586  0.336670  0.617127  1
  Ho  Ho17  1  0.325239  0.177446  0.876776  1
  Ho  Ho18  1  0.825265  0.323184  0.877194  1
  Ho  Ho19  1  0.174637  0.677120  0.122469  1
  Si  Si20  1  0.043478  0.110041  0.750715  1
  Si  Si21  1  0.957294  0.889007  0.248734  1
  Si  Si22  1  0.455887  0.609056  0.248952  1
  Si  Si23  1  0.544564  0.391009  0.750198  1
  Si  Si24  1  0.285162  0.872953  0.750812  1
  Si  Si25  1  0.715223  0.128063  0.248268  1
  Si  Si26  1  0.215486  0.371871  0.248814  1
  Si  Si27  1  0.785010  0.627583  0.750870  1
  Si  Si28  1  0.791288  0.535033  0.456534  1
  Si  Si29  1  0.295831  0.962189  0.458671  1
  Si  Si30  1  0.855058  0.529262  0.041647  1
  Si  Si31  1  0.701153  0.037792  0.542072  1
  Si  Si32  1  0.144731  0.472049  0.957646  1
  Si  Si33  1  0.643830  0.028825  0.957601  1
  Si  Si34  1  0.355467  0.971763  0.042127  1
  P  P35  1  0.208853  0.468955  0.547817  1
