# generated using pymatgen
data_DyHo15MgAg3Ir4
_symmetry_space_group_name_H-M   'P 1'
_cell_length_a   9.54247271
_cell_length_b   9.56849162
_cell_length_c   9.54454900
_cell_angle_alpha   60.08273538
_cell_angle_beta   59.99279865
_cell_angle_gamma   60.03880517
_symmetry_Int_Tables_number   1
_chemical_formula_structural   DyHo15MgAg3Ir4
_chemical_formula_sum   'Dy1 Ho15 Mg1 Ag3 Ir4'
_cell_volume   616.76442644
_cell_formula_units_Z   1
loop_
 _symmetry_equiv_pos_site_id
 _symmetry_equiv_pos_as_xyz
  1  'x, y, z'
loop_
 _atom_site_type_symbol
 _atom_site_label
 _atom_site_symmetry_multiplicity
 _atom_site_fract_x
 _atom_site_fract_y
 _atom_site_fract_z
 _atom_site_occupancy
  Dy  Dy0  1  0.934982  0.938090  0.563464  1
  Ho  Ho1  1  0.350384  0.348675  0.348280  1
  Ho  Ho2  1  0.350384  0.348675  0.952659  1
  Ho  Ho3  1  0.350461  0.952944  0.348297  1
  Ho  Ho4  1  0.940781  0.353723  0.352747  1
  Ho  Ho5  1  0.809494  0.189013  0.190074  1
  Ho  Ho6  1  0.186037  0.812631  0.813351  1
  Ho  Ho7  1  0.186037  0.812631  0.187980  1
  Ho  Ho8  1  0.809494  0.189013  0.811419  1
  Ho  Ho9  1  0.186279  0.187266  0.813228  1
  Ho  Ho10  1  0.809327  0.810527  0.190073  1
  Ho  Ho11  1  0.934449  0.563112  0.563419  1
  Ho  Ho12  1  0.563145  0.936797  0.936930  1
  Ho  Ho13  1  0.563145  0.936797  0.563127  1
  Ho  Ho14  1  0.934449  0.563112  0.939021  1
  Ho  Ho15  1  0.562714  0.563849  0.936718  1
  Mg  Mg16  1  0.285178  0.571671  0.571575  1
  Ag  Ag17  1  0.582381  0.584332  0.583838  1
  Ag  Ag18  1  0.582381  0.584332  0.249450  1
  Ag  Ag19  1  0.582236  0.249928  0.583918  1
  Ir  Ir20  1  0.140445  0.143759  0.142394  1
  Ir  Ir21  1  0.140445  0.143759  0.573401  1
  Ir  Ir22  1  0.141000  0.573058  0.142971  1
  Ir  Ir23  1  0.574371  0.142304  0.141662  1
