# generated using pymatgen
data_Er3(In2Pd)2
_symmetry_space_group_name_H-M   'P 1'
_cell_length_a   7.85738800
_cell_length_b   7.85738833
_cell_length_c   3.83667900
_cell_angle_alpha   90.00000000
_cell_angle_beta   90.00000000
_cell_angle_gamma   120.00000589
_symmetry_Int_Tables_number   1
_chemical_formula_structural   Er3(In2Pd)2
_chemical_formula_sum   'Er3 In4 Pd2'
_cell_volume   205.13628576
_cell_formula_units_Z   1
loop_
 _symmetry_equiv_pos_site_id
 _symmetry_equiv_pos_as_xyz
  1  'x, y, z'
loop_
 _atom_site_type_symbol
 _atom_site_label
 _atom_site_symmetry_multiplicity
 _atom_site_fract_x
 _atom_site_fract_y
 _atom_site_fract_z
 _atom_site_occupancy
  Er  Er0  1  0.693239  0.948821  0.500000  1
  Er  Er1  1  0.255582  0.306761  0.500000  1
  Er  Er2  1  0.051179  0.744418  0.500000  1
  In  In3  1  0.925885  0.334116  0.000000  1
  In  In4  1  0.408232  0.074115  0.000000  1
  In  In5  1  0.665884  0.591768  0.000000  1
  In  In6  1  0.333333  0.666667  0.000000  1
  Pd  Pd7  1  0.666667  0.333333  0.500000  1
  Pd  Pd8  1  0.000000  0.000000  0.000000  1
