# generated using pymatgen
data_Ba4Np3CdO16
_symmetry_space_group_name_H-M   'P 1'
_cell_length_a   5.50359222
_cell_length_b   8.17675168
_cell_length_c   8.27488800
_cell_angle_alpha   91.90575843
_cell_angle_beta   91.33291839
_cell_angle_gamma   88.66525730
_symmetry_Int_Tables_number   1
_chemical_formula_structural   Ba4Np3CdO16
_chemical_formula_sum   'Ba4 Np3 Cd1 O16'
_cell_volume   371.98123333
_cell_formula_units_Z   1
loop_
 _symmetry_equiv_pos_site_id
 _symmetry_equiv_pos_as_xyz
  1  'x, y, z'
loop_
 _atom_site_type_symbol
 _atom_site_label
 _atom_site_symmetry_multiplicity
 _atom_site_fract_x
 _atom_site_fract_y
 _atom_site_fract_z
 _atom_site_occupancy
  Ba  Ba0  1  0.461108  0.192735  0.233313  1
  Ba  Ba1  1  0.481090  0.298187  0.754698  1
  Ba  Ba2  1  0.518910  0.701813  0.245302  1
  Ba  Ba3  1  0.538892  0.807265  0.766687  1
  Np  Np4  1  0.000000  0.500000  0.000000  1
  Np  Np5  1  0.000000  0.500000  0.500000  1
  Np  Np6  1  0.000000  0.000000  0.500000  1
  Cd  Cd7  1  0.000000  0.000000  0.000000  1
  O  O8  1  0.118628  0.980962  0.720665  1
  O  O9  1  0.124395  0.513472  0.259954  1
  O  O10  1  0.875605  0.486528  0.740046  1
  O  O11  1  0.881372  0.019038  0.279335  1
  O  O12  1  0.144733  0.261043  0.503482  1
  O  O13  1  0.861510  0.721751  0.014379  1
  O  O14  1  0.855267  0.738957  0.496518  1
  O  O15  1  0.138490  0.278249  0.985621  1
  O  O16  1  0.364927  0.924833  0.057493  1
  O  O17  1  0.301558  0.579993  0.934542  1
  O  O18  1  0.699473  0.420748  0.425525  1
  O  O19  1  0.692480  0.071036  0.574436  1
  O  O20  1  0.635073  0.075167  0.942507  1
  O  O21  1  0.698442  0.420007  0.065458  1
  O  O22  1  0.300527  0.579252  0.574475  1
  O  O23  1  0.307520  0.928964  0.425564  1
