# generated using pymatgen
data_YbU2TaSb5
_symmetry_space_group_name_H-M   'P 1'
_cell_length_a   9.26482300
_cell_length_b   9.20856987
_cell_length_c   6.13549700
_cell_angle_alpha   90.00000000
_cell_angle_beta   90.00000000
_cell_angle_gamma   120.20228701
_symmetry_Int_Tables_number   1
_chemical_formula_structural   YbU2TaSb5
_chemical_formula_sum   'Yb2 U4 Ta2 Sb10'
_cell_volume   452.39815380
_cell_formula_units_Z   2
loop_
 _symmetry_equiv_pos_site_id
 _symmetry_equiv_pos_as_xyz
  1  'x, y, z'
loop_
 _atom_site_type_symbol
 _atom_site_label
 _atom_site_symmetry_multiplicity
 _atom_site_fract_x
 _atom_site_fract_y
 _atom_site_fract_z
 _atom_site_occupancy
  Yb  Yb0  1  0.615877  0.000000  0.750000  1
  Yb  Yb1  1  0.384123  0.000000  0.250000  1
  U  U2  1  0.007352  0.618362  0.750000  1
  U  U3  1  0.992648  0.381638  0.250000  1
  U  U4  1  0.388990  0.381638  0.750000  1
  U  U5  1  0.611010  0.618362  0.250000  1
  Ta  Ta6  1  0.000000  0.000000  0.500000  1
  Ta  Ta7  1  0.000000  0.000000  0.000000  1
  Sb  Sb8  1  0.262450  0.000000  0.750000  1
  Sb  Sb9  1  0.737550  0.000000  0.250000  1
  Sb  Sb10  1  0.004895  0.268587  0.750000  1
  Sb  Sb11  1  0.995105  0.731413  0.250000  1
  Sb  Sb12  1  0.736308  0.731413  0.750000  1
  Sb  Sb13  1  0.263692  0.268587  0.250000  1
  Sb  Sb14  1  0.328135  0.656272  0.500000  1
  Sb  Sb15  1  0.671865  0.343728  0.500000  1
  Sb  Sb16  1  0.671865  0.343728  0.000000  1
  Sb  Sb17  1  0.328135  0.656272  0.000000  1
