# generated using pymatgen
data_HoP2Ir3
_symmetry_space_group_name_H-M   'P 1'
_cell_length_a   3.97328500
_cell_length_b   11.18747900
_cell_length_c   12.78500600
_cell_angle_alpha   90.00000000
_cell_angle_beta   90.00000000
_cell_angle_gamma   90.00000000
_symmetry_Int_Tables_number   1
_chemical_formula_structural   HoP2Ir3
_chemical_formula_sum   'Ho6 P12 Ir18'
_cell_volume   568.30684505
_cell_formula_units_Z   6
loop_
 _symmetry_equiv_pos_site_id
 _symmetry_equiv_pos_as_xyz
  1  'x, y, z'
loop_
 _atom_site_type_symbol
 _atom_site_label
 _atom_site_symmetry_multiplicity
 _atom_site_fract_x
 _atom_site_fract_y
 _atom_site_fract_z
 _atom_site_occupancy
  Ho  Ho0  1  0.000000  0.500000  0.522773  1
  Ho  Ho1  1  0.500000  0.000000  0.477227  1
  Ho  Ho2  1  0.500000  0.815186  0.204144  1
  Ho  Ho3  1  0.500000  0.184814  0.204144  1
  Ho  Ho4  1  0.000000  0.684814  0.795856  1
  Ho  Ho5  1  0.000000  0.315186  0.795856  1
  P  P6  1  0.500000  0.315175  0.617931  1
  P  P7  1  0.500000  0.684825  0.617931  1
  P  P8  1  0.000000  0.184825  0.382069  1
  P  P9  1  0.000000  0.815175  0.382069  1
  P  P10  1  0.500000  0.500000  0.875569  1
  P  P11  1  0.000000  0.000000  0.124431  1
  P  P12  1  0.500000  0.844909  0.893607  1
  P  P13  1  0.500000  0.155091  0.893607  1
  P  P14  1  0.000000  0.655091  0.106393  1
  P  P15  1  0.000000  0.344909  0.106393  1
  P  P16  1  0.500000  0.500000  0.359999  1
  P  P17  1  0.000000  0.000000  0.640001  1
  Ir  Ir18  1  0.000000  0.500000  0.971345  1
  Ir  Ir19  1  0.500000  0.000000  0.028655  1
  Ir  Ir20  1  0.500000  0.294968  0.430342  1
  Ir  Ir21  1  0.500000  0.705032  0.430342  1
  Ir  Ir22  1  0.000000  0.205032  0.569658  1
  Ir  Ir23  1  0.000000  0.794968  0.569658  1
  Ir  Ir24  1  0.500000  0.869207  0.713945  1
  Ir  Ir25  1  0.500000  0.130793  0.713945  1
  Ir  Ir26  1  0.000000  0.630793  0.286055  1
  Ir  Ir27  1  0.000000  0.369207  0.286055  1
  Ir  Ir28  1  0.500000  0.336510  0.000956  1
  Ir  Ir29  1  0.500000  0.663490  0.000956  1
  Ir  Ir30  1  0.000000  0.163490  0.999044  1
  Ir  Ir31  1  0.000000  0.836510  0.999044  1
  Ir  Ir32  1  0.500000  0.500000  0.181392  1
  Ir  Ir33  1  0.000000  0.000000  0.818608  1
  Ir  Ir34  1  0.500000  0.500000  0.699178  1
  Ir  Ir35  1  0.000000  0.000000  0.300822  1
