# generated using pymatgen
data_Er(TiZn2)2
_symmetry_space_group_name_H-M   'P 1'
_cell_length_a   5.50783192
_cell_length_b   5.50783227
_cell_length_c   5.50783189
_cell_angle_alpha   101.19010054
_cell_angle_beta   101.19009547
_cell_angle_gamma   127.72486347
_symmetry_Int_Tables_number   1
_chemical_formula_structural   Er(TiZn2)2
_chemical_formula_sum   'Er1 Ti2 Zn4'
_cell_volume   118.64394911
_cell_formula_units_Z   1
loop_
 _symmetry_equiv_pos_site_id
 _symmetry_equiv_pos_as_xyz
  1  'x, y, z'
loop_
 _atom_site_type_symbol
 _atom_site_label
 _atom_site_symmetry_multiplicity
 _atom_site_fract_x
 _atom_site_fract_y
 _atom_site_fract_z
 _atom_site_occupancy
  Er  Er0  1  0.000000  0.000000  0.000000  1
  Ti  Ti1  1  0.250000  0.750000  0.500000  1
  Ti  Ti2  1  0.750000  0.250000  0.500000  1
  Zn  Zn3  1  0.307664  0.307664  0.615329  1
  Zn  Zn4  1  0.692336  0.692336  0.384671  1
  Zn  Zn5  1  0.692336  0.307664  0.000000  1
  Zn  Zn6  1  0.307664  0.692336  0.000000  1
