# generated using pymatgen
data_Sm(NbSe2)3
_symmetry_space_group_name_H-M   'P 1'
_cell_length_a   6.09787200
_cell_length_b   6.09787295
_cell_length_c   14.73196700
_cell_angle_alpha   90.00000000
_cell_angle_beta   90.00000000
_cell_angle_gamma   120.00001656
_symmetry_Int_Tables_number   1
_chemical_formula_structural   Sm(NbSe2)3
_chemical_formula_sum   'Sm2 Nb6 Se12'
_cell_volume   474.40359540
_cell_formula_units_Z   2
loop_
 _symmetry_equiv_pos_site_id
 _symmetry_equiv_pos_as_xyz
  1  'x, y, z'
loop_
 _atom_site_type_symbol
 _atom_site_label
 _atom_site_symmetry_multiplicity
 _atom_site_fract_x
 _atom_site_fract_y
 _atom_site_fract_z
 _atom_site_occupancy
  Sm  Sm0  1  0.000000  0.000000  0.000000  1
  Sm  Sm1  1  0.000000  0.000000  0.500000  1
  Nb  Nb2  1  0.333333  0.666667  0.250000  1
  Nb  Nb3  1  0.000000  0.000000  0.250000  1
  Nb  Nb4  1  0.000000  0.000000  0.750000  1
  Nb  Nb5  1  0.333333  0.666667  0.750000  1
  Nb  Nb6  1  0.666667  0.333333  0.750000  1
  Nb  Nb7  1  0.666667  0.333333  0.250000  1
  Se  Se8  1  0.000000  0.659515  0.636360  1
  Se  Se9  1  0.000000  0.659515  0.863640  1
  Se  Se10  1  0.000000  0.340485  0.136360  1
  Se  Se11  1  0.000000  0.340485  0.363640  1
  Se  Se12  1  0.340485  0.340485  0.636360  1
  Se  Se13  1  0.340485  0.340485  0.863640  1
  Se  Se14  1  0.659515  0.659515  0.136360  1
  Se  Se15  1  0.659515  0.659515  0.363640  1
  Se  Se16  1  0.340485  0.000000  0.136360  1
  Se  Se17  1  0.340485  0.000000  0.363640  1
  Se  Se18  1  0.659515  0.000000  0.636360  1
  Se  Se19  1  0.659515  0.000000  0.863640  1
