# generated using pymatgen
data_HoPa2(GePd)4
_symmetry_space_group_name_H-M   'P 1'
_cell_length_a   8.15264970
_cell_length_b   8.15264974
_cell_length_c   8.15265030
_cell_angle_alpha   149.89657402
_cell_angle_beta   129.21171650
_cell_angle_gamma   60.17786584
_symmetry_Int_Tables_number   1
_chemical_formula_structural   HoPa2(GePd)4
_chemical_formula_sum   'Ho1 Pa2 Ge4 Pd4'
_cell_volume   208.85827280
_cell_formula_units_Z   1
loop_
 _symmetry_equiv_pos_site_id
 _symmetry_equiv_pos_as_xyz
  1  'x, y, z'
loop_
 _atom_site_type_symbol
 _atom_site_label
 _atom_site_symmetry_multiplicity
 _atom_site_fract_x
 _atom_site_fract_y
 _atom_site_fract_z
 _atom_site_occupancy
  Ho  Ho0  1  0.372306  0.872306  0.500000  1
  Pa  Pa1  1  0.627641  0.127641  0.500000  1
  Pa  Pa2  1  0.000214  0.000214  0.000000  1
  Ge  Ge3  1  0.789202  0.789202  0.000000  1
  Ge  Ge4  1  0.214687  0.214687  0.000000  1
  Ge  Ge5  1  0.305827  0.499542  0.806286  1
  Ge  Ge6  1  0.693256  0.499542  0.193714  1
  Pd  Pd7  1  0.376532  0.672791  0.703741  1
  Pd  Pd8  1  0.026704  0.325642  0.701063  1
  Pd  Pd9  1  0.969051  0.672791  0.296259  1
  Pd  Pd10  1  0.624579  0.325642  0.298937  1
