# generated using pymatgen
data_BaSr3Ca4(PO3)16
_symmetry_space_group_name_H-M   'P 1'
_cell_length_a   9.25887665
_cell_length_b   7.25303722
_cell_length_c   16.78958078
_cell_angle_alpha   65.87290038
_cell_angle_beta   89.89782983
_cell_angle_gamma   89.63607471
_symmetry_Int_Tables_number   1
_chemical_formula_structural   BaSr3Ca4(PO3)16
_chemical_formula_sum   'Ba1 Sr3 Ca4 P16 O48'
_cell_volume   1028.98506734
_cell_formula_units_Z   1
loop_
 _symmetry_equiv_pos_site_id
 _symmetry_equiv_pos_as_xyz
  1  'x, y, z'
loop_
 _atom_site_type_symbol
 _atom_site_label
 _atom_site_symmetry_multiplicity
 _atom_site_fract_x
 _atom_site_fract_y
 _atom_site_fract_z
 _atom_site_occupancy
  Ba  Ba0  1  0.608420  0.149295  0.866568  1
  Sr  Sr1  1  0.893461  0.143777  0.365764  1
  Sr  Sr2  1  0.392869  0.856892  0.133608  1
  Sr  Sr3  1  0.106262  0.856814  0.634342  1
  Ca  Ca4  1  0.760576  0.655575  0.844973  1
  Ca  Ca5  1  0.239509  0.348969  0.155535  1
  Ca  Ca6  1  0.261245  0.348925  0.653098  1
  Ca  Ca7  1  0.739763  0.651644  0.345741  1
  P  P8  1  0.516382  0.697246  0.671149  1
  P  P9  1  0.102130  0.914298  0.819335  1
  P  P10  1  0.984618  0.692557  0.175098  1
  P  P11  1  0.898145  0.087337  0.181214  1
  P  P12  1  0.483661  0.305802  0.326849  1
  P  P13  1  0.339436  0.689986  0.939681  1
  P  P14  1  0.742494  0.717451  0.047394  1
  P  P15  1  0.018969  0.310329  0.826023  1
  P  P16  1  0.398228  0.912109  0.319683  1
  P  P17  1  0.659509  0.306411  0.062322  1
  P  P18  1  0.252517  0.273134  0.958697  1
  P  P19  1  0.841525  0.304938  0.559076  1
  P  P20  1  0.601965  0.089032  0.676115  1
  P  P21  1  0.159532  0.696353  0.439306  1
  P  P22  1  0.239929  0.278005  0.454455  1
  P  P23  1  0.759982  0.721957  0.544533  1
  O  O24  1  0.500764  0.236471  0.690084  1
  O  O25  1  0.226407  0.206494  0.054929  1
  O  O26  1  0.900892  0.698719  0.089904  1
  O  O27  1  0.684945  0.197323  0.585075  1
  O  O28  1  0.401613  0.430733  0.244969  1
  O  O29  1  0.681473  0.490861  0.092233  1
  O  O30  1  0.106205  0.429999  0.746086  1
  O  O31  1  0.500744  0.765809  0.305832  1
  O  O32  1  0.819027  0.493132  0.586585  1
  O  O33  1  0.642672  0.848560  0.072516  1
  O  O34  1  0.317061  0.497414  0.914960  1
  O  O35  1  0.990676  0.926260  0.159868  1
  O  O36  1  0.865468  0.370895  0.831693  1
  O  O37  1  0.656032  0.383035  0.964292  1
  O  O38  1  0.263805  0.204346  0.551407  1
  O  O39  1  0.600197  0.578503  0.752967  1
  O  O40  1  0.736233  0.795556  0.447598  1
  O  O41  1  0.315666  0.804536  0.410993  1
  O  O42  1  0.154848  0.627454  0.537135  1
  O  O43  1  0.999470  0.233213  0.195045  1
  O  O44  1  0.637793  0.356608  0.336700  1
  O  O45  1  0.858524  0.845796  0.573549  1
  O  O46  1  0.139112  0.640655  0.165499  1
  O  O47  1  0.460164  0.808762  0.884087  1
  O  O48  1  0.205970  0.014486  0.745112  1
  O  O49  1  0.537737  0.181709  0.114613  1
  O  O50  1  0.344791  0.624443  0.037290  1
  O  O51  1  0.399299  0.298017  0.412432  1
  O  O52  1  0.902313  0.569069  0.256717  1
  O  O53  1  0.600349  0.701478  0.586125  1
  O  O54  1  0.294895  0.012811  0.244951  1
  O  O55  1  0.815256  0.193997  0.089765  1
  O  O56  1  0.794651  0.987345  0.255652  1
  O  O57  1  0.705960  0.984508  0.749908  1
  O  O58  1  0.507532  0.932362  0.653949  1
  O  O59  1  0.038697  0.820825  0.384943  1
  O  O60  1  0.141387  0.153956  0.425585  1
  O  O61  1  0.769976  0.782093  0.951347  1
  O  O62  1  0.490083  0.072151  0.341199  1
  O  O63  1  0.009918  0.076155  0.841104  1
  O  O64  1  0.183700  0.802326  0.910840  1
  O  O65  1  0.848479  0.375326  0.461288  1
  O  O66  1  0.999513  0.771161  0.804528  1
  O  O67  1  0.095520  0.300260  0.913902  1
  O  O68  1  0.362774  0.641934  0.663094  1
  O  O69  1  0.180826  0.506646  0.412683  1
  O  O70  1  0.961407  0.179748  0.614278  1
  O  O71  1  0.348046  0.137223  0.934129  1
