# generated using pymatgen
data_Ho3Tm7InPb5
_symmetry_space_group_name_H-M   'P 1'
_cell_length_a   6.58642500
_cell_length_b   8.94676390
_cell_length_c   8.95485585
_cell_angle_alpha   119.97011867
_cell_angle_beta   89.99955298
_cell_angle_gamma   90.00090167
_symmetry_Int_Tables_number   1
_chemical_formula_structural   Ho3Tm7InPb5
_chemical_formula_sum   'Ho3 Tm7 In1 Pb5'
_cell_volume   457.12570992
_cell_formula_units_Z   1
loop_
 _symmetry_equiv_pos_site_id
 _symmetry_equiv_pos_as_xyz
  1  'x, y, z'
loop_
 _atom_site_type_symbol
 _atom_site_label
 _atom_site_symmetry_multiplicity
 _atom_site_fract_x
 _atom_site_fract_y
 _atom_site_fract_z
 _atom_site_occupancy
  Ho  Ho0  1  0.249997  0.763713  0.000000  1
  Ho  Ho1  1  0.249996  0.236457  0.236424  1
  Ho  Ho2  1  0.249996  0.000034  0.763576  1
  Tm  Tm3  1  0.502149  0.336389  0.670146  1
  Tm  Tm4  1  0.502149  0.666244  0.329854  1
  Tm  Tm5  1  0.997853  0.666270  0.329853  1
  Tm  Tm6  1  0.997853  0.336417  0.670147  1
  Tm  Tm7  1  0.749997  0.237647  0.000000  1
  Tm  Tm8  1  0.750003  0.762703  0.767354  1
  Tm  Tm9  1  0.750003  0.995349  0.232646  1
  In  In10  1  0.750000  0.602838  0.000000  1
  Pb  Pb11  1  0.750002  0.393771  0.394330  1
  Pb  Pb12  1  0.750002  0.999441  0.605670  1
  Pb  Pb13  1  0.249990  0.396524  0.000000  1
  Pb  Pb14  1  0.250004  0.604750  0.603296  1
  Pb  Pb15  1  0.250004  0.001454  0.396704  1
