# generated using pymatgen
data_Mn7S7F
_symmetry_space_group_name_H-M   'P 1'
_cell_length_a   8.39619192
_cell_length_b   7.14767366
_cell_length_c   9.62315781
_cell_angle_alpha   94.74562938
_cell_angle_beta   45.14029794
_cell_angle_gamma   119.07063201
_symmetry_Int_Tables_number   1
_chemical_formula_structural   Mn7S7F
_chemical_formula_sum   'Mn7 S7 F1'
_cell_volume   324.76139579
_cell_formula_units_Z   1
loop_
 _symmetry_equiv_pos_site_id
 _symmetry_equiv_pos_as_xyz
  1  'x, y, z'
loop_
 _atom_site_type_symbol
 _atom_site_label
 _atom_site_symmetry_multiplicity
 _atom_site_fract_x
 _atom_site_fract_y
 _atom_site_fract_z
 _atom_site_occupancy
  Mn  Mn0  1  0.382131  0.094285  0.369625  1
  Mn  Mn1  1  0.105127  0.449324  0.507241  1
  Mn  Mn2  1  0.512286  0.821074  0.589377  1
  Mn  Mn3  1  0.281390  0.013629  0.073638  1
  Mn  Mn4  1  0.059743  0.374977  0.189092  1
  Mn  Mn5  1  0.303287  0.238060  0.779341  1
  Mn  Mn6  1  0.720307  0.755898  0.910612  1
  S  S7  1  0.630897  0.170329  0.668898  1
  S  S8  1  0.325235  0.788336  0.206950  1
  S  S9  1  0.888199  0.957649  0.185461  1
  S  S10  1  0.130334  0.736900  0.665922  1
  S  S11  1  0.091168  0.189527  0.682853  1
  S  S12  1  0.378985  0.343277  0.189079  1
  S  S13  1  0.511310  0.618841  0.781326  1
  F  F14  1  0.756612  0.344170  0.252675  1
