# generated using pymatgen
data_Yb3SmOsRu7
_symmetry_space_group_name_H-M   'P 1'
_cell_length_a   5.23029975
_cell_length_b   5.28983033
_cell_length_c   8.91719796
_cell_angle_alpha   89.99999938
_cell_angle_beta   90.09367432
_cell_angle_gamma   120.37723188
_symmetry_Int_Tables_number   1
_chemical_formula_structural   Yb3SmOsRu7
_chemical_formula_sum   'Yb3 Sm1 Os1 Ru7'
_cell_volume   212.84484789
_cell_formula_units_Z   1
loop_
 _symmetry_equiv_pos_site_id
 _symmetry_equiv_pos_as_xyz
  1  'x, y, z'
loop_
 _atom_site_type_symbol
 _atom_site_label
 _atom_site_symmetry_multiplicity
 _atom_site_fract_x
 _atom_site_fract_y
 _atom_site_fract_z
 _atom_site_occupancy
  Yb  Yb0  1  0.664176  0.332088  0.569322  1
  Yb  Yb1  1  0.663656  0.331828  0.934929  1
  Yb  Yb2  1  0.327754  0.663877  0.062092  1
  Sm  Sm3  1  0.327569  0.663784  0.433392  1
  Os  Os4  1  0.672948  0.836474  0.752544  1
  Ru  Ru5  1  0.978595  0.989298  0.500604  1
  Ru  Ru6  1  0.976608  0.988304  0.000815  1
  Ru  Ru7  1  0.832288  0.167807  0.247714  1
  Ru  Ru8  1  0.832288  0.664480  0.247714  1
  Ru  Ru9  1  0.357715  0.178857  0.249017  1
  Ru  Ru10  1  0.183201  0.834205  0.750929  1
  Ru  Ru11  1  0.183201  0.348998  0.750929  1
