# generated using pymatgen
data_Tm16Co4Ag3Hg
_symmetry_space_group_name_H-M   'P 1'
_cell_length_a   9.31293603
_cell_length_b   9.32701133
_cell_length_c   9.32701100
_cell_angle_alpha   60.00000472
_cell_angle_beta   59.94999637
_cell_angle_gamma   59.95000135
_symmetry_Int_Tables_number   1
_chemical_formula_structural   Tm16Co4Ag3Hg
_chemical_formula_sum   'Tm16 Co4 Ag3 Hg1'
_cell_volume   572.43738836
_cell_formula_units_Z   1
loop_
 _symmetry_equiv_pos_site_id
 _symmetry_equiv_pos_as_xyz
  1  'x, y, z'
loop_
 _atom_site_type_symbol
 _atom_site_label
 _atom_site_symmetry_multiplicity
 _atom_site_fract_x
 _atom_site_fract_y
 _atom_site_fract_z
 _atom_site_occupancy
  Tm  Tm0  1  0.347452  0.348000  0.348000  1
  Tm  Tm1  1  0.347452  0.348000  0.956549  1
  Tm  Tm2  1  0.347452  0.956549  0.348000  1
  Tm  Tm3  1  0.956782  0.347739  0.347739  1
  Tm  Tm4  1  0.812081  0.188002  0.188002  1
  Tm  Tm5  1  0.187988  0.811903  0.811903  1
  Tm  Tm6  1  0.187988  0.811903  0.188206  1
  Tm  Tm7  1  0.812081  0.188002  0.811916  1
  Tm  Tm8  1  0.187988  0.188206  0.811903  1
  Tm  Tm9  1  0.812081  0.811916  0.188002  1
  Tm  Tm10  1  0.935579  0.563008  0.563008  1
  Tm  Tm11  1  0.561686  0.937896  0.937896  1
  Tm  Tm12  1  0.561686  0.937896  0.562523  1
  Tm  Tm13  1  0.935579  0.563008  0.938405  1
  Tm  Tm14  1  0.561686  0.562523  0.937896  1
  Tm  Tm15  1  0.935579  0.938405  0.563008  1
  Co  Co16  1  0.142129  0.141299  0.141299  1
  Co  Co17  1  0.142129  0.141299  0.575275  1
  Co  Co18  1  0.142129  0.575275  0.141299  1
  Co  Co19  1  0.576004  0.141332  0.141332  1
  Ag  Ag20  1  0.583867  0.581520  0.581520  1
  Ag  Ag21  1  0.583867  0.581520  0.253096  1
  Ag  Ag22  1  0.583867  0.253096  0.581520  1
  Hg  Hg23  1  0.254878  0.581708  0.581708  1
