# generated using pymatgen
data_Pr5NdMg(SiSe7)2
_symmetry_space_group_name_H-M   'P 1'
_cell_length_a   10.75765827
_cell_length_b   10.76024234
_cell_length_c   6.02942037
_cell_angle_alpha   90.04011107
_cell_angle_beta   89.98041841
_cell_angle_gamma   119.93988394
_symmetry_Int_Tables_number   1
_chemical_formula_structural   Pr5NdMg(SiSe7)2
_chemical_formula_sum   'Pr5 Nd1 Mg1 Si2 Se14'
_cell_volume   604.79563727
_cell_formula_units_Z   1
loop_
 _symmetry_equiv_pos_site_id
 _symmetry_equiv_pos_as_xyz
  1  'x, y, z'
loop_
 _atom_site_type_symbol
 _atom_site_label
 _atom_site_symmetry_multiplicity
 _atom_site_fract_x
 _atom_site_fract_y
 _atom_site_fract_z
 _atom_site_occupancy
  Pr  Pr0  1  0.976501  0.434366  0.752007  1
  Pr  Pr1  1  0.457165  0.023317  0.752229  1
  Pr  Pr2  1  0.566193  0.542486  0.752067  1
  Pr  Pr3  1  0.689632  0.899040  0.248389  1
  Pr  Pr4  1  0.209254  0.310311  0.248454  1
  Nd  Nd5  1  0.101100  0.790441  0.249369  1
  Mg  Mg6  1  0.333268  0.666684  0.513416  1
  Si  Si7  1  0.666960  0.333769  0.165030  1
  Si  Si8  1  0.000090  0.999824  0.659427  1
  Se  Se9  1  0.666613  0.333290  0.540148  1
  Se  Se10  1  0.000380  0.999238  0.034931  1
  Se  Se11  1  0.084541  0.506232  0.273740  1
  Se  Se12  1  0.418882  0.914944  0.273387  1
  Se  Se13  1  0.495168  0.579571  0.273639  1
  Se  Se14  1  0.582499  0.830989  0.755521  1
  Se  Se15  1  0.248685  0.417586  0.755641  1
  Se  Se16  1  0.168586  0.751611  0.756489  1
  Se  Se17  1  0.813959  0.558615  0.016833  1
  Se  Se18  1  0.744698  0.186540  0.015975  1
  Se  Se19  1  0.442020  0.255531  0.016023  1
  Se  Se20  1  0.854073  0.775015  0.509979  1
  Se  Se21  1  0.921846  0.146826  0.511452  1
  Se  Se22  1  0.224554  0.077109  0.509888  1
