# generated using pymatgen
data_HoTm(GaPt2)2
_symmetry_space_group_name_H-M   'P 1'
_cell_length_a   4.37656500
_cell_length_b   4.37656484
_cell_length_c   9.03567900
_cell_angle_alpha   90.00000000
_cell_angle_beta   90.00000000
_cell_angle_gamma   120.00000875
_symmetry_Int_Tables_number   1
_chemical_formula_structural   HoTm(GaPt2)2
_chemical_formula_sum   'Ho1 Tm1 Ga2 Pt4'
_cell_volume   149.88498796
_cell_formula_units_Z   1
loop_
 _symmetry_equiv_pos_site_id
 _symmetry_equiv_pos_as_xyz
  1  'x, y, z'
loop_
 _atom_site_type_symbol
 _atom_site_label
 _atom_site_symmetry_multiplicity
 _atom_site_fract_x
 _atom_site_fract_y
 _atom_site_fract_z
 _atom_site_occupancy
  Ho  Ho0  1  0.666666  0.333333  0.250000  1
  Tm  Tm1  1  0.333333  0.666667  0.750000  1
  Ga  Ga2  1  0.000000  0.000000  0.999791  1
  Ga  Ga3  1  0.000000  0.000000  0.500209  1
  Pt  Pt4  1  0.333333  0.666667  0.086049  1
  Pt  Pt5  1  0.333333  0.666667  0.413952  1
  Pt  Pt6  1  0.666666  0.333333  0.587338  1
  Pt  Pt7  1  0.666666  0.333333  0.912662  1
