# generated using pymatgen
data_PrTmIrRhO7
_symmetry_space_group_name_H-M   'P 1'
_cell_length_a   7.30225448
_cell_length_b   7.35852456
_cell_length_c   7.30225432
_cell_angle_alpha   59.74475166
_cell_angle_beta   59.54948034
_cell_angle_gamma   59.74474833
_symmetry_Int_Tables_number   1
_chemical_formula_structural   PrTmIrRhO7
_chemical_formula_sum   'Pr2 Tm2 Ir2 Rh2 O14'
_cell_volume   275.43186488
_cell_formula_units_Z   2
loop_
 _symmetry_equiv_pos_site_id
 _symmetry_equiv_pos_as_xyz
  1  'x, y, z'
loop_
 _atom_site_type_symbol
 _atom_site_label
 _atom_site_symmetry_multiplicity
 _atom_site_fract_x
 _atom_site_fract_y
 _atom_site_fract_z
 _atom_site_occupancy
  Pr  Pr0  1  0.125000  0.125000  0.125000  1
  Pr  Pr1  1  0.125000  0.625000  0.125000  1
  Tm  Tm2  1  0.125000  0.125000  0.625000  1
  Tm  Tm3  1  0.625000  0.125000  0.125000  1
  Ir  Ir4  1  0.625000  0.625000  0.625000  1
  Ir  Ir5  1  0.625000  0.125000  0.625000  1
  Rh  Rh6  1  0.125000  0.625000  0.625000  1
  Rh  Rh7  1  0.625000  0.625000  0.125000  1
  O  O8  1  0.956895  0.526186  0.553232  1
  O  O9  1  0.293105  0.286314  0.696768  1
  O  O10  1  0.962386  0.537614  0.962386  1
  O  O11  1  0.696768  0.286314  0.293105  1
  O  O12  1  0.553232  0.526186  0.956895  1
  O  O13  1  0.543356  0.956644  0.543356  1
  O  O14  1  0.553232  0.963686  0.956895  1
  O  O15  1  0.262361  0.237639  0.262361  1
  O  O16  1  0.293105  0.723814  0.696768  1
  O  O17  1  0.706644  0.293356  0.706644  1
  O  O18  1  0.987639  0.012361  0.987639  1
  O  O19  1  0.956895  0.963686  0.553232  1
  O  O20  1  0.287614  0.712386  0.287614  1
  O  O21  1  0.696768  0.723814  0.293105  1
