# generated using pymatgen
data_Er3ThZnIr
_symmetry_space_group_name_H-M   'P 1'
_cell_length_a   9.56029223
_cell_length_b   9.56029234
_cell_length_c   9.56029300
_cell_angle_alpha   60.00000118
_cell_angle_beta   60.00000078
_cell_angle_gamma   59.99999892
_symmetry_Int_Tables_number   1
_chemical_formula_structural   Er3ThZnIr
_chemical_formula_sum   'Er12 Th4 Zn4 Ir4'
_cell_volume   617.87204671
_cell_formula_units_Z   4
loop_
 _symmetry_equiv_pos_site_id
 _symmetry_equiv_pos_as_xyz
  1  'x, y, z'
loop_
 _atom_site_type_symbol
 _atom_site_label
 _atom_site_symmetry_multiplicity
 _atom_site_fract_x
 _atom_site_fract_y
 _atom_site_fract_z
 _atom_site_occupancy
  Er  Er0  1  0.060903  0.439097  0.439097  1
  Er  Er1  1  0.439097  0.060903  0.060903  1
  Er  Er2  1  0.439097  0.060903  0.439097  1
  Er  Er3  1  0.060903  0.439097  0.060903  1
  Er  Er4  1  0.439097  0.439097  0.060903  1
  Er  Er5  1  0.060903  0.060903  0.439097  1
  Er  Er6  1  0.184040  0.815960  0.815960  1
  Er  Er7  1  0.815960  0.184040  0.184040  1
  Er  Er8  1  0.815960  0.184040  0.815960  1
  Er  Er9  1  0.184040  0.815960  0.184040  1
  Er  Er10  1  0.815960  0.815960  0.184040  1
  Er  Er11  1  0.184040  0.184040  0.815960  1
  Th  Th12  1  0.603851  0.603851  0.603851  1
  Th  Th13  1  0.603851  0.603851  0.188446  1
  Th  Th14  1  0.603851  0.188446  0.603851  1
  Th  Th15  1  0.188446  0.603851  0.603851  1
  Zn  Zn16  1  0.832786  0.832786  0.832786  1
  Zn  Zn17  1  0.832786  0.832786  0.501641  1
  Zn  Zn18  1  0.832786  0.501641  0.832786  1
  Zn  Zn19  1  0.501641  0.832786  0.832786  1
  Ir  Ir20  1  0.392871  0.392871  0.392871  1
  Ir  Ir21  1  0.392871  0.392871  0.821387  1
  Ir  Ir22  1  0.392871  0.821387  0.392871  1
  Ir  Ir23  1  0.821387  0.392871  0.392871  1
