# generated using pymatgen
data_K8EuY3F20
_symmetry_space_group_name_H-M   'P 1'
_cell_length_a   6.72676072
_cell_length_b   7.40462300
_cell_length_c   11.00789203
_cell_angle_alpha   90.00000000
_cell_angle_beta   89.87981603
_cell_angle_gamma   90.00000000
_symmetry_Int_Tables_number   1
_chemical_formula_structural   K8EuY3F20
_chemical_formula_sum   'K8 Eu1 Y3 F20'
_cell_volume   548.29228702
_cell_formula_units_Z   1
loop_
 _symmetry_equiv_pos_site_id
 _symmetry_equiv_pos_as_xyz
  1  'x, y, z'
loop_
 _atom_site_type_symbol
 _atom_site_label
 _atom_site_symmetry_multiplicity
 _atom_site_fract_x
 _atom_site_fract_y
 _atom_site_fract_z
 _atom_site_occupancy
  K  K0  1  0.967641  0.503726  0.670623  1
  K  K1  1  0.032379  0.001834  0.329628  1
  K  K2  1  0.532040  0.504076  0.171227  1
  K  K3  1  0.469232  0.001848  0.828437  1
  K  K4  1  0.967641  0.996274  0.670623  1
  K  K5  1  0.032379  0.498166  0.329628  1
  K  K6  1  0.532040  0.995924  0.171227  1
  K  K7  1  0.469232  0.498152  0.828437  1
  Eu  Eu8  1  0.938197  0.250000  0.997960  1
  Y  Y9  1  0.064054  0.750000  0.002217  1
  Y  Y10  1  0.563344  0.250000  0.497449  1
  Y  Y11  1  0.436784  0.750000  0.502442  1
  F  F12  1  0.852897  0.539168  0.923144  1
  F  F13  1  0.147948  0.029098  0.077916  1
  F  F14  1  0.646418  0.534490  0.425029  1
  F  F15  1  0.353809  0.034343  0.574833  1
  F  F16  1  0.852897  0.960832  0.923144  1
  F  F17  1  0.147948  0.470902  0.077916  1
  F  F18  1  0.646418  0.965510  0.425029  1
  F  F19  1  0.353809  0.465657  0.574833  1
  F  F20  1  0.626674  0.750000  0.666053  1
  F  F21  1  0.373405  0.250000  0.333657  1
  F  F22  1  0.872704  0.750000  0.166612  1
  F  F23  1  0.128027  0.250000  0.829103  1
  F  F24  1  0.108138  0.750000  0.513753  1
  F  F25  1  0.891798  0.250000  0.485957  1
  F  F26  1  0.393214  0.750000  0.012498  1
  F  F27  1  0.600240  0.250000  0.987983  1
  F  F28  1  0.161639  0.750000  0.808579  1
  F  F29  1  0.836720  0.250000  0.193880  1
  F  F30  1  0.340616  0.750000  0.309378  1
  F  F31  1  0.659718  0.250000  0.690804  1
