# generated using pymatgen
data_Sc7Co2Sn23Rh4
_symmetry_space_group_name_H-M   'P 1'
_cell_length_a   9.64881365
_cell_length_b   9.66799861
_cell_length_c   9.90021264
_cell_angle_alpha   89.99999996
_cell_angle_beta   90.09527629
_cell_angle_gamma   120.06579971
_symmetry_Int_Tables_number   1
_chemical_formula_structural   Sc7Co2Sn23Rh4
_chemical_formula_sum   'Sc7 Co2 Sn23 Rh4'
_cell_volume   799.27552315
_cell_formula_units_Z   1
loop_
 _symmetry_equiv_pos_site_id
 _symmetry_equiv_pos_as_xyz
  1  'x, y, z'
loop_
 _atom_site_type_symbol
 _atom_site_label
 _atom_site_symmetry_multiplicity
 _atom_site_fract_x
 _atom_site_fract_y
 _atom_site_fract_z
 _atom_site_occupancy
  Sc  Sc0  1  0.481793  0.516855  0.309287  1
  Sc  Sc1  1  0.518207  0.483145  0.690713  1
  Sc  Sc2  1  0.481793  0.964939  0.309287  1
  Sc  Sc3  1  0.518207  0.035061  0.690713  1
  Sc  Sc4  1  0.034800  0.517400  0.308997  1
  Sc  Sc5  1  0.965200  0.482600  0.691003  1
  Sc  Sc6  1  0.000000  0.000000  0.000000  1
  Co  Co7  1  0.340009  0.170005  0.200922  1
  Co  Co8  1  0.659991  0.829995  0.799078  1
  Sn  Sn9  1  0.125807  0.883918  0.277149  1
  Sn  Sn10  1  0.874193  0.116082  0.722851  1
  Sn  Sn11  1  0.125807  0.241889  0.277149  1
  Sn  Sn12  1  0.874193  0.758111  0.722851  1
  Sn  Sn13  1  0.751465  0.875733  0.282324  1
  Sn  Sn14  1  0.248535  0.124267  0.717676  1
  Sn  Sn15  1  0.776533  0.223350  0.459982  1
  Sn  Sn16  1  0.223467  0.776650  0.540018  1
  Sn  Sn17  1  0.776533  0.553183  0.459982  1
  Sn  Sn18  1  0.223467  0.446817  0.540018  1
  Sn  Sn19  1  0.442800  0.221400  0.453115  1
  Sn  Sn20  1  0.557200  0.778600  0.546885  1
  Sn  Sn21  1  0.350282  0.004265  0.005495  1
  Sn  Sn22  1  0.649718  0.995735  0.994505  1
  Sn  Sn23  1  0.000000  0.351142  0.000000  1
  Sn  Sn24  1  0.000000  0.648858  0.000000  1
  Sn  Sn25  1  0.649718  0.653983  0.994505  1
  Sn  Sn26  1  0.350282  0.346017  0.005495  1
  Sn  Sn27  1  0.333536  0.666768  0.138293  1
  Sn  Sn28  1  0.666464  0.333232  0.861707  1
  Sn  Sn29  1  0.339275  0.669638  0.823577  1
  Sn  Sn30  1  0.660725  0.330362  0.176423  1
  Sn  Sn31  1  0.000000  0.000000  0.500000  1
  Rh  Rh32  1  0.829122  0.168453  0.199886  1
  Rh  Rh33  1  0.170878  0.831547  0.800114  1
  Rh  Rh34  1  0.829122  0.660671  0.199886  1
  Rh  Rh35  1  0.170878  0.339329  0.800114  1
