# generated using pymatgen
data_Sc3AlRu2
_symmetry_space_group_name_H-M   'P 1'
_cell_length_a   3.27710200
_cell_length_b   3.27710200
_cell_length_c   9.85633900
_cell_angle_alpha   90.00000000
_cell_angle_beta   90.00000000
_cell_angle_gamma   90.00000000
_symmetry_Int_Tables_number   1
_chemical_formula_structural   Sc3AlRu2
_chemical_formula_sum   'Sc3 Al1 Ru2'
_cell_volume   105.85114260
_cell_formula_units_Z   1
loop_
 _symmetry_equiv_pos_site_id
 _symmetry_equiv_pos_as_xyz
  1  'x, y, z'
loop_
 _atom_site_type_symbol
 _atom_site_label
 _atom_site_symmetry_multiplicity
 _atom_site_fract_x
 _atom_site_fract_y
 _atom_site_fract_z
 _atom_site_occupancy
  Sc  Sc0  1  0.000000  0.000000  0.000000  1
  Sc  Sc1  1  0.000000  0.000000  0.311890  1
  Sc  Sc2  1  0.000000  0.000000  0.688110  1
  Al  Al3  1  0.500002  0.500002  0.500000  1
  Ru  Ru4  1  0.500002  0.500002  0.166214  1
  Ru  Ru5  1  0.500002  0.500002  0.833786  1
