# generated using pymatgen
data_PrHo2Cu2(AgSn2)2
_symmetry_space_group_name_H-M   'P 1'
_cell_length_a   4.51526659
_cell_length_b   7.34649594
_cell_length_c   8.72879417
_cell_angle_alpha   116.20382300
_cell_angle_beta   104.98949912
_cell_angle_gamma   90.00000219
_symmetry_Int_Tables_number   1
_chemical_formula_structural   PrHo2Cu2(AgSn2)2
_chemical_formula_sum   'Pr1 Ho2 Cu2 Ag2 Sn4'
_cell_volume   248.76115266
_cell_formula_units_Z   1
loop_
 _symmetry_equiv_pos_site_id
 _symmetry_equiv_pos_as_xyz
  1  'x, y, z'
loop_
 _atom_site_type_symbol
 _atom_site_label
 _atom_site_symmetry_multiplicity
 _atom_site_fract_x
 _atom_site_fract_y
 _atom_site_fract_z
 _atom_site_occupancy
  Pr  Pr0  1  0.000000  0.000000  0.000000  1
  Ho  Ho1  1  0.871322  0.344792  0.742643  1
  Ho  Ho2  1  0.128678  0.655208  0.257357  1
  Cu  Cu3  1  0.341856  0.028958  0.683714  1
  Cu  Cu4  1  0.658144  0.971042  0.316286  1
  Ag  Ag5  1  0.317020  0.622384  0.634039  1
  Ag  Ag6  1  0.682980  0.377616  0.365961  1
  Sn  Sn7  1  0.219819  0.177220  0.439638  1
  Sn  Sn8  1  0.780181  0.822780  0.560362  1
  Sn  Sn9  1  0.506175  0.313432  0.012350  1
  Sn  Sn10  1  0.493825  0.686568  0.987650  1
