# generated using pymatgen
data_Tb2MgCo6(B2Ir)3
_symmetry_space_group_name_H-M   'P 1'
_cell_length_a   5.92209463
_cell_length_b   5.92209424
_cell_length_c   5.92209367
_cell_angle_alpha   96.19721253
_cell_angle_beta   96.19721412
_cell_angle_gamma   96.19721401
_symmetry_Int_Tables_number   1
_chemical_formula_structural   Tb2MgCo6(B2Ir)3
_chemical_formula_sum   'Tb2 Mg1 Co6 B6 Ir3'
_cell_volume   203.76596921
_cell_formula_units_Z   1
loop_
 _symmetry_equiv_pos_site_id
 _symmetry_equiv_pos_as_xyz
  1  'x, y, z'
loop_
 _atom_site_type_symbol
 _atom_site_label
 _atom_site_symmetry_multiplicity
 _atom_site_fract_x
 _atom_site_fract_y
 _atom_site_fract_z
 _atom_site_occupancy
  Tb  Tb0  1  0.673479  0.673479  0.673479  1
  Tb  Tb1  1  0.326521  0.326521  0.326521  1
  Mg  Mg2  1  0.000000  0.000000  0.000000  1
  Co  Co3  1  0.695421  0.202920  0.695421  1
  Co  Co4  1  0.695421  0.695421  0.202920  1
  Co  Co5  1  0.202920  0.695421  0.695421  1
  Co  Co6  1  0.304579  0.797080  0.304579  1
  Co  Co7  1  0.304579  0.304579  0.797080  1
  Co  Co8  1  0.797080  0.304579  0.304579  1
  B  B9  1  0.617299  0.382701  0.000000  1
  B  B10  1  0.000000  0.617299  0.382701  1
  B  B11  1  0.382701  0.000000  0.617299  1
  B  B12  1  0.000000  0.382701  0.617299  1
  B  B13  1  0.617299  0.000000  0.382701  1
  B  B14  1  0.382701  0.617299  0.000000  1
  Ir  Ir15  1  0.000000  0.000000  0.500000  1
  Ir  Ir16  1  0.500000  0.000000  0.000000  1
  Ir  Ir17  1  0.000000  0.500000  0.000000  1
