# generated using pymatgen
data_Y4Al18Cu2RuRh3
_symmetry_space_group_name_H-M   'P 1'
_cell_length_a   7.57482608
_cell_length_b   7.57361709
_cell_length_c   9.44715604
_cell_angle_alpha   90.02128453
_cell_angle_beta   90.03238630
_cell_angle_gamma   119.70568016
_symmetry_Int_Tables_number   1
_chemical_formula_structural   Y4Al18Cu2RuRh3
_chemical_formula_sum   'Y4 Al18 Cu2 Ru1 Rh3'
_cell_volume   470.74739773
_cell_formula_units_Z   1
loop_
 _symmetry_equiv_pos_site_id
 _symmetry_equiv_pos_as_xyz
  1  'x, y, z'
loop_
 _atom_site_type_symbol
 _atom_site_label
 _atom_site_symmetry_multiplicity
 _atom_site_fract_x
 _atom_site_fract_y
 _atom_site_fract_z
 _atom_site_occupancy
  Y  Y0  1  0.994588  0.673127  0.249645  1
  Y  Y1  1  0.005039  0.326591  0.750379  1
  Y  Y2  1  0.673389  0.994968  0.249597  1
  Y  Y3  1  0.326846  0.005381  0.750308  1
  Al  Al4  1  0.128958  0.129600  0.249665  1
  Al  Al5  1  0.870251  0.870895  0.750321  1
  Al  Al6  1  0.998698  0.338391  0.074589  1
  Al  Al7  1  0.998967  0.659708  0.925223  1
  Al  Al8  1  0.999998  0.662193  0.575867  1
  Al  Al9  1  0.337809  0.000016  0.424102  1
  Al  Al10  1  0.999993  0.338144  0.424552  1
  Al  Al11  1  0.661855  0.000004  0.575440  1
  Al  Al12  1  0.661564  0.001320  0.925386  1
  Al  Al13  1  0.340264  0.001040  0.074758  1
  Al  Al14  1  0.335449  0.335795  0.552147  1
  Al  Al15  1  0.664466  0.664799  0.447794  1
  Al  Al16  1  0.664903  0.662673  0.049998  1
  Al  Al17  1  0.337324  0.335099  0.950001  1
  Al  Al18  1  0.337772  0.549530  0.249805  1
  Al  Al19  1  0.661358  0.449765  0.751336  1
  Al  Al20  1  0.550195  0.338635  0.248691  1
  Al  Al21  1  0.450437  0.662226  0.750204  1
  Cu  Cu22  1  0.999647  0.999922  0.999942  1
  Cu  Cu23  1  0.000225  0.000059  0.500200  1
  Ru  Ru24  1  0.671669  0.328342  0.000034  1
  Rh  Rh25  1  0.328682  0.671336  0.000001  1
  Rh  Rh26  1  0.328230  0.671814  0.499998  1
  Rh  Rh27  1  0.671424  0.328628  0.500018  1
