# generated using pymatgen
data_Y12Ho7Er(CoSb2)4
_symmetry_space_group_name_H-M   'P 1'
_cell_length_a   7.91237602
_cell_length_b   8.75209305
_cell_length_c   12.24688004
_cell_angle_alpha   90.00863223
_cell_angle_beta   89.99753676
_cell_angle_gamma   89.99182374
_symmetry_Int_Tables_number   1
_chemical_formula_structural   Y12Ho7Er(CoSb2)4
_chemical_formula_sum   'Y12 Ho7 Er1 Co4 Sb8'
_cell_volume   848.09460083
_cell_formula_units_Z   1
loop_
 _symmetry_equiv_pos_site_id
 _symmetry_equiv_pos_as_xyz
  1  'x, y, z'
loop_
 _atom_site_type_symbol
 _atom_site_label
 _atom_site_symmetry_multiplicity
 _atom_site_fract_x
 _atom_site_fract_y
 _atom_site_fract_z
 _atom_site_occupancy
  Y  Y0  1  0.154819  0.750099  0.203355  1
  Y  Y1  1  0.655060  0.249958  0.296414  1
  Y  Y2  1  0.845039  0.249927  0.796684  1
  Y  Y3  1  0.344963  0.749996  0.703551  1
  Y  Y4  1  0.456679  0.750092  0.998248  1
  Y  Y5  1  0.956549  0.249969  0.501752  1
  Y  Y6  1  0.543867  0.249847  0.001765  1
  Y  Y7  1  0.043427  0.750009  0.498240  1
  Y  Y8  1  0.625099  0.749972  0.306325  1
  Y  Y9  1  0.124779  0.249868  0.193399  1
  Y  Y10  1  0.374927  0.249987  0.693657  1
  Y  Y11  1  0.874843  0.750164  0.806586  1
  Ho  Ho12  1  0.323475  0.033999  0.434811  1
  Ho  Ho13  1  0.176433  0.466143  0.934931  1
  Ho  Ho14  1  0.676511  0.533960  0.565162  1
  Ho  Ho15  1  0.176333  0.033887  0.934930  1
  Ho  Ho16  1  0.676510  0.966030  0.565176  1
  Ho  Ho17  1  0.823550  0.533993  0.065167  1
  Ho  Ho18  1  0.323462  0.465987  0.434827  1
  Er  Er19  1  0.824378  0.966211  0.065089  1
  Co  Co20  1  0.437843  0.749998  0.490969  1
  Co  Co21  1  0.937667  0.249875  0.009014  1
  Co  Co22  1  0.562167  0.249984  0.509025  1
  Co  Co23  1  0.061651  0.750246  0.991101  1
  Sb  Sb24  1  0.930183  0.992348  0.326624  1
  Sb  Sb25  1  0.430583  0.007532  0.173177  1
  Sb  Sb26  1  0.069687  0.492391  0.673326  1
  Sb  Sb27  1  0.569727  0.507604  0.826747  1
  Sb  Sb28  1  0.069721  0.007592  0.673288  1
  Sb  Sb29  1  0.569602  0.992380  0.826697  1
  Sb  Sb30  1  0.930255  0.507599  0.326727  1
  Sb  Sb31  1  0.430213  0.492353  0.173237  1
