# generated using pymatgen
data_LiY6RhBr12
_symmetry_space_group_name_H-M   'P 1'
_cell_length_a   9.23663812
_cell_length_b   9.23663929
_cell_length_c   9.23663910
_cell_angle_alpha   107.72034381
_cell_angle_beta   107.72033029
_cell_angle_gamma   107.72034601
_symmetry_Int_Tables_number   1
_chemical_formula_structural   LiY6RhBr12
_chemical_formula_sum   'Li1 Y6 Rh1 Br12'
_cell_volume   642.94593299
_cell_formula_units_Z   1
loop_
 _symmetry_equiv_pos_site_id
 _symmetry_equiv_pos_as_xyz
  1  'x, y, z'
loop_
 _atom_site_type_symbol
 _atom_site_label
 _atom_site_symmetry_multiplicity
 _atom_site_fract_x
 _atom_site_fract_y
 _atom_site_fract_z
 _atom_site_occupancy
  Li  Li0  1  0.500000  0.500000  0.500000  1
  Y  Y1  1  0.322502  0.113091  0.035421  1
  Y  Y2  1  0.035421  0.322502  0.113091  1
  Y  Y3  1  0.113091  0.035421  0.322502  1
  Y  Y4  1  0.677498  0.886909  0.964579  1
  Y  Y5  1  0.964579  0.677498  0.886909  1
  Y  Y6  1  0.886909  0.964579  0.677498  1
  Rh  Rh7  1  0.000000  0.000000  0.000000  1
  Br  Br8  1  0.682635  0.219212  0.072048  1
  Br  Br9  1  0.072048  0.682635  0.219212  1
  Br  Br10  1  0.219212  0.072048  0.682635  1
  Br  Br11  1  0.317365  0.780788  0.927952  1
  Br  Br12  1  0.927952  0.317365  0.780788  1
  Br  Br13  1  0.780788  0.927952  0.317365  1
  Br  Br14  1  0.461078  0.167531  0.382812  1
  Br  Br15  1  0.382812  0.461078  0.167531  1
  Br  Br16  1  0.167531  0.382812  0.461078  1
  Br  Br17  1  0.538922  0.832469  0.617188  1
  Br  Br18  1  0.617188  0.538922  0.832469  1
  Br  Br19  1  0.832469  0.617188  0.538922  1
