# generated using pymatgen
data_YHo5Co16(P6Ru)2
_symmetry_space_group_name_H-M   'P 1'
_cell_length_a   3.69445500
_cell_length_b   10.48135300
_cell_length_c   12.21180900
_cell_angle_alpha   90.00000000
_cell_angle_beta   90.00000000
_cell_angle_gamma   90.00000000
_symmetry_Int_Tables_number   1
_chemical_formula_structural   YHo5Co16(P6Ru)2
_chemical_formula_sum   'Y1 Ho5 Co16 P12 Ru2'
_cell_volume   472.87649994
_cell_formula_units_Z   1
loop_
 _symmetry_equiv_pos_site_id
 _symmetry_equiv_pos_as_xyz
  1  'x, y, z'
loop_
 _atom_site_type_symbol
 _atom_site_label
 _atom_site_symmetry_multiplicity
 _atom_site_fract_x
 _atom_site_fract_y
 _atom_site_fract_z
 _atom_site_occupancy
  Y  Y0  1  0.000000  0.500000  0.524843  1
  Ho  Ho1  1  0.500000  0.000000  0.475284  1
  Ho  Ho2  1  0.500000  0.817470  0.206966  1
  Ho  Ho3  1  0.500000  0.182530  0.206966  1
  Ho  Ho4  1  0.000000  0.682706  0.793074  1
  Ho  Ho5  1  0.000000  0.317294  0.793074  1
  Co  Co6  1  0.000000  0.500000  0.986232  1
  Co  Co7  1  0.500000  0.000000  0.013824  1
  Co  Co8  1  0.500000  0.296817  0.431127  1
  Co  Co9  1  0.500000  0.703183  0.431127  1
  Co  Co10  1  0.000000  0.202332  0.568800  1
  Co  Co11  1  0.000000  0.797668  0.568800  1
  Co  Co12  1  0.500000  0.879067  0.707588  1
  Co  Co13  1  0.500000  0.120933  0.707588  1
  Co  Co14  1  0.000000  0.621165  0.292240  1
  Co  Co15  1  0.000000  0.378835  0.292240  1
  Co  Co16  1  0.500000  0.332369  0.990516  1
  Co  Co17  1  0.500000  0.667631  0.990516  1
  Co  Co18  1  0.000000  0.167510  0.009481  1
  Co  Co19  1  0.000000  0.832490  0.009481  1
  Co  Co20  1  0.500000  0.500000  0.704513  1
  Co  Co21  1  0.000000  0.000000  0.296012  1
  P  P22  1  0.500000  0.311390  0.616620  1
  P  P23  1  0.500000  0.688610  0.616620  1
  P  P24  1  0.000000  0.187981  0.383662  1
  P  P25  1  0.000000  0.812019  0.383662  1
  P  P26  1  0.500000  0.500000  0.881859  1
  P  P27  1  0.000000  0.000000  0.118345  1
  P  P28  1  0.500000  0.846469  0.893052  1
  P  P29  1  0.500000  0.153531  0.893052  1
  P  P30  1  0.000000  0.653661  0.106897  1
  P  P31  1  0.000000  0.346339  0.106897  1
  P  P32  1  0.500000  0.500000  0.350075  1
  P  P33  1  0.000000  0.000000  0.649280  1
  Ru  Ru34  1  0.500000  0.500000  0.159404  1
  Ru  Ru35  1  0.000000  0.000000  0.840284  1
