# generated using pymatgen
data_BaLi4La3Si8
_symmetry_space_group_name_H-M   'P 1'
_cell_length_a   3.92954900
_cell_length_b   7.99969411
_cell_length_c   10.97224222
_cell_angle_alpha   89.69241083
_cell_angle_beta   90.00000000
_cell_angle_gamma   90.00000000
_symmetry_Int_Tables_number   1
_chemical_formula_structural   BaLi4La3Si8
_chemical_formula_sum   'Ba1 Li4 La3 Si8'
_cell_volume   344.90954864
_cell_formula_units_Z   1
loop_
 _symmetry_equiv_pos_site_id
 _symmetry_equiv_pos_as_xyz
  1  'x, y, z'
loop_
 _atom_site_type_symbol
 _atom_site_label
 _atom_site_symmetry_multiplicity
 _atom_site_fract_x
 _atom_site_fract_y
 _atom_site_fract_z
 _atom_site_occupancy
  Ba  Ba0  1  0.750000  0.360008  0.366724  1
  Li  Li1  1  0.250000  0.002067  0.391459  1
  Li  Li2  1  0.750000  0.002669  0.612282  1
  Li  Li3  1  0.250000  0.495120  0.107631  1
  Li  Li4  1  0.750000  0.502711  0.890744  1
  La  La5  1  0.250000  0.130244  0.864986  1
  La  La6  1  0.750000  0.864899  0.132591  1
  La  La7  1  0.250000  0.634284  0.635815  1
  Si  Si8  1  0.750000  0.266882  0.063837  1
  Si  Si9  1  0.250000  0.726276  0.926813  1
  Si  Si10  1  0.750000  0.780545  0.429940  1
  Si  Si11  1  0.250000  0.226082  0.584695  1
  Si  Si12  1  0.750000  0.830043  0.822613  1
  Si  Si13  1  0.250000  0.156987  0.162497  1
  Si  Si14  1  0.750000  0.332025  0.685522  1
  Si  Si15  1  0.250000  0.689156  0.321851  1
