# generated using pymatgen
data_TbEr2Sc2Sn3
_symmetry_space_group_name_H-M   'P 1'
_cell_length_a   8.77841509
_cell_length_b   8.76372880
_cell_length_c   6.26541700
_cell_angle_alpha   90.00000000
_cell_angle_beta   90.00000000
_cell_angle_gamma   119.94466851
_symmetry_Int_Tables_number   1
_chemical_formula_structural   TbEr2Sc2Sn3
_chemical_formula_sum   'Tb2 Er4 Sc4 Sn6'
_cell_volume   417.66446698
_cell_formula_units_Z   2
loop_
 _symmetry_equiv_pos_site_id
 _symmetry_equiv_pos_as_xyz
  1  'x, y, z'
loop_
 _atom_site_type_symbol
 _atom_site_label
 _atom_site_symmetry_multiplicity
 _atom_site_fract_x
 _atom_site_fract_y
 _atom_site_fract_z
 _atom_site_occupancy
  Tb  Tb0  1  0.000000  0.761507  0.750000  1
  Tb  Tb1  1  0.000000  0.238493  0.250000  1
  Er  Er2  1  0.760798  0.760942  0.250000  1
  Er  Er3  1  0.760798  0.999857  0.750000  1
  Er  Er4  1  0.239202  0.239058  0.750000  1
  Er  Er5  1  0.239202  0.000143  0.250000  1
  Sc  Sc6  1  0.333366  0.666683  0.500000  1
  Sc  Sc7  1  0.666634  0.333317  0.000000  1
  Sc  Sc8  1  0.666634  0.333317  0.500000  1
  Sc  Sc9  1  0.333366  0.666683  0.000000  1
  Sn  Sn10  1  0.399997  0.000380  0.750000  1
  Sn  Sn11  1  0.399997  0.399617  0.250000  1
  Sn  Sn12  1  0.000000  0.600980  0.250000  1
  Sn  Sn13  1  0.000000  0.399020  0.750000  1
  Sn  Sn14  1  0.600003  0.600383  0.750000  1
  Sn  Sn15  1  0.600003  0.999620  0.250000  1
