# generated using pymatgen
data_Dy9Lu11(Sn3Bi)4
_symmetry_space_group_name_H-M   'P 1'
_cell_length_a   8.08811219
_cell_length_b   8.09447204
_cell_length_c   15.28889984
_cell_angle_alpha   90.00157003
_cell_angle_beta   90.07643752
_cell_angle_gamma   90.04494454
_symmetry_Int_Tables_number   1
_chemical_formula_structural   Dy9Lu11(Sn3Bi)4
_chemical_formula_sum   'Dy9 Lu11 Sn12 Bi4'
_cell_volume   1000.94775449
_cell_formula_units_Z   1
loop_
 _symmetry_equiv_pos_site_id
 _symmetry_equiv_pos_as_xyz
  1  'x, y, z'
loop_
 _atom_site_type_symbol
 _atom_site_label
 _atom_site_symmetry_multiplicity
 _atom_site_fract_x
 _atom_site_fract_y
 _atom_site_fract_z
 _atom_site_occupancy
  Dy  Dy0  1  0.870141  0.662846  0.877606  1
  Dy  Dy1  1  0.545684  0.325101  0.896316  1
  Dy  Dy2  1  0.045210  0.175077  0.603065  1
  Dy  Dy3  1  0.454758  0.674334  0.396485  1
  Dy  Dy4  1  0.953514  0.826969  0.105190  1
  Dy  Dy5  1  0.473793  0.673338  0.101921  1
  Dy  Dy6  1  0.973451  0.826012  0.398008  1
  Dy  Dy7  1  0.525733  0.325795  0.601221  1
  Dy  Dy8  1  0.027076  0.173355  0.897479  1
  Lu  Lu9  1  0.377864  0.839997  0.873712  1
  Lu  Lu10  1  0.877290  0.659568  0.625330  1
  Lu  Lu11  1  0.622075  0.159575  0.374023  1
  Lu  Lu12  1  0.121939  0.340569  0.125576  1
  Lu  Lu13  1  0.630882  0.161324  0.125091  1
  Lu  Lu14  1  0.132662  0.338343  0.376242  1
  Lu  Lu15  1  0.368378  0.838618  0.623459  1
  Lu  Lu16  1  0.203528  0.502418  0.746127  1
  Lu  Lu17  1  0.702947  0.998083  0.752758  1
  Lu  Lu18  1  0.796764  0.497133  0.247427  1
  Lu  Lu19  1  0.296291  0.002267  0.253171  1
  Sn  Sn20  1  0.710768  0.968973  0.958030  1
  Sn  Sn21  1  0.211554  0.534841  0.542423  1
  Sn  Sn22  1  0.288062  0.034522  0.457372  1
  Sn  Sn23  1  0.786751  0.463956  0.044480  1
  Sn  Sn24  1  0.568260  0.624439  0.747491  1
  Sn  Sn25  1  0.069362  0.876583  0.750517  1
  Sn  Sn26  1  0.431167  0.375445  0.248392  1
  Sn  Sn27  1  0.931999  0.125062  0.252119  1
  Sn  Sn28  1  0.343101  0.148822  0.751097  1
  Sn  Sn29  1  0.842423  0.351143  0.747787  1
  Sn  Sn30  1  0.656376  0.850534  0.251788  1
  Sn  Sn31  1  0.157024  0.648321  0.248794  1
  Bi  Bi32  1  0.282878  0.030896  0.043308  1
  Bi  Bi33  1  0.783871  0.467762  0.456714  1
  Bi  Bi34  1  0.716302  0.968176  0.542889  1
  Bi  Bi35  1  0.220124  0.529802  0.956591  1
