# generated using pymatgen
data_TbScVB6
_symmetry_space_group_name_H-M   'P 1'
_cell_length_a   3.47841400
_cell_length_b   9.09420900
_cell_length_c   11.44129300
_cell_angle_alpha   90.00000000
_cell_angle_beta   90.00000000
_cell_angle_gamma   90.00000000
_symmetry_Int_Tables_number   1
_chemical_formula_structural   TbScVB6
_chemical_formula_sum   'Tb4 Sc4 V4 B24'
_cell_volume   361.92727148
_cell_formula_units_Z   4
loop_
 _symmetry_equiv_pos_site_id
 _symmetry_equiv_pos_as_xyz
  1  'x, y, z'
loop_
 _atom_site_type_symbol
 _atom_site_label
 _atom_site_symmetry_multiplicity
 _atom_site_fract_x
 _atom_site_fract_y
 _atom_site_fract_z
 _atom_site_occupancy
  Tb  Tb0  1  0.000000  0.822710  0.085304  1
  Tb  Tb1  1  0.000000  0.177290  0.914696  1
  Tb  Tb2  1  0.000000  0.322710  0.414696  1
  Tb  Tb3  1  0.000000  0.677290  0.585304  1
  Sc  Sc4  1  0.000000  0.443426  0.131048  1
  Sc  Sc5  1  0.000000  0.556574  0.868952  1
  Sc  Sc6  1  0.000000  0.943426  0.368952  1
  Sc  Sc7  1  0.000000  0.056574  0.631048  1
  V  V8  1  0.000000  0.142358  0.182146  1
  V  V9  1  0.000000  0.857642  0.817854  1
  V  V10  1  0.000000  0.642358  0.317854  1
  V  V11  1  0.000000  0.357642  0.682146  1
  B  B12  1  0.500000  0.054033  0.066876  1
  B  B13  1  0.500000  0.945967  0.933124  1
  B  B14  1  0.500000  0.554033  0.433124  1
  B  B15  1  0.500000  0.445967  0.566876  1
  B  B16  1  0.500000  0.254567  0.081919  1
  B  B17  1  0.500000  0.745433  0.918081  1
  B  B18  1  0.500000  0.754567  0.418081  1
  B  B19  1  0.500000  0.245433  0.581919  1
  B  B20  1  0.500000  0.295981  0.235969  1
  B  B21  1  0.500000  0.704019  0.764031  1
  B  B22  1  0.500000  0.795981  0.264031  1
  B  B23  1  0.500000  0.204019  0.735969  1
  B  B24  1  0.500000  0.129303  0.317815  1
  B  B25  1  0.500000  0.870697  0.682185  1
  B  B26  1  0.500000  0.629303  0.182185  1
  B  B27  1  0.500000  0.370697  0.817815  1
  B  B28  1  0.500000  0.481250  0.285847  1
  B  B29  1  0.500000  0.518750  0.714153  1
  B  B30  1  0.500000  0.981250  0.214153  1
  B  B31  1  0.500000  0.018750  0.785847  1
  B  B32  1  0.500000  0.094799  0.474161  1
  B  B33  1  0.500000  0.905201  0.525839  1
  B  B34  1  0.500000  0.594799  0.025839  1
  B  B35  1  0.500000  0.405201  0.974161  1
