# generated using pymatgen
data_Tb2Er6Hf11Si16Pd
_symmetry_space_group_name_H-M   'P 1'
_cell_length_a   7.26196438
_cell_length_b   7.26044738
_cell_length_c   13.21612490
_cell_angle_alpha   89.83523718
_cell_angle_beta   90.16993295
_cell_angle_gamma   89.91926737
_symmetry_Int_Tables_number   1
_chemical_formula_structural   Tb2Er6Hf11Si16Pd
_chemical_formula_sum   'Tb2 Er6 Hf11 Si16 Pd1'
_cell_volume   696.81499685
_cell_formula_units_Z   1
loop_
 _symmetry_equiv_pos_site_id
 _symmetry_equiv_pos_as_xyz
  1  'x, y, z'
loop_
 _atom_site_type_symbol
 _atom_site_label
 _atom_site_symmetry_multiplicity
 _atom_site_fract_x
 _atom_site_fract_y
 _atom_site_fract_z
 _atom_site_occupancy
  Tb  Tb0  1  0.345177  0.997287  0.789383  1
  Tb  Tb1  1  0.654180  0.005769  0.283027  1
  Er  Er2  1  0.998272  0.346026  0.210767  1
  Er  Er3  1  0.004781  0.653344  0.716760  1
  Er  Er4  1  0.155327  0.495352  0.464588  1
  Er  Er5  1  0.499526  0.848119  0.032921  1
  Er  Er6  1  0.848453  0.499399  0.967127  1
  Er  Er7  1  0.495214  0.155707  0.535416  1
  Hf  Hf8  1  0.825080  0.824415  0.500108  1
  Hf  Hf9  1  0.322258  0.676504  0.248536  1
  Hf  Hf10  1  0.677353  0.323178  0.751398  1
  Hf  Hf11  1  0.145794  0.997246  0.373517  1
  Hf  Hf12  1  0.855842  0.002672  0.878768  1
  Hf  Hf13  1  0.503231  0.645729  0.626196  1
  Hf  Hf14  1  0.355095  0.493913  0.877574  1
  Hf  Hf15  1  0.493754  0.355215  0.122280  1
  Hf  Hf16  1  0.645794  0.502916  0.373836  1
  Hf  Hf17  1  0.997461  0.145931  0.626559  1
  Hf  Hf18  1  0.002607  0.855632  0.120991  1
  Si  Si19  1  0.357239  0.296738  0.316108  1
  Si  Si20  1  0.641703  0.703886  0.820080  1
  Si  Si21  1  0.206803  0.860153  0.568867  1
  Si  Si22  1  0.133541  0.780240  0.929037  1
  Si  Si23  1  0.782438  0.134981  0.070989  1
  Si  Si24  1  0.861212  0.207903  0.431759  1
  Si  Si25  1  0.295484  0.359339  0.683474  1
  Si  Si26  1  0.705191  0.639545  0.179557  1
  Si  Si27  1  0.292352  0.055487  0.184574  1
  Si  Si28  1  0.704566  0.950054  0.686375  1
  Si  Si29  1  0.449636  0.796628  0.435583  1
  Si  Si30  1  0.207712  0.559399  0.063592  1
  Si  Si31  1  0.560935  0.208723  0.936717  1
  Si  Si32  1  0.797516  0.450730  0.564828  1
  Si  Si33  1  0.054230  0.294722  0.814924  1
  Si  Si34  1  0.951014  0.702981  0.313268  1
  Pd  Pd35  1  0.173227  0.174134  0.000517  1
