# generated using pymatgen
data_PuMoO6
_symmetry_space_group_name_H-M   'P 1'
_cell_length_a   5.81642200
_cell_length_b   7.29196816
_cell_length_c   13.78521006
_cell_angle_alpha   76.29817275
_cell_angle_beta   90.00000000
_cell_angle_gamma   90.00000000
_symmetry_Int_Tables_number   1
_chemical_formula_structural   PuMoO6
_chemical_formula_sum   'Pu4 Mo4 O24'
_cell_volume   568.03545853
_cell_formula_units_Z   4
loop_
 _symmetry_equiv_pos_site_id
 _symmetry_equiv_pos_as_xyz
  1  'x, y, z'
loop_
 _atom_site_type_symbol
 _atom_site_label
 _atom_site_symmetry_multiplicity
 _atom_site_fract_x
 _atom_site_fract_y
 _atom_site_fract_z
 _atom_site_occupancy
  Pu  Pu0  1  0.696376  0.170467  0.646019  1
  Pu  Pu1  1  0.196376  0.829533  0.853981  1
  Pu  Pu2  1  0.303624  0.829533  0.353981  1
  Pu  Pu3  1  0.803624  0.170467  0.146019  1
  Mo  Mo4  1  0.418023  0.287002  0.891873  1
  Mo  Mo5  1  0.581977  0.712998  0.108127  1
  Mo  Mo6  1  0.081977  0.287002  0.391873  1
  Mo  Mo7  1  0.918023  0.712998  0.608127  1
  O  O8  1  0.314968  0.520120  0.888414  1
  O  O9  1  0.956977  0.091107  0.712557  1
  O  O10  1  0.565931  0.758259  0.416715  1
  O  O11  1  0.579379  0.291293  0.781190  1
  O  O12  1  0.099368  0.794628  0.501005  1
  O  O13  1  0.456977  0.908893  0.787443  1
  O  O14  1  0.543023  0.091107  0.212557  1
  O  O15  1  0.065931  0.241741  0.083285  1
  O  O16  1  0.816079  0.873718  0.109923  1
  O  O17  1  0.185032  0.520120  0.388414  1
  O  O18  1  0.043023  0.908893  0.287443  1
  O  O19  1  0.920621  0.291293  0.281190  1
  O  O20  1  0.183921  0.126282  0.890077  1
  O  O21  1  0.934069  0.758259  0.916715  1
  O  O22  1  0.599368  0.205372  0.998995  1
  O  O23  1  0.420621  0.708707  0.218810  1
  O  O24  1  0.434069  0.241741  0.583285  1
  O  O25  1  0.683921  0.873718  0.609923  1
  O  O26  1  0.400632  0.794628  0.001005  1
  O  O27  1  0.900632  0.205372  0.498995  1
  O  O28  1  0.079379  0.708707  0.718810  1
  O  O29  1  0.814968  0.479880  0.611586  1
  O  O30  1  0.316079  0.126282  0.390077  1
  O  O31  1  0.685032  0.479880  0.111586  1
