# generated using pymatgen
data_Yb4In3Pb
_symmetry_space_group_name_H-M   'P 1'
_cell_length_a   6.64758455
_cell_length_b   6.64758478
_cell_length_c   6.65475218
_cell_angle_alpha   109.25790028
_cell_angle_beta   109.25789607
_cell_angle_gamma   109.85538846
_symmetry_Int_Tables_number   1
_chemical_formula_structural   Yb4In3Pb
_chemical_formula_sum   'Yb4 In3 Pb1'
_cell_volume   226.49226853
_cell_formula_units_Z   1
loop_
 _symmetry_equiv_pos_site_id
 _symmetry_equiv_pos_as_xyz
  1  'x, y, z'
loop_
 _atom_site_type_symbol
 _atom_site_label
 _atom_site_symmetry_multiplicity
 _atom_site_fract_x
 _atom_site_fract_y
 _atom_site_fract_z
 _atom_site_occupancy
  Yb  Yb0  1  0.754727  0.254727  0.509453  1
  Yb  Yb1  1  0.254727  0.754727  0.509453  1
  Yb  Yb2  1  0.742040  0.742040  0.990715  1
  Yb  Yb3  1  0.248674  0.248674  0.990715  1
  In  In4  1  0.758276  0.252727  0.011004  1
  In  In5  1  0.252727  0.758276  0.011004  1
  In  In6  1  0.242990  0.242990  0.485979  1
  Pb  Pb7  1  0.745839  0.745839  0.491678  1
