# generated using pymatgen
data_Br3N10
_symmetry_space_group_name_H-M   'P 1'
_cell_length_a   7.25466135
_cell_length_b   8.24022429
_cell_length_c   9.90840442
_cell_angle_alpha   82.10734765
_cell_angle_beta   102.57422330
_cell_angle_gamma   120.01076444
_symmetry_Int_Tables_number   1
_chemical_formula_structural   Br3N10
_chemical_formula_sum   'Br3 N10'
_cell_volume   500.32703138
_cell_formula_units_Z   1
loop_
 _symmetry_equiv_pos_site_id
 _symmetry_equiv_pos_as_xyz
  1  'x, y, z'
loop_
 _atom_site_type_symbol
 _atom_site_label
 _atom_site_symmetry_multiplicity
 _atom_site_fract_x
 _atom_site_fract_y
 _atom_site_fract_z
 _atom_site_occupancy
  Br  Br0  1  0.154556  0.140866  0.618233  1
  Br  Br1  1  0.305154  0.976785  0.526490  1
  Br  Br2  1  0.122100  0.417117  0.648176  1
  N  N3  1  0.099960  0.737516  0.852678  1
  N  N4  1  0.908216  0.589588  0.173440  1
  N  N5  1  0.232553  0.728041  0.928464  1
  N  N6  1  0.686198  0.630692  0.487032  1
  N  N7  1  0.743774  0.134166  0.318254  1
  N  N8  1  0.366244  0.229397  0.033426  1
  N  N9  1  0.570296  0.591134  0.387457  1
  N  N10  1  0.048045  0.614538  0.257868  1
  N  N11  1  0.751183  0.049655  0.243095  1
  N  N12  1  0.227940  0.191627  0.085575  1
