# generated using pymatgen
data_Ho20IrPt3Rh8
_symmetry_space_group_name_H-M   'P 1'
_cell_length_a   10.93386444
_cell_length_b   10.93376765
_cell_length_c   6.31293314
_cell_angle_alpha   89.99478710
_cell_angle_beta   89.99391649
_cell_angle_gamma   90.20266908
_symmetry_Int_Tables_number   1
_chemical_formula_structural   Ho20IrPt3Rh8
_chemical_formula_sum   'Ho20 Ir1 Pt3 Rh8'
_cell_volume   754.69590619
_cell_formula_units_Z   1
loop_
 _symmetry_equiv_pos_site_id
 _symmetry_equiv_pos_as_xyz
  1  'x, y, z'
loop_
 _atom_site_type_symbol
 _atom_site_label
 _atom_site_symmetry_multiplicity
 _atom_site_fract_x
 _atom_site_fract_y
 _atom_site_fract_z
 _atom_site_occupancy
  Ho  Ho0  1  0.292557  0.087417  0.372654  1
  Ho  Ho1  1  0.292506  0.907621  0.876203  1
  Ho  Ho2  1  0.707008  0.089548  0.874102  1
  Ho  Ho3  1  0.705770  0.910248  0.373803  1
  Ho  Ho4  1  0.585535  0.790238  0.877520  1
  Ho  Ho5  1  0.587506  0.209237  0.378031  1
  Ho  Ho6  1  0.409546  0.789600  0.379396  1
  Ho  Ho7  1  0.412231  0.209371  0.877549  1
  Ho  Ho8  1  0.209767  0.414456  0.622469  1
  Ho  Ho9  1  0.210402  0.590442  0.120610  1
  Ho  Ho10  1  0.790768  0.412479  0.121959  1
  Ho  Ho11  1  0.790636  0.587763  0.622471  1
  Ho  Ho12  1  0.912598  0.707445  0.127336  1
  Ho  Ho13  1  0.910454  0.292988  0.625907  1
  Ho  Ho14  1  0.092382  0.707493  0.623796  1
  Ho  Ho15  1  0.089768  0.294231  0.126197  1
  Ho  Ho16  1  0.000719  0.998279  0.499993  1
  Ho  Ho17  1  0.001724  0.999289  0.000006  1
  Ho  Ho18  1  0.499307  0.500392  0.000616  1
  Ho  Ho19  1  0.499596  0.500682  0.499385  1
  Ir  Ir20  1  0.345967  0.654034  0.750002  1
  Pt  Pt21  1  0.845971  0.154028  0.250006  1
  Pt  Pt22  1  0.844823  0.845032  0.750051  1
  Pt  Pt23  1  0.154963  0.155179  0.749948  1
  Rh  Rh24  1  0.152627  0.847363  0.250007  1
  Rh  Rh25  1  0.654616  0.345391  0.750010  1
  Rh  Rh26  1  0.655635  0.654702  0.249594  1
  Rh  Rh27  1  0.345306  0.344368  0.250389  1
  Rh  Rh28  1  0.500238  0.000292  0.123001  1
  Rh  Rh29  1  0.500152  0.000761  0.623809  1
  Rh  Rh30  1  0.999226  0.499858  0.876187  1
  Rh  Rh31  1  0.999697  0.499773  0.376995  1
