# generated using pymatgen
data_Nd8GaPd24
_symmetry_space_group_name_H-M   'P 1'
_cell_length_a   8.49277700
_cell_length_b   8.49277700
_cell_length_c   8.49277700
_cell_angle_alpha   90.00000000
_cell_angle_beta   90.00000000
_cell_angle_gamma   90.00000000
_symmetry_Int_Tables_number   1
_chemical_formula_structural   Nd8GaPd24
_chemical_formula_sum   'Nd8 Ga1 Pd24'
_cell_volume   612.56074475
_cell_formula_units_Z   1
loop_
 _symmetry_equiv_pos_site_id
 _symmetry_equiv_pos_as_xyz
  1  'x, y, z'
loop_
 _atom_site_type_symbol
 _atom_site_label
 _atom_site_symmetry_multiplicity
 _atom_site_fract_x
 _atom_site_fract_y
 _atom_site_fract_z
 _atom_site_occupancy
  Nd  Nd0  1  0.251673  0.251673  0.748327  1
  Nd  Nd1  1  0.251673  0.748327  0.251673  1
  Nd  Nd2  1  0.748327  0.251673  0.251673  1
  Nd  Nd3  1  0.748327  0.748327  0.748327  1
  Nd  Nd4  1  0.748327  0.748327  0.251673  1
  Nd  Nd5  1  0.748327  0.251673  0.748327  1
  Nd  Nd6  1  0.251673  0.748327  0.748327  1
  Nd  Nd7  1  0.251673  0.251673  0.251673  1
  Ga  Ga8  1  0.000000  0.000000  0.000000  1
  Pd  Pd9  1  0.500000  0.500000  0.746464  1
  Pd  Pd10  1  0.500000  0.253536  0.500000  1
  Pd  Pd11  1  0.253536  0.500000  0.500000  1
  Pd  Pd12  1  0.500000  0.500000  0.253536  1
  Pd  Pd13  1  0.500000  0.746464  0.500000  1
  Pd  Pd14  1  0.746464  0.500000  0.500000  1
  Pd  Pd15  1  0.000000  0.000000  0.706737  1
  Pd  Pd16  1  0.000000  0.293263  0.000000  1
  Pd  Pd17  1  0.293263  0.000000  0.000000  1
  Pd  Pd18  1  0.000000  0.000000  0.293263  1
  Pd  Pd19  1  0.000000  0.706737  0.000000  1
  Pd  Pd20  1  0.706737  0.000000  0.000000  1
  Pd  Pd21  1  0.000000  0.500000  0.739464  1
  Pd  Pd22  1  0.500000  0.260536  0.000000  1
  Pd  Pd23  1  0.260536  0.000000  0.500000  1
  Pd  Pd24  1  0.000000  0.260536  0.500000  1
  Pd  Pd25  1  0.500000  0.000000  0.739464  1
  Pd  Pd26  1  0.260536  0.500000  0.000000  1
  Pd  Pd27  1  0.000000  0.500000  0.260536  1
  Pd  Pd28  1  0.500000  0.739464  0.000000  1
  Pd  Pd29  1  0.000000  0.739464  0.500000  1
  Pd  Pd30  1  0.500000  0.000000  0.260536  1
  Pd  Pd31  1  0.739464  0.000000  0.500000  1
  Pd  Pd32  1  0.739464  0.500000  0.000000  1
