# generated using pymatgen
data_Pa5(Co4Sn)3
_symmetry_space_group_name_H-M   'P 1'
_cell_length_a   5.33574700
_cell_length_b   7.21213730
_cell_length_c   8.29013578
_cell_angle_alpha   90.19343439
_cell_angle_beta   90.00000000
_cell_angle_gamma   90.00000000
_symmetry_Int_Tables_number   1
_chemical_formula_structural   Pa5(Co4Sn)3
_chemical_formula_sum   'Pa5 Co12 Sn3'
_cell_volume   319.02034742
_cell_formula_units_Z   1
loop_
 _symmetry_equiv_pos_site_id
 _symmetry_equiv_pos_as_xyz
  1  'x, y, z'
loop_
 _atom_site_type_symbol
 _atom_site_label
 _atom_site_symmetry_multiplicity
 _atom_site_fract_x
 _atom_site_fract_y
 _atom_site_fract_z
 _atom_site_occupancy
  Pa  Pa0  1  0.750000  0.893233  0.854212  1
  Pa  Pa1  1  0.750000  0.393348  0.656084  1
  Pa  Pa2  1  0.250000  0.108955  0.142201  1
  Pa  Pa3  1  0.250000  0.599712  0.346151  1
  Pa  Pa4  1  0.750000  0.937094  0.405179  1
  Co  Co5  1  0.750000  0.581160  0.378260  1
  Co  Co6  1  0.750000  0.088178  0.128985  1
  Co  Co7  1  0.250000  0.422862  0.609874  1
  Co  Co8  1  0.250000  0.915765  0.887291  1
  Co  Co9  1  0.994755  0.256557  0.377316  1
  Co  Co10  1  0.499528  0.767984  0.130329  1
  Co  Co11  1  0.496495  0.737983  0.614557  1
  Co  Co12  1  0.000886  0.232978  0.873875  1
  Co  Co13  1  0.003505  0.737983  0.614557  1
  Co  Co14  1  0.499114  0.232978  0.873875  1
  Co  Co15  1  0.505245  0.256557  0.377316  1
  Co  Co16  1  0.000472  0.767984  0.130329  1
  Sn  Sn17  1  0.750000  0.440468  0.094180  1
  Sn  Sn18  1  0.250000  0.066380  0.607821  1
  Sn  Sn19  1  0.250000  0.561842  0.897610  1
