# generated using pymatgen
data_Pr8Er11ScSi15Sn
_symmetry_space_group_name_H-M   'P 1'
_cell_length_a   7.49600380
_cell_length_b   7.80474129
_cell_length_c   14.81704223
_cell_angle_alpha   90.08574766
_cell_angle_beta   89.46128462
_cell_angle_gamma   90.02361348
_symmetry_Int_Tables_number   1
_chemical_formula_structural   Pr8Er11ScSi15Sn
_chemical_formula_sum   'Pr8 Er11 Sc1 Si15 Sn1'
_cell_volume   866.82237021
_cell_formula_units_Z   1
loop_
 _symmetry_equiv_pos_site_id
 _symmetry_equiv_pos_as_xyz
  1  'x, y, z'
loop_
 _atom_site_type_symbol
 _atom_site_label
 _atom_site_symmetry_multiplicity
 _atom_site_fract_x
 _atom_site_fract_y
 _atom_site_fract_z
 _atom_site_occupancy
  Pr  Pr0  1  0.015205  0.172101  0.399276  1
  Pr  Pr1  1  0.519165  0.321550  0.400519  1
  Pr  Pr2  1  0.479366  0.677091  0.901147  1
  Pr  Pr3  1  0.491603  0.683012  0.602451  1
  Pr  Pr4  1  0.981949  0.826133  0.600632  1
  Pr  Pr5  1  0.981093  0.821180  0.901552  1
  Pr  Pr6  1  0.519854  0.321905  0.097615  1
  Pr  Pr7  1  0.019768  0.178678  0.096964  1
  Er  Er8  1  0.331861  0.164277  0.630210  1
  Er  Er9  1  0.672743  0.823484  0.375080  1
  Er  Er10  1  0.657424  0.990988  0.752662  1
  Er  Er11  1  0.171044  0.684995  0.372162  1
  Er  Er12  1  0.822483  0.324605  0.876135  1
  Er  Er13  1  0.817278  0.324251  0.625881  1
  Er  Er14  1  0.843031  0.490429  0.249153  1
  Er  Er15  1  0.344370  0.010326  0.248922  1
  Er  Er16  1  0.319652  0.176965  0.876571  1
  Er  Er17  1  0.177579  0.677465  0.122150  1
  Er  Er18  1  0.676609  0.822344  0.121866  1
  Sc  Sc19  1  0.155812  0.506971  0.754190  1
  Si  Si20  1  0.276275  0.869408  0.752128  1
  Si  Si21  1  0.469383  0.615596  0.248499  1
  Si  Si22  1  0.027445  0.117865  0.751129  1
  Si  Si23  1  0.522651  0.387620  0.752195  1
  Si  Si24  1  0.968889  0.886789  0.247019  1
  Si  Si25  1  0.723873  0.120478  0.248027  1
  Si  Si26  1  0.853852  0.531940  0.039219  1
  Si  Si27  1  0.353796  0.968233  0.039356  1
  Si  Si28  1  0.145425  0.468744  0.958665  1
  Si  Si29  1  0.651007  0.034262  0.538593  1
  Si  Si30  1  0.350603  0.967136  0.461137  1
  Si  Si31  1  0.840689  0.535637  0.458607  1
  Si  Si32  1  0.784768  0.622290  0.751345  1
  Si  Si33  1  0.223344  0.380388  0.249275  1
  Si  Si34  1  0.645864  0.032652  0.960036  1
  Sn  Sn35  1  0.164246  0.462211  0.539630  1
