# generated using pymatgen
data_Pu4Re3B16Os
_symmetry_space_group_name_H-M   'P 1'
_cell_length_a   5.98749324
_cell_length_b   11.59519647
_cell_length_c   3.56583500
_cell_angle_alpha   90.00000000
_cell_angle_beta   90.00000000
_cell_angle_gamma   90.03262723
_symmetry_Int_Tables_number   1
_chemical_formula_structural   Pu4Re3B16Os
_chemical_formula_sum   'Pu4 Re3 B16 Os1'
_cell_volume   247.56219293
_cell_formula_units_Z   1
loop_
 _symmetry_equiv_pos_site_id
 _symmetry_equiv_pos_as_xyz
  1  'x, y, z'
loop_
 _atom_site_type_symbol
 _atom_site_label
 _atom_site_symmetry_multiplicity
 _atom_site_fract_x
 _atom_site_fract_y
 _atom_site_fract_z
 _atom_site_occupancy
  Pu  Pu0  1  0.626129  0.349838  0.000000  1
  Pu  Pu1  1  0.373137  0.650003  0.000000  1
  Pu  Pu2  1  0.125979  0.150678  0.000000  1
  Pu  Pu3  1  0.873999  0.850001  0.000000  1
  Re  Re4  1  0.635691  0.090430  0.000000  1
  Re  Re5  1  0.364058  0.908747  0.000000  1
  Re  Re6  1  0.137296  0.408823  0.000000  1
  B  B7  1  0.786944  0.186841  0.500000  1
  B  B8  1  0.212158  0.813060  0.500000  1
  B  B9  1  0.287559  0.313192  0.500000  1
  B  B10  1  0.713087  0.686381  0.500000  1
  B  B11  1  0.864967  0.031577  0.500000  1
  B  B12  1  0.134990  0.968444  0.500000  1
  B  B13  1  0.365355  0.468819  0.500000  1
  B  B14  1  0.635559  0.531458  0.500000  1
  B  B15  1  0.885808  0.452954  0.500000  1
  B  B16  1  0.114261  0.546911  0.500000  1
  B  B17  1  0.385574  0.046735  0.500000  1
  B  B18  1  0.614555  0.953051  0.500000  1
  B  B19  1  0.972875  0.308062  0.500000  1
  B  B20  1  0.026729  0.691783  0.500000  1
  B  B21  1  0.473841  0.191880  0.500000  1
  B  B22  1  0.527154  0.807876  0.500000  1
  Os  Os23  1  0.862295  0.592459  0.000000  1
