# generated using pymatgen
data_Y5Sc3(Ni4As3)4
_symmetry_space_group_name_H-M   'P 1'
_cell_length_a   12.74343900
_cell_length_b   12.74343847
_cell_length_c   3.91954900
_cell_angle_alpha   90.00000000
_cell_angle_beta   90.00000000
_cell_angle_gamma   120.00000398
_symmetry_Int_Tables_number   1
_chemical_formula_structural   Y5Sc3(Ni4As3)4
_chemical_formula_sum   'Y5 Sc3 Ni16 As12'
_cell_volume   551.23905943
_cell_formula_units_Z   1
loop_
 _symmetry_equiv_pos_site_id
 _symmetry_equiv_pos_as_xyz
  1  'x, y, z'
loop_
 _atom_site_type_symbol
 _atom_site_label
 _atom_site_symmetry_multiplicity
 _atom_site_fract_x
 _atom_site_fract_y
 _atom_site_fract_z
 _atom_site_occupancy
  Y  Y0  1  0.183934  0.183934  0.500000  1
  Y  Y1  1  0.816066  0.000000  0.500000  1
  Y  Y2  1  0.000000  0.816066  0.500000  1
  Y  Y3  1  0.333333  0.666667  0.000000  1
  Y  Y4  1  0.666667  0.333333  0.000000  1
  Sc  Sc5  1  0.565553  0.565553  0.000000  1
  Sc  Sc6  1  0.434447  0.000000  0.000000  1
  Sc  Sc7  1  0.000000  0.434447  0.000000  1
  Ni  Ni8  1  0.721356  0.721356  0.500000  1
  Ni  Ni9  1  0.278644  0.000000  0.500000  1
  Ni  Ni10  1  0.000000  0.278644  0.500000  1
  Ni  Ni11  1  0.185002  0.378625  0.000000  1
  Ni  Ni12  1  0.621375  0.806377  0.000000  1
  Ni  Ni13  1  0.193623  0.814998  0.000000  1
  Ni  Ni14  1  0.806377  0.621375  0.000000  1
  Ni  Ni15  1  0.814998  0.193623  0.000000  1
  Ni  Ni16  1  0.378625  0.185002  0.000000  1
  Ni  Ni17  1  0.361230  0.481442  0.500000  1
  Ni  Ni18  1  0.518558  0.879789  0.500000  1
  Ni  Ni19  1  0.120211  0.638770  0.500000  1
  Ni  Ni20  1  0.879789  0.518558  0.500000  1
  Ni  Ni21  1  0.638770  0.120211  0.500000  1
  Ni  Ni22  1  0.481442  0.361230  0.500000  1
  Ni  Ni23  1  0.000000  0.000000  0.000000  1
  As  As24  1  0.821374  0.821374  0.000000  1
  As  As25  1  0.178626  0.000000  0.000000  1
  As  As26  1  0.000000  0.178626  0.000000  1
  As  As27  1  0.171490  0.479157  0.500000  1
  As  As28  1  0.520843  0.692333  0.500000  1
  As  As29  1  0.307667  0.828510  0.500000  1
  As  As30  1  0.692333  0.520843  0.500000  1
  As  As31  1  0.828510  0.307667  0.500000  1
  As  As32  1  0.479157  0.171490  0.500000  1
  As  As33  1  0.356453  0.356453  0.000000  1
  As  As34  1  0.643547  0.000000  0.000000  1
  As  As35  1  0.000000  0.643547  0.000000  1
