# generated using pymatgen
data_TmPa3(SnRh2)2
_symmetry_space_group_name_H-M   'P 1'
_cell_length_a   7.65313354
_cell_length_b   7.65313370
_cell_length_c   3.63739900
_cell_angle_alpha   90.00000000
_cell_angle_beta   90.00000000
_cell_angle_gamma   91.87696332
_symmetry_Int_Tables_number   1
_chemical_formula_structural   TmPa3(SnRh2)2
_chemical_formula_sum   'Tm1 Pa3 Sn2 Rh4'
_cell_volume   212.92980617
_cell_formula_units_Z   1
loop_
 _symmetry_equiv_pos_site_id
 _symmetry_equiv_pos_as_xyz
  1  'x, y, z'
loop_
 _atom_site_type_symbol
 _atom_site_label
 _atom_site_symmetry_multiplicity
 _atom_site_fract_x
 _atom_site_fract_y
 _atom_site_fract_z
 _atom_site_occupancy
  Tm  Tm0  1  0.327299  0.172701  0.500000  1
  Pa  Pa1  1  0.668104  0.831896  0.500000  1
  Pa  Pa2  1  0.173460  0.669954  0.500000  1
  Pa  Pa3  1  0.830046  0.326540  0.500000  1
  Sn  Sn4  1  0.009115  0.003672  0.000000  1
  Sn  Sn5  1  0.496328  0.490885  0.000000  1
  Rh  Rh6  1  0.647635  0.126393  0.000000  1
  Rh  Rh7  1  0.858245  0.641755  0.000000  1
  Rh  Rh8  1  0.373607  0.852365  0.000000  1
  Rh  Rh9  1  0.116161  0.383839  0.000000  1
