# generated using pymatgen
data_KBa(U2Se5)2
_symmetry_space_group_name_H-M   'P 1'
_cell_length_a   7.86093700
_cell_length_b   8.83402043
_cell_length_c   12.26010483
_cell_angle_alpha   89.81669189
_cell_angle_beta   90.00000000
_cell_angle_gamma   90.00000000
_symmetry_Int_Tables_number   1
_chemical_formula_structural   KBa(U2Se5)2
_chemical_formula_sum   'K2 Ba2 U8 Se20'
_cell_volume   851.38241550
_cell_formula_units_Z   2
loop_
 _symmetry_equiv_pos_site_id
 _symmetry_equiv_pos_as_xyz
  1  'x, y, z'
loop_
 _atom_site_type_symbol
 _atom_site_label
 _atom_site_symmetry_multiplicity
 _atom_site_fract_x
 _atom_site_fract_y
 _atom_site_fract_z
 _atom_site_occupancy
  K  K0  1  0.055285  0.491253  0.327821  1
  K  K1  1  0.555285  0.508747  0.172179  1
  Ba  Ba2  1  0.944803  0.508425  0.664043  1
  Ba  Ba3  1  0.444803  0.491575  0.835957  1
  U  U4  1  0.024692  0.999547  0.317950  1
  U  U5  1  0.524692  0.000453  0.182050  1
  U  U6  1  0.978165  0.001270  0.681193  1
  U  U7  1  0.478165  0.998730  0.818807  1
  U  U8  1  0.069529  0.755185  0.011810  1
  U  U9  1  0.569529  0.244815  0.488190  1
  U  U10  1  0.929435  0.249552  0.993747  1
  U  U11  1  0.429435  0.750448  0.506253  1
  Se  Se12  1  0.664609  0.953342  0.404996  1
  Se  Se13  1  0.164609  0.046658  0.095004  1
  Se  Se14  1  0.336841  0.043965  0.596822  1
  Se  Se15  1  0.836841  0.956035  0.903178  1
  Se  Se16  1  0.450596  0.793460  0.001967  1
  Se  Se17  1  0.950596  0.206540  0.498033  1
  Se  Se18  1  0.549358  0.205827  0.997935  1
  Se  Se19  1  0.049358  0.794173  0.502065  1
  Se  Se20  1  0.837075  0.788273  0.186616  1
  Se  Se21  1  0.337075  0.211727  0.313384  1
  Se  Se22  1  0.159682  0.216139  0.812143  1
  Se  Se23  1  0.659682  0.783861  0.687857  1
  Se  Se24  1  0.308931  0.779825  0.284083  1
  Se  Se25  1  0.808931  0.220175  0.215917  1
  Se  Se26  1  0.687456  0.224013  0.714055  1
  Se  Se27  1  0.187456  0.775987  0.785945  1
  Se  Se28  1  0.177455  0.459736  0.066794  1
  Se  Se29  1  0.677455  0.540264  0.433206  1
  Se  Se30  1  0.826088  0.539169  0.925060  1
  Se  Se31  1  0.326088  0.460831  0.574940  1
