# generated using pymatgen
data_La5Nd11Cd3Hg(OsPd)2
_symmetry_space_group_name_H-M   'P 1'
_cell_length_a   10.01715108
_cell_length_b   10.04535777
_cell_length_c   10.14189024
_cell_angle_alpha   59.44879312
_cell_angle_beta   59.66166735
_cell_angle_gamma   59.46453639
_symmetry_Int_Tables_number   1
_chemical_formula_structural   La5Nd11Cd3Hg(OsPd)2
_chemical_formula_sum   'La5 Nd11 Cd3 Hg1 Os2 Pd2'
_cell_volume   713.82763622
_cell_formula_units_Z   1
loop_
 _symmetry_equiv_pos_site_id
 _symmetry_equiv_pos_as_xyz
  1  'x, y, z'
loop_
 _atom_site_type_symbol
 _atom_site_label
 _atom_site_symmetry_multiplicity
 _atom_site_fract_x
 _atom_site_fract_y
 _atom_site_fract_z
 _atom_site_occupancy
  La  La0  1  0.347740  0.347407  0.356710  1
  La  La1  1  0.348725  0.347967  0.946556  1
  La  La2  1  0.343728  0.956782  0.348524  1
  La  La3  1  0.953551  0.346754  0.352212  1
  La  La4  1  0.821655  0.186293  0.188134  1
  Nd  Nd5  1  0.186933  0.816087  0.803196  1
  Nd  Nd6  1  0.190755  0.814091  0.189780  1
  Nd  Nd7  1  0.815078  0.186569  0.801783  1
  Nd  Nd8  1  0.189532  0.188033  0.810167  1
  Nd  Nd9  1  0.804780  0.803293  0.193722  1
  Nd  Nd10  1  0.936315  0.557163  0.568503  1
  Nd  Nd11  1  0.558358  0.935128  0.936706  1
  Nd  Nd12  1  0.556206  0.935482  0.567849  1
  Nd  Nd13  1  0.937091  0.557981  0.938424  1
  Nd  Nd14  1  0.562779  0.562621  0.937428  1
  Nd  Nd15  1  0.937792  0.936787  0.560845  1
  Cd  Cd16  1  0.578818  0.582119  0.257779  1
  Cd  Cd17  1  0.579846  0.256116  0.582938  1
  Cd  Cd18  1  0.256581  0.581290  0.580765  1
  Hg  Hg19  1  0.582761  0.584530  0.586368  1
  Os  Os20  1  0.137679  0.146913  0.141066  1
  Os  Os21  1  0.148044  0.147753  0.572102  1
  Pd  Pd22  1  0.147909  0.575494  0.139035  1
  Pd  Pd23  1  0.577346  0.147346  0.139405  1
