# generated using pymatgen
data_PrSmLu4(RuO7)2
_symmetry_space_group_name_H-M   'P 1'
_cell_length_a   6.34754491
_cell_length_b   6.34754393
_cell_length_c   7.41381304
_cell_angle_alpha   90.03493143
_cell_angle_beta   90.03493550
_cell_angle_gamma   109.60455759
_symmetry_Int_Tables_number   1
_chemical_formula_structural   PrSmLu4(RuO7)2
_chemical_formula_sum   'Pr1 Sm1 Lu4 Ru2 O14'
_cell_volume   281.39603320
_cell_formula_units_Z   1
loop_
 _symmetry_equiv_pos_site_id
 _symmetry_equiv_pos_as_xyz
  1  'x, y, z'
loop_
 _atom_site_type_symbol
 _atom_site_label
 _atom_site_symmetry_multiplicity
 _atom_site_fract_x
 _atom_site_fract_y
 _atom_site_fract_z
 _atom_site_occupancy
  Pr  Pr0  1  0.000000  0.000000  0.500000  1
  Sm  Sm1  1  0.000000  0.000000  0.000000  1
  Lu  Lu2  1  0.485250  0.938072  0.751497  1
  Lu  Lu3  1  0.514750  0.061928  0.248503  1
  Lu  Lu4  1  0.938072  0.485250  0.751497  1
  Lu  Lu5  1  0.061928  0.514750  0.248503  1
  Ru  Ru6  1  0.500000  0.500000  0.500000  1
  Ru  Ru7  1  0.500000  0.500000  0.000000  1
  O  O8  1  0.594195  0.594195  0.749866  1
  O  O9  1  0.405805  0.405805  0.250134  1
  O  O10  1  0.835554  0.123080  0.755046  1
  O  O11  1  0.164446  0.876920  0.244954  1
  O  O12  1  0.123080  0.835554  0.755046  1
  O  O13  1  0.876920  0.164446  0.244954  1
  O  O14  1  0.438493  0.177498  0.963685  1
  O  O15  1  0.558573  0.822511  0.463338  1
  O  O16  1  0.177498  0.438493  0.963685  1
  O  O17  1  0.822511  0.558573  0.463338  1
  O  O18  1  0.441427  0.177489  0.536662  1
  O  O19  1  0.561507  0.822502  0.036315  1
  O  O20  1  0.822502  0.561507  0.036315  1
  O  O21  1  0.177489  0.441427  0.536662  1
