# generated using pymatgen
data_CeSm5(CI5)2
_symmetry_space_group_name_H-M   'P 1'
_cell_length_a   7.85990275
_cell_length_b   9.64338989
_cell_length_c   9.72617793
_cell_angle_alpha   107.08109908
_cell_angle_beta   97.03633070
_cell_angle_gamma   104.55489795
_symmetry_Int_Tables_number   1
_chemical_formula_structural   CeSm5(CI5)2
_chemical_formula_sum   'Ce1 Sm5 C2 I10'
_cell_volume   666.54210507
_cell_formula_units_Z   1
loop_
 _symmetry_equiv_pos_site_id
 _symmetry_equiv_pos_as_xyz
  1  'x, y, z'
loop_
 _atom_site_type_symbol
 _atom_site_label
 _atom_site_symmetry_multiplicity
 _atom_site_fract_x
 _atom_site_fract_y
 _atom_site_fract_z
 _atom_site_occupancy
  Ce  Ce0  1  0.620743  0.864756  0.817333  1
  Sm  Sm1  1  0.106725  0.039924  0.779563  1
  Sm  Sm2  1  0.375495  0.133691  0.180147  1
  Sm  Sm3  1  0.894885  0.960346  0.220999  1
  Sm  Sm4  1  0.031730  0.738615  0.925031  1
  Sm  Sm5  1  0.969920  0.261536  0.075306  1
  C  C6  1  0.910418  0.969311  0.957863  1
  C  C7  1  0.088889  0.030090  0.041471  1
  I  I8  1  0.182825  0.732252  0.643113  1
  I  I9  1  0.088015  0.368116  0.821541  1
  I  I10  1  0.455253  0.809188  0.097802  1
  I  I11  1  0.255696  0.085501  0.460654  1
  I  I12  1  0.542458  0.196643  0.910238  1
  I  I13  1  0.811786  0.266182  0.354270  1
  I  I14  1  0.345732  0.455620  0.274087  1
  I  I15  1  0.912838  0.632027  0.178802  1
  I  I16  1  0.657282  0.539774  0.726068  1
  I  I17  1  0.749311  0.916427  0.535712  1
