# generated using pymatgen
data_Zr5(Re5Tc3)3
_symmetry_space_group_name_H-M   'P 1'
_cell_length_a   8.48808203
_cell_length_b   8.48808151
_cell_length_c   8.48808130
_cell_angle_alpha   109.51340304
_cell_angle_beta   109.51340252
_cell_angle_gamma   109.51340069
_symmetry_Int_Tables_number   1
_chemical_formula_structural   Zr5(Re5Tc3)3
_chemical_formula_sum   'Zr5 Re15 Tc9'
_cell_volume   470.03115102
_cell_formula_units_Z   1
loop_
 _symmetry_equiv_pos_site_id
 _symmetry_equiv_pos_as_xyz
  1  'x, y, z'
loop_
 _atom_site_type_symbol
 _atom_site_label
 _atom_site_symmetry_multiplicity
 _atom_site_fract_x
 _atom_site_fract_y
 _atom_site_fract_z
 _atom_site_occupancy
  Zr  Zr0  1  0.999246  0.999246  0.999246  1
  Zr  Zr1  1  0.625484  0.999785  0.999785  1
  Zr  Zr2  1  0.999785  0.625484  0.999785  1
  Zr  Zr3  1  0.999785  0.999785  0.625484  1
  Zr  Zr4  1  0.372450  0.372450  0.372450  1
  Re  Re5  1  0.604296  0.604296  0.278774  1
  Re  Re6  1  0.278774  0.604296  0.604296  1
  Re  Re7  1  0.604296  0.278774  0.604296  1
  Re  Re8  1  0.376967  0.195505  0.000878  1
  Re  Re9  1  0.180235  0.805479  0.805479  1
  Re  Re10  1  0.376967  0.000878  0.195505  1
  Re  Re11  1  0.195505  0.376967  0.000878  1
  Re  Re12  1  0.000878  0.376967  0.195505  1
  Re  Re13  1  0.805479  0.180235  0.805479  1
  Re  Re14  1  0.805479  0.805479  0.180235  1
  Re  Re15  1  0.000878  0.195505  0.376967  1
  Re  Re16  1  0.195505  0.000878  0.376967  1
  Re  Re17  1  0.622130  0.622130  0.816032  1
  Re  Re18  1  0.816032  0.622130  0.622130  1
  Re  Re19  1  0.622130  0.816032  0.622130  1
  Tc  Tc20  1  0.396788  0.677347  0.001124  1
  Tc  Tc21  1  0.720753  0.323212  0.323212  1
  Tc  Tc22  1  0.396788  0.001124  0.677347  1
  Tc  Tc23  1  0.677347  0.396788  0.001124  1
  Tc  Tc24  1  0.001124  0.396788  0.677347  1
  Tc  Tc25  1  0.323212  0.720753  0.323212  1
  Tc  Tc26  1  0.323212  0.323212  0.720753  1
  Tc  Tc27  1  0.001124  0.677347  0.396788  1
  Tc  Tc28  1  0.677347  0.001124  0.396788  1
