# generated using pymatgen
data_Tb3Mg2CdPdPb2
_symmetry_space_group_name_H-M   'P 1'
_cell_length_a   7.55956100
_cell_length_b   7.51129379
_cell_length_c   4.57649600
_cell_angle_alpha   90.00000000
_cell_angle_beta   90.00000000
_cell_angle_gamma   120.21281065
_symmetry_Int_Tables_number   1
_chemical_formula_structural   Tb3Mg2CdPdPb2
_chemical_formula_sum   'Tb3 Mg2 Cd1 Pd1 Pb2'
_cell_volume   224.56379199
_cell_formula_units_Z   1
loop_
 _symmetry_equiv_pos_site_id
 _symmetry_equiv_pos_as_xyz
  1  'x, y, z'
loop_
 _atom_site_type_symbol
 _atom_site_label
 _atom_site_symmetry_multiplicity
 _atom_site_fract_x
 _atom_site_fract_y
 _atom_site_fract_z
 _atom_site_occupancy
  Tb  Tb0  1  0.597679  0.000000  0.000000  1
  Tb  Tb1  1  0.001551  0.602205  0.000000  1
  Tb  Tb2  1  0.399347  0.397795  0.000000  1
  Mg  Mg3  1  0.000733  0.227268  0.500000  1
  Mg  Mg4  1  0.773466  0.772732  0.500000  1
  Cd  Cd5  1  0.229456  0.000000  0.500000  1
  Pd  Pd6  1  0.991165  0.000000  0.000000  1
  Pb  Pb7  1  0.334986  0.663370  0.500000  1
  Pb  Pb8  1  0.671617  0.336630  0.500000  1
