# generated using pymatgen
data_Zr3Fe8P6Ru
_symmetry_space_group_name_H-M   'P 1'
_cell_length_a   11.97699128
_cell_length_b   11.89353618
_cell_length_c   3.66785500
_cell_angle_alpha   90.00000000
_cell_angle_beta   90.00000000
_cell_angle_gamma   119.76975612
_symmetry_Int_Tables_number   1
_chemical_formula_structural   Zr3Fe8P6Ru
_chemical_formula_sum   'Zr6 Fe16 P12 Ru2'
_cell_volume   453.52836638
_cell_formula_units_Z   2
loop_
 _symmetry_equiv_pos_site_id
 _symmetry_equiv_pos_as_xyz
  1  'x, y, z'
loop_
 _atom_site_type_symbol
 _atom_site_label
 _atom_site_symmetry_multiplicity
 _atom_site_fract_x
 _atom_site_fract_y
 _atom_site_fract_z
 _atom_site_occupancy
  Zr  Zr0  1  0.000000  0.559950  0.000000  1
  Zr  Zr1  1  0.662553  0.334075  0.000000  1
  Zr  Zr2  1  0.337447  0.671523  0.000000  1
  Zr  Zr3  1  0.808791  0.812309  0.500000  1
  Zr  Zr4  1  0.191209  0.003517  0.500000  1
  Zr  Zr5  1  0.000000  0.173527  0.500000  1
  Fe  Fe6  1  0.197601  0.374674  0.000000  1
  Fe  Fe7  1  0.186383  0.811522  0.000000  1
  Fe  Fe8  1  0.813617  0.625139  0.000000  1
  Fe  Fe9  1  0.802399  0.177073  0.000000  1
  Fe  Fe10  1  0.376307  0.196633  0.000000  1
  Fe  Fe11  1  0.123744  0.475414  0.500000  1
  Fe  Fe12  1  0.364495  0.880579  0.500000  1
  Fe  Fe13  1  0.513715  0.641949  0.500000  1
  Fe  Fe14  1  0.635505  0.516084  0.500000  1
  Fe  Fe15  1  0.876256  0.351670  0.500000  1
  Fe  Fe16  1  0.486285  0.128235  0.500000  1
  Fe  Fe17  1  0.000000  0.998683  0.000000  1
  Fe  Fe18  1  0.718660  0.999557  0.500000  1
  Fe  Fe19  1  0.000000  0.726410  0.500000  1
  Fe  Fe20  1  0.623693  0.820326  0.000000  1
  Fe  Fe21  1  0.281340  0.280897  0.500000  1
  P  P22  1  0.633983  0.638218  0.000000  1
  P  P23  1  0.366017  0.004236  0.000000  1
  P  P24  1  0.000000  0.344183  0.000000  1
  P  P25  1  0.478541  0.311830  0.500000  1
  P  P26  1  0.684345  0.165776  0.500000  1
  P  P27  1  0.821802  0.521595  0.500000  1
  P  P28  1  0.521459  0.833289  0.500000  1
  P  P29  1  0.178198  0.699793  0.500000  1
  P  P30  1  0.818354  0.996027  0.000000  1
  P  P31  1  0.000000  0.819666  0.000000  1
  P  P32  1  0.315655  0.481431  0.500000  1
  P  P33  1  0.181646  0.177673  0.000000  1
  Ru  Ru34  1  0.443441  0.444991  0.000000  1
  Ru  Ru35  1  0.556559  0.001550  0.000000  1
