# generated using pymatgen
data_Cs2Ho2FeCuSe6
_symmetry_space_group_name_H-M   'P 1'
_cell_length_a   8.34878597
_cell_length_b   8.34878574
_cell_length_c   10.76012000
_cell_angle_alpha   90.00000000
_cell_angle_beta   90.00000000
_cell_angle_gamma   151.33606423
_symmetry_Int_Tables_number   1
_chemical_formula_structural   Cs2Ho2FeCuSe6
_chemical_formula_sum   'Cs2 Ho2 Fe1 Cu1 Se6'
_cell_volume   359.75553500
_cell_formula_units_Z   1
loop_
 _symmetry_equiv_pos_site_id
 _symmetry_equiv_pos_as_xyz
  1  'x, y, z'
loop_
 _atom_site_type_symbol
 _atom_site_label
 _atom_site_symmetry_multiplicity
 _atom_site_fract_x
 _atom_site_fract_y
 _atom_site_fract_z
 _atom_site_occupancy
  Cs  Cs0  1  0.738910  0.261088  0.250000  1
  Cs  Cs1  1  0.256102  0.743896  0.750000  1
  Ho  Ho2  1  0.004907  0.995093  0.986314  1
  Ho  Ho3  1  0.004907  0.995093  0.513686  1
  Fe  Fe4  1  0.464076  0.535922  0.250000  1
  Cu  Cu5  1  0.534096  0.465902  0.750000  1
  Se  Se6  1  0.385663  0.614335  0.064580  1
  Se  Se7  1  0.050810  0.949187  0.250000  1
  Se  Se8  1  0.385663  0.614335  0.435420  1
  Se  Se9  1  0.617343  0.382655  0.558035  1
  Se  Se10  1  0.940167  0.059830  0.750000  1
  Se  Se11  1  0.617343  0.382655  0.941965  1
