# generated using pymatgen
data_Tb4ReTc5B12
_symmetry_space_group_name_H-M   'P 1'
_cell_length_a   6.21086306
_cell_length_b   6.21668188
_cell_length_c   7.52206867
_cell_angle_alpha   89.35847406
_cell_angle_beta   89.32263966
_cell_angle_gamma   113.82157367
_symmetry_Int_Tables_number   1
_chemical_formula_structural   Tb4ReTc5B12
_chemical_formula_sum   'Tb4 Re1 Tc5 B12'
_cell_volume   265.63244848
_cell_formula_units_Z   1
loop_
 _symmetry_equiv_pos_site_id
 _symmetry_equiv_pos_as_xyz
  1  'x, y, z'
loop_
 _atom_site_type_symbol
 _atom_site_label
 _atom_site_symmetry_multiplicity
 _atom_site_fract_x
 _atom_site_fract_y
 _atom_site_fract_z
 _atom_site_occupancy
  Tb  Tb0  1  0.900021  0.557877  0.322624  1
  Tb  Tb1  1  0.440657  0.099521  0.176709  1
  Tb  Tb2  1  0.100225  0.445105  0.677263  1
  Tb  Tb3  1  0.561205  0.900920  0.822916  1
  Re  Re4  1  0.193851  0.009974  0.589903  1
  Tc  Tc5  1  0.412181  0.587869  0.249553  1
  Tc  Tc6  1  0.587808  0.412529  0.749666  1
  Tc  Tc7  1  0.009618  0.194915  0.089048  1
  Tc  Tc8  1  0.805499  0.989858  0.410872  1
  Tc  Tc9  1  0.990044  0.804026  0.911842  1
  B  B10  1  0.753613  0.848392  0.130123  1
  B  B11  1  0.152225  0.245872  0.371115  1
  B  B12  1  0.244073  0.151461  0.868575  1
  B  B13  1  0.848378  0.750916  0.629542  1
  B  B14  1  0.414941  0.841994  0.482206  1
  B  B15  1  0.158659  0.584298  0.018991  1
  B  B16  1  0.585427  0.159067  0.518062  1
  B  B17  1  0.841154  0.414718  0.981676  1
  B  B18  1  0.557874  0.650264  0.534087  1
  B  B19  1  0.350209  0.442404  0.965535  1
  B  B20  1  0.442905  0.351023  0.465371  1
  B  B21  1  0.649436  0.556996  0.034322  1
