# generated using pymatgen
data_Gd3Y2Si3
_symmetry_space_group_name_H-M   'P 1'
_cell_length_a   8.44941900
_cell_length_b   8.44941817
_cell_length_c   6.33699700
_cell_angle_alpha   90.00000000
_cell_angle_beta   90.00000000
_cell_angle_gamma   119.94965699
_symmetry_Int_Tables_number   1
_chemical_formula_structural   Gd3Y2Si3
_chemical_formula_sum   'Gd6 Y4 Si6'
_cell_volume   392.00163091
_cell_formula_units_Z   2
loop_
 _symmetry_equiv_pos_site_id
 _symmetry_equiv_pos_as_xyz
  1  'x, y, z'
loop_
 _atom_site_type_symbol
 _atom_site_label
 _atom_site_symmetry_multiplicity
 _atom_site_fract_x
 _atom_site_fract_y
 _atom_site_fract_z
 _atom_site_occupancy
  Gd  Gd0  1  0.252161  0.999687  0.250000  1
  Gd  Gd1  1  0.747838  0.000313  0.750000  1
  Gd  Gd2  1  0.999688  0.252161  0.250000  1
  Gd  Gd3  1  0.747657  0.747656  0.250000  1
  Gd  Gd4  1  0.252344  0.252343  0.750000  1
  Gd  Gd5  1  0.000312  0.747838  0.750000  1
  Y  Y6  1  0.333290  0.666710  0.000000  1
  Y  Y7  1  0.666710  0.333289  0.500001  1
  Y  Y8  1  0.666710  0.333289  0.000000  1
  Y  Y9  1  0.333290  0.666710  0.500001  1
  Si  Si10  1  0.607784  0.999986  0.250000  1
  Si  Si11  1  0.392217  0.000013  0.750000  1
  Si  Si12  1  0.999987  0.607784  0.250000  1
  Si  Si13  1  0.392439  0.392439  0.250000  1
  Si  Si14  1  0.607560  0.607561  0.750000  1
  Si  Si15  1  0.000014  0.392217  0.750000  1
