# generated using pymatgen
data_Er3Zn3RhAu2
_symmetry_space_group_name_H-M   'P 1'
_cell_length_a   7.49794000
_cell_length_b   7.49794129
_cell_length_c   3.71083600
_cell_angle_alpha   90.00000000
_cell_angle_beta   90.00000000
_cell_angle_gamma   119.99999433
_symmetry_Int_Tables_number   1
_chemical_formula_structural   Er3Zn3RhAu2
_chemical_formula_sum   'Er3 Zn3 Rh1 Au2'
_cell_volume   180.67015357
_cell_formula_units_Z   1
loop_
 _symmetry_equiv_pos_site_id
 _symmetry_equiv_pos_as_xyz
  1  'x, y, z'
loop_
 _atom_site_type_symbol
 _atom_site_label
 _atom_site_symmetry_multiplicity
 _atom_site_fract_x
 _atom_site_fract_y
 _atom_site_fract_z
 _atom_site_occupancy
  Er  Er0  1  0.590615  0.981506  0.000000  1
  Er  Er1  1  0.018494  0.609109  0.000000  1
  Er  Er2  1  0.390891  0.409385  0.000000  1
  Zn  Zn3  1  0.267567  0.997563  0.500000  1
  Zn  Zn4  1  0.002437  0.270002  0.500000  1
  Zn  Zn5  1  0.729998  0.732433  0.500000  1
  Rh  Rh6  1  0.333333  0.666667  0.500000  1
  Au  Au7  1  0.666667  0.333333  0.500000  1
  Au  Au8  1  0.000000  0.000000  0.000000  1
