# generated using pymatgen
data_Ca2Tb2Zn5Ni9
_symmetry_space_group_name_H-M   'P 1'
_cell_length_a   5.18848374
_cell_length_b   5.18848505
_cell_length_c   12.31965200
_cell_angle_alpha   77.84379372
_cell_angle_beta   77.84379060
_cell_angle_gamma   59.99998964
_symmetry_Int_Tables_number   1
_chemical_formula_structural   Ca2Tb2Zn5Ni9
_chemical_formula_sum   'Ca2 Tb2 Zn5 Ni9'
_cell_volume   278.59689075
_cell_formula_units_Z   1
loop_
 _symmetry_equiv_pos_site_id
 _symmetry_equiv_pos_as_xyz
  1  'x, y, z'
loop_
 _atom_site_type_symbol
 _atom_site_label
 _atom_site_symmetry_multiplicity
 _atom_site_fract_x
 _atom_site_fract_y
 _atom_site_fract_z
 _atom_site_occupancy
  Ca  Ca0  1  0.952819  0.952819  0.141917  1
  Ca  Ca1  1  0.047181  0.047181  0.858083  1
  Tb  Tb2  1  0.855791  0.855791  0.432417  1
  Tb  Tb3  1  0.144209  0.144209  0.567583  1
  Zn  Zn4  1  0.500000  0.500000  0.500000  1
  Zn  Zn5  1  0.721724  0.721724  0.832568  1
  Zn  Zn6  1  0.278276  0.278276  0.167432  1
  Zn  Zn7  1  0.609832  0.609832  0.168867  1
  Zn  Zn8  1  0.390168  0.390168  0.831133  1
  Ni  Ni9  1  0.000000  0.500000  0.000000  1
  Ni  Ni10  1  0.500000  0.000000  0.000000  1
  Ni  Ni11  1  0.500000  0.500000  0.000000  1
  Ni  Ni12  1  0.384733  0.384733  0.335724  1
  Ni  Ni13  1  0.895288  0.384838  0.335068  1
  Ni  Ni14  1  0.384838  0.895288  0.335068  1
  Ni  Ni15  1  0.615267  0.615267  0.664276  1
  Ni  Ni16  1  0.104712  0.615162  0.664932  1
  Ni  Ni17  1  0.615162  0.104712  0.664932  1
