# generated using pymatgen
data_Y3Tm5B24Ir3Rh
_symmetry_space_group_name_H-M   'P 1'
_cell_length_a   3.62640800
_cell_length_b   9.13828791
_cell_length_c   11.49496910
_cell_angle_alpha   90.02960542
_cell_angle_beta   90.00000000
_cell_angle_gamma   90.00000000
_symmetry_Int_Tables_number   1
_chemical_formula_structural   Y3Tm5B24Ir3Rh
_chemical_formula_sum   'Y3 Tm5 B24 Ir3 Rh1'
_cell_volume   380.93357351
_cell_formula_units_Z   1
loop_
 _symmetry_equiv_pos_site_id
 _symmetry_equiv_pos_as_xyz
  1  'x, y, z'
loop_
 _atom_site_type_symbol
 _atom_site_label
 _atom_site_symmetry_multiplicity
 _atom_site_fract_x
 _atom_site_fract_y
 _atom_site_fract_z
 _atom_site_occupancy
  Y  Y0  1  0.500000  0.322722  0.412695  1
  Y  Y1  1  0.500000  0.677599  0.586247  1
  Y  Y2  1  0.500000  0.178410  0.913415  1
  Tm  Tm3  1  0.500000  0.821310  0.087588  1
  Tm  Tm4  1  0.500000  0.445212  0.126070  1
  Tm  Tm5  1  0.500000  0.555963  0.875285  1
  Tm  Tm6  1  0.500000  0.055438  0.625111  1
  Tm  Tm7  1  0.500000  0.943184  0.373996  1
  B  B8  1  0.000000  0.107758  0.470124  1
  B  B9  1  0.000000  0.891633  0.529336  1
  B  B10  1  0.000000  0.391794  0.970652  1
  B  B11  1  0.000000  0.609981  0.030151  1
  B  B12  1  0.000000  0.131230  0.315359  1
  B  B13  1  0.000000  0.868276  0.684017  1
  B  B14  1  0.000000  0.368672  0.816308  1
  B  B15  1  0.000000  0.632694  0.183571  1
  B  B16  1  0.000000  0.052849  0.066569  1
  B  B17  1  0.000000  0.945935  0.934309  1
  B  B18  1  0.000000  0.446122  0.566538  1
  B  B19  1  0.000000  0.553584  0.433350  1
  B  B20  1  0.000000  0.482425  0.286468  1
  B  B21  1  0.000000  0.517993  0.714099  1
  B  B22  1  0.000000  0.017833  0.786438  1
  B  B23  1  0.000000  0.980841  0.212883  1
  B  B24  1  0.000000  0.250659  0.079969  1
  B  B25  1  0.000000  0.749930  0.921349  1
  B  B26  1  0.000000  0.249638  0.579478  1
  B  B27  1  0.000000  0.749929  0.419791  1
  B  B28  1  0.000000  0.293679  0.234077  1
  B  B29  1  0.000000  0.706686  0.766148  1
  B  B30  1  0.000000  0.206371  0.734183  1
  B  B31  1  0.000000  0.793998  0.264360  1
  Ir  Ir32  1  0.500000  0.137783  0.178729  1
  Ir  Ir33  1  0.500000  0.861541  0.821452  1
  Ir  Ir34  1  0.500000  0.360389  0.680669  1
  Rh  Rh35  1  0.500000  0.639941  0.319219  1
