# generated using pymatgen
data_VAsPCl13
_symmetry_space_group_name_H-M   'P 1'
_cell_length_a   9.67757893
_cell_length_b   9.67757861
_cell_length_c   12.01064300
_cell_angle_alpha   90.00000000
_cell_angle_beta   90.00000000
_cell_angle_gamma   114.40315037
_symmetry_Int_Tables_number   1
_chemical_formula_structural   VAsPCl13
_chemical_formula_sum   'V2 As2 P2 Cl26'
_cell_volume   1024.36893659
_cell_formula_units_Z   2
loop_
 _symmetry_equiv_pos_site_id
 _symmetry_equiv_pos_as_xyz
  1  'x, y, z'
loop_
 _atom_site_type_symbol
 _atom_site_label
 _atom_site_symmetry_multiplicity
 _atom_site_fract_x
 _atom_site_fract_y
 _atom_site_fract_z
 _atom_site_occupancy
  V  V0  1  0.794240  0.205760  0.998100  1
  V  V1  1  0.205760  0.794240  0.498100  1
  As  As2  1  0.548772  0.451228  0.846667  1
  As  As3  1  0.451228  0.548772  0.346667  1
  P  P4  1  0.142976  0.857024  0.033310  1
  P  P5  1  0.857024  0.142976  0.533310  1
  Cl  Cl6  1  0.239678  0.064456  0.091156  1
  Cl  Cl7  1  0.321740  0.678260  0.602510  1
  Cl  Cl8  1  0.698891  0.622863  0.368676  1
  Cl  Cl9  1  0.553451  0.446549  0.660949  1
  Cl  Cl10  1  0.004306  0.302963  0.107021  1
  Cl  Cl11  1  0.935544  0.760322  0.091156  1
  Cl  Cl12  1  0.257770  0.742230  0.081991  1
  Cl  Cl13  1  0.995694  0.697037  0.607021  1
  Cl  Cl14  1  0.064456  0.239678  0.591156  1
  Cl  Cl15  1  0.891214  0.417602  0.885737  1
  Cl  Cl16  1  0.697037  0.995694  0.107021  1
  Cl  Cl17  1  0.417602  0.891214  0.385737  1
  Cl  Cl18  1  0.377137  0.301109  0.368676  1
  Cl  Cl19  1  0.860858  0.139142  0.370128  1
  Cl  Cl20  1  0.301109  0.377137  0.868676  1
  Cl  Cl21  1  0.139142  0.860858  0.870128  1
  Cl  Cl22  1  0.622863  0.698891  0.868676  1
  Cl  Cl23  1  0.760322  0.935544  0.591156  1
  Cl  Cl24  1  0.092026  0.907974  0.387467  1
  Cl  Cl25  1  0.907974  0.092026  0.887467  1
  Cl  Cl26  1  0.446549  0.553451  0.160949  1
  Cl  Cl27  1  0.302963  0.004306  0.607021  1
  Cl  Cl28  1  0.582398  0.108786  0.885737  1
  Cl  Cl29  1  0.742230  0.257770  0.581991  1
  Cl  Cl30  1  0.678260  0.321740  0.102510  1
  Cl  Cl31  1  0.108786  0.582398  0.385737  1
