# generated using pymatgen
data_V3Zn2Rh3
_symmetry_space_group_name_H-M   'P 1'
_cell_length_a   3.00948500
_cell_length_b   3.00948500
_cell_length_c   12.13410500
_cell_angle_alpha   90.00000000
_cell_angle_beta   90.00000000
_cell_angle_gamma   90.00000000
_symmetry_Int_Tables_number   1
_chemical_formula_structural   V3Zn2Rh3
_chemical_formula_sum   'V3 Zn2 Rh3'
_cell_volume   109.89858856
_cell_formula_units_Z   1
loop_
 _symmetry_equiv_pos_site_id
 _symmetry_equiv_pos_as_xyz
  1  'x, y, z'
loop_
 _atom_site_type_symbol
 _atom_site_label
 _atom_site_symmetry_multiplicity
 _atom_site_fract_x
 _atom_site_fract_y
 _atom_site_fract_z
 _atom_site_occupancy
  V  V0  1  0.000000  0.000000  0.878500  1
  V  V1  1  0.000000  0.000000  0.121500  1
  V  V2  1  0.500000  0.500000  0.000000  1
  Zn  Zn3  1  0.000000  0.000000  0.375710  1
  Zn  Zn4  1  0.000000  0.000000  0.624290  1
  Rh  Rh5  1  0.500000  0.500000  0.242257  1
  Rh  Rh6  1  0.500000  0.500000  0.500000  1
  Rh  Rh7  1  0.500000  0.500000  0.757743  1
