# generated using pymatgen
data_Ba2Os7O18
_symmetry_space_group_name_H-M   'P 1'
_cell_length_a   6.85476288
_cell_length_b   7.36317820
_cell_length_c   7.54766692
_cell_angle_alpha   94.49146403
_cell_angle_beta   92.75999307
_cell_angle_gamma   114.98806921
_symmetry_Int_Tables_number   1
_chemical_formula_structural   Ba2Os7O18
_chemical_formula_sum   'Ba2 Os7 O18'
_cell_volume   342.83925008
_cell_formula_units_Z   1
loop_
 _symmetry_equiv_pos_site_id
 _symmetry_equiv_pos_as_xyz
  1  'x, y, z'
loop_
 _atom_site_type_symbol
 _atom_site_label
 _atom_site_symmetry_multiplicity
 _atom_site_fract_x
 _atom_site_fract_y
 _atom_site_fract_z
 _atom_site_occupancy
  Ba  Ba0  1  0.686970  0.316339  0.381785  1
  Ba  Ba1  1  0.313030  0.683661  0.618215  1
  Os  Os2  1  0.370276  0.280741  0.897596  1
  Os  Os3  1  0.629724  0.719259  0.102404  1
  Os  Os4  1  0.191845  0.367615  0.179334  1
  Os  Os5  1  0.808155  0.632385  0.820666  1
  Os  Os6  1  0.790428  0.141817  0.814763  1
  Os  Os7  1  0.209572  0.858183  0.185237  1
  Os  Os8  1  0.000000  0.000000  0.500000  1
  O  O9  1  0.332240  0.534342  0.974696  1
  O  O10  1  0.667760  0.465658  0.025304  1
  O  O11  1  0.491825  0.094273  0.825149  1
  O  O12  1  0.508175  0.905727  0.174851  1
  O  O13  1  0.887653  0.413283  0.733198  1
  O  O14  1  0.112347  0.586717  0.266802  1
  O  O15  1  0.289727  0.141709  0.121000  1
  O  O16  1  0.710273  0.858291  0.879000  1
  O  O17  1  0.086705  0.147011  0.747962  1
  O  O18  1  0.484846  0.551515  0.296151  1
  O  O19  1  0.515154  0.448485  0.703849  1
  O  O20  1  0.077927  0.763457  0.957767  1
  O  O21  1  0.922073  0.236543  0.042233  1
  O  O22  1  0.731088  0.018581  0.570717  1
  O  O23  1  0.268912  0.981419  0.429283  1
  O  O24  1  0.916463  0.743115  0.598168  1
  O  O25  1  0.083537  0.256885  0.401832  1
  O  O26  1  0.913295  0.852989  0.252038  1
