# generated using pymatgen
data_Pr8Si12PdRh3
_symmetry_space_group_name_H-M   'P 1'
_cell_length_a   8.30442800
_cell_length_b   8.30442884
_cell_length_c   8.53133500
_cell_angle_alpha   90.00000000
_cell_angle_beta   90.00000000
_cell_angle_gamma   120.00000464
_symmetry_Int_Tables_number   1
_chemical_formula_structural   Pr8Si12PdRh3
_chemical_formula_sum   'Pr8 Si12 Pd1 Rh3'
_cell_volume   509.52687878
_cell_formula_units_Z   1
loop_
 _symmetry_equiv_pos_site_id
 _symmetry_equiv_pos_as_xyz
  1  'x, y, z'
loop_
 _atom_site_type_symbol
 _atom_site_label
 _atom_site_symmetry_multiplicity
 _atom_site_fract_x
 _atom_site_fract_y
 _atom_site_fract_z
 _atom_site_occupancy
  Pr  Pr0  1  0.496955  0.503045  0.752536  1
  Pr  Pr1  1  0.500441  0.499559  0.247801  1
  Pr  Pr2  1  0.006091  0.503045  0.752536  1
  Pr  Pr3  1  0.999118  0.499559  0.247801  1
  Pr  Pr4  1  0.496955  0.993909  0.752536  1
  Pr  Pr5  1  0.500441  0.000882  0.247801  1
  Pr  Pr6  1  0.000000  0.000000  0.749932  1
  Pr  Pr7  1  0.000000  0.000000  0.249536  1
  Si  Si8  1  0.833094  0.166906  0.002262  1
  Si  Si9  1  0.166515  0.833485  0.997731  1
  Si  Si10  1  0.333812  0.166906  0.002262  1
  Si  Si11  1  0.167229  0.832771  0.502478  1
  Si  Si12  1  0.666970  0.833485  0.997731  1
  Si  Si13  1  0.835790  0.164210  0.497369  1
  Si  Si14  1  0.833094  0.666188  0.002262  1
  Si  Si15  1  0.665543  0.832771  0.502478  1
  Si  Si16  1  0.166515  0.333030  0.997731  1
  Si  Si17  1  0.328421  0.164210  0.497369  1
  Si  Si18  1  0.167229  0.334457  0.502478  1
  Si  Si19  1  0.835790  0.671579  0.497369  1
  Pd  Pd20  1  0.666667  0.333333  0.508022  1
  Rh  Rh21  1  0.666667  0.333333  0.992120  1
  Rh  Rh22  1  0.333333  0.666667  0.007987  1
  Rh  Rh23  1  0.333333  0.666667  0.491874  1
