# generated using pymatgen
data_Yb5HgPdAu
_symmetry_space_group_name_H-M   'P 1'
_cell_length_a   9.10260004
_cell_length_b   9.10257456
_cell_length_c   9.11069800
_cell_angle_alpha   128.21892508
_cell_angle_beta   128.21899908
_cell_angle_gamma   76.20559297
_symmetry_Int_Tables_number   1
_chemical_formula_structural   Yb5HgPdAu
_chemical_formula_sum   'Yb10 Hg2 Pd2 Au2'
_cell_volume   453.03903297
_cell_formula_units_Z   2
loop_
 _symmetry_equiv_pos_site_id
 _symmetry_equiv_pos_as_xyz
  1  'x, y, z'
loop_
 _atom_site_type_symbol
 _atom_site_label
 _atom_site_symmetry_multiplicity
 _atom_site_fract_x
 _atom_site_fract_y
 _atom_site_fract_z
 _atom_site_occupancy
  Yb  Yb0  1  0.000000  0.000000  0.000000  1
  Yb  Yb1  1  0.500000  0.500000  0.000000  1
  Yb  Yb2  1  0.795510  0.295510  0.820714  1
  Yb  Yb3  1  0.204490  0.704490  0.179286  1
  Yb  Yb4  1  0.474796  0.974797  0.179286  1
  Yb  Yb5  1  0.304088  0.465784  0.500001  1
  Yb  Yb6  1  0.034217  0.195912  0.500001  1
  Yb  Yb7  1  0.525204  0.025203  0.820714  1
  Yb  Yb8  1  0.695912  0.534216  0.499999  1
  Yb  Yb9  1  0.965783  0.804088  0.499999  1
  Hg  Hg10  1  0.250002  0.250000  0.000002  1
  Hg  Hg11  1  0.749998  0.750000  0.999998  1
  Pd  Pd12  1  0.631632  0.868354  0.500000  1
  Pd  Pd13  1  0.368368  0.131646  0.500000  1
  Au  Au14  1  0.134528  0.634528  0.769057  1
  Au  Au15  1  0.865472  0.365472  0.230943  1
