# generated using pymatgen
data_Y6Er5Lu9(Cd3Ru)2
_symmetry_space_group_name_H-M   'P 1'
_cell_length_a   9.50365123
_cell_length_b   9.50540817
_cell_length_c   9.71143624
_cell_angle_alpha   90.00000181
_cell_angle_beta   90.02207076
_cell_angle_gamma   120.00611201
_symmetry_Int_Tables_number   1
_chemical_formula_structural   Y6Er5Lu9(Cd3Ru)2
_chemical_formula_sum   'Y6 Er5 Lu9 Cd6 Ru2'
_cell_volume   759.71125706
_cell_formula_units_Z   1
loop_
 _symmetry_equiv_pos_site_id
 _symmetry_equiv_pos_as_xyz
  1  'x, y, z'
loop_
 _atom_site_type_symbol
 _atom_site_label
 _atom_site_symmetry_multiplicity
 _atom_site_fract_x
 _atom_site_fract_y
 _atom_site_fract_z
 _atom_site_occupancy
  Y  Y0  1  0.540171  0.459475  0.249082  1
  Y  Y1  1  0.540171  0.080695  0.249082  1
  Y  Y2  1  0.919509  0.459755  0.248809  1
  Y  Y3  1  0.459689  0.539798  0.750955  1
  Y  Y4  1  0.459689  0.919891  0.750955  1
  Y  Y5  1  0.080699  0.540350  0.751263  1
  Er  Er6  1  0.209692  0.790690  0.439901  1
  Er  Er7  1  0.209692  0.419003  0.439901  1
  Er  Er8  1  0.580925  0.790463  0.439807  1
  Er  Er9  1  0.789898  0.209591  0.560256  1
  Er  Er10  1  0.789898  0.580306  0.560256  1
  Lu  Lu11  1  0.000418  0.000209  0.500078  1
  Lu  Lu12  1  0.000049  0.000025  0.000093  1
  Lu  Lu13  1  0.419657  0.209828  0.560213  1
  Lu  Lu14  1  0.789781  0.209992  0.940336  1
  Lu  Lu15  1  0.789781  0.579787  0.940336  1
  Lu  Lu16  1  0.420384  0.210192  0.940022  1
  Lu  Lu17  1  0.210088  0.789886  0.059616  1
  Lu  Lu18  1  0.210088  0.420202  0.059616  1
  Lu  Lu19  1  0.579831  0.789916  0.059567  1
  Cd  Cd20  1  0.886482  0.113581  0.249697  1
  Cd  Cd21  1  0.886482  0.772900  0.249697  1
  Cd  Cd22  1  0.227204  0.113602  0.249821  1
  Cd  Cd23  1  0.113606  0.886462  0.750317  1
  Cd  Cd24  1  0.113606  0.227144  0.750317  1
  Cd  Cd25  1  0.772832  0.886416  0.750400  1
  Ru  Ru26  1  0.333343  0.666672  0.248889  1
  Ru  Ru27  1  0.666338  0.333168  0.750715  1
