# generated using pymatgen
data_Y5Zr3Co15NiP12
_symmetry_space_group_name_H-M   'P 1'
_cell_length_a   12.31083700
_cell_length_b   12.31083724
_cell_length_c   3.72626400
_cell_angle_alpha   90.00000000
_cell_angle_beta   90.00000000
_cell_angle_gamma   120.00000740
_symmetry_Int_Tables_number   1
_chemical_formula_structural   Y5Zr3Co15NiP12
_chemical_formula_sum   'Y5 Zr3 Co15 Ni1 P12'
_cell_volume   489.07942271
_cell_formula_units_Z   1
loop_
 _symmetry_equiv_pos_site_id
 _symmetry_equiv_pos_as_xyz
  1  'x, y, z'
loop_
 _atom_site_type_symbol
 _atom_site_label
 _atom_site_symmetry_multiplicity
 _atom_site_fract_x
 _atom_site_fract_y
 _atom_site_fract_z
 _atom_site_occupancy
  Y  Y0  1  0.183820  0.183820  0.500000  1
  Y  Y1  1  0.816180  0.000000  0.500000  1
  Y  Y2  1  0.000000  0.816180  0.500000  1
  Y  Y3  1  0.333333  0.666667  0.000000  1
  Y  Y4  1  0.666667  0.333333  0.000000  1
  Zr  Zr5  1  0.559090  0.559090  0.000000  1
  Zr  Zr6  1  0.440910  0.000000  0.000000  1
  Zr  Zr7  1  0.000000  0.440910  0.000000  1
  Co  Co8  1  0.722328  0.722328  0.500000  1
  Co  Co9  1  0.277672  0.000000  0.500000  1
  Co  Co10  1  0.000000  0.277672  0.500000  1
  Co  Co11  1  0.178213  0.372415  0.000000  1
  Co  Co12  1  0.627585  0.805798  0.000000  1
  Co  Co13  1  0.194202  0.821787  0.000000  1
  Co  Co14  1  0.805798  0.627585  0.000000  1
  Co  Co15  1  0.821787  0.194202  0.000000  1
  Co  Co16  1  0.372415  0.178213  0.000000  1
  Co  Co17  1  0.355167  0.479436  0.500000  1
  Co  Co18  1  0.520564  0.875732  0.500000  1
  Co  Co19  1  0.124268  0.644833  0.500000  1
  Co  Co20  1  0.875732  0.520564  0.500000  1
  Co  Co21  1  0.644833  0.124268  0.500000  1
  Co  Co22  1  0.479436  0.355167  0.500000  1
  Ni  Ni23  1  0.000000  0.000000  0.000000  1
  P  P24  1  0.821202  0.821202  0.000000  1
  P  P25  1  0.178798  0.000000  0.000000  1
  P  P26  1  0.000000  0.178798  0.000000  1
  P  P27  1  0.172069  0.477910  0.500000  1
  P  P28  1  0.522090  0.694159  0.500000  1
  P  P29  1  0.305841  0.827931  0.500000  1
  P  P30  1  0.694159  0.522090  0.500000  1
  P  P31  1  0.827931  0.305841  0.500000  1
  P  P32  1  0.477910  0.172069  0.500000  1
  P  P33  1  0.351756  0.351756  0.000000  1
  P  P34  1  0.648244  0.000000  0.000000  1
  P  P35  1  0.000000  0.648244  0.000000  1
