# generated using pymatgen
data_KLu2CuS4
_symmetry_space_group_name_H-M   'P 1'
_cell_length_a   3.89589100
_cell_length_b   6.92308085
_cell_length_c   13.59491000
_cell_angle_alpha   90.00000000
_cell_angle_beta   90.00000000
_cell_angle_gamma   73.65801463
_symmetry_Int_Tables_number   1
_chemical_formula_structural   KLu2CuS4
_chemical_formula_sum   'K2 Lu4 Cu2 S8'
_cell_volume   351.86210025
_cell_formula_units_Z   2
loop_
 _symmetry_equiv_pos_site_id
 _symmetry_equiv_pos_as_xyz
  1  'x, y, z'
loop_
 _atom_site_type_symbol
 _atom_site_label
 _atom_site_symmetry_multiplicity
 _atom_site_fract_x
 _atom_site_fract_y
 _atom_site_fract_z
 _atom_site_occupancy
  K  K0  1  0.889735  0.220531  0.250000  1
  K  K1  1  0.110265  0.779469  0.750000  1
  Lu  Lu2  1  0.633902  0.732198  0.063599  1
  Lu  Lu3  1  0.633902  0.732198  0.436402  1
  Lu  Lu4  1  0.366098  0.267802  0.563598  1
  Lu  Lu5  1  0.366098  0.267802  0.936401  1
  Cu  Cu6  1  0.162840  0.674316  0.250000  1
  Cu  Cu7  1  0.837160  0.325683  0.750000  1
  S  S8  1  0.000000  0.000000  0.000000  1
  S  S9  1  0.262167  0.475666  0.107990  1
  S  S10  1  0.568883  0.862237  0.250000  1
  S  S11  1  0.262167  0.475666  0.392011  1
  S  S12  1  0.000000  0.000000  0.500000  1
  S  S13  1  0.737833  0.524335  0.607989  1
  S  S14  1  0.431117  0.137762  0.750000  1
  S  S15  1  0.737833  0.524335  0.892010  1
