# generated using pymatgen
data_Ti6V3Ge6MoC2
_symmetry_space_group_name_H-M   'P 1'
_cell_length_a   7.48872400
_cell_length_b   7.48872430
_cell_length_c   5.13909900
_cell_angle_alpha   90.00000000
_cell_angle_beta   90.00000000
_cell_angle_gamma   120.00000749
_symmetry_Int_Tables_number   1
_chemical_formula_structural   Ti6V3Ge6MoC2
_chemical_formula_sum   'Ti6 V3 Ge6 Mo1 C2'
_cell_volume   249.59348797
_cell_formula_units_Z   1
loop_
 _symmetry_equiv_pos_site_id
 _symmetry_equiv_pos_as_xyz
  1  'x, y, z'
loop_
 _atom_site_type_symbol
 _atom_site_label
 _atom_site_symmetry_multiplicity
 _atom_site_fract_x
 _atom_site_fract_y
 _atom_site_fract_z
 _atom_site_occupancy
  Ti  Ti0  1  0.770303  0.999475  0.749800  1
  Ti  Ti1  1  0.770303  0.770828  0.250200  1
  Ti  Ti2  1  0.000525  0.229697  0.250200  1
  Ti  Ti3  1  0.000525  0.770828  0.749800  1
  Ti  Ti4  1  0.229172  0.229697  0.749800  1
  Ti  Ti5  1  0.229172  0.999475  0.250200  1
  V  V6  1  0.666667  0.333333  0.000000  1
  V  V7  1  0.333333  0.666667  0.500000  1
  V  V8  1  0.666667  0.333333  0.500000  1
  Ge  Ge9  1  0.408392  0.003923  0.747199  1
  Ge  Ge10  1  0.408392  0.404469  0.252801  1
  Ge  Ge11  1  0.996077  0.591608  0.252801  1
  Ge  Ge12  1  0.996077  0.404469  0.747199  1
  Ge  Ge13  1  0.595531  0.591608  0.747199  1
  Ge  Ge14  1  0.595531  0.003923  0.252801  1
  Mo  Mo15  1  0.333333  0.666667  0.000000  1
  C  C16  1  0.000000  0.000000  0.500000  1
  C  C17  1  0.000000  0.000000  0.000000  1
