# generated using pymatgen
data_Nd7Dy3(Sn3Br)2
_symmetry_space_group_name_H-M   'P 1'
_cell_length_a   9.43902700
_cell_length_b   9.43902710
_cell_length_c   6.77088800
_cell_angle_alpha   90.00000000
_cell_angle_beta   90.00000000
_cell_angle_gamma   120.00000314
_symmetry_Int_Tables_number   1
_chemical_formula_structural   Nd7Dy3(Sn3Br)2
_chemical_formula_sum   'Nd7 Dy3 Sn6 Br2'
_cell_volume   522.43312957
_cell_formula_units_Z   1
loop_
 _symmetry_equiv_pos_site_id
 _symmetry_equiv_pos_as_xyz
  1  'x, y, z'
loop_
 _atom_site_type_symbol
 _atom_site_label
 _atom_site_symmetry_multiplicity
 _atom_site_fract_x
 _atom_site_fract_y
 _atom_site_fract_z
 _atom_site_occupancy
  Nd  Nd0  1  0.732590  0.732325  0.249400  1
  Nd  Nd1  1  0.333333  0.666667  0.500000  1
  Nd  Nd2  1  0.267675  0.267410  0.750600  1
  Nd  Nd3  1  0.999734  0.267410  0.249400  1
  Nd  Nd4  1  0.267675  0.000266  0.249400  1
  Nd  Nd5  1  0.732590  0.000266  0.750600  1
  Nd  Nd6  1  0.999734  0.732325  0.750600  1
  Dy  Dy7  1  0.666667  0.333333  0.500000  1
  Dy  Dy8  1  0.333333  0.666667  0.000000  1
  Dy  Dy9  1  0.666667  0.333333  0.000000  1
  Sn  Sn10  1  0.391117  0.388336  0.248419  1
  Sn  Sn11  1  0.611664  0.608883  0.751581  1
  Sn  Sn12  1  0.391117  0.002781  0.751581  1
  Sn  Sn13  1  0.997219  0.608883  0.248419  1
  Sn  Sn14  1  0.611664  0.002781  0.248419  1
  Sn  Sn15  1  0.997219  0.388336  0.751581  1
  Br  Br16  1  0.000000  0.000000  0.000000  1
  Br  Br17  1  0.000000  0.000000  0.500000  1
