# generated using pymatgen
data_TbErThP4Pd7
_symmetry_space_group_name_H-M   'P 1'
_cell_length_a   7.98380328
_cell_length_b   7.98380368
_cell_length_c   9.51288427
_cell_angle_alpha   55.54306772
_cell_angle_beta   55.54306557
_cell_angle_gamma   29.13965229
_symmetry_Int_Tables_number   1
_chemical_formula_structural   TbErThP4Pd7
_chemical_formula_sum   'Tb1 Er1 Th1 P4 Pd7'
_cell_volume   239.55533133
_cell_formula_units_Z   1
loop_
 _symmetry_equiv_pos_site_id
 _symmetry_equiv_pos_as_xyz
  1  'x, y, z'
loop_
 _atom_site_type_symbol
 _atom_site_label
 _atom_site_symmetry_multiplicity
 _atom_site_fract_x
 _atom_site_fract_y
 _atom_site_fract_z
 _atom_site_occupancy
  Tb  Tb0  1  0.820815  0.820815  0.175494  1
  Er  Er1  1  0.179120  0.179120  0.824782  1
  Th  Th2  1  0.499874  0.499874  0.500075  1
  P  P3  1  0.393075  0.393075  0.318375  1
  P  P4  1  0.607304  0.607304  0.682147  1
  P  P5  1  0.838697  0.838697  0.754566  1
  P  P6  1  0.160510  0.160510  0.246126  1
  Pd  Pd7  1  0.667827  0.667827  0.074323  1
  Pd  Pd8  1  0.009737  0.009737  0.212989  1
  Pd  Pd9  1  0.990610  0.990610  0.786587  1
  Pd  Pd10  1  0.500910  0.500910  0.999008  1
  Pd  Pd11  1  0.193917  0.193917  0.472391  1
  Pd  Pd12  1  0.805679  0.805679  0.528951  1
  Pd  Pd13  1  0.331924  0.331924  0.924186  1
