# generated using pymatgen
data_Ce2Fe2Si5Rh
_symmetry_space_group_name_H-M   'P 1'
_cell_length_a   8.10711165
_cell_length_b   8.10486838
_cell_length_c   8.10486791
_cell_angle_alpha   139.68517921
_cell_angle_beta   106.41312839
_cell_angle_gamma   87.41347576
_symmetry_Int_Tables_number   1
_chemical_formula_structural   Ce2Fe2Si5Rh
_chemical_formula_sum   'Ce4 Fe4 Si10 Rh2'
_cell_volume   317.81991838
_cell_formula_units_Z   2
loop_
 _symmetry_equiv_pos_site_id
 _symmetry_equiv_pos_as_xyz
  1  'x, y, z'
loop_
 _atom_site_type_symbol
 _atom_site_label
 _atom_site_symmetry_multiplicity
 _atom_site_fract_x
 _atom_site_fract_y
 _atom_site_fract_z
 _atom_site_occupancy
  Ce  Ce0  1  0.862730  0.633777  0.228954  1
  Ce  Ce1  1  0.137270  0.366223  0.771046  1
  Ce  Ce2  1  0.397785  0.133119  0.264666  1
  Ce  Ce3  1  0.602215  0.866881  0.735334  1
  Fe  Fe4  1  0.000000  0.750689  0.750689  1
  Fe  Fe5  1  0.000000  0.249311  0.249311  1
  Fe  Fe6  1  0.248738  0.857741  0.390997  1
  Fe  Fe7  1  0.751262  0.142259  0.609003  1
  Si  Si8  1  0.500000  0.775625  0.275625  1
  Si  Si9  1  0.500000  0.224375  0.724375  1
  Si  Si10  1  0.211578  0.956875  0.736346  1
  Si  Si11  1  0.788422  0.524767  0.745296  1
  Si  Si12  1  0.788422  0.043125  0.263654  1
  Si  Si13  1  0.211578  0.475233  0.254704  1
  Si  Si14  1  0.058621  0.901820  0.156802  1
  Si  Si15  1  0.941379  0.098180  0.843198  1
  Si  Si16  1  0.753657  0.404789  0.348869  1
  Si  Si17  1  0.246343  0.595211  0.651131  1
  Rh  Rh18  1  0.464054  0.360308  0.103745  1
  Rh  Rh19  1  0.535946  0.639692  0.896255  1
