# generated using pymatgen
data_Tb3Mn7CrCoP6
_symmetry_space_group_name_H-M   'P 1'
_cell_length_a   3.64772500
_cell_length_b   10.84135200
_cell_length_c   12.63070800
_cell_angle_alpha   90.00000000
_cell_angle_beta   90.00000000
_cell_angle_gamma   90.00000000
_symmetry_Int_Tables_number   1
_chemical_formula_structural   Tb3Mn7CrCoP6
_chemical_formula_sum   'Tb6 Mn14 Cr2 Co2 P12'
_cell_volume   499.49739801
_cell_formula_units_Z   2
loop_
 _symmetry_equiv_pos_site_id
 _symmetry_equiv_pos_as_xyz
  1  'x, y, z'
loop_
 _atom_site_type_symbol
 _atom_site_label
 _atom_site_symmetry_multiplicity
 _atom_site_fract_x
 _atom_site_fract_y
 _atom_site_fract_z
 _atom_site_occupancy
  Tb  Tb0  1  0.000000  0.500000  0.532140  1
  Tb  Tb1  1  0.500000  0.000000  0.467860  1
  Tb  Tb2  1  0.500000  0.822126  0.206017  1
  Tb  Tb3  1  0.500000  0.177874  0.206017  1
  Tb  Tb4  1  0.000000  0.677874  0.793983  1
  Tb  Tb5  1  0.000000  0.322126  0.793983  1
  Mn  Mn6  1  0.000000  0.500000  0.992598  1
  Mn  Mn7  1  0.500000  0.000000  0.007402  1
  Mn  Mn8  1  0.500000  0.332287  0.996687  1
  Mn  Mn9  1  0.500000  0.667713  0.996687  1
  Mn  Mn10  1  0.000000  0.167713  0.003313  1
  Mn  Mn11  1  0.000000  0.832287  0.003313  1
  Mn  Mn12  1  0.500000  0.297674  0.432789  1
  Mn  Mn13  1  0.500000  0.702326  0.432789  1
  Mn  Mn14  1  0.000000  0.202326  0.567211  1
  Mn  Mn15  1  0.000000  0.797674  0.567211  1
  Mn  Mn16  1  0.500000  0.880735  0.701808  1
  Mn  Mn17  1  0.500000  0.119265  0.701808  1
  Mn  Mn18  1  0.000000  0.619265  0.298192  1
  Mn  Mn19  1  0.000000  0.380735  0.298192  1
  Cr  Cr20  1  0.500000  0.500000  0.162707  1
  Cr  Cr21  1  0.000000  0.000000  0.837293  1
  Co  Co22  1  0.500000  0.500000  0.705869  1
  Co  Co23  1  0.000000  0.000000  0.294131  1
  P  P24  1  0.500000  0.500000  0.881449  1
  P  P25  1  0.000000  0.000000  0.118551  1
  P  P26  1  0.500000  0.500000  0.357100  1
  P  P27  1  0.000000  0.000000  0.642900  1
  P  P28  1  0.500000  0.317587  0.618834  1
  P  P29  1  0.500000  0.682413  0.618834  1
  P  P30  1  0.000000  0.182413  0.381166  1
  P  P31  1  0.000000  0.817587  0.381166  1
  P  P32  1  0.500000  0.846796  0.884953  1
  P  P33  1  0.500000  0.153204  0.884953  1
  P  P34  1  0.000000  0.653204  0.115047  1
  P  P35  1  0.000000  0.346796  0.115047  1
