# generated using pymatgen
data_Tb11Pr4Th(CdIr)4
_symmetry_space_group_name_H-M   'P 1'
_cell_length_a   9.76626020
_cell_length_b   9.77085454
_cell_length_c   9.77085467
_cell_angle_alpha   60.20673533
_cell_angle_beta   60.10617070
_cell_angle_gamma   60.10616571
_symmetry_Int_Tables_number   1
_chemical_formula_structural   Tb11Pr4Th(CdIr)4
_chemical_formula_sum   'Tb11 Pr4 Th1 Cd4 Ir4'
_cell_volume   661.37776372
_cell_formula_units_Z   1
loop_
 _symmetry_equiv_pos_site_id
 _symmetry_equiv_pos_as_xyz
  1  'x, y, z'
loop_
 _atom_site_type_symbol
 _atom_site_label
 _atom_site_symmetry_multiplicity
 _atom_site_fract_x
 _atom_site_fract_y
 _atom_site_fract_z
 _atom_site_occupancy
  Tb  Tb0  1  0.348543  0.350485  0.952727  1
  Tb  Tb1  1  0.348543  0.952727  0.350485  1
  Tb  Tb2  1  0.951336  0.348814  0.348814  1
  Tb  Tb3  1  0.813858  0.186677  0.186677  1
  Tb  Tb4  1  0.188043  0.812323  0.812323  1
  Tb  Tb5  1  0.188368  0.812286  0.188338  1
  Tb  Tb6  1  0.811082  0.187596  0.810907  1
  Tb  Tb7  1  0.188368  0.188338  0.812286  1
  Tb  Tb8  1  0.811082  0.810907  0.187596  1
  Tb  Tb9  1  0.943633  0.557456  0.557456  1
  Tb  Tb10  1  0.554635  0.945787  0.945787  1
  Pr  Pr11  1  0.564104  0.938915  0.563642  1
  Pr  Pr12  1  0.940227  0.560826  0.939091  1
  Pr  Pr13  1  0.564104  0.563642  0.938915  1
  Pr  Pr14  1  0.940227  0.939091  0.560826  1
  Th  Th15  1  0.346533  0.344853  0.344853  1
  Cd  Cd16  1  0.581664  0.577794  0.577794  1
  Cd  Cd17  1  0.578610  0.583063  0.258727  1
  Cd  Cd18  1  0.578610  0.258727  0.583063  1
  Cd  Cd19  1  0.259207  0.579121  0.579121  1
  Ir  Ir20  1  0.145597  0.140343  0.140343  1
  Ir  Ir21  1  0.140097  0.145937  0.573461  1
  Ir  Ir22  1  0.140097  0.573461  0.145937  1
  Ir  Ir23  1  0.573429  0.140826  0.140826  1
