# generated using pymatgen
data_CaErSi(Ni2As)6
_symmetry_space_group_name_H-M   'P 1'
_cell_length_a   9.33249600
_cell_length_b   9.33249547
_cell_length_c   3.80397600
_cell_angle_alpha   90.00000000
_cell_angle_beta   90.00000000
_cell_angle_gamma   119.99999575
_symmetry_Int_Tables_number   1
_chemical_formula_structural   CaErSi(Ni2As)6
_chemical_formula_sum   'Ca1 Er1 Si1 Ni12 As6'
_cell_volume   286.92211173
_cell_formula_units_Z   1
loop_
 _symmetry_equiv_pos_site_id
 _symmetry_equiv_pos_as_xyz
  1  'x, y, z'
loop_
 _atom_site_type_symbol
 _atom_site_label
 _atom_site_symmetry_multiplicity
 _atom_site_fract_x
 _atom_site_fract_y
 _atom_site_fract_z
 _atom_site_occupancy
  Ca  Ca0  1  0.666667  0.333333  0.500000  1
  Er  Er1  1  0.333333  0.666667  0.000000  1
  Si  Si2  1  0.000000  0.000000  0.000000  1
  Ni  Ni3  1  0.438239  0.051585  0.000000  1
  Ni  Ni4  1  0.613346  0.561761  0.000000  1
  Ni  Ni5  1  0.948415  0.386654  0.000000  1
  Ni  Ni6  1  0.149652  0.275755  0.000000  1
  Ni  Ni7  1  0.126101  0.850348  0.000000  1
  Ni  Ni8  1  0.724245  0.873899  0.000000  1
  Ni  Ni9  1  0.373334  0.423706  0.500000  1
  Ni  Ni10  1  0.050372  0.626666  0.500000  1
  Ni  Ni11  1  0.576294  0.949628  0.500000  1
  Ni  Ni12  1  0.192546  0.087062  0.500000  1
  Ni  Ni13  1  0.894517  0.807454  0.500000  1
  Ni  Ni14  1  0.912938  0.105483  0.500000  1
  As  As15  1  0.401113  0.282132  0.000000  1
  As  As16  1  0.881019  0.598887  0.000000  1
  As  As17  1  0.717868  0.118981  0.000000  1
  As  As18  1  0.107667  0.405461  0.500000  1
  As  As19  1  0.297794  0.892333  0.500000  1
  As  As20  1  0.594539  0.702206  0.500000  1
