# generated using pymatgen
data_Nd10BCBr15
_symmetry_space_group_name_H-M   'P 1'
_cell_length_a   9.39013070
_cell_length_b   10.11967260
_cell_length_c   10.98203966
_cell_angle_alpha   91.46391645
_cell_angle_beta   114.42920032
_cell_angle_gamma   110.58624573
_symmetry_Int_Tables_number   1
_chemical_formula_structural   Nd10BCBr15
_chemical_formula_sum   'Nd10 B1 C1 Br15'
_cell_volume   871.39178717
_cell_formula_units_Z   1
loop_
 _symmetry_equiv_pos_site_id
 _symmetry_equiv_pos_as_xyz
  1  'x, y, z'
loop_
 _atom_site_type_symbol
 _atom_site_label
 _atom_site_symmetry_multiplicity
 _atom_site_fract_x
 _atom_site_fract_y
 _atom_site_fract_z
 _atom_site_occupancy
  Nd  Nd0  1  0.802705  0.409742  0.276678  1
  Nd  Nd1  1  0.201474  0.594975  0.727367  1
  Nd  Nd2  1  0.673565  0.749805  0.824837  1
  Nd  Nd3  1  0.324401  0.253863  0.179544  1
  Nd  Nd4  1  0.524153  0.706182  0.091184  1
  Nd  Nd5  1  0.473845  0.296007  0.902257  1
  Nd  Nd6  1  0.586823  0.038576  0.326536  1
  Nd  Nd7  1  0.415035  0.957762  0.679173  1
  Nd  Nd8  1  0.721630  0.069144  0.044748  1
  Nd  Nd9  1  0.277199  0.920873  0.948764  1
  B  B10  1  0.533047  0.180661  0.124014  1
  C  C11  1  0.465990  0.818935  0.875163  1
  Br  Br12  1  0.000990  0.999839  0.999495  1
  Br  Br13  1  0.636539  0.880981  0.585658  1
  Br  Br14  1  0.362732  0.117178  0.416933  1
  Br  Br15  1  0.885021  0.300202  0.529825  1
  Br  Br16  1  0.118879  0.702493  0.473812  1
  Br  Br17  1  0.290070  0.761592  0.178712  1
  Br  Br18  1  0.710293  0.236870  0.820149  1
  Br  Br19  1  0.053865  0.340902  0.225132  1
  Br  Br20  1  0.164152  0.056258  0.702560  1
  Br  Br21  1  0.834925  0.941403  0.295918  1
  Br  Br22  1  0.231111  0.411877  0.943143  1
  Br  Br23  1  0.768583  0.591228  0.055961  1
  Br  Br24  1  0.408218  0.466719  0.659925  1
  Br  Br25  1  0.591836  0.538376  0.339397  1
  Br  Br26  1  0.942919  0.657559  0.773116  1
