# generated using pymatgen
data_Hf4TiCrSb2
_symmetry_space_group_name_H-M   'P 1'
_cell_length_a   5.44985358
_cell_length_b   8.18933800
_cell_length_c   8.18933780
_cell_angle_alpha   83.64338237
_cell_angle_beta   70.56478119
_cell_angle_gamma   70.56478859
_symmetry_Int_Tables_number   1
_chemical_formula_structural   Hf4TiCrSb2
_chemical_formula_sum   'Hf8 Ti2 Cr2 Sb4'
_cell_volume   325.02942681
_cell_formula_units_Z   2
loop_
 _symmetry_equiv_pos_site_id
 _symmetry_equiv_pos_as_xyz
  1  'x, y, z'
loop_
 _atom_site_type_symbol
 _atom_site_label
 _atom_site_symmetry_multiplicity
 _atom_site_fract_x
 _atom_site_fract_y
 _atom_site_fract_z
 _atom_site_occupancy
  Hf  Hf0  1  0.075149  0.127351  0.722351  1
  Hf  Hf1  1  0.924851  0.872649  0.277649  1
  Hf  Hf2  1  0.797500  0.277649  0.127351  1
  Hf  Hf3  1  0.424851  0.277649  0.872649  1
  Hf  Hf4  1  0.202500  0.722351  0.872649  1
  Hf  Hf5  1  0.575149  0.722351  0.127351  1
  Hf  Hf6  1  0.702500  0.872649  0.722351  1
  Hf  Hf7  1  0.297500  0.127351  0.277649  1
  Ti  Ti8  1  0.250000  0.500000  0.500000  1
  Ti  Ti9  1  0.750000  0.500000  0.500000  1
  Cr  Cr10  1  0.250000  0.000000  0.000000  1
  Cr  Cr11  1  0.750000  0.000000  0.000000  1
  Sb  Sb12  1  0.157200  0.500000  0.185601  1
  Sb  Sb13  1  0.842800  0.500000  0.814399  1
  Sb  Sb14  1  0.342800  0.814399  0.500000  1
  Sb  Sb15  1  0.657200  0.185601  0.500000  1
