# generated using pymatgen
data_Zn2Bi2Pt3RhO14
_symmetry_space_group_name_H-M   'P 1'
_cell_length_a   7.16250459
_cell_length_b   7.16250472
_cell_length_c   7.06781391
_cell_angle_alpha   60.85263028
_cell_angle_beta   60.85262758
_cell_angle_gamma   61.71225499
_symmetry_Int_Tables_number   1
_chemical_formula_structural   Zn2Bi2Pt3RhO14
_chemical_formula_sum   'Zn2 Bi2 Pt3 Rh1 O14'
_cell_volume   262.92361408
_cell_formula_units_Z   1
loop_
 _symmetry_equiv_pos_site_id
 _symmetry_equiv_pos_as_xyz
  1  'x, y, z'
loop_
 _atom_site_type_symbol
 _atom_site_label
 _atom_site_symmetry_multiplicity
 _atom_site_fract_x
 _atom_site_fract_y
 _atom_site_fract_z
 _atom_site_occupancy
  Zn  Zn0  1  0.125000  0.125000  0.625000  1
  Zn  Zn1  1  0.125000  0.125000  0.125000  1
  Bi  Bi2  1  0.125000  0.625000  0.125000  1
  Bi  Bi3  1  0.625000  0.125000  0.125000  1
  Pt  Pt4  1  0.625000  0.125000  0.625000  1
  Pt  Pt5  1  0.125000  0.625000  0.625000  1
  Pt  Pt6  1  0.625000  0.625000  0.625000  1
  Rh  Rh7  1  0.625000  0.625000  0.125000  1
  O  O8  1  0.238609  0.238609  0.262208  1
  O  O9  1  0.011391  0.011391  0.987792  1
  O  O10  1  0.532767  0.960741  0.541690  1
  O  O11  1  0.290340  0.714247  0.287277  1
  O  O12  1  0.536904  0.536904  0.963132  1
  O  O13  1  0.960741  0.532767  0.541690  1
  O  O14  1  0.535753  0.959660  0.962723  1
  O  O15  1  0.963968  0.963968  0.536545  1
  O  O16  1  0.959660  0.535753  0.962723  1
  O  O17  1  0.714247  0.290340  0.287277  1
  O  O18  1  0.289259  0.717233  0.708310  1
  O  O19  1  0.717233  0.289259  0.708310  1
  O  O20  1  0.286032  0.286032  0.713455  1
  O  O21  1  0.713096  0.713096  0.286868  1
