# generated using pymatgen
data_YTm3(Co5P3)4
_symmetry_space_group_name_H-M   'P 1'
_cell_length_a   3.63650500
_cell_length_b   10.25325232
_cell_length_c   11.71007637
_cell_angle_alpha   90.02874213
_cell_angle_beta   90.00000000
_cell_angle_gamma   90.00000000
_symmetry_Int_Tables_number   1
_chemical_formula_structural   YTm3(Co5P3)4
_chemical_formula_sum   'Y1 Tm3 Co20 P12'
_cell_volume   436.62189161
_cell_formula_units_Z   1
loop_
 _symmetry_equiv_pos_site_id
 _symmetry_equiv_pos_as_xyz
  1  'x, y, z'
loop_
 _atom_site_type_symbol
 _atom_site_label
 _atom_site_symmetry_multiplicity
 _atom_site_fract_x
 _atom_site_fract_y
 _atom_site_fract_z
 _atom_site_occupancy
  Y  Y0  1  0.250000  0.582915  0.702884  1
  Tm  Tm1  1  0.250000  0.917461  0.202588  1
  Tm  Tm2  1  0.750000  0.082659  0.797435  1
  Tm  Tm3  1  0.750000  0.417101  0.297399  1
  Co  Co4  1  0.250000  0.783290  0.491439  1
  Co  Co5  1  0.750000  0.216663  0.507688  1
  Co  Co6  1  0.750000  0.282787  0.008454  1
  Co  Co7  1  0.250000  0.717143  0.991839  1
  Co  Co8  1  0.250000  0.092780  0.987446  1
  Co  Co9  1  0.750000  0.907231  0.012714  1
  Co  Co10  1  0.750000  0.592654  0.510882  1
  Co  Co11  1  0.250000  0.406586  0.486949  1
  Co  Co12  1  0.250000  0.278094  0.676702  1
  Co  Co13  1  0.750000  0.721889  0.322896  1
  Co  Co14  1  0.750000  0.779331  0.823571  1
  Co  Co15  1  0.250000  0.221350  0.176846  1
  Co  Co16  1  0.250000  0.617118  0.199196  1
  Co  Co17  1  0.750000  0.381707  0.801657  1
  Co  Co18  1  0.750000  0.117004  0.300880  1
  Co  Co19  1  0.250000  0.883864  0.698922  1
  Co  Co20  1  0.250000  0.032526  0.431186  1
  Co  Co21  1  0.750000  0.968472  0.568328  1
  Co  Co22  1  0.750000  0.532212  0.069498  1
  Co  Co23  1  0.250000  0.467000  0.932509  1
  P  P24  1  0.250000  0.081638  0.612574  1
  P  P25  1  0.750000  0.918680  0.387140  1
  P  P26  1  0.750000  0.581605  0.888857  1
  P  P27  1  0.250000  0.418393  0.113250  1
  P  P28  1  0.250000  0.230292  0.369975  1
  P  P29  1  0.750000  0.770971  0.628950  1
  P  P30  1  0.750000  0.730581  0.129768  1
  P  P31  1  0.250000  0.269331  0.870195  1
  P  P32  1  0.250000  0.899011  0.890966  1
  P  P33  1  0.750000  0.100977  0.109078  1
  P  P34  1  0.750000  0.397675  0.608507  1
  P  P35  1  0.250000  0.601008  0.390830  1
