# generated using pymatgen
data_PdBr14
_symmetry_space_group_name_H-M   'P 1'
_cell_length_a   9.41718478
_cell_length_b   9.41718599
_cell_length_c   8.17721804
_cell_angle_alpha   87.50389862
_cell_angle_beta   87.50389361
_cell_angle_gamma   74.24396011
_symmetry_Int_Tables_number   1
_chemical_formula_structural   PdBr14
_chemical_formula_sum   'Pd1 Br14'
_cell_volume   696.89387624
_cell_formula_units_Z   1
loop_
 _symmetry_equiv_pos_site_id
 _symmetry_equiv_pos_as_xyz
  1  'x, y, z'
loop_
 _atom_site_type_symbol
 _atom_site_label
 _atom_site_symmetry_multiplicity
 _atom_site_fract_x
 _atom_site_fract_y
 _atom_site_fract_z
 _atom_site_occupancy
  Pd  Pd0  1  0.000000  0.000000  0.000000  1
  Br  Br1  1  0.348051  0.348051  0.740247  1
  Br  Br2  1  0.651949  0.651949  0.259753  1
  Br  Br3  1  0.908900  0.204961  0.797891  1
  Br  Br4  1  0.204961  0.908900  0.797891  1
  Br  Br5  1  0.091100  0.795039  0.202109  1
  Br  Br6  1  0.795039  0.091100  0.202109  1
  Br  Br7  1  0.272663  0.625785  0.775197  1
  Br  Br8  1  0.625785  0.272663  0.775197  1
  Br  Br9  1  0.727337  0.374215  0.224803  1
  Br  Br10  1  0.374215  0.727337  0.224803  1
  Br  Br11  1  0.166468  0.166468  0.193600  1
  Br  Br12  1  0.833532  0.833532  0.806400  1
  Br  Br13  1  0.684927  0.684927  0.728258  1
  Br  Br14  1  0.315073  0.315073  0.271742  1
