# generated using pymatgen
data_Ho16InAg3Rh4
_symmetry_space_group_name_H-M   'P 1'
_cell_length_a   9.52809944
_cell_length_b   9.52049972
_cell_length_c   9.52810000
_cell_angle_alpha   59.97358869
_cell_angle_beta   59.99999805
_cell_angle_gamma   59.97359135
_symmetry_Int_Tables_number   1
_chemical_formula_structural   Ho16InAg3Rh4
_chemical_formula_sum   'Ho16 In1 Ag3 Rh4'
_cell_volume   610.91930306
_cell_formula_units_Z   1
loop_
 _symmetry_equiv_pos_site_id
 _symmetry_equiv_pos_as_xyz
  1  'x, y, z'
loop_
 _atom_site_type_symbol
 _atom_site_label
 _atom_site_symmetry_multiplicity
 _atom_site_fract_x
 _atom_site_fract_y
 _atom_site_fract_z
 _atom_site_occupancy
  Ho  Ho0  1  0.188573  0.182947  0.814240  1
  Ho  Ho1  1  0.600856  0.600281  0.198007  1
  Ho  Ho2  1  0.439189  0.061209  0.439189  1
  Ho  Ho3  1  0.440217  0.439741  0.060021  1
  Ho  Ho4  1  0.814240  0.182947  0.814240  1
  Ho  Ho5  1  0.186324  0.813248  0.186324  1
  Ho  Ho6  1  0.439189  0.061209  0.060413  1
  Ho  Ho7  1  0.186324  0.813248  0.814103  1
  Ho  Ho8  1  0.060021  0.439741  0.060021  1
  Ho  Ho9  1  0.814103  0.813248  0.186324  1
  Ho  Ho10  1  0.198007  0.600281  0.600856  1
  Ho  Ho11  1  0.060021  0.439741  0.440217  1
  Ho  Ho12  1  0.060413  0.061209  0.439189  1
  Ho  Ho13  1  0.814240  0.182947  0.188573  1
  Ho  Ho14  1  0.600834  0.197499  0.600834  1
  Ho  Ho15  1  0.600856  0.600281  0.600856  1
  In  In16  1  0.829962  0.510114  0.829962  1
  Ag  Ag17  1  0.832465  0.833583  0.832465  1
  Ag  Ag18  1  0.832465  0.833583  0.501487  1
  Ag  Ag19  1  0.501487  0.833583  0.832465  1
  Rh  Rh20  1  0.392490  0.822531  0.392490  1
  Rh  Rh21  1  0.392620  0.392277  0.392620  1
  Rh  Rh22  1  0.822483  0.392277  0.392620  1
  Rh  Rh23  1  0.392620  0.392277  0.822483  1
