# generated using pymatgen
data_Dy4Er4Re(B8Ir)3
_symmetry_space_group_name_H-M   'P 1'
_cell_length_a   3.64901600
_cell_length_b   9.16021196
_cell_length_c   11.49664503
_cell_angle_alpha   90.12138953
_cell_angle_beta   90.00000000
_cell_angle_gamma   90.00000000
_symmetry_Int_Tables_number   1
_chemical_formula_structural   Dy4Er4Re(B8Ir)3
_chemical_formula_sum   'Dy4 Er4 Re1 B24 Ir3'
_cell_volume   384.28323526
_cell_formula_units_Z   1
loop_
 _symmetry_equiv_pos_site_id
 _symmetry_equiv_pos_as_xyz
  1  'x, y, z'
loop_
 _atom_site_type_symbol
 _atom_site_label
 _atom_site_symmetry_multiplicity
 _atom_site_fract_x
 _atom_site_fract_y
 _atom_site_fract_z
 _atom_site_occupancy
  Dy  Dy0  1  0.000000  0.320812  0.413515  1
  Dy  Dy1  1  0.000000  0.683105  0.590633  1
  Dy  Dy2  1  0.000000  0.820822  0.082945  1
  Dy  Dy3  1  0.000000  0.175904  0.912065  1
  Er  Er4  1  0.000000  0.943718  0.373253  1
  Er  Er5  1  0.000000  0.053864  0.626160  1
  Er  Er6  1  0.000000  0.443597  0.126062  1
  Er  Er7  1  0.000000  0.557361  0.875125  1
  Re  Re8  1  0.000000  0.862474  0.821127  1
  B  B9  1  0.500000  0.553530  0.434123  1
  B  B10  1  0.500000  0.447628  0.566779  1
  B  B11  1  0.500000  0.053300  0.066475  1
  B  B12  1  0.500000  0.946764  0.933064  1
  B  B13  1  0.500000  0.750297  0.420500  1
  B  B14  1  0.500000  0.250558  0.579181  1
  B  B15  1  0.500000  0.248985  0.079135  1
  B  B16  1  0.500000  0.751915  0.919896  1
  B  B17  1  0.500000  0.791941  0.265386  1
  B  B18  1  0.500000  0.207892  0.733050  1
  B  B19  1  0.500000  0.292697  0.234650  1
  B  B20  1  0.500000  0.708077  0.766465  1
  B  B21  1  0.500000  0.630917  0.184693  1
  B  B22  1  0.500000  0.368446  0.815518  1
  B  B23  1  0.500000  0.131842  0.315326  1
  B  B24  1  0.500000  0.869058  0.685666  1
  B  B25  1  0.500000  0.981671  0.212903  1
  B  B26  1  0.500000  0.017394  0.786406  1
  B  B27  1  0.500000  0.481304  0.287329  1
  B  B28  1  0.500000  0.518061  0.714174  1
  B  B29  1  0.500000  0.608291  0.031284  1
  B  B30  1  0.500000  0.389292  0.970153  1
  B  B31  1  0.500000  0.109324  0.469209  1
  B  B32  1  0.500000  0.891666  0.528696  1
  Ir  Ir33  1  0.000000  0.637245  0.322512  1
  Ir  Ir34  1  0.000000  0.362712  0.678148  1
  Ir  Ir35  1  0.000000  0.137536  0.178397  1
