# generated using pymatgen
data_Ti(Zn10Cu)2
_symmetry_space_group_name_H-M   'P 1'
_cell_length_a   9.92867185
_cell_length_b   9.92867147
_cell_length_c   9.92867200
_cell_angle_alpha   59.99999825
_cell_angle_beta   59.99999949
_cell_angle_gamma   59.99999649
_symmetry_Int_Tables_number   1
_chemical_formula_structural   Ti(Zn10Cu)2
_chemical_formula_sum   'Ti2 Zn40 Cu4'
_cell_volume   692.08341931
_cell_formula_units_Z   2
loop_
 _symmetry_equiv_pos_site_id
 _symmetry_equiv_pos_as_xyz
  1  'x, y, z'
loop_
 _atom_site_type_symbol
 _atom_site_label
 _atom_site_symmetry_multiplicity
 _atom_site_fract_x
 _atom_site_fract_y
 _atom_site_fract_z
 _atom_site_occupancy
  Ti  Ti0  1  0.500000  0.500000  0.500000  1
  Ti  Ti1  1  0.750000  0.750000  0.750000  1
  Zn  Zn2  1  0.567330  0.305654  0.305654  1
  Zn  Zn3  1  0.305654  0.567330  0.821362  1
  Zn  Zn4  1  0.305654  0.821362  0.567330  1
  Zn  Zn5  1  0.821362  0.305654  0.305654  1
  Zn  Zn6  1  0.305654  0.305654  0.567330  1
  Zn  Zn7  1  0.567330  0.821362  0.305654  1
  Zn  Zn8  1  0.821362  0.567330  0.305654  1
  Zn  Zn9  1  0.305654  0.305654  0.821362  1
  Zn  Zn10  1  0.305654  0.567330  0.305654  1
  Zn  Zn11  1  0.821362  0.305654  0.567330  1
  Zn  Zn12  1  0.567330  0.305654  0.821362  1
  Zn  Zn13  1  0.305654  0.821362  0.305654  1
  Zn  Zn14  1  0.682670  0.944346  0.944346  1
  Zn  Zn15  1  0.944346  0.682670  0.428638  1
  Zn  Zn16  1  0.944346  0.428638  0.682670  1
  Zn  Zn17  1  0.428638  0.944346  0.944346  1
  Zn  Zn18  1  0.944346  0.944346  0.682670  1
  Zn  Zn19  1  0.682670  0.428638  0.944346  1
  Zn  Zn20  1  0.428638  0.682670  0.944346  1
  Zn  Zn21  1  0.944346  0.944346  0.428638  1
  Zn  Zn22  1  0.944346  0.682670  0.944346  1
  Zn  Zn23  1  0.428638  0.944346  0.682670  1
  Zn  Zn24  1  0.682670  0.944346  0.428638  1
  Zn  Zn25  1  0.944346  0.428638  0.944346  1
  Zn  Zn26  1  0.861360  0.861360  0.138640  1
  Zn  Zn27  1  0.138640  0.138640  0.861360  1
  Zn  Zn28  1  0.861360  0.138640  0.861360  1
  Zn  Zn29  1  0.138640  0.861360  0.138640  1
  Zn  Zn30  1  0.138640  0.861360  0.861360  1
  Zn  Zn31  1  0.861360  0.138640  0.138640  1
  Zn  Zn32  1  0.388640  0.388640  0.111360  1
  Zn  Zn33  1  0.111360  0.111360  0.388640  1
  Zn  Zn34  1  0.388640  0.111360  0.388640  1
  Zn  Zn35  1  0.111360  0.388640  0.111360  1
  Zn  Zn36  1  0.111360  0.388640  0.388640  1
  Zn  Zn37  1  0.388640  0.111360  0.111360  1
  Zn  Zn38  1  0.125000  0.625000  0.625000  1
  Zn  Zn39  1  0.625000  0.125000  0.625000  1
  Zn  Zn40  1  0.625000  0.625000  0.125000  1
  Zn  Zn41  1  0.625000  0.625000  0.625000  1
  Cu  Cu42  1  0.625000  0.125000  0.125000  1
  Cu  Cu43  1  0.125000  0.625000  0.125000  1
  Cu  Cu44  1  0.125000  0.125000  0.625000  1
  Cu  Cu45  1  0.125000  0.125000  0.125000  1
