# generated using pymatgen
data_Ce8Al8Os7Ru
_symmetry_space_group_name_H-M   'P 1'
_cell_length_a   4.12212500
_cell_length_b   7.18274207
_cell_length_c   15.87495315
_cell_angle_alpha   90.01569107
_cell_angle_beta   90.00000000
_cell_angle_gamma   90.00000000
_symmetry_Int_Tables_number   1
_chemical_formula_structural   Ce8Al8Os7Ru
_chemical_formula_sum   'Ce8 Al8 Os7 Ru1'
_cell_volume   470.02814543
_cell_formula_units_Z   1
loop_
 _symmetry_equiv_pos_site_id
 _symmetry_equiv_pos_as_xyz
  1  'x, y, z'
loop_
 _atom_site_type_symbol
 _atom_site_label
 _atom_site_symmetry_multiplicity
 _atom_site_fract_x
 _atom_site_fract_y
 _atom_site_fract_z
 _atom_site_occupancy
  Ce  Ce0  1  0.750000  0.956370  0.218950  1
  Ce  Ce1  1  0.250000  0.168353  0.561071  1
  Ce  Ce2  1  0.750000  0.832989  0.438738  1
  Ce  Ce3  1  0.750000  0.456011  0.280979  1
  Ce  Ce4  1  0.750000  0.332813  0.061062  1
  Ce  Ce5  1  0.250000  0.667333  0.938998  1
  Ce  Ce6  1  0.250000  0.043690  0.781082  1
  Ce  Ce7  1  0.250000  0.544217  0.718929  1
  Al  Al8  1  0.750000  0.502727  0.563351  1
  Al  Al9  1  0.750000  0.367670  0.849290  1
  Al  Al10  1  0.750000  0.003007  0.936655  1
  Al  Al11  1  0.750000  0.867821  0.651249  1
  Al  Al12  1  0.250000  0.496529  0.436553  1
  Al  Al13  1  0.250000  0.996923  0.063373  1
  Al  Al14  1  0.250000  0.632200  0.150683  1
  Al  Al15  1  0.250000  0.132036  0.349205  1
  Os  Os16  1  0.750000  0.742791  0.816746  1
  Os  Os17  1  0.250000  0.236055  0.934419  1
  Os  Os18  1  0.750000  0.263552  0.434459  1
  Os  Os19  1  0.250000  0.757305  0.317464  1
  Os  Os20  1  0.750000  0.763752  0.065466  1
  Os  Os21  1  0.750000  0.242750  0.682949  1
  Os  Os22  1  0.250000  0.257120  0.183090  1
  Ru  Ru23  1  0.250000  0.735985  0.565241  1
