# generated using pymatgen
data_Dy5MgCo16(P6W)2
_symmetry_space_group_name_H-M   'P 1'
_cell_length_a   12.08011910
_cell_length_b   12.08011801
_cell_length_c   3.70192800
_cell_angle_alpha   90.00000000
_cell_angle_beta   90.00000000
_cell_angle_gamma   120.31997421
_symmetry_Int_Tables_number   1
_chemical_formula_structural   Dy5MgCo16(P6W)2
_chemical_formula_sum   'Dy5 Mg1 Co16 P12 W2'
_cell_volume   466.32817869
_cell_formula_units_Z   1
loop_
 _symmetry_equiv_pos_site_id
 _symmetry_equiv_pos_as_xyz
  1  'x, y, z'
loop_
 _atom_site_type_symbol
 _atom_site_label
 _atom_site_symmetry_multiplicity
 _atom_site_fract_x
 _atom_site_fract_y
 _atom_site_fract_z
 _atom_site_occupancy
  Dy  Dy0  1  0.668382  0.331968  0.000000  1
  Dy  Dy1  1  0.331968  0.668382  0.000000  1
  Dy  Dy2  1  0.183555  0.183555  0.500000  1
  Dy  Dy3  1  0.815351  0.001687  0.500000  1
  Dy  Dy4  1  0.001687  0.815351  0.500000  1
  Mg  Mg5  1  0.558274  0.558274  0.000000  1
  Co  Co6  1  0.823256  0.197873  0.000000  1
  Co  Co7  1  0.801846  0.623303  0.000000  1
  Co  Co8  1  0.373898  0.175665  0.000000  1
  Co  Co9  1  0.197873  0.823256  0.000000  1
  Co  Co10  1  0.623303  0.801846  0.000000  1
  Co  Co11  1  0.175665  0.373898  0.000000  1
  Co  Co12  1  0.644112  0.127919  0.500000  1
  Co  Co13  1  0.877165  0.518743  0.500000  1
  Co  Co14  1  0.481856  0.353429  0.500000  1
  Co  Co15  1  0.127919  0.644112  0.500000  1
  Co  Co16  1  0.518743  0.877165  0.500000  1
  Co  Co17  1  0.353429  0.481856  0.500000  1
  Co  Co18  1  0.718332  0.718332  0.500000  1
  Co  Co19  1  0.280618  0.999127  0.500000  1
  Co  Co20  1  0.999127  0.280618  0.500000  1
  Co  Co21  1  0.998196  0.998196  0.000000  1
  P  P22  1  0.357607  0.357607  0.000000  1
  P  P23  1  0.639372  0.000382  0.000000  1
  P  P24  1  0.000382  0.639372  0.000000  1
  P  P25  1  0.834827  0.314211  0.500000  1
  P  P26  1  0.690984  0.518560  0.500000  1
  P  P27  1  0.479121  0.166165  0.500000  1
  P  P28  1  0.314211  0.834827  0.500000  1
  P  P29  1  0.518560  0.690984  0.500000  1
  P  P30  1  0.166165  0.479121  0.500000  1
  P  P31  1  0.820066  0.820066  0.000000  1
  P  P32  1  0.177672  0.999498  0.000000  1
  P  P33  1  0.999498  0.177672  0.000000  1
  W  W34  1  0.445931  0.001047  0.000000  1
  W  W35  1  0.001047  0.445931  0.000000  1
