# generated using pymatgen
data_Y3Tm17Cd6FeNi
_symmetry_space_group_name_H-M   'P 1'
_cell_length_a   9.52167400
_cell_length_b   9.52167387
_cell_length_c   9.65596700
_cell_angle_alpha   90.00000000
_cell_angle_beta   90.00000000
_cell_angle_gamma   119.99999350
_symmetry_Int_Tables_number   1
_chemical_formula_structural   Y3Tm17Cd6FeNi
_chemical_formula_sum   'Y3 Tm17 Cd6 Fe1 Ni1'
_cell_volume   758.14634132
_cell_formula_units_Z   1
loop_
 _symmetry_equiv_pos_site_id
 _symmetry_equiv_pos_as_xyz
  1  'x, y, z'
loop_
 _atom_site_type_symbol
 _atom_site_label
 _atom_site_symmetry_multiplicity
 _atom_site_fract_x
 _atom_site_fract_y
 _atom_site_fract_z
 _atom_site_occupancy
  Y  Y0  1  0.459485  0.540515  0.750000  1
  Y  Y1  1  0.459485  0.918970  0.750000  1
  Y  Y2  1  0.081030  0.540515  0.750000  1
  Tm  Tm3  1  0.000000  0.000000  0.500170  1
  Tm  Tm4  1  0.000000  0.000000  0.999830  1
  Tm  Tm5  1  0.543230  0.456770  0.250000  1
  Tm  Tm6  1  0.543230  0.086460  0.250000  1
  Tm  Tm7  1  0.913540  0.456770  0.250000  1
  Tm  Tm8  1  0.210819  0.789181  0.436558  1
  Tm  Tm9  1  0.210819  0.421638  0.436558  1
  Tm  Tm10  1  0.578362  0.789181  0.436558  1
  Tm  Tm11  1  0.787587  0.212413  0.562704  1
  Tm  Tm12  1  0.787587  0.575171  0.562704  1
  Tm  Tm13  1  0.424829  0.212413  0.562704  1
  Tm  Tm14  1  0.787587  0.212413  0.937296  1
  Tm  Tm15  1  0.787587  0.575171  0.937296  1
  Tm  Tm16  1  0.424829  0.212413  0.937296  1
  Tm  Tm17  1  0.210819  0.789181  0.063442  1
  Tm  Tm18  1  0.210819  0.421638  0.063442  1
  Tm  Tm19  1  0.578362  0.789181  0.063442  1
  Cd  Cd20  1  0.884598  0.115402  0.250000  1
  Cd  Cd21  1  0.884598  0.769196  0.250000  1
  Cd  Cd22  1  0.230804  0.115402  0.250000  1
  Cd  Cd23  1  0.113683  0.886317  0.750000  1
  Cd  Cd24  1  0.113683  0.227365  0.750000  1
  Cd  Cd25  1  0.772635  0.886317  0.750000  1
  Fe  Fe26  1  0.666667  0.333333  0.750000  1
  Ni  Ni27  1  0.333333  0.666667  0.250000  1
