# generated using pymatgen
data_Hf16Re3Pt5
_symmetry_space_group_name_H-M   'P 1'
_cell_length_a   8.84840718
_cell_length_b   8.84840715
_cell_length_c   8.84840800
_cell_angle_alpha   60.01388061
_cell_angle_beta   60.01388073
_cell_angle_gamma   60.01387758
_symmetry_Int_Tables_number   1
_chemical_formula_structural   Hf16Re3Pt5
_chemical_formula_sum   'Hf16 Re3 Pt5'
_cell_volume   490.02357228
_cell_formula_units_Z   1
loop_
 _symmetry_equiv_pos_site_id
 _symmetry_equiv_pos_as_xyz
  1  'x, y, z'
loop_
 _atom_site_type_symbol
 _atom_site_label
 _atom_site_symmetry_multiplicity
 _atom_site_fract_x
 _atom_site_fract_y
 _atom_site_fract_z
 _atom_site_occupancy
  Hf  Hf0  1  0.666049  0.110916  0.110916  1
  Hf  Hf1  1  0.110916  0.666049  0.110916  1
  Hf  Hf2  1  0.110916  0.110916  0.666049  1
  Hf  Hf3  1  0.110535  0.110535  0.110535  1
  Hf  Hf4  1  0.318473  0.318473  0.690569  1
  Hf  Hf5  1  0.682539  0.682539  0.317725  1
  Hf  Hf6  1  0.318473  0.690569  0.318473  1
  Hf  Hf7  1  0.682539  0.317725  0.682539  1
  Hf  Hf8  1  0.690569  0.318473  0.318473  1
  Hf  Hf9  1  0.317725  0.682539  0.682539  1
  Hf  Hf10  1  0.962330  0.962330  0.537275  1
  Hf  Hf11  1  0.540533  0.540533  0.955528  1
  Hf  Hf12  1  0.962330  0.537275  0.962330  1
  Hf  Hf13  1  0.540533  0.955528  0.540533  1
  Hf  Hf14  1  0.537275  0.962330  0.962330  1
  Hf  Hf15  1  0.955528  0.540533  0.540533  1
  Re  Re16  1  0.995651  0.333249  0.333249  1
  Re  Re17  1  0.333249  0.995651  0.333249  1
  Re  Re18  1  0.333249  0.333249  0.995651  1
  Pt  Pt19  1  0.321613  0.891901  0.891901  1
  Pt  Pt20  1  0.891901  0.321613  0.891901  1
  Pt  Pt21  1  0.891901  0.891901  0.321613  1
  Pt  Pt22  1  0.893061  0.893061  0.893061  1
  Pt  Pt23  1  0.332109  0.332109  0.332109  1
