# generated using pymatgen
data_Nd5Er(CI5)2
_symmetry_space_group_name_H-M   'P 1'
_cell_length_a   7.87563277
_cell_length_b   9.67694916
_cell_length_c   9.75959654
_cell_angle_alpha   107.18654430
_cell_angle_beta   96.23801375
_cell_angle_gamma   104.55535655
_symmetry_Int_Tables_number   1
_chemical_formula_structural   Nd5Er(CI5)2
_chemical_formula_sum   'Nd5 Er1 C2 I10'
_cell_volume   674.18971015
_cell_formula_units_Z   1
loop_
 _symmetry_equiv_pos_site_id
 _symmetry_equiv_pos_as_xyz
  1  'x, y, z'
loop_
 _atom_site_type_symbol
 _atom_site_label
 _atom_site_symmetry_multiplicity
 _atom_site_fract_x
 _atom_site_fract_y
 _atom_site_fract_z
 _atom_site_occupancy
  Nd  Nd0  1  0.028069  0.733500  0.921648  1
  Nd  Nd1  1  0.105553  0.038481  0.775055  1
  Nd  Nd2  1  0.969433  0.266032  0.077298  1
  Nd  Nd3  1  0.890904  0.959513  0.223952  1
  Nd  Nd4  1  0.373982  0.133936  0.179387  1
  Er  Er5  1  0.633964  0.870176  0.825727  1
  C  C6  1  0.085258  0.028774  0.039954  1
  C  C7  1  0.908932  0.969625  0.958906  1
  I  I8  1  0.211029  0.737553  0.649711  1
  I  I9  1  0.909413  0.628412  0.180903  1
  I  I10  1  0.088098  0.369994  0.817075  1
  I  I11  1  0.734893  0.911720  0.546017  1
  I  I12  1  0.253129  0.083306  0.462110  1
  I  I13  1  0.645186  0.552146  0.726667  1
  I  I14  1  0.458681  0.807177  0.083198  1
  I  I15  1  0.808624  0.268069  0.359837  1
  I  I16  1  0.348382  0.460096  0.271540  1
  I  I17  1  0.546468  0.181490  0.901018  1
