# generated using pymatgen
data_Ba4NdGd7O16
_symmetry_space_group_name_H-M   'P 1'
_cell_length_a   3.55352700
_cell_length_b   10.59749028
_cell_length_c   12.38627996
_cell_angle_alpha   89.84792547
_cell_angle_beta   90.00000000
_cell_angle_gamma   90.00000000
_symmetry_Int_Tables_number   1
_chemical_formula_structural   Ba4NdGd7O16
_chemical_formula_sum   'Ba4 Nd1 Gd7 O16'
_cell_volume   466.44668286
_cell_formula_units_Z   1
loop_
 _symmetry_equiv_pos_site_id
 _symmetry_equiv_pos_as_xyz
  1  'x, y, z'
loop_
 _atom_site_type_symbol
 _atom_site_label
 _atom_site_symmetry_multiplicity
 _atom_site_fract_x
 _atom_site_fract_y
 _atom_site_fract_z
 _atom_site_occupancy
  Ba  Ba0  1  0.750000  0.748343  0.852273  1
  Ba  Ba1  1  0.250000  0.251168  0.146034  1
  Ba  Ba2  1  0.750000  0.247310  0.649864  1
  Ba  Ba3  1  0.250000  0.752221  0.351904  1
  Nd  Nd4  1  0.250000  0.420290  0.389232  1
  Gd  Gd5  1  0.250000  0.423863  0.889402  1
  Gd  Gd6  1  0.750000  0.577001  0.109205  1
  Gd  Gd7  1  0.250000  0.923893  0.610674  1
  Gd  Gd8  1  0.750000  0.074800  0.389055  1
  Gd  Gd9  1  0.750000  0.075845  0.888792  1
  Gd  Gd10  1  0.250000  0.923193  0.111193  1
  Gd  Gd11  1  0.750000  0.577596  0.612893  1
  O  O12  1  0.250000  0.431045  0.579326  1
  O  O13  1  0.750000  0.572626  0.427275  1
  O  O14  1  0.250000  0.930511  0.925130  1
  O  O15  1  0.750000  0.069340  0.074205  1
  O  O16  1  0.250000  0.518280  0.215252  1
  O  O17  1  0.750000  0.484707  0.783873  1
  O  O18  1  0.250000  0.014457  0.282889  1
  O  O19  1  0.750000  0.984044  0.717043  1
  O  O20  1  0.250000  0.119459  0.517027  1
  O  O21  1  0.750000  0.882459  0.483183  1
  O  O22  1  0.250000  0.618218  0.980887  1
  O  O23  1  0.750000  0.382685  0.017485  1
  O  O24  1  0.750000  0.284114  0.331233  1
  O  O25  1  0.250000  0.712447  0.665155  1
  O  O26  1  0.750000  0.789164  0.163367  1
  O  O27  1  0.250000  0.210919  0.836149  1
