# generated using pymatgen
data_Tb3Sc(P3Rh4)2
_symmetry_space_group_name_H-M   'P 1'
_cell_length_a   3.94625300
_cell_length_b   11.27162300
_cell_length_c   12.92732900
_cell_angle_alpha   90.00000000
_cell_angle_beta   90.00000000
_cell_angle_gamma   90.00000000
_symmetry_Int_Tables_number   1
_chemical_formula_structural   Tb3Sc(P3Rh4)2
_chemical_formula_sum   'Tb6 Sc2 P12 Rh16'
_cell_volume   575.01633381
_cell_formula_units_Z   2
loop_
 _symmetry_equiv_pos_site_id
 _symmetry_equiv_pos_as_xyz
  1  'x, y, z'
loop_
 _atom_site_type_symbol
 _atom_site_label
 _atom_site_symmetry_multiplicity
 _atom_site_fract_x
 _atom_site_fract_y
 _atom_site_fract_z
 _atom_site_occupancy
  Tb  Tb0  1  0.000000  0.500000  0.521134  1
  Tb  Tb1  1  0.500000  0.000000  0.478866  1
  Tb  Tb2  1  0.500000  0.819753  0.203322  1
  Tb  Tb3  1  0.500000  0.180247  0.203322  1
  Tb  Tb4  1  0.000000  0.680247  0.796678  1
  Tb  Tb5  1  0.000000  0.319753  0.796678  1
  Sc  Sc6  1  0.500000  0.500000  0.158227  1
  Sc  Sc7  1  0.000000  0.000000  0.841773  1
  P  P8  1  0.500000  0.500000  0.880645  1
  P  P9  1  0.000000  0.000000  0.119355  1
  P  P10  1  0.500000  0.500000  0.358580  1
  P  P11  1  0.000000  0.000000  0.641420  1
  P  P12  1  0.500000  0.312247  0.616724  1
  P  P13  1  0.500000  0.687753  0.616724  1
  P  P14  1  0.000000  0.187753  0.383276  1
  P  P15  1  0.000000  0.812247  0.383276  1
  P  P16  1  0.500000  0.841832  0.889417  1
  P  P17  1  0.500000  0.158168  0.889417  1
  P  P18  1  0.000000  0.658168  0.110583  1
  P  P19  1  0.000000  0.341832  0.110583  1
  Rh  Rh20  1  0.500000  0.500000  0.701462  1
  Rh  Rh21  1  0.000000  0.000000  0.298538  1
  Rh  Rh22  1  0.000000  0.500000  0.985098  1
  Rh  Rh23  1  0.500000  0.000000  0.014902  1
  Rh  Rh24  1  0.500000  0.331453  0.992341  1
  Rh  Rh25  1  0.500000  0.668547  0.992341  1
  Rh  Rh26  1  0.000000  0.168547  0.007659  1
  Rh  Rh27  1  0.000000  0.831453  0.007659  1
  Rh  Rh28  1  0.500000  0.290937  0.431810  1
  Rh  Rh29  1  0.500000  0.709063  0.431810  1
  Rh  Rh30  1  0.000000  0.209063  0.568190  1
  Rh  Rh31  1  0.000000  0.790937  0.568190  1
  Rh  Rh32  1  0.500000  0.874505  0.707032  1
  Rh  Rh33  1  0.500000  0.125495  0.707032  1
  Rh  Rh34  1  0.000000  0.625495  0.292968  1
  Rh  Rh35  1  0.000000  0.374505  0.292968  1
