# generated using pymatgen
data_TmTh2(GeRh)3
_symmetry_space_group_name_H-M   'P 1'
_cell_length_a   7.24550452
_cell_length_b   7.24550391
_cell_length_c   3.92532100
_cell_angle_alpha   90.00000000
_cell_angle_beta   90.00000000
_cell_angle_gamma   119.51741851
_symmetry_Int_Tables_number   1
_chemical_formula_structural   TmTh2(GeRh)3
_chemical_formula_sum   'Tm1 Th2 Ge3 Rh3'
_cell_volume   179.32236368
_cell_formula_units_Z   1
loop_
 _symmetry_equiv_pos_site_id
 _symmetry_equiv_pos_as_xyz
  1  'x, y, z'
loop_
 _atom_site_type_symbol
 _atom_site_label
 _atom_site_symmetry_multiplicity
 _atom_site_fract_x
 _atom_site_fract_y
 _atom_site_fract_z
 _atom_site_occupancy
  Tm  Tm0  1  0.404990  0.404990  0.500000  1
  Th  Th1  1  0.587542  0.999632  0.500000  1
  Th  Th2  1  0.999632  0.587542  0.500000  1
  Ge  Ge3  1  0.739911  0.739911  0.000000  1
  Ge  Ge4  1  0.251752  0.011713  0.000000  1
  Ge  Ge5  1  0.011713  0.251752  0.000000  1
  Rh  Rh6  1  0.672439  0.333430  0.000000  1
  Rh  Rh7  1  0.333430  0.672439  0.000000  1
  Rh  Rh8  1  0.998592  0.998592  0.500000  1
