# generated using pymatgen
data_Er8BeCu(Si6Pd)2
_symmetry_space_group_name_H-M   'P 1'
_cell_length_a   8.02715800
_cell_length_b   8.02715908
_cell_length_c   8.01553700
_cell_angle_alpha   90.00000000
_cell_angle_beta   90.00000000
_cell_angle_gamma   119.99999553
_symmetry_Int_Tables_number   1
_chemical_formula_structural   Er8BeCu(Si6Pd)2
_chemical_formula_sum   'Er8 Be1 Cu1 Si12 Pd2'
_cell_volume   447.28770016
_cell_formula_units_Z   1
loop_
 _symmetry_equiv_pos_site_id
 _symmetry_equiv_pos_as_xyz
  1  'x, y, z'
loop_
 _atom_site_type_symbol
 _atom_site_label
 _atom_site_symmetry_multiplicity
 _atom_site_fract_x
 _atom_site_fract_y
 _atom_site_fract_z
 _atom_site_occupancy
  Er  Er0  1  0.499955  0.999911  0.247914  1
  Er  Er1  1  0.498390  0.996779  0.752276  1
  Er  Er2  1  0.000089  0.500045  0.247914  1
  Er  Er3  1  0.003221  0.501610  0.752276  1
  Er  Er4  1  0.499955  0.500045  0.247914  1
  Er  Er5  1  0.498390  0.501610  0.752276  1
  Er  Er6  1  0.000000  0.000000  0.247813  1
  Er  Er7  1  0.000000  0.000000  0.752476  1
  Be  Be8  1  0.333333  0.666667  0.001097  1
  Cu  Cu9  1  0.666667  0.333333  0.995356  1
  Si  Si10  1  0.172787  0.345575  0.000654  1
  Si  Si11  1  0.831037  0.662076  0.000100  1
  Si  Si12  1  0.654425  0.827213  0.000654  1
  Si  Si13  1  0.834024  0.668048  0.500214  1
  Si  Si14  1  0.337924  0.168963  0.000100  1
  Si  Si15  1  0.165623  0.331248  0.499554  1
  Si  Si16  1  0.172787  0.827213  0.000654  1
  Si  Si17  1  0.331952  0.165976  0.500214  1
  Si  Si18  1  0.831037  0.168963  0.000100  1
  Si  Si19  1  0.668752  0.834377  0.499554  1
  Si  Si20  1  0.834024  0.165976  0.500214  1
  Si  Si21  1  0.165623  0.834377  0.499554  1
  Pd  Pd22  1  0.666667  0.333333  0.502368  1
  Pd  Pd23  1  0.333333  0.666667  0.498754  1
