# generated using pymatgen
data_PrDy(Re2Si)4
_symmetry_space_group_name_H-M   'P 1'
_cell_length_a   4.15889900
_cell_length_b   7.32480710
_cell_length_c   15.51607208
_cell_angle_alpha   90.30669692
_cell_angle_beta   90.00000000
_cell_angle_gamma   90.00000000
_symmetry_Int_Tables_number   1
_chemical_formula_structural   PrDy(Re2Si)4
_chemical_formula_sum   'Pr2 Dy2 Re16 Si8'
_cell_volume   472.66139450
_cell_formula_units_Z   2
loop_
 _symmetry_equiv_pos_site_id
 _symmetry_equiv_pos_as_xyz
  1  'x, y, z'
loop_
 _atom_site_type_symbol
 _atom_site_label
 _atom_site_symmetry_multiplicity
 _atom_site_fract_x
 _atom_site_fract_y
 _atom_site_fract_z
 _atom_site_occupancy
  Pr  Pr0  1  0.500000  0.079419  0.379957  1
  Pr  Pr1  1  0.500000  0.920581  0.620043  1
  Dy  Dy2  1  0.000000  0.580138  0.117223  1
  Dy  Dy3  1  0.000000  0.419862  0.882777  1
  Re  Re4  1  0.000000  0.142942  0.050928  1
  Re  Re5  1  0.000000  0.857058  0.949072  1
  Re  Re6  1  0.500000  0.637659  0.447732  1
  Re  Re7  1  0.500000  0.362341  0.552268  1
  Re  Re8  1  0.000000  0.731135  0.318850  1
  Re  Re9  1  0.000000  0.268865  0.681150  1
  Re  Re10  1  0.500000  0.236798  0.176109  1
  Re  Re11  1  0.500000  0.763202  0.823891  1
  Re  Re12  1  0.000000  0.431542  0.418042  1
  Re  Re13  1  0.000000  0.568458  0.581958  1
  Re  Re14  1  0.500000  0.931094  0.081229  1
  Re  Re15  1  0.500000  0.068906  0.918771  1
  Re  Re16  1  0.000000  0.988066  0.203762  1
  Re  Re17  1  0.000000  0.011934  0.796238  1
  Re  Re18  1  0.500000  0.492397  0.291549  1
  Re  Re19  1  0.500000  0.507603  0.708451  1
  Si  Si20  1  0.000000  0.827416  0.475122  1
  Si  Si21  1  0.000000  0.172584  0.524878  1
  Si  Si22  1  0.500000  0.334683  0.022508  1
  Si  Si23  1  0.500000  0.665317  0.977492  1
  Si  Si24  1  0.000000  0.294699  0.270539  1
  Si  Si25  1  0.000000  0.705301  0.729461  1
  Si  Si26  1  0.500000  0.789661  0.223548  1
  Si  Si27  1  0.500000  0.210339  0.776452  1
