# generated using pymatgen
data_YbSc(Re2Si)4
_symmetry_space_group_name_H-M   'P 1'
_cell_length_a   7.34166474
_cell_length_b   7.34166437
_cell_length_c   4.15748800
_cell_angle_alpha   90.00000000
_cell_angle_beta   90.00000000
_cell_angle_gamma   88.84554862
_symmetry_Int_Tables_number   1
_chemical_formula_structural   YbSc(Re2Si)4
_chemical_formula_sum   'Yb1 Sc1 Re8 Si4'
_cell_volume   224.04327678
_cell_formula_units_Z   1
loop_
 _symmetry_equiv_pos_site_id
 _symmetry_equiv_pos_as_xyz
  1  'x, y, z'
loop_
 _atom_site_type_symbol
 _atom_site_label
 _atom_site_symmetry_multiplicity
 _atom_site_fract_x
 _atom_site_fract_y
 _atom_site_fract_z
 _atom_site_occupancy
  Yb  Yb0  1  0.500000  0.500000  0.000000  1
  Sc  Sc1  1  0.000000  0.000000  0.500000  1
  Re  Re2  1  0.660068  0.908970  0.000000  1
  Re  Re3  1  0.154180  0.601493  0.500000  1
  Re  Re4  1  0.091030  0.339932  0.000000  1
  Re  Re5  1  0.908970  0.660068  0.000000  1
  Re  Re6  1  0.398507  0.845820  0.500000  1
  Re  Re7  1  0.601493  0.154180  0.500000  1
  Re  Re8  1  0.339932  0.091030  0.000000  1
  Re  Re9  1  0.845820  0.398507  0.500000  1
  Si  Si10  1  0.203643  0.796357  0.000000  1
  Si  Si11  1  0.796357  0.203643  0.000000  1
  Si  Si12  1  0.709612  0.709612  0.500000  1
  Si  Si13  1  0.290388  0.290388  0.500000  1
