# generated using pymatgen
data_TbCePPt8
_symmetry_space_group_name_H-M   'P 1'
_cell_length_a   9.11247196
_cell_length_b   9.11258062
_cell_length_c   4.30929400
_cell_angle_alpha   90.00000000
_cell_angle_beta   90.00000000
_cell_angle_gamma   145.41429237
_symmetry_Int_Tables_number   1
_chemical_formula_structural   TbCePPt8
_chemical_formula_sum   'Tb1 Ce1 P1 Pt8'
_cell_volume   203.12130494
_cell_formula_units_Z   1
loop_
 _symmetry_equiv_pos_site_id
 _symmetry_equiv_pos_as_xyz
  1  'x, y, z'
loop_
 _atom_site_type_symbol
 _atom_site_label
 _atom_site_symmetry_multiplicity
 _atom_site_fract_x
 _atom_site_fract_y
 _atom_site_fract_z
 _atom_site_occupancy
  Tb  Tb0  1  0.620423  0.372380  0.500000  1
  Ce  Ce1  1  0.371337  0.619319  0.500000  1
  P  P2  1  0.226547  0.225993  0.000000  1
  Pt  Pt3  1  0.109385  0.889602  0.000000  1
  Pt  Pt4  1  0.890887  0.110703  0.000000  1
  Pt  Pt5  1  0.489162  0.983729  0.000000  1
  Pt  Pt6  1  0.984084  0.489923  0.000000  1
  Pt  Pt7  1  0.194394  0.793347  0.500000  1
  Pt  Pt8  1  0.790790  0.194405  0.500000  1
  Pt  Pt9  1  0.001687  0.001622  0.500000  1
  Pt  Pt10  1  0.634904  0.632576  0.000000  1
