# generated using pymatgen
data_Yb3TiAl2O8
_symmetry_space_group_name_H-M   'P 1'
_cell_length_a   5.30257500
_cell_length_b   5.45322141
_cell_length_c   10.86373929
_cell_angle_alpha   90.26191375
_cell_angle_beta   90.00000000
_cell_angle_gamma   90.00000000
_symmetry_Int_Tables_number   1
_chemical_formula_structural   Yb3TiAl2O8
_chemical_formula_sum   'Yb6 Ti2 Al4 O16'
_cell_volume   314.13385790
_cell_formula_units_Z   2
loop_
 _symmetry_equiv_pos_site_id
 _symmetry_equiv_pos_as_xyz
  1  'x, y, z'
loop_
 _atom_site_type_symbol
 _atom_site_label
 _atom_site_symmetry_multiplicity
 _atom_site_fract_x
 _atom_site_fract_y
 _atom_site_fract_z
 _atom_site_occupancy
  Yb  Yb0  1  0.986785  0.221115  0.810241  1
  Yb  Yb1  1  0.983610  0.219169  0.187830  1
  Yb  Yb2  1  0.486785  0.778885  0.189759  1
  Yb  Yb3  1  0.483610  0.780831  0.812170  1
  Yb  Yb4  1  0.006067  0.231556  0.500486  1
  Yb  Yb5  1  0.506067  0.768444  0.499514  1
  Ti  Ti6  1  0.495721  0.265708  0.334789  1
  Ti  Ti7  1  0.995721  0.734292  0.665211  1
  Al  Al8  1  0.447602  0.324252  0.998012  1
  Al  Al9  1  0.947602  0.675748  0.001988  1
  Al  Al10  1  0.496239  0.256997  0.674627  1
  Al  Al11  1  0.996239  0.743003  0.325373  1
  O  O12  1  0.251435  0.002823  0.652646  1
  O  O13  1  0.245845  0.992312  0.347349  1
  O  O14  1  0.751435  0.997177  0.347354  1
  O  O15  1  0.745845  0.007688  0.652651  1
  O  O16  1  0.242098  0.490756  0.699326  1
  O  O17  1  0.235510  0.492904  0.300056  1
  O  O18  1  0.742098  0.509244  0.300674  1
  O  O19  1  0.735510  0.507096  0.699944  1
  O  O20  1  0.111838  0.386473  0.000080  1
  O  O21  1  0.611838  0.613527  0.999920  1
  O  O22  1  0.514027  0.186588  0.854743  1
  O  O23  1  0.521681  0.176830  0.136865  1
  O  O24  1  0.014027  0.813412  0.145257  1
  O  O25  1  0.021681  0.823170  0.863135  1
  O  O26  1  0.493542  0.324664  0.503372  1
  O  O27  1  0.993542  0.675336  0.496628  1
