# generated using pymatgen
data_Hf6Pt2CN
_symmetry_space_group_name_H-M   'P 1'
_cell_length_a   6.00300281
_cell_length_b   6.00300341
_cell_length_c   8.84888162
_cell_angle_alpha   90.07866910
_cell_angle_beta   89.92133008
_cell_angle_gamma   148.00460326
_symmetry_Int_Tables_number   1
_chemical_formula_structural   Hf6Pt2CN
_chemical_formula_sum   'Hf6 Pt2 C1 N1'
_cell_volume   168.95807110
_cell_formula_units_Z   1
loop_
 _symmetry_equiv_pos_site_id
 _symmetry_equiv_pos_as_xyz
  1  'x, y, z'
loop_
 _atom_site_type_symbol
 _atom_site_label
 _atom_site_symmetry_multiplicity
 _atom_site_fract_x
 _atom_site_fract_y
 _atom_site_fract_z
 _atom_site_occupancy
  Hf  Hf0  1  0.629248  0.370752  0.942408  1
  Hf  Hf1  1  0.371674  0.628326  0.445838  1
  Hf  Hf2  1  0.370752  0.629248  0.057592  1
  Hf  Hf3  1  0.628326  0.371674  0.554162  1
  Hf  Hf4  1  0.947524  0.052476  0.749958  1
  Hf  Hf5  1  0.052476  0.947524  0.250042  1
  Pt  Pt6  1  0.252284  0.747716  0.746168  1
  Pt  Pt7  1  0.747716  0.252284  0.253832  1
  C  C8  1  0.000000  0.000000  0.000000  1
  N  N9  1  0.000000  0.000000  0.500000  1
