# generated using pymatgen
data_CeEr3TlOs
_symmetry_space_group_name_H-M   'P 1'
_cell_length_a   9.58445431
_cell_length_b   9.58445419
_cell_length_c   9.58445500
_cell_angle_alpha   60.00000067
_cell_angle_beta   60.00000106
_cell_angle_gamma   59.99999833
_symmetry_Int_Tables_number   1
_chemical_formula_structural   CeEr3TlOs
_chemical_formula_sum   'Ce4 Er12 Tl4 Os4'
_cell_volume   622.56858531
_cell_formula_units_Z   4
loop_
 _symmetry_equiv_pos_site_id
 _symmetry_equiv_pos_as_xyz
  1  'x, y, z'
loop_
 _atom_site_type_symbol
 _atom_site_label
 _atom_site_symmetry_multiplicity
 _atom_site_fract_x
 _atom_site_fract_y
 _atom_site_fract_z
 _atom_site_occupancy
  Ce  Ce0  1  0.597159  0.597159  0.597159  1
  Ce  Ce1  1  0.597159  0.597159  0.208524  1
  Ce  Ce2  1  0.597159  0.208524  0.597159  1
  Ce  Ce3  1  0.208524  0.597159  0.597159  1
  Er  Er4  1  0.061635  0.438365  0.438365  1
  Er  Er5  1  0.438365  0.061635  0.061635  1
  Er  Er6  1  0.438365  0.061635  0.438365  1
  Er  Er7  1  0.061635  0.438365  0.061635  1
  Er  Er8  1  0.438365  0.438365  0.061635  1
  Er  Er9  1  0.061635  0.061635  0.438365  1
  Er  Er10  1  0.190922  0.809078  0.809078  1
  Er  Er11  1  0.809078  0.190922  0.190922  1
  Er  Er12  1  0.809078  0.190922  0.809078  1
  Er  Er13  1  0.190922  0.809078  0.190922  1
  Er  Er14  1  0.809078  0.809078  0.190922  1
  Er  Er15  1  0.190922  0.190922  0.809078  1
  Tl  Tl16  1  0.835735  0.835735  0.835735  1
  Tl  Tl17  1  0.835735  0.835735  0.492792  1
  Tl  Tl18  1  0.835735  0.492792  0.835735  1
  Tl  Tl19  1  0.492792  0.835735  0.835735  1
  Os  Os20  1  0.393142  0.393142  0.393142  1
  Os  Os21  1  0.393142  0.393142  0.820573  1
  Os  Os22  1  0.393142  0.820573  0.393142  1
  Os  Os23  1  0.820573  0.393142  0.393142  1
