# generated using pymatgen
data_YbTm(ThPt2)2
_symmetry_space_group_name_H-M   'P 1'
_cell_length_a   4.52716700
_cell_length_b   5.72755975
_cell_length_c   7.19391765
_cell_angle_alpha   89.00093633
_cell_angle_beta   90.00000000
_cell_angle_gamma   90.00000000
_symmetry_Int_Tables_number   1
_chemical_formula_structural   YbTm(ThPt2)2
_chemical_formula_sum   'Yb1 Tm1 Th2 Pt4'
_cell_volume   186.50719033
_cell_formula_units_Z   1
loop_
 _symmetry_equiv_pos_site_id
 _symmetry_equiv_pos_as_xyz
  1  'x, y, z'
loop_
 _atom_site_type_symbol
 _atom_site_label
 _atom_site_symmetry_multiplicity
 _atom_site_fract_x
 _atom_site_fract_y
 _atom_site_fract_z
 _atom_site_occupancy
  Yb  Yb0  1  0.250000  0.355655  0.680073  1
  Tm  Tm1  1  0.750000  0.641912  0.320437  1
  Th  Th2  1  0.250000  0.148256  0.185349  1
  Th  Th3  1  0.750000  0.851522  0.814277  1
  Pt  Pt4  1  0.750000  0.158008  0.450305  1
  Pt  Pt5  1  0.250000  0.840988  0.537574  1
  Pt  Pt6  1  0.250000  0.668169  0.052230  1
  Pt  Pt7  1  0.750000  0.335491  0.959756  1
