# generated using pymatgen
data_Pr18Ho2Si15As
_symmetry_space_group_name_H-M   'P 1'
_cell_length_a   7.87210953
_cell_length_b   7.86900191
_cell_length_c   15.31294900
_cell_angle_alpha   89.95275957
_cell_angle_beta   89.69364652
_cell_angle_gamma   89.98574586
_symmetry_Int_Tables_number   1
_chemical_formula_structural   Pr18Ho2Si15As
_chemical_formula_sum   'Pr18 Ho2 Si15 As1'
_cell_volume   948.55659116
_cell_formula_units_Z   1
loop_
 _symmetry_equiv_pos_site_id
 _symmetry_equiv_pos_as_xyz
  1  'x, y, z'
loop_
 _atom_site_type_symbol
 _atom_site_label
 _atom_site_symmetry_multiplicity
 _atom_site_fract_x
 _atom_site_fract_y
 _atom_site_fract_z
 _atom_site_occupancy
  Pr  Pr0  1  0.803393  0.191574  0.751975  1
  Pr  Pr1  1  0.689363  0.691622  0.497952  1
  Pr  Pr2  1  0.379141  0.009382  0.443545  1
  Pr  Pr3  1  0.489604  0.878006  0.697534  1
  Pr  Pr4  1  0.510998  0.121929  0.194989  1
  Pr  Pr5  1  0.878160  0.486569  0.301877  1
  Pr  Pr6  1  0.123049  0.510761  0.805475  1
  Pr  Pr7  1  0.622944  0.986315  0.947853  1
  Pr  Pr8  1  0.007185  0.379628  0.552156  1
  Pr  Pr9  1  0.988679  0.621321  0.054323  1
  Pr  Pr10  1  0.129281  0.981483  0.878173  1
  Pr  Pr11  1  0.521197  0.627160  0.126469  1
  Pr  Pr12  1  0.478610  0.374505  0.629188  1
  Pr  Pr13  1  0.627826  0.521150  0.874573  1
  Pr  Pr14  1  0.372825  0.477544  0.371521  1
  Pr  Pr15  1  0.873898  0.020330  0.376364  1
  Pr  Pr16  1  0.980056  0.127074  0.123181  1
  Pr  Pr17  1  0.019850  0.873203  0.621910  1
  Ho  Ho18  1  0.311410  0.311688  0.000305  1
  Ho  Ho19  1  0.189114  0.809928  0.248730  1
  Si  Si20  1  0.328213  0.690400  0.955954  1
  Si  Si21  1  0.667925  0.306274  0.454377  1
  Si  Si22  1  0.692019  0.329303  0.045797  1
  Si  Si23  1  0.304450  0.668380  0.545221  1
  Si  Si24  1  0.810044  0.828643  0.205061  1
  Si  Si25  1  0.171068  0.190081  0.293313  1
  Si  Si26  1  0.835144  0.805421  0.796475  1
  Si  Si27  1  0.286140  0.921893  0.062819  1
  Si  Si28  1  0.573970  0.788656  0.308183  1
  Si  Si29  1  0.427315  0.213656  0.819300  1
  Si  Si30  1  0.788666  0.579764  0.689434  1
  Si  Si31  1  0.213199  0.422857  0.186887  1
  Si  Si32  1  0.708549  0.078154  0.560744  1
  Si  Si33  1  0.928214  0.289387  0.941540  1
  Si  Si34  1  0.081880  0.713785  0.435336  1
  As  As35  1  0.186620  0.172169  0.701465  1
