# generated using pymatgen
data_Sc2Tc(BRu)4
_symmetry_space_group_name_H-M   'P 1'
_cell_length_a   3.02573200
_cell_length_b   8.53906980
_cell_length_c   10.06238850
_cell_angle_alpha   90.47010391
_cell_angle_beta   90.00000000
_cell_angle_gamma   90.00000000
_symmetry_Int_Tables_number   1
_chemical_formula_structural   Sc2Tc(BRu)4
_chemical_formula_sum   'Sc4 Tc2 B8 Ru8'
_cell_volume   259.97254426
_cell_formula_units_Z   2
loop_
 _symmetry_equiv_pos_site_id
 _symmetry_equiv_pos_as_xyz
  1  'x, y, z'
loop_
 _atom_site_type_symbol
 _atom_site_label
 _atom_site_symmetry_multiplicity
 _atom_site_fract_x
 _atom_site_fract_y
 _atom_site_fract_z
 _atom_site_occupancy
  Sc  Sc0  1  0.500000  0.841506  0.177878  1
  Sc  Sc1  1  0.500000  0.158494  0.822122  1
  Sc  Sc2  1  0.500000  0.657249  0.684747  1
  Sc  Sc3  1  0.500000  0.342751  0.315253  1
  Tc  Tc4  1  0.000000  0.660025  0.952809  1
  Tc  Tc5  1  0.000000  0.339975  0.047191  1
  B  B6  1  0.500000  0.964994  0.589865  1
  B  B7  1  0.500000  0.035006  0.410135  1
  B  B8  1  0.500000  0.848875  0.901052  1
  B  B9  1  0.500000  0.151125  0.098948  1
  B  B10  1  0.500000  0.647084  0.398007  1
  B  B11  1  0.500000  0.352916  0.601993  1
  B  B12  1  0.500000  0.463858  0.913263  1
  B  B13  1  0.500000  0.536142  0.086737  1
  Ru  Ru14  1  0.000000  0.841606  0.453369  1
  Ru  Ru15  1  0.000000  0.158394  0.546631  1
  Ru  Ru16  1  0.000000  0.000000  0.000000  1
  Ru  Ru17  1  0.000000  0.403036  0.760379  1
  Ru  Ru18  1  0.000000  0.596964  0.239621  1
  Ru  Ru19  1  0.000000  0.500000  0.500000  1
  Ru  Ru20  1  0.000000  0.905522  0.738118  1
  Ru  Ru21  1  0.000000  0.094478  0.261882  1
