# generated using pymatgen
data_Tb10Co3NiTe4
_symmetry_space_group_name_H-M   'P 1'
_cell_length_a   7.78923478
_cell_length_b   7.78923478
_cell_length_c   15.04325800
_cell_angle_alpha   90.00000000
_cell_angle_beta   90.00000000
_cell_angle_gamma   150.13225547
_symmetry_Int_Tables_number   1
_chemical_formula_structural   Tb10Co3NiTe4
_chemical_formula_sum   'Tb10 Co3 Ni1 Te4'
_cell_volume   454.52786386
_cell_formula_units_Z   1
loop_
 _symmetry_equiv_pos_site_id
 _symmetry_equiv_pos_as_xyz
  1  'x, y, z'
loop_
 _atom_site_type_symbol
 _atom_site_label
 _atom_site_symmetry_multiplicity
 _atom_site_fract_x
 _atom_site_fract_y
 _atom_site_fract_z
 _atom_site_occupancy
  Tb  Tb0  1  0.959391  0.040609  0.124074  1
  Tb  Tb1  1  0.039768  0.960232  0.874006  1
  Tb  Tb2  1  0.039768  0.960232  0.625994  1
  Tb  Tb3  1  0.959391  0.040609  0.375926  1
  Tb  Tb4  1  0.741891  0.258109  0.629880  1
  Tb  Tb5  1  0.258905  0.741095  0.370661  1
  Tb  Tb6  1  0.258905  0.741095  0.129339  1
  Tb  Tb7  1  0.741891  0.258109  0.870120  1
  Tb  Tb8  1  0.607233  0.392767  0.250000  1
  Tb  Tb9  1  0.394490  0.605510  0.750000  1
  Co  Co10  1  0.590027  0.409973  0.750000  1
  Co  Co11  1  0.817594  0.182406  0.250000  1
  Co  Co12  1  0.180620  0.819380  0.750000  1
  Ni  Ni13  1  0.411600  0.588400  0.250000  1
  Te  Te14  1  0.615842  0.384158  0.039128  1
  Te  Te15  1  0.383422  0.616578  0.961492  1
  Te  Te16  1  0.383422  0.616578  0.538508  1
  Te  Te17  1  0.615842  0.384158  0.460872  1
