# generated using pymatgen
data_Mg4SiPIr4
_symmetry_space_group_name_H-M   'P 1'
_cell_length_a   5.45310954
_cell_length_b   5.45311178
_cell_length_c   7.01232432
_cell_angle_alpha   80.39407499
_cell_angle_beta   80.39406736
_cell_angle_gamma   58.46257475
_symmetry_Int_Tables_number   1
_chemical_formula_structural   Mg4SiPIr4
_chemical_formula_sum   'Mg4 Si1 P1 Ir4'
_cell_volume   174.44296902
_cell_formula_units_Z   1
loop_
 _symmetry_equiv_pos_site_id
 _symmetry_equiv_pos_as_xyz
  1  'x, y, z'
loop_
 _atom_site_type_symbol
 _atom_site_label
 _atom_site_symmetry_multiplicity
 _atom_site_fract_x
 _atom_site_fract_y
 _atom_site_fract_z
 _atom_site_occupancy
  Mg  Mg0  1  0.982203  0.722908  0.147021  1
  Mg  Mg1  1  0.277092  0.017797  0.352979  1
  Mg  Mg2  1  0.014325  0.276701  0.857073  1
  Mg  Mg3  1  0.723299  0.985675  0.642927  1
  Si  Si4  1  0.587716  0.412284  0.250000  1
  P  P5  1  0.418474  0.581526  0.750000  1
  Ir  Ir6  1  0.485659  0.773537  0.985260  1
  Ir  Ir7  1  0.226463  0.514341  0.514740  1
  Ir  Ir8  1  0.511620  0.226852  0.002790  1
  Ir  Ir9  1  0.773148  0.488380  0.497210  1
