# generated using pymatgen
data_Ba2Zn(IrO3)6
_symmetry_space_group_name_H-M   'P 1'
_cell_length_a   6.95241081
_cell_length_b   7.15772463
_cell_length_c   7.69009584
_cell_angle_alpha   92.72062381
_cell_angle_beta   95.10958888
_cell_angle_gamma   115.27811772
_symmetry_Int_Tables_number   1
_chemical_formula_structural   Ba2Zn(IrO3)6
_chemical_formula_sum   'Ba2 Zn1 Ir6 O18'
_cell_volume   343.11030214
_cell_formula_units_Z   1
loop_
 _symmetry_equiv_pos_site_id
 _symmetry_equiv_pos_as_xyz
  1  'x, y, z'
loop_
 _atom_site_type_symbol
 _atom_site_label
 _atom_site_symmetry_multiplicity
 _atom_site_fract_x
 _atom_site_fract_y
 _atom_site_fract_z
 _atom_site_occupancy
  Ba  Ba0  1  0.313445  0.677430  0.628151  1
  Ba  Ba1  1  0.681348  0.316882  0.377584  1
  Zn  Zn2  1  0.386363  0.264401  0.877340  1
  Ir  Ir3  1  0.804463  0.124074  0.814235  1
  Ir  Ir4  1  0.191425  0.875880  0.184006  1
  Ir  Ir5  1  0.606109  0.722201  0.119243  1
  Ir  Ir6  1  0.994109  0.994821  0.500361  1
  Ir  Ir7  1  0.820269  0.618695  0.807109  1
  Ir  Ir8  1  0.176741  0.377172  0.194265  1
  O  O9  1  0.927322  0.724762  0.584337  1
  O  O10  1  0.285856  0.169193  0.119266  1
  O  O11  1  0.326085  0.521161  0.992681  1
  O  O12  1  0.467957  0.554906  0.311243  1
  O  O13  1  0.486899  0.919841  0.161114  1
  O  O14  1  0.902572  0.400255  0.726360  1
  O  O15  1  0.723904  0.835335  0.891369  1
  O  O16  1  0.917070  0.234144  0.048748  1
  O  O17  1  0.696367  0.510715  0.026670  1
  O  O18  1  0.072623  0.269488  0.416723  1
  O  O19  1  0.082628  0.132427  0.742608  1
  O  O20  1  0.725296  0.995462  0.569757  1
  O  O21  1  0.097764  0.598453  0.273777  1
  O  O22  1  0.902068  0.870121  0.251137  1
  O  O23  1  0.087885  0.768404  0.946470  1
  O  O24  1  0.515379  0.073309  0.819128  1
  O  O25  1  0.265534  0.994730  0.429472  1
  O  O26  1  0.542519  0.455736  0.686846  1
