# generated using pymatgen
data_Pu2C2Cl
_symmetry_space_group_name_H-M   'P 1'
_cell_length_a   7.46190269
_cell_length_b   7.46190299
_cell_length_c   6.23605263
_cell_angle_alpha   80.53411456
_cell_angle_beta   80.53411377
_cell_angle_gamma   31.06833269
_symmetry_Int_Tables_number   1
_chemical_formula_structural   Pu2C2Cl
_chemical_formula_sum   'Pu4 C4 Cl2'
_cell_volume   176.55829000
_cell_formula_units_Z   2
loop_
 _symmetry_equiv_pos_site_id
 _symmetry_equiv_pos_as_xyz
  1  'x, y, z'
loop_
 _atom_site_type_symbol
 _atom_site_label
 _atom_site_symmetry_multiplicity
 _atom_site_fract_x
 _atom_site_fract_y
 _atom_site_fract_z
 _atom_site_occupancy
  Pu  Pu0  1  0.533429  0.167838  0.154518  1
  Pu  Pu1  1  0.167838  0.533429  0.654518  1
  Pu  Pu2  1  0.466571  0.832162  0.845482  1
  Pu  Pu3  1  0.832162  0.466571  0.345482  1
  C  C4  1  0.343764  0.099443  0.471861  1
  C  C5  1  0.900557  0.656236  0.028139  1
  C  C6  1  0.656236  0.900557  0.528139  1
  C  C7  1  0.099443  0.343764  0.971861  1
  Cl  Cl8  1  0.796824  0.203176  0.750000  1
  Cl  Cl9  1  0.203176  0.796824  0.250000  1
