# generated using pymatgen
data_Zr8In4Cu7Ni
_symmetry_space_group_name_H-M   'P 1'
_cell_length_a   7.25241552
_cell_length_b   7.25241526
_cell_length_c   6.83260228
_cell_angle_alpha   90.06825801
_cell_angle_beta   89.93173589
_cell_angle_gamma   89.76120014
_symmetry_Int_Tables_number   1
_chemical_formula_structural   Zr8In4Cu7Ni
_chemical_formula_sum   'Zr8 In4 Cu7 Ni1'
_cell_volume   359.37436304
_cell_formula_units_Z   1
loop_
 _symmetry_equiv_pos_site_id
 _symmetry_equiv_pos_as_xyz
  1  'x, y, z'
loop_
 _atom_site_type_symbol
 _atom_site_label
 _atom_site_symmetry_multiplicity
 _atom_site_fract_x
 _atom_site_fract_y
 _atom_site_fract_z
 _atom_site_occupancy
  Zr  Zr0  1  0.187480  0.193304  0.996731  1
  Zr  Zr1  1  0.806696  0.812520  0.996731  1
  Zr  Zr2  1  0.307160  0.692840  0.499777  1
  Zr  Zr3  1  0.697502  0.302498  0.504027  1
  Zr  Zr4  1  0.656434  0.343566  0.996071  1
  Zr  Zr5  1  0.349029  0.650971  0.001276  1
  Zr  Zr6  1  0.846295  0.850643  0.504389  1
  Zr  Zr7  1  0.149357  0.153705  0.504389  1
  In  In8  1  0.496847  0.000277  0.250082  1
  In  In9  1  0.999723  0.503153  0.250082  1
  In  In10  1  0.000627  0.501456  0.751439  1
  In  In11  1  0.498544  0.999373  0.751439  1
  Cu  Cu12  1  0.378864  0.375288  0.295680  1
  Cu  Cu13  1  0.624712  0.621136  0.295680  1
  Cu  Cu14  1  0.121902  0.878098  0.204945  1
  Cu  Cu15  1  0.877129  0.122871  0.204657  1
  Cu  Cu16  1  0.623183  0.621728  0.703054  1
  Cu  Cu17  1  0.378272  0.376817  0.703054  1
  Cu  Cu18  1  0.123665  0.876335  0.797473  1
  Ni  Ni19  1  0.876580  0.123420  0.789027  1
