# generated using pymatgen
data_TmZn2AgPt2
_symmetry_space_group_name_H-M   'P 1'
_cell_length_a   5.22649720
_cell_length_b   5.22649682
_cell_length_c   5.55957100
_cell_angle_alpha   57.86852201
_cell_angle_beta   57.86852460
_cell_angle_gamma   59.57560708
_symmetry_Int_Tables_number   1
_chemical_formula_structural   TmZn2AgPt2
_chemical_formula_sum   'Tm1 Zn2 Ag1 Pt2'
_cell_volume   103.48137019
_cell_formula_units_Z   1
loop_
 _symmetry_equiv_pos_site_id
 _symmetry_equiv_pos_as_xyz
  1  'x, y, z'
loop_
 _atom_site_type_symbol
 _atom_site_label
 _atom_site_symmetry_multiplicity
 _atom_site_fract_x
 _atom_site_fract_y
 _atom_site_fract_z
 _atom_site_occupancy
  Tm  Tm0  1  0.261458  0.261458  0.238542  1
  Zn  Zn1  1  0.619379  0.118993  0.630814  1
  Zn  Zn2  1  0.118993  0.619379  0.630814  1
  Ag  Ag3  1  0.006230  0.006230  0.993770  1
  Pt  Pt4  1  0.621970  0.621970  0.627767  1
  Pt  Pt5  1  0.621970  0.621970  0.128292  1
