# generated using pymatgen
data_PPtCl9
_symmetry_space_group_name_H-M   'P 1'
_cell_length_a   7.21323022
_cell_length_b   9.33697048
_cell_length_c   9.86955420
_cell_angle_alpha   102.12504624
_cell_angle_beta   96.68228391
_cell_angle_gamma   94.87100170
_symmetry_Int_Tables_number   1
_chemical_formula_structural   PPtCl9
_chemical_formula_sum   'P2 Pt2 Cl18'
_cell_volume   641.36212278
_cell_formula_units_Z   2
loop_
 _symmetry_equiv_pos_site_id
 _symmetry_equiv_pos_as_xyz
  1  'x, y, z'
loop_
 _atom_site_type_symbol
 _atom_site_label
 _atom_site_symmetry_multiplicity
 _atom_site_fract_x
 _atom_site_fract_y
 _atom_site_fract_z
 _atom_site_occupancy
  P  P0  1  0.549789  0.189589  0.779084  1
  P  P1  1  0.450211  0.810411  0.220916  1
  Pt  Pt2  1  0.893928  0.375065  0.338827  1
  Pt  Pt3  1  0.106072  0.624935  0.661174  1
  Cl  Cl4  1  0.651239  0.889610  0.130398  1
  Cl  Cl5  1  0.348761  0.110390  0.869602  1
  Cl  Cl6  1  0.202145  0.481139  0.454266  1
  Cl  Cl7  1  0.797855  0.518861  0.545734  1
  Cl  Cl8  1  0.082741  0.827437  0.555908  1
  Cl  Cl9  1  0.917259  0.172563  0.444092  1
  Cl  Cl10  1  0.993269  0.758640  0.854027  1
  Cl  Cl11  1  0.006731  0.241360  0.145973  1
  Cl  Cl12  1  0.127815  0.427841  0.775389  1
  Cl  Cl13  1  0.872185  0.572159  0.224611  1
  Cl  Cl14  1  0.414223  0.712945  0.753470  1
  Cl  Cl15  1  0.585777  0.287055  0.246530  1
  Cl  Cl16  1  0.446602  0.202125  0.590535  1
  Cl  Cl17  1  0.553398  0.797875  0.409465  1
  Cl  Cl18  1  0.745331  0.054947  0.767599  1
  Cl  Cl19  1  0.254669  0.945053  0.232401  1
  Cl  Cl20  1  0.658950  0.382931  0.888916  1
  Cl  Cl21  1  0.341050  0.617069  0.111084  1
