# generated using pymatgen
data_Er8In2NiRh
_symmetry_space_group_name_H-M   'P 1'
_cell_length_a   9.54071786
_cell_length_b   9.53756945
_cell_length_c   9.53756943
_cell_angle_alpha   59.96741538
_cell_angle_beta   59.98907902
_cell_angle_gamma   59.98908002
_symmetry_Int_Tables_number   1
_chemical_formula_structural   Er8In2NiRh
_chemical_formula_sum   'Er16 In4 Ni2 Rh2'
_cell_volume   613.42680313
_cell_formula_units_Z   2
loop_
 _symmetry_equiv_pos_site_id
 _symmetry_equiv_pos_as_xyz
  1  'x, y, z'
loop_
 _atom_site_type_symbol
 _atom_site_label
 _atom_site_symmetry_multiplicity
 _atom_site_fract_x
 _atom_site_fract_y
 _atom_site_fract_z
 _atom_site_occupancy
  Er  Er0  1  0.187218  0.190638  0.811142  1
  Er  Er1  1  0.438340  0.061660  0.061660  1
  Er  Er2  1  0.437501  0.062438  0.438146  1
  Er  Er3  1  0.061914  0.438146  0.062438  1
  Er  Er4  1  0.651799  0.048382  0.648021  1
  Er  Er5  1  0.189096  0.810904  0.810904  1
  Er  Er6  1  0.061914  0.062438  0.438146  1
  Er  Er7  1  0.811379  0.188621  0.188621  1
  Er  Er8  1  0.811003  0.811142  0.190638  1
  Er  Er9  1  0.651799  0.648021  0.048382  1
  Er  Er10  1  0.652489  0.650563  0.650563  1
  Er  Er11  1  0.062667  0.437333  0.437333  1
  Er  Er12  1  0.046385  0.650563  0.650563  1
  Er  Er13  1  0.811003  0.190638  0.811142  1
  Er  Er14  1  0.437501  0.438146  0.062438  1
  Er  Er15  1  0.187218  0.811142  0.190638  1
  In  In16  1  0.417223  0.748257  0.417297  1
  In  In17  1  0.417223  0.417297  0.748257  1
  In  In18  1  0.749673  0.416832  0.416832  1
  In  In19  1  0.416663  0.416832  0.416832  1
  Ni  Ni20  1  0.857589  0.426857  0.857965  1
  Ni  Ni21  1  0.857589  0.857965  0.426857  1
  Rh  Rh22  1  0.427258  0.857593  0.857593  1
  Rh  Rh23  1  0.857557  0.857593  0.857593  1
