# generated using pymatgen
data_Yb3FeMoC6
_symmetry_space_group_name_H-M   'P 1'
_cell_length_a   8.18955200
_cell_length_b   8.18955230
_cell_length_c   5.09412300
_cell_angle_alpha   90.00000000
_cell_angle_beta   90.00000000
_cell_angle_gamma   119.99999071
_symmetry_Int_Tables_number   1
_chemical_formula_structural   Yb3FeMoC6
_chemical_formula_sum   'Yb6 Fe2 Mo2 C12'
_cell_volume   295.88326667
_cell_formula_units_Z   2
loop_
 _symmetry_equiv_pos_site_id
 _symmetry_equiv_pos_as_xyz
  1  'x, y, z'
loop_
 _atom_site_type_symbol
 _atom_site_label
 _atom_site_symmetry_multiplicity
 _atom_site_fract_x
 _atom_site_fract_y
 _atom_site_fract_z
 _atom_site_occupancy
  Yb  Yb0  1  0.609993  0.677496  0.750000  1
  Yb  Yb1  1  0.932497  0.609993  0.250000  1
  Yb  Yb2  1  0.677496  0.067503  0.250000  1
  Yb  Yb3  1  0.322504  0.932497  0.750000  1
  Yb  Yb4  1  0.067503  0.390007  0.750000  1
  Yb  Yb5  1  0.390007  0.322504  0.250000  1
  Fe  Fe6  1  0.666667  0.333333  0.750000  1
  Fe  Fe7  1  0.333333  0.666667  0.250000  1
  Mo  Mo8  1  0.000000  0.000000  0.500000  1
  Mo  Mo9  1  0.000000  0.000000  0.000000  1
  C  C10  1  0.953797  0.758903  0.750000  1
  C  C11  1  0.194893  0.953797  0.250000  1
  C  C12  1  0.758903  0.805107  0.250000  1
  C  C13  1  0.241097  0.194893  0.750000  1
  C  C14  1  0.805107  0.046203  0.750000  1
  C  C15  1  0.046203  0.241097  0.250000  1
  C  C16  1  0.856765  0.570120  0.750000  1
  C  C17  1  0.286645  0.856765  0.250000  1
  C  C18  1  0.570120  0.713355  0.250000  1
  C  C19  1  0.429880  0.286645  0.750000  1
  C  C20  1  0.143235  0.429880  0.250000  1
  C  C21  1  0.713355  0.143235  0.750000  1
