# generated using pymatgen
data_Nb6CuBiS12
_symmetry_space_group_name_H-M   'P 1'
_cell_length_a   5.84051800
_cell_length_b   5.84051804
_cell_length_c   13.37907300
_cell_angle_alpha   90.00000000
_cell_angle_beta   90.00000000
_cell_angle_gamma   119.99999980
_symmetry_Int_Tables_number   1
_chemical_formula_structural   Nb6CuBiS12
_chemical_formula_sum   'Nb6 Cu1 Bi1 S12'
_cell_volume   395.23863617
_cell_formula_units_Z   1
loop_
 _symmetry_equiv_pos_site_id
 _symmetry_equiv_pos_as_xyz
  1  'x, y, z'
loop_
 _atom_site_type_symbol
 _atom_site_label
 _atom_site_symmetry_multiplicity
 _atom_site_fract_x
 _atom_site_fract_y
 _atom_site_fract_z
 _atom_site_occupancy
  Nb  Nb0  1  0.000000  0.000000  0.731575  1
  Nb  Nb1  1  0.000000  0.000000  0.268425  1
  Nb  Nb2  1  0.333333  0.666667  0.268138  1
  Nb  Nb3  1  0.666667  0.333333  0.731862  1
  Nb  Nb4  1  0.666667  0.333333  0.268138  1
  Nb  Nb5  1  0.333333  0.666667  0.731862  1
  Cu  Cu6  1  0.000000  0.000000  0.500000  1
  Bi  Bi7  1  0.000000  0.000000  0.000000  1
  S  S8  1  0.337123  0.000000  0.150314  1
  S  S9  1  0.000000  0.337123  0.150314  1
  S  S10  1  0.662877  0.662877  0.150314  1
  S  S11  1  0.336761  0.336761  0.615020  1
  S  S12  1  0.663239  0.663239  0.384980  1
  S  S13  1  0.663239  0.000000  0.615020  1
  S  S14  1  0.000000  0.663239  0.615020  1
  S  S15  1  0.000000  0.662877  0.849686  1
  S  S16  1  0.337123  0.337123  0.849686  1
  S  S17  1  0.000000  0.336761  0.384980  1
  S  S18  1  0.336761  0.000000  0.384980  1
  S  S19  1  0.662877  0.000000  0.849686  1
