# generated using pymatgen
data_YTh2(ZnPt)3
_symmetry_space_group_name_H-M   'P 1'
_cell_length_a   7.50534785
_cell_length_b   7.50534639
_cell_length_c   3.85624500
_cell_angle_alpha   90.00000000
_cell_angle_beta   90.00000000
_cell_angle_gamma   119.63809223
_symmetry_Int_Tables_number   1
_chemical_formula_structural   YTh2(ZnPt)3
_chemical_formula_sum   'Y1 Th2 Zn3 Pt3'
_cell_volume   188.80308559
_cell_formula_units_Z   1
loop_
 _symmetry_equiv_pos_site_id
 _symmetry_equiv_pos_as_xyz
  1  'x, y, z'
loop_
 _atom_site_type_symbol
 _atom_site_label
 _atom_site_symmetry_multiplicity
 _atom_site_fract_x
 _atom_site_fract_y
 _atom_site_fract_z
 _atom_site_occupancy
  Y  Y0  1  0.404191  0.404191  0.500000  1
  Th  Th1  1  0.592791  0.000615  0.500000  1
  Th  Th2  1  0.000615  0.592791  0.500000  1
  Zn  Zn3  1  0.741839  0.741839  0.000000  1
  Zn  Zn4  1  0.249603  0.012003  0.000000  1
  Zn  Zn5  1  0.012003  0.249603  0.000000  1
  Pt  Pt6  1  0.672829  0.332042  0.000000  1
  Pt  Pt7  1  0.332042  0.672829  0.000000  1
  Pt  Pt8  1  0.994088  0.994088  0.500000  1
