# generated using pymatgen
data_Y20NiHg6Ru
_symmetry_space_group_name_H-M   'P 1'
_cell_length_a   9.70596100
_cell_length_b   9.70596143
_cell_length_c   9.62517200
_cell_angle_alpha   90.00000000
_cell_angle_beta   90.00000000
_cell_angle_gamma   120.00000195
_symmetry_Int_Tables_number   1
_chemical_formula_structural   Y20NiHg6Ru
_chemical_formula_sum   'Y20 Ni1 Hg6 Ru1'
_cell_volume   785.26497146
_cell_formula_units_Z   1
loop_
 _symmetry_equiv_pos_site_id
 _symmetry_equiv_pos_as_xyz
  1  'x, y, z'
loop_
 _atom_site_type_symbol
 _atom_site_label
 _atom_site_symmetry_multiplicity
 _atom_site_fract_x
 _atom_site_fract_y
 _atom_site_fract_z
 _atom_site_occupancy
  Y  Y0  1  0.000000  0.000000  0.500324  1
  Y  Y1  1  0.000000  0.000000  0.999676  1
  Y  Y2  1  0.209517  0.790483  0.435836  1
  Y  Y3  1  0.209517  0.419035  0.435836  1
  Y  Y4  1  0.580965  0.790483  0.435836  1
  Y  Y5  1  0.790924  0.209076  0.560955  1
  Y  Y6  1  0.790924  0.581848  0.560955  1
  Y  Y7  1  0.418152  0.209076  0.560955  1
  Y  Y8  1  0.790924  0.209076  0.939045  1
  Y  Y9  1  0.790924  0.581848  0.939045  1
  Y  Y10  1  0.418152  0.209076  0.939045  1
  Y  Y11  1  0.209517  0.790483  0.064164  1
  Y  Y12  1  0.209517  0.419035  0.064164  1
  Y  Y13  1  0.580965  0.790483  0.064164  1
  Y  Y14  1  0.543097  0.456903  0.250000  1
  Y  Y15  1  0.543097  0.086195  0.250000  1
  Y  Y16  1  0.913805  0.456903  0.250000  1
  Y  Y17  1  0.458540  0.541460  0.750000  1
  Y  Y18  1  0.458540  0.917080  0.750000  1
  Y  Y19  1  0.082920  0.541460  0.750000  1
  Ni  Ni20  1  0.333333  0.666667  0.250000  1
  Hg  Hg21  1  0.880116  0.119884  0.250000  1
  Hg  Hg22  1  0.880116  0.760233  0.250000  1
  Hg  Hg23  1  0.239767  0.119884  0.250000  1
  Hg  Hg24  1  0.119710  0.880290  0.750000  1
  Hg  Hg25  1  0.119710  0.239420  0.750000  1
  Hg  Hg26  1  0.760580  0.880290  0.750000  1
  Ru  Ru27  1  0.666667  0.333333  0.750000  1
