# generated using pymatgen
data_Tm4TcMoOs6
_symmetry_space_group_name_H-M   'P 1'
_cell_length_a   5.46396309
_cell_length_b   5.23006635
_cell_length_c   8.86153900
_cell_angle_alpha   90.00000000
_cell_angle_beta   90.00000000
_cell_angle_gamma   121.41511776
_symmetry_Int_Tables_number   1
_chemical_formula_structural   Tm4TcMoOs6
_chemical_formula_sum   'Tm4 Tc1 Mo1 Os6'
_cell_volume   216.11430481
_cell_formula_units_Z   1
loop_
 _symmetry_equiv_pos_site_id
 _symmetry_equiv_pos_as_xyz
  1  'x, y, z'
loop_
 _atom_site_type_symbol
 _atom_site_label
 _atom_site_symmetry_multiplicity
 _atom_site_fract_x
 _atom_site_fract_y
 _atom_site_fract_z
 _atom_site_occupancy
  Tm  Tm0  1  0.670142  0.340344  0.563217  1
  Tm  Tm1  1  0.332340  0.664966  0.434553  1
  Tm  Tm2  1  0.332340  0.664966  0.065447  1
  Tm  Tm3  1  0.670142  0.340344  0.936783  1
  Tc  Tc4  1  0.825320  0.650138  0.250000  1
  Mo  Mo5  1  0.167676  0.334865  0.750000  1
  Os  Os6  1  0.002817  0.006637  0.498163  1
  Os  Os7  1  0.002817  0.006637  0.001837  1
  Os  Os8  1  0.173206  0.826240  0.750000  1
  Os  Os9  1  0.653967  0.826829  0.750000  1
  Os  Os10  1  0.827922  0.169093  0.250000  1
  Os  Os11  1  0.341312  0.168940  0.250000  1
