# generated using pymatgen
data_Sr6YHoCr2O12
_symmetry_space_group_name_H-M   'P 1'
_cell_length_a   6.84819227
_cell_length_b   6.84819346
_cell_length_c   6.84819331
_cell_angle_alpha   92.18721169
_cell_angle_beta   92.18721111
_cell_angle_gamma   92.18721857
_symmetry_Int_Tables_number   1
_chemical_formula_structural   Sr6YHoCr2O12
_chemical_formula_sum   'Sr6 Y1 Ho1 Cr2 O12'
_cell_volume   320.44447558
_cell_formula_units_Z   1
loop_
 _symmetry_equiv_pos_site_id
 _symmetry_equiv_pos_as_xyz
  1  'x, y, z'
loop_
 _atom_site_type_symbol
 _atom_site_label
 _atom_site_symmetry_multiplicity
 _atom_site_fract_x
 _atom_site_fract_y
 _atom_site_fract_z
 _atom_site_occupancy
  Sr  Sr0  1  0.250000  0.884000  0.616000  1
  Sr  Sr1  1  0.884000  0.616000  0.250000  1
  Sr  Sr2  1  0.750000  0.115854  0.384146  1
  Sr  Sr3  1  0.384146  0.750000  0.115854  1
  Sr  Sr4  1  0.115854  0.384146  0.750000  1
  Sr  Sr5  1  0.616000  0.250000  0.884000  1
  Y  Y6  1  0.250000  0.250000  0.250000  1
  Ho  Ho7  1  0.750000  0.750000  0.750000  1
  Cr  Cr8  1  0.500275  0.500275  0.500275  1
  Cr  Cr9  1  0.999725  0.999725  0.999725  1
  O  O10  1  0.589406  0.785561  0.457257  1
  O  O11  1  0.457257  0.589406  0.785561  1
  O  O12  1  0.785561  0.457257  0.589406  1
  O  O13  1  0.910594  0.042743  0.714439  1
  O  O14  1  0.714439  0.910594  0.042743  1
  O  O15  1  0.042743  0.714439  0.910594  1
  O  O16  1  0.411439  0.214504  0.544087  1
  O  O17  1  0.544087  0.411439  0.214504  1
  O  O18  1  0.214504  0.544087  0.411439  1
  O  O19  1  0.088561  0.955913  0.285496  1
  O  O20  1  0.955913  0.285496  0.088561  1
  O  O21  1  0.285496  0.088561  0.955913  1
