# generated using pymatgen
data_Tb7Er(PBr6)2
_symmetry_space_group_name_H-M   'P 1'
_cell_length_a   4.00718900
_cell_length_b   13.18201519
_cell_length_c   13.92544933
_cell_angle_alpha   89.93378700
_cell_angle_beta   90.00000000
_cell_angle_gamma   90.00000000
_symmetry_Int_Tables_number   1
_chemical_formula_structural   Tb7Er(PBr6)2
_chemical_formula_sum   'Tb7 Er1 P2 Br12'
_cell_volume   735.58109978
_cell_formula_units_Z   1
loop_
 _symmetry_equiv_pos_site_id
 _symmetry_equiv_pos_as_xyz
  1  'x, y, z'
loop_
 _atom_site_type_symbol
 _atom_site_label
 _atom_site_symmetry_multiplicity
 _atom_site_fract_x
 _atom_site_fract_y
 _atom_site_fract_z
 _atom_site_occupancy
  Tb  Tb0  1  0.500000  0.883422  0.655864  1
  Tb  Tb1  1  0.500000  0.617416  0.156952  1
  Tb  Tb2  1  0.500000  0.382526  0.843159  1
  Tb  Tb3  1  0.000000  0.114594  0.577086  1
  Tb  Tb4  1  0.000000  0.884657  0.424014  1
  Tb  Tb5  1  0.000000  0.615221  0.923274  1
  Tb  Tb6  1  0.000000  0.384515  0.076988  1
  Er  Er7  1  0.500000  0.116985  0.343245  1
  P  P8  1  0.500000  0.001206  0.498401  1
  P  P9  1  0.500000  0.499816  0.000155  1
  Br  Br10  1  0.500000  0.242282  0.165165  1
  Br  Br11  1  0.500000  0.756887  0.836728  1
  Br  Br12  1  0.500000  0.743922  0.336685  1
  Br  Br13  1  0.500000  0.256752  0.662518  1
  Br  Br14  1  0.000000  0.253714  0.410827  1
  Br  Br15  1  0.000000  0.743076  0.586798  1
  Br  Br16  1  0.000000  0.757157  0.086874  1
  Br  Br17  1  0.000000  0.242838  0.913343  1
  Br  Br18  1  0.000000  0.003173  0.244079  1
  Br  Br19  1  0.000000  0.999942  0.757664  1
  Br  Br20  1  0.000000  0.500016  0.257806  1
  Br  Br21  1  0.000000  0.499882  0.742377  1
