# generated using pymatgen
data_La5NpCdO12
_symmetry_space_group_name_H-M   'P 1'
_cell_length_a   6.96556197
_cell_length_b   6.95999885
_cell_length_c   6.77834729
_cell_angle_alpha   99.23411850
_cell_angle_beta   96.88797374
_cell_angle_gamma   99.17257926
_symmetry_Int_Tables_number   1
_chemical_formula_structural   La5NpCdO12
_chemical_formula_sum   'La5 Np1 Cd1 O12'
_cell_volume   316.61977248
_cell_formula_units_Z   1
loop_
 _symmetry_equiv_pos_site_id
 _symmetry_equiv_pos_as_xyz
  1  'x, y, z'
loop_
 _atom_site_type_symbol
 _atom_site_label
 _atom_site_symmetry_multiplicity
 _atom_site_fract_x
 _atom_site_fract_y
 _atom_site_fract_z
 _atom_site_occupancy
  La  La0  1  0.604181  0.133983  0.309153  1
  La  La1  1  0.390911  0.852179  0.694520  1
  La  La2  1  0.679525  0.392821  0.851941  1
  La  La3  1  0.864719  0.684672  0.384455  1
  La  La4  1  0.144366  0.314878  0.606939  1
  Np  Np5  1  0.992570  0.005620  0.993572  1
  Cd  Cd6  1  0.348305  0.587781  0.166036  1
  O  O7  1  0.433595  0.176525  0.597470  1
  O  O8  1  0.906217  0.721888  0.017592  1
  O  O9  1  0.186591  0.590789  0.427325  1
  O  O10  1  0.828053  0.402478  0.561368  1
  O  O11  1  0.582947  0.826209  0.424197  1
  O  O12  1  0.615157  0.427738  0.183430  1
  O  O13  1  0.393542  0.564319  0.840521  1
  O  O14  1  0.955776  0.065899  0.292169  1
  O  O15  1  0.042828  0.935653  0.697855  1
  O  O16  1  0.701934  0.039925  0.932799  1
  O  O17  1  0.049521  0.287538  0.957278  1
  O  O18  1  0.279261  0.989105  0.061379  1
