# generated using pymatgen
data_Yb3DyLuSi4
_symmetry_space_group_name_H-M   'P 1'
_cell_length_a   7.35497500
_cell_length_b   7.78384200
_cell_length_c   15.03899500
_cell_angle_alpha   90.00000000
_cell_angle_beta   90.00000000
_cell_angle_gamma   90.00000000
_symmetry_Int_Tables_number   1
_chemical_formula_structural   Yb3DyLuSi4
_chemical_formula_sum   'Yb12 Dy4 Lu4 Si16'
_cell_volume   860.98191203
_cell_formula_units_Z   4
loop_
 _symmetry_equiv_pos_site_id
 _symmetry_equiv_pos_as_xyz
  1  'x, y, z'
loop_
 _atom_site_type_symbol
 _atom_site_label
 _atom_site_symmetry_multiplicity
 _atom_site_fract_x
 _atom_site_fract_y
 _atom_site_fract_z
 _atom_site_occupancy
  Yb  Yb0  1  0.975648  0.816592  0.404399  1
  Yb  Yb1  1  0.475648  0.683408  0.095601  1
  Yb  Yb2  1  0.524352  0.316592  0.595601  1
  Yb  Yb3  1  0.024352  0.183408  0.904399  1
  Yb  Yb4  1  0.026081  0.183602  0.595983  1
  Yb  Yb5  1  0.526081  0.316398  0.904017  1
  Yb  Yb6  1  0.473919  0.683602  0.404017  1
  Yb  Yb7  1  0.973919  0.816398  0.095983  1
  Yb  Yb8  1  0.351226  0.020711  0.749660  1
  Yb  Yb9  1  0.851226  0.479289  0.750340  1
  Yb  Yb10  1  0.148774  0.520711  0.250340  1
  Yb  Yb11  1  0.648774  0.979289  0.249660  1
  Dy  Dy12  1  0.315197  0.177073  0.120983  1
  Dy  Dy13  1  0.815197  0.322927  0.379017  1
  Dy  Dy14  1  0.184803  0.677073  0.879017  1
  Dy  Dy15  1  0.684803  0.822927  0.620983  1
  Lu  Lu16  1  0.314505  0.175792  0.378711  1
  Lu  Lu17  1  0.814505  0.324208  0.121289  1
  Lu  Lu18  1  0.185495  0.675792  0.621289  1
  Lu  Lu19  1  0.685495  0.824208  0.878711  1
  Si  Si20  1  0.860812  0.533690  0.538813  1
  Si  Si21  1  0.360812  0.966310  0.961187  1
  Si  Si22  1  0.639188  0.033690  0.461187  1
  Si  Si23  1  0.139188  0.466310  0.038813  1
  Si  Si24  1  0.147695  0.466100  0.462383  1
  Si  Si25  1  0.647695  0.033900  0.037617  1
  Si  Si26  1  0.352305  0.966100  0.537617  1
  Si  Si27  1  0.852305  0.533900  0.962383  1
  Si  Si28  1  0.976886  0.880089  0.750676  1
  Si  Si29  1  0.476886  0.619911  0.749324  1
  Si  Si30  1  0.523114  0.380089  0.249324  1
  Si  Si31  1  0.023114  0.119911  0.250676  1
  Si  Si32  1  0.248663  0.396100  0.749114  1
  Si  Si33  1  0.748663  0.103900  0.750886  1
  Si  Si34  1  0.251337  0.896100  0.250886  1
  Si  Si35  1  0.751337  0.603900  0.249114  1
