# generated using pymatgen
data_Dy10Cd3Tc
_symmetry_space_group_name_H-M   'P 1'
_cell_length_a   9.55556800
_cell_length_b   9.55556832
_cell_length_c   9.96543100
_cell_angle_alpha   90.00000000
_cell_angle_beta   90.00000000
_cell_angle_gamma   119.99999891
_symmetry_Int_Tables_number   1
_chemical_formula_structural   Dy10Cd3Tc
_chemical_formula_sum   'Dy20 Cd6 Tc2'
_cell_volume   788.02455804
_cell_formula_units_Z   2
loop_
 _symmetry_equiv_pos_site_id
 _symmetry_equiv_pos_as_xyz
  1  'x, y, z'
loop_
 _atom_site_type_symbol
 _atom_site_label
 _atom_site_symmetry_multiplicity
 _atom_site_fract_x
 _atom_site_fract_y
 _atom_site_fract_z
 _atom_site_occupancy
  Dy  Dy0  1  0.000000  0.000000  0.500000  1
  Dy  Dy1  1  0.000000  0.000000  0.000000  1
  Dy  Dy2  1  0.209915  0.790085  0.441270  1
  Dy  Dy3  1  0.209915  0.419832  0.441270  1
  Dy  Dy4  1  0.580168  0.790085  0.441270  1
  Dy  Dy5  1  0.790085  0.209915  0.558730  1
  Dy  Dy6  1  0.790085  0.580168  0.558730  1
  Dy  Dy7  1  0.419832  0.209915  0.558730  1
  Dy  Dy8  1  0.790085  0.209915  0.941270  1
  Dy  Dy9  1  0.790085  0.580168  0.941270  1
  Dy  Dy10  1  0.419832  0.209915  0.941270  1
  Dy  Dy11  1  0.209915  0.790085  0.058730  1
  Dy  Dy12  1  0.209915  0.419832  0.058730  1
  Dy  Dy13  1  0.580168  0.790085  0.058730  1
  Dy  Dy14  1  0.539601  0.460399  0.250000  1
  Dy  Dy15  1  0.539601  0.079202  0.250000  1
  Dy  Dy16  1  0.920798  0.460399  0.250000  1
  Dy  Dy17  1  0.460399  0.539601  0.750000  1
  Dy  Dy18  1  0.460399  0.920798  0.750000  1
  Dy  Dy19  1  0.079202  0.539601  0.750000  1
  Cd  Cd20  1  0.885869  0.114131  0.250000  1
  Cd  Cd21  1  0.885869  0.771739  0.250000  1
  Cd  Cd22  1  0.228261  0.114131  0.250000  1
  Cd  Cd23  1  0.114131  0.885869  0.750000  1
  Cd  Cd24  1  0.114131  0.228261  0.750000  1
  Cd  Cd25  1  0.771739  0.885869  0.750000  1
  Tc  Tc26  1  0.333333  0.666667  0.250000  1
  Tc  Tc27  1  0.666667  0.333333  0.750000  1
