# generated using pymatgen
data_Rb(TlSe8)3
_symmetry_space_group_name_H-M   'P 1'
_cell_length_a   11.31307807
_cell_length_b   11.31307783
_cell_length_c   11.28354681
_cell_angle_alpha   130.99440984
_cell_angle_beta   120.39025082
_cell_angle_gamma   80.86044949
_symmetry_Int_Tables_number   1
_chemical_formula_structural   Rb(TlSe8)3
_chemical_formula_sum   'Rb1 Tl3 Se24'
_cell_volume   906.42187060
_cell_formula_units_Z   1
loop_
 _symmetry_equiv_pos_site_id
 _symmetry_equiv_pos_as_xyz
  1  'x, y, z'
loop_
 _atom_site_type_symbol
 _atom_site_label
 _atom_site_symmetry_multiplicity
 _atom_site_fract_x
 _atom_site_fract_y
 _atom_site_fract_z
 _atom_site_occupancy
  Rb  Rb0  1  0.000000  0.000000  0.000000  1
  Tl  Tl1  1  0.500000  0.500000  0.000000  1
  Tl  Tl2  1  0.749128  0.249128  0.500000  1
  Tl  Tl3  1  0.250872  0.750872  0.500000  1
  Se  Se4  1  0.646475  0.750639  0.896811  1
  Se  Se5  1  0.853828  0.749663  0.103189  1
  Se  Se6  1  0.353525  0.249361  0.103189  1
  Se  Se7  1  0.146172  0.250337  0.896811  1
  Se  Se8  1  0.245145  0.135101  0.673222  1
  Se  Se9  1  0.260470  0.925459  0.886979  1
  Se  Se10  1  0.038481  0.373491  0.113021  1
  Se  Se11  1  0.461879  0.571923  0.326778  1
  Se  Se12  1  0.754855  0.864899  0.326778  1
  Se  Se13  1  0.739530  0.074541  0.113021  1
  Se  Se14  1  0.961519  0.626509  0.886979  1
  Se  Se15  1  0.538121  0.428077  0.673222  1
  Se  Se16  1  0.922090  0.823292  0.524938  1
  Se  Se17  1  0.576242  0.106308  0.903486  1
  Se  Se18  1  0.202823  0.672757  0.096514  1
  Se  Se19  1  0.298353  0.397151  0.475062  1
  Se  Se20  1  0.077910  0.176708  0.475062  1
  Se  Se21  1  0.423758  0.893692  0.096514  1
  Se  Se22  1  0.797178  0.327243  0.903486  1
  Se  Se23  1  0.701647  0.602849  0.524938  1
  Se  Se24  1  0.672143  0.064330  0.736473  1
  Se  Se25  1  0.826980  0.560193  0.387173  1
  Se  Se26  1  0.173020  0.439807  0.612827  1
  Se  Se27  1  0.327857  0.935670  0.263527  1
