# generated using pymatgen
data_Hf8Ti3Be(Si5Mo3)3
_symmetry_space_group_name_H-M   'P 1'
_cell_length_a   6.55284065
_cell_length_b   6.70721041
_cell_length_c   12.72148000
_cell_angle_alpha   90.00000000
_cell_angle_beta   90.00000000
_cell_angle_gamma   90.01047148
_symmetry_Int_Tables_number   1
_chemical_formula_structural   Hf8Ti3Be(Si5Mo3)3
_chemical_formula_sum   'Hf8 Ti3 Be1 Si15 Mo9'
_cell_volume   559.12533261
_cell_formula_units_Z   1
loop_
 _symmetry_equiv_pos_site_id
 _symmetry_equiv_pos_as_xyz
  1  'x, y, z'
loop_
 _atom_site_type_symbol
 _atom_site_label
 _atom_site_symmetry_multiplicity
 _atom_site_fract_x
 _atom_site_fract_y
 _atom_site_fract_z
 _atom_site_occupancy
  Hf  Hf0  1  0.997237  0.171108  0.094383  1
  Hf  Hf1  1  0.005057  0.831243  0.904754  1
  Hf  Hf2  1  0.500922  0.672092  0.904563  1
  Hf  Hf3  1  0.005057  0.831243  0.595246  1
  Hf  Hf4  1  0.497126  0.328352  0.094980  1
  Hf  Hf5  1  0.997237  0.171108  0.405617  1
  Hf  Hf6  1  0.497126  0.328352  0.405020  1
  Hf  Hf7  1  0.500922  0.672092  0.595437  1
  Ti  Ti8  1  0.161752  0.495009  0.750000  1
  Ti  Ti9  1  0.839341  0.502905  0.250000  1
  Ti  Ti10  1  0.338314  0.997105  0.250000  1
  Be  Be11  1  0.036585  0.118261  0.750000  1
  Si  Si12  1  0.962555  0.881368  0.250000  1
  Si  Si13  1  0.463733  0.619292  0.250000  1
  Si  Si14  1  0.538913  0.375481  0.750000  1
  Si  Si15  1  0.291356  0.871343  0.750000  1
  Si  Si16  1  0.702724  0.138793  0.250000  1
  Si  Si17  1  0.202514  0.360725  0.250000  1
  Si  Si18  1  0.800853  0.639031  0.750000  1
  Si  Si19  1  0.169387  0.460035  0.540945  1
  Si  Si20  1  0.829359  0.539989  0.461845  1
  Si  Si21  1  0.330332  0.959626  0.460467  1
  Si  Si22  1  0.829359  0.539989  0.038155  1
  Si  Si23  1  0.670131  0.041221  0.543327  1
  Si  Si24  1  0.169387  0.460035  0.959055  1
  Si  Si25  1  0.670131  0.041221  0.956673  1
  Si  Si26  1  0.330332  0.959626  0.039533  1
  Mo  Mo27  1  0.666345  0.995306  0.750000  1
  Mo  Mo28  1  0.332637  0.166709  0.624227  1
  Mo  Mo29  1  0.662120  0.833023  0.377419  1
  Mo  Mo30  1  0.161513  0.667280  0.376140  1
  Mo  Mo31  1  0.662120  0.833023  0.122581  1
  Mo  Mo32  1  0.841687  0.332013  0.626345  1
  Mo  Mo33  1  0.332637  0.166709  0.875773  1
  Mo  Mo34  1  0.841687  0.332013  0.873655  1
  Mo  Mo35  1  0.161513  0.667280  0.123860  1
