# generated using pymatgen
data_Tb12Y4MgNi4Hg3
_symmetry_space_group_name_H-M   'P 1'
_cell_length_a   9.59907384
_cell_length_b   9.61041815
_cell_length_c   9.58837500
_cell_angle_alpha   60.07584167
_cell_angle_beta   60.03685940
_cell_angle_gamma   60.05507931
_symmetry_Int_Tables_number   1
_chemical_formula_structural   Tb12Y4MgNi4Hg3
_chemical_formula_sum   'Tb12 Y4 Mg1 Ni4 Hg3'
_cell_volume   626.25567130
_cell_formula_units_Z   1
loop_
 _symmetry_equiv_pos_site_id
 _symmetry_equiv_pos_as_xyz
  1  'x, y, z'
loop_
 _atom_site_type_symbol
 _atom_site_label
 _atom_site_symmetry_multiplicity
 _atom_site_fract_x
 _atom_site_fract_y
 _atom_site_fract_z
 _atom_site_occupancy
  Tb  Tb0  1  0.811936  0.814891  0.186587  1
  Tb  Tb1  1  0.186520  0.187002  0.813240  1
  Tb  Tb2  1  0.058625  0.442077  0.441268  1
  Tb  Tb3  1  0.436312  0.063446  0.061192  1
  Tb  Tb4  1  0.436312  0.063446  0.439049  1
  Tb  Tb5  1  0.058625  0.442077  0.058031  1
  Tb  Tb6  1  0.436400  0.440752  0.061423  1
  Tb  Tb7  1  0.058867  0.060511  0.440311  1
  Tb  Tb8  1  0.597687  0.596792  0.596483  1
  Tb  Tb9  1  0.597687  0.596792  0.209037  1
  Tb  Tb10  1  0.600765  0.202342  0.598447  1
  Tb  Tb11  1  0.195855  0.601864  0.601140  1
  Y  Y12  1  0.185848  0.814223  0.814106  1
  Y  Y13  1  0.811305  0.187915  0.186331  1
  Y  Y14  1  0.811305  0.187915  0.814450  1
  Y  Y15  1  0.185848  0.814223  0.185824  1
  Mg  Mg16  1  0.536159  0.819357  0.822242  1
  Ni  Ni17  1  0.391057  0.392751  0.395069  1
  Ni  Ni18  1  0.391057  0.392751  0.821125  1
  Ni  Ni19  1  0.388909  0.823655  0.393719  1
  Ni  Ni20  1  0.822822  0.390962  0.393109  1
  Hg  Hg21  1  0.833276  0.836273  0.836611  1
  Hg  Hg22  1  0.833276  0.836273  0.493839  1
  Hg  Hg23  1  0.833553  0.491710  0.837368  1
