# generated using pymatgen
data_Hf4TiRe5Mo2
_symmetry_space_group_name_H-M   'P 1'
_cell_length_a   5.32416600
_cell_length_b   5.31451864
_cell_length_c   8.68057376
_cell_angle_alpha   90.04144989
_cell_angle_beta   90.00000000
_cell_angle_gamma   120.06005485
_symmetry_Int_Tables_number   1
_chemical_formula_structural   Hf4TiRe5Mo2
_chemical_formula_sum   'Hf4 Ti1 Re5 Mo2'
_cell_volume   212.58435565
_cell_formula_units_Z   1
loop_
 _symmetry_equiv_pos_site_id
 _symmetry_equiv_pos_as_xyz
  1  'x, y, z'
loop_
 _atom_site_type_symbol
 _atom_site_label
 _atom_site_symmetry_multiplicity
 _atom_site_fract_x
 _atom_site_fract_y
 _atom_site_fract_z
 _atom_site_occupancy
  Hf  Hf0  1  0.333355  0.666712  0.061948  1
  Hf  Hf1  1  0.666458  0.332915  0.562018  1
  Hf  Hf2  1  0.666341  0.332683  0.935834  1
  Hf  Hf3  1  0.333462  0.666927  0.440623  1
  Ti  Ti4  1  0.001110  0.002220  0.998041  1
  Re  Re5  1  0.170525  0.828309  0.749937  1
  Re  Re6  1  0.657784  0.828309  0.749937  1
  Re  Re7  1  0.340647  0.169465  0.249693  1
  Re  Re8  1  0.828818  0.169465  0.249693  1
  Re  Re9  1  0.170953  0.341907  0.749807  1
  Mo  Mo10  1  0.001006  0.002012  0.501802  1
  Mo  Mo11  1  0.829539  0.659079  0.250668  1
