# generated using pymatgen
data_TcRu6W
_symmetry_space_group_name_H-M   'P 1'
_cell_length_a   5.50713400
_cell_length_b   5.50713368
_cell_length_c   4.34953100
_cell_angle_alpha   90.00000000
_cell_angle_beta   90.00000000
_cell_angle_gamma   120.00001393
_symmetry_Int_Tables_number   1
_chemical_formula_structural   TcRu6W
_chemical_formula_sum   'Tc1 Ru6 W1'
_cell_volume   114.24159655
_cell_formula_units_Z   1
loop_
 _symmetry_equiv_pos_site_id
 _symmetry_equiv_pos_as_xyz
  1  'x, y, z'
loop_
 _atom_site_type_symbol
 _atom_site_label
 _atom_site_symmetry_multiplicity
 _atom_site_fract_x
 _atom_site_fract_y
 _atom_site_fract_z
 _atom_site_occupancy
  Tc  Tc0  1  0.666667  0.333333  0.250000  1
  Ru  Ru1  1  0.165168  0.330336  0.250000  1
  Ru  Ru2  1  0.669664  0.834832  0.250000  1
  Ru  Ru3  1  0.165168  0.834832  0.250000  1
  Ru  Ru4  1  0.831281  0.662561  0.750000  1
  Ru  Ru5  1  0.337439  0.168719  0.750000  1
  Ru  Ru6  1  0.831281  0.168719  0.750000  1
  W  W7  1  0.333333  0.666667  0.750000  1
