# generated using pymatgen
data_Y5HoTcIr
_symmetry_space_group_name_H-M   'P 1'
_cell_length_a   6.37165853
_cell_length_b   7.37087900
_cell_length_c   9.22021044
_cell_angle_alpha   90.00000000
_cell_angle_beta   90.33078719
_cell_angle_gamma   90.00000000
_symmetry_Int_Tables_number   1
_chemical_formula_structural   Y5HoTcIr
_chemical_formula_sum   'Y10 Ho2 Tc2 Ir2'
_cell_volume   433.01742240
_cell_formula_units_Z   2
loop_
 _symmetry_equiv_pos_site_id
 _symmetry_equiv_pos_as_xyz
  1  'x, y, z'
loop_
 _atom_site_type_symbol
 _atom_site_label
 _atom_site_symmetry_multiplicity
 _atom_site_fract_x
 _atom_site_fract_y
 _atom_site_fract_z
 _atom_site_occupancy
  Y  Y0  1  0.328664  0.676682  0.065719  1
  Y  Y1  1  0.171336  0.176682  0.434281  1
  Y  Y2  1  0.669225  0.323968  0.560645  1
  Y  Y3  1  0.830775  0.823968  0.939355  1
  Y  Y4  1  0.668248  0.323708  0.938942  1
  Y  Y5  1  0.831752  0.823708  0.561058  1
  Y  Y6  1  0.873816  0.538489  0.250034  1
  Y  Y7  1  0.626184  0.038489  0.249966  1
  Y  Y8  1  0.133860  0.459430  0.750174  1
  Y  Y9  1  0.366140  0.959430  0.749826  1
  Ho  Ho10  1  0.329285  0.675770  0.434210  1
  Ho  Ho11  1  0.170715  0.175770  0.065790  1
  Tc  Tc12  1  0.037483  0.887104  0.249760  1
  Tc  Tc13  1  0.462517  0.387104  0.250240  1
  Ir  Ir14  1  0.956517  0.114849  0.751196  1
  Ir  Ir15  1  0.543483  0.614849  0.748804  1
