# generated using pymatgen
data_Er6LuScO12
_symmetry_space_group_name_H-M   'P 1'
_cell_length_a   6.58528464
_cell_length_b   6.58528405
_cell_length_c   6.58528359
_cell_angle_alpha   92.31077798
_cell_angle_beta   92.31079337
_cell_angle_gamma   92.31079064
_symmetry_Int_Tables_number   1
_chemical_formula_structural   Er6LuScO12
_chemical_formula_sum   'Er6 Lu1 Sc1 O12'
_cell_volume   284.86120103
_cell_formula_units_Z   1
loop_
 _symmetry_equiv_pos_site_id
 _symmetry_equiv_pos_as_xyz
  1  'x, y, z'
loop_
 _atom_site_type_symbol
 _atom_site_label
 _atom_site_symmetry_multiplicity
 _atom_site_fract_x
 _atom_site_fract_y
 _atom_site_fract_z
 _atom_site_occupancy
  Er  Er0  1  0.744587  0.930561  0.439416  1
  Er  Er1  1  0.930561  0.439416  0.744587  1
  Er  Er2  1  0.439416  0.744587  0.930561  1
  Er  Er3  1  0.255413  0.069439  0.560584  1
  Er  Er4  1  0.069439  0.560584  0.255413  1
  Er  Er5  1  0.560584  0.255413  0.069439  1
  Lu  Lu6  1  0.000000  0.000000  0.000000  1
  Sc  Sc7  1  0.500000  0.500000  0.500000  1
  O  O8  1  0.593900  0.464232  0.807707  1
  O  O9  1  0.464232  0.807707  0.593900  1
  O  O10  1  0.807707  0.593900  0.464232  1
  O  O11  1  0.406100  0.535768  0.192293  1
  O  O12  1  0.535768  0.192293  0.406100  1
  O  O13  1  0.192293  0.406100  0.535768  1
  O  O14  1  0.069690  0.909118  0.314558  1
  O  O15  1  0.909118  0.314558  0.069690  1
  O  O16  1  0.685442  0.930310  0.090882  1
  O  O17  1  0.090882  0.685442  0.930310  1
  O  O18  1  0.930310  0.090882  0.685442  1
  O  O19  1  0.314558  0.069690  0.909118  1
