# generated using pymatgen
data_Nd6Fe9Ni10P13Pt
_symmetry_space_group_name_H-M   'P 1'
_cell_length_a   12.85604300
_cell_length_b   12.85604376
_cell_length_c   3.78758600
_cell_angle_alpha   90.00000000
_cell_angle_beta   90.00000000
_cell_angle_gamma   119.99999546
_symmetry_Int_Tables_number   1
_chemical_formula_structural   Nd6Fe9Ni10P13Pt
_chemical_formula_sum   'Nd6 Fe9 Ni10 P13 Pt1'
_cell_volume   542.13545763
_cell_formula_units_Z   1
loop_
 _symmetry_equiv_pos_site_id
 _symmetry_equiv_pos_as_xyz
  1  'x, y, z'
loop_
 _atom_site_type_symbol
 _atom_site_label
 _atom_site_symmetry_multiplicity
 _atom_site_fract_x
 _atom_site_fract_y
 _atom_site_fract_z
 _atom_site_occupancy
  Nd  Nd0  1  0.795176  0.947767  0.000000  1
  Nd  Nd1  1  0.052233  0.847411  0.000000  1
  Nd  Nd2  1  0.152589  0.204824  0.000000  1
  Nd  Nd3  1  0.518030  0.134904  0.500000  1
  Nd  Nd4  1  0.865096  0.383126  0.500000  1
  Nd  Nd5  1  0.616874  0.481970  0.500000  1
  Fe  Fe6  1  0.525087  0.769392  0.000000  1
  Fe  Fe7  1  0.230608  0.755694  0.000000  1
  Fe  Fe8  1  0.244306  0.474913  0.000000  1
  Fe  Fe9  1  0.399833  0.813678  0.500000  1
  Fe  Fe10  1  0.186322  0.586154  0.500000  1
  Fe  Fe11  1  0.413846  0.600167  0.500000  1
  Fe  Fe12  1  0.646519  0.734656  0.500000  1
  Fe  Fe13  1  0.265344  0.911864  0.500000  1
  Fe  Fe14  1  0.088136  0.353481  0.500000  1
  Ni  Ni15  1  0.666667  0.333333  0.000000  1
  Ni  Ni16  1  0.768230  0.689431  0.000000  1
  Ni  Ni17  1  0.310569  0.078800  0.000000  1
  Ni  Ni18  1  0.921200  0.231770  0.000000  1
  Ni  Ni19  1  0.358877  0.259589  0.500000  1
  Ni  Ni20  1  0.740411  0.099289  0.500000  1
  Ni  Ni21  1  0.900711  0.641123  0.500000  1
  Ni  Ni22  1  0.569290  0.982539  0.000000  1
  Ni  Ni23  1  0.017461  0.586752  0.000000  1
  Ni  Ni24  1  0.413248  0.430710  0.000000  1
  P  P25  1  0.843884  0.790730  0.500000  1
  P  P26  1  0.209270  0.053155  0.500000  1
  P  P27  1  0.946845  0.156116  0.500000  1
  P  P28  1  0.600387  0.885670  0.500000  1
  P  P29  1  0.114330  0.714715  0.500000  1
  P  P30  1  0.285285  0.399613  0.500000  1
  P  P31  1  0.468916  0.284619  0.000000  1
  P  P32  1  0.715381  0.184297  0.000000  1
  P  P33  1  0.815703  0.531084  0.000000  1
  P  P34  1  0.374741  0.940377  0.000000  1
  P  P35  1  0.059623  0.434363  0.000000  1
  P  P36  1  0.565637  0.625259  0.000000  1
  P  P37  1  0.333333  0.666667  0.000000  1
  Pt  Pt38  1  0.000000  0.000000  0.500000  1
