# generated using pymatgen
data_Sm4BeCuSi6
_symmetry_space_group_name_H-M   'P 1'
_cell_length_a   8.08287883
_cell_length_b   7.98424103
_cell_length_c   5.77349505
_cell_angle_alpha   69.85691536
_cell_angle_beta   68.02982783
_cell_angle_gamma   42.11324229
_symmetry_Int_Tables_number   1
_chemical_formula_structural   Sm4BeCuSi6
_chemical_formula_sum   'Sm4 Be1 Cu1 Si6'
_cell_volume   230.37510402
_cell_formula_units_Z   1
loop_
 _symmetry_equiv_pos_site_id
 _symmetry_equiv_pos_as_xyz
  1  'x, y, z'
loop_
 _atom_site_type_symbol
 _atom_site_label
 _atom_site_symmetry_multiplicity
 _atom_site_fract_x
 _atom_site_fract_y
 _atom_site_fract_z
 _atom_site_occupancy
  Sm  Sm0  1  0.245266  0.756204  0.243796  1
  Sm  Sm1  1  0.249088  0.249086  0.250913  1
  Sm  Sm2  1  0.749088  0.749086  0.750913  1
  Sm  Sm3  1  0.756204  0.245267  0.754733  1
  Be  Be4  1  0.666343  0.666344  0.333656  1
  Cu  Cu5  1  0.333446  0.333446  0.666554  1
  Si  Si6  1  0.828183  0.828184  0.171816  1
  Si  Si7  1  0.825542  0.345716  0.174458  1
  Si  Si8  1  0.659472  0.171990  0.340528  1
  Si  Si9  1  0.345715  0.825542  0.654284  1
  Si  Si10  1  0.171989  0.659472  0.828011  1
  Si  Si11  1  0.169665  0.169666  0.830334  1
