# generated using pymatgen
data_Th5Si11PIr19
_symmetry_space_group_name_H-M   'P 1'
_cell_length_a   12.95070000
_cell_length_b   12.98191984
_cell_length_c   4.03000900
_cell_angle_alpha   90.00000000
_cell_angle_beta   90.00000000
_cell_angle_gamma   120.07977394
_symmetry_Int_Tables_number   1
_chemical_formula_structural   Th5Si11PIr19
_chemical_formula_sum   'Th5 Si11 P1 Ir19'
_cell_volume   586.29898553
_cell_formula_units_Z   1
loop_
 _symmetry_equiv_pos_site_id
 _symmetry_equiv_pos_as_xyz
  1  'x, y, z'
loop_
 _atom_site_type_symbol
 _atom_site_label
 _atom_site_symmetry_multiplicity
 _atom_site_fract_x
 _atom_site_fract_y
 _atom_site_fract_z
 _atom_site_occupancy
  Th  Th0  1  0.668017  0.333644  0.000000  1
  Th  Th1  1  0.331983  0.665628  0.000000  1
  Th  Th2  1  0.186704  0.185851  0.500000  1
  Th  Th3  1  0.813296  0.999146  0.500000  1
  Th  Th4  1  0.000000  0.814286  0.500000  1
  Si  Si5  1  0.369914  0.370051  0.000000  1
  Si  Si6  1  0.630086  0.000137  0.000000  1
  Si  Si7  1  0.000000  0.629904  0.000000  1
  Si  Si8  1  0.835221  0.312866  0.500000  1
  Si  Si9  1  0.688241  0.521585  0.500000  1
  Si  Si10  1  0.478977  0.167659  0.500000  1
  Si  Si11  1  0.311759  0.833345  0.500000  1
  Si  Si12  1  0.521023  0.688682  0.500000  1
  Si  Si13  1  0.164779  0.477645  0.500000  1
  Si  Si14  1  0.817999  0.818096  0.000000  1
  Si  Si15  1  0.182001  0.000097  0.000000  1
  P  P16  1  0.000000  0.181264  0.000000  1
  Ir  Ir17  1  0.820086  0.193611  0.000000  1
  Ir  Ir18  1  0.805504  0.624030  0.000000  1
  Ir  Ir19  1  0.376581  0.181880  0.000000  1
  Ir  Ir20  1  0.194496  0.818526  0.000000  1
  Ir  Ir21  1  0.623419  0.805300  0.000000  1
  Ir  Ir22  1  0.179914  0.373526  0.000000  1
  Ir  Ir23  1  0.552708  0.553481  0.000000  1
  Ir  Ir24  1  0.447292  0.000773  0.000000  1
  Ir  Ir25  1  0.000000  0.447761  0.000000  1
  Ir  Ir26  1  0.638614  0.127754  0.500000  1
  Ir  Ir27  1  0.873859  0.511829  0.500000  1
  Ir  Ir28  1  0.488284  0.362805  0.500000  1
  Ir  Ir29  1  0.126141  0.637970  0.500000  1
  Ir  Ir30  1  0.511716  0.874521  0.500000  1
  Ir  Ir31  1  0.361386  0.489141  0.500000  1
  Ir  Ir32  1  0.716850  0.716985  0.500000  1
  Ir  Ir33  1  0.283150  0.000135  0.500000  1
  Ir  Ir34  1  0.000000  0.277922  0.500000  1
  Ir  Ir35  1  0.000000  0.002160  0.000000  1
