# generated using pymatgen
data_LaPr2Ir8Pt
_symmetry_space_group_name_H-M   'P 1'
_cell_length_a   9.41460638
_cell_length_b   9.41460683
_cell_length_c   9.41460662
_cell_angle_alpha   33.44684991
_cell_angle_beta   33.44684310
_cell_angle_gamma   33.44684143
_symmetry_Int_Tables_number   1
_chemical_formula_structural   LaPr2Ir8Pt
_chemical_formula_sum   'La1 Pr2 Ir8 Pt1'
_cell_volume   225.75168307
_cell_formula_units_Z   1
loop_
 _symmetry_equiv_pos_site_id
 _symmetry_equiv_pos_as_xyz
  1  'x, y, z'
loop_
 _atom_site_type_symbol
 _atom_site_label
 _atom_site_symmetry_multiplicity
 _atom_site_fract_x
 _atom_site_fract_y
 _atom_site_fract_z
 _atom_site_occupancy
  La  La0  1  0.000000  0.000000  0.000000  1
  Pr  Pr1  1  0.861433  0.861433  0.861433  1
  Pr  Pr2  1  0.138567  0.138567  0.138567  1
  Ir  Ir3  1  0.420399  0.918220  0.420399  1
  Ir  Ir4  1  0.420399  0.420399  0.918220  1
  Ir  Ir5  1  0.918220  0.420399  0.420399  1
  Ir  Ir6  1  0.579601  0.081780  0.579601  1
  Ir  Ir7  1  0.579601  0.579601  0.081780  1
  Ir  Ir8  1  0.081780  0.579601  0.579601  1
  Ir  Ir9  1  0.668191  0.668191  0.668191  1
  Ir  Ir10  1  0.331809  0.331809  0.331809  1
  Pt  Pt11  1  0.500000  0.500000  0.500000  1
