# generated using pymatgen
data_HfZr2Sc5(Si4Os3)4
_symmetry_space_group_name_H-M   'P 1'
_cell_length_a   9.97396345
_cell_length_b   9.98217591
_cell_length_c   13.43166369
_cell_angle_alpha   53.76439056
_cell_angle_beta   53.72214706
_cell_angle_gamma   31.10953163
_symmetry_Int_Tables_number   1
_chemical_formula_structural   HfZr2Sc5(Si4Os3)4
_chemical_formula_sum   'Hf1 Zr2 Sc5 Si16 Os12'
_cell_volume   545.42331553
_cell_formula_units_Z   1
loop_
 _symmetry_equiv_pos_site_id
 _symmetry_equiv_pos_as_xyz
  1  'x, y, z'
loop_
 _atom_site_type_symbol
 _atom_site_label
 _atom_site_symmetry_multiplicity
 _atom_site_fract_x
 _atom_site_fract_y
 _atom_site_fract_z
 _atom_site_occupancy
  Hf  Hf0  1  0.294021  0.040188  0.135135  1
  Zr  Zr1  1  0.701708  0.961891  0.866331  1
  Zr  Zr2  1  0.963132  0.701154  0.366443  1
  Sc  Sc3  1  0.293947  0.558233  0.646612  1
  Sc  Sc4  1  0.439920  0.706501  0.853643  1
  Sc  Sc5  1  0.706235  0.441045  0.353149  1
  Sc  Sc6  1  0.559699  0.292531  0.147372  1
  Sc  Sc7  1  0.035890  0.293855  0.638912  1
  Si  Si8  1  0.875407  0.124387  0.249948  1
  Si  Si9  1  0.126848  0.875251  0.748620  1
  Si  Si10  1  0.383534  0.618011  0.248933  1
  Si  Si11  1  0.617792  0.383381  0.748977  1
  Si  Si12  1  0.973306  0.253515  0.891026  1
  Si  Si13  1  0.748226  0.025467  0.607668  1
  Si  Si14  1  0.027919  0.745167  0.107748  1
  Si  Si15  1  0.252247  0.974148  0.391414  1
  Si  Si16  1  0.573942  0.083897  0.066140  1
  Si  Si17  1  0.917794  0.423485  0.434422  1
  Si  Si18  1  0.423627  0.917565  0.933909  1
  Si  Si19  1  0.081698  0.573536  0.567004  1
  Si  Si20  1  0.387403  0.143370  0.398064  1
  Si  Si21  1  0.853781  0.615084  0.104336  1
  Si  Si22  1  0.612657  0.856493  0.604140  1
  Si  Si23  1  0.145918  0.387082  0.895320  1
  Os  Os24  1  0.647205  0.828694  0.283295  1
  Os  Os25  1  0.170195  0.350738  0.216672  1
  Os  Os26  1  0.763967  0.483564  0.071530  1
  Os  Os27  1  0.827475  0.647998  0.784214  1
  Os  Os28  1  0.897480  0.141718  0.585270  1
  Os  Os29  1  0.856228  0.103974  0.913983  1
  Os  Os30  1  0.104553  0.855994  0.413858  1
  Os  Os31  1  0.142158  0.897314  0.085506  1
  Os  Os32  1  0.238652  0.518214  0.927849  1
  Os  Os33  1  0.488572  0.761111  0.568518  1
  Os  Os34  1  0.514638  0.243957  0.427179  1
  Os  Os35  1  0.352222  0.171491  0.716860  1
