# generated using pymatgen
data_Y7Th(HgIr)2
_symmetry_space_group_name_H-M   'P 1'
_cell_length_a   9.69364194
_cell_length_b   9.69364198
_cell_length_c   9.68705800
_cell_angle_alpha   60.02246541
_cell_angle_beta   60.02246527
_cell_angle_gamma   60.21145342
_symmetry_Int_Tables_number   1
_chemical_formula_structural   Y7Th(HgIr)2
_chemical_formula_sum   'Y14 Th2 Hg4 Ir4'
_cell_volume   644.89340663
_cell_formula_units_Z   2
loop_
 _symmetry_equiv_pos_site_id
 _symmetry_equiv_pos_as_xyz
  1  'x, y, z'
loop_
 _atom_site_type_symbol
 _atom_site_label
 _atom_site_symmetry_multiplicity
 _atom_site_fract_x
 _atom_site_fract_y
 _atom_site_fract_z
 _atom_site_occupancy
  Y  Y0  1  0.354616  0.941413  0.351986  1
  Y  Y1  1  0.941413  0.354616  0.351986  1
  Y  Y2  1  0.810978  0.190029  0.189658  1
  Y  Y3  1  0.190029  0.810978  0.809335  1
  Y  Y4  1  0.190029  0.810978  0.189658  1
  Y  Y5  1  0.810978  0.190029  0.809335  1
  Y  Y6  1  0.186867  0.186867  0.813133  1
  Y  Y7  1  0.810294  0.810294  0.189706  1
  Y  Y8  1  0.937808  0.563960  0.563043  1
  Y  Y9  1  0.563960  0.937808  0.935191  1
  Y  Y10  1  0.563960  0.937808  0.563043  1
  Y  Y11  1  0.937808  0.563960  0.935191  1
  Y  Y12  1  0.563879  0.563879  0.936121  1
  Y  Y13  1  0.940841  0.940841  0.559159  1
  Th  Th14  1  0.347547  0.347547  0.351069  1
  Th  Th15  1  0.347547  0.347547  0.953838  1
  Hg  Hg16  1  0.586317  0.586317  0.582831  1
  Hg  Hg17  1  0.586317  0.586317  0.244537  1
  Hg  Hg18  1  0.587701  0.240440  0.585930  1
  Hg  Hg19  1  0.240440  0.587701  0.585930  1
  Ir  Ir20  1  0.142165  0.142165  0.144765  1
  Ir  Ir21  1  0.142165  0.142165  0.570904  1
  Ir  Ir22  1  0.144971  0.571372  0.141829  1
  Ir  Ir23  1  0.571372  0.144971  0.141829  1
