# generated using pymatgen
data_Tm8In3Cu
_symmetry_space_group_name_H-M   'P 1'
_cell_length_a   10.40644200
_cell_length_b   10.40644188
_cell_length_c   6.76758900
_cell_angle_alpha   90.00000000
_cell_angle_beta   90.00000000
_cell_angle_gamma   120.00000037
_symmetry_Int_Tables_number   1
_chemical_formula_structural   Tm8In3Cu
_chemical_formula_sum   'Tm16 In6 Cu2'
_cell_volume   634.70093359
_cell_formula_units_Z   2
loop_
 _symmetry_equiv_pos_site_id
 _symmetry_equiv_pos_as_xyz
  1  'x, y, z'
loop_
 _atom_site_type_symbol
 _atom_site_label
 _atom_site_symmetry_multiplicity
 _atom_site_fract_x
 _atom_site_fract_y
 _atom_site_fract_z
 _atom_site_occupancy
  Tm  Tm0  1  0.526109  0.052219  0.518430  1
  Tm  Tm1  1  0.947781  0.473891  0.518430  1
  Tm  Tm2  1  0.526109  0.473891  0.518430  1
  Tm  Tm3  1  0.473891  0.947781  0.018430  1
  Tm  Tm4  1  0.052219  0.526109  0.018430  1
  Tm  Tm5  1  0.473891  0.526109  0.018430  1
  Tm  Tm6  1  0.175691  0.351381  0.728900  1
  Tm  Tm7  1  0.648619  0.824309  0.728900  1
  Tm  Tm8  1  0.175691  0.824309  0.728900  1
  Tm  Tm9  1  0.824309  0.648619  0.228900  1
  Tm  Tm10  1  0.351381  0.175691  0.228900  1
  Tm  Tm11  1  0.824309  0.175691  0.228900  1
  Tm  Tm12  1  0.666667  0.333333  0.890362  1
  Tm  Tm13  1  0.333333  0.666667  0.390362  1
  Tm  Tm14  1  0.000000  0.000000  0.496255  1
  Tm  Tm15  1  0.000000  0.000000  0.996255  1
  In  In16  1  0.836216  0.672432  0.752911  1
  In  In17  1  0.327568  0.163784  0.752911  1
  In  In18  1  0.836216  0.163784  0.752911  1
  In  In19  1  0.163784  0.327568  0.252911  1
  In  In20  1  0.672432  0.836216  0.252911  1
  In  In21  1  0.163784  0.836216  0.252911  1
  Cu  Cu22  1  0.666667  0.333333  0.291664  1
  Cu  Cu23  1  0.333333  0.666667  0.791664  1
