# generated using pymatgen
data_Rb2Zn3I8
_symmetry_space_group_name_H-M   'P 1'
_cell_length_a   11.34756718
_cell_length_b   11.34756761
_cell_length_c   7.97314827
_cell_angle_alpha   83.98004296
_cell_angle_beta   83.98004473
_cell_angle_gamma   142.10644117
_symmetry_Int_Tables_number   1
_chemical_formula_structural   Rb2Zn3I8
_chemical_formula_sum   'Rb2 Zn3 I8'
_cell_volume   596.78367847
_cell_formula_units_Z   1
loop_
 _symmetry_equiv_pos_site_id
 _symmetry_equiv_pos_as_xyz
  1  'x, y, z'
loop_
 _atom_site_type_symbol
 _atom_site_label
 _atom_site_symmetry_multiplicity
 _atom_site_fract_x
 _atom_site_fract_y
 _atom_site_fract_z
 _atom_site_occupancy
  Rb  Rb0  1  0.645019  0.909071  0.535438  1
  Rb  Rb1  1  0.909071  0.645019  0.535438  1
  Zn  Zn2  1  0.998109  0.998109  0.019782  1
  Zn  Zn3  1  0.930991  0.318973  0.912849  1
  Zn  Zn4  1  0.318973  0.930991  0.912849  1
  I  I5  1  0.672163  0.672163  0.273093  1
  I  I6  1  0.996993  0.996993  0.696909  1
  I  I7  1  0.538832  0.940525  0.039480  1
  I  I8  1  0.940525  0.538832  0.039480  1
  I  I9  1  0.077060  0.457385  0.572126  1
  I  I10  1  0.457385  0.077060  0.572126  1
  I  I11  1  0.311673  0.117591  0.077390  1
  I  I12  1  0.117591  0.311673  0.077390  1
