# generated using pymatgen
data_Dy2HoTm5Au4
_symmetry_space_group_name_H-M   'P 1'
_cell_length_a   4.88923300
_cell_length_b   7.10865492
_cell_length_c   8.87617700
_cell_angle_alpha   89.78527296
_cell_angle_beta   90.00000000
_cell_angle_gamma   90.00000000
_symmetry_Int_Tables_number   1
_chemical_formula_structural   Dy2HoTm5Au4
_chemical_formula_sum   'Dy2 Ho1 Tm5 Au4'
_cell_volume   308.49708945
_cell_formula_units_Z   1
loop_
 _symmetry_equiv_pos_site_id
 _symmetry_equiv_pos_as_xyz
  1  'x, y, z'
loop_
 _atom_site_type_symbol
 _atom_site_label
 _atom_site_symmetry_multiplicity
 _atom_site_fract_x
 _atom_site_fract_y
 _atom_site_fract_z
 _atom_site_occupancy
  Dy  Dy0  1  0.250000  0.985624  0.322266  1
  Dy  Dy1  1  0.750000  0.014450  0.677162  1
  Ho  Ho2  1  0.750000  0.514586  0.823470  1
  Tm  Tm3  1  0.250000  0.851499  0.921328  1
  Tm  Tm4  1  0.250000  0.352591  0.579226  1
  Tm  Tm5  1  0.750000  0.148698  0.079520  1
  Tm  Tm6  1  0.750000  0.647453  0.419390  1
  Tm  Tm7  1  0.250000  0.485102  0.176113  1
  Au  Au8  1  0.250000  0.255009  0.901539  1
  Au  Au9  1  0.250000  0.753882  0.600655  1
  Au  Au10  1  0.750000  0.744440  0.100130  1
  Au  Au11  1  0.750000  0.246667  0.399201  1
