# generated using pymatgen
data_Na6Cd7
_symmetry_space_group_name_H-M   'P 1'
_cell_length_a   11.17520186
_cell_length_b   11.17520177
_cell_length_c   11.17520088
_cell_angle_alpha   32.25289668
_cell_angle_beta   32.25289550
_cell_angle_gamma   32.25290099
_symmetry_Int_Tables_number   1
_chemical_formula_structural   Na6Cd7
_chemical_formula_sum   'Na6 Cd7'
_cell_volume   353.27989916
_cell_formula_units_Z   1
loop_
 _symmetry_equiv_pos_site_id
 _symmetry_equiv_pos_as_xyz
  1  'x, y, z'
loop_
 _atom_site_type_symbol
 _atom_site_label
 _atom_site_symmetry_multiplicity
 _atom_site_fract_x
 _atom_site_fract_y
 _atom_site_fract_z
 _atom_site_occupancy
  Na  Na0  1  0.347376  0.347376  0.347376  1
  Na  Na1  1  0.166042  0.166042  0.166042  1
  Na  Na2  1  0.551039  0.551039  0.551039  1
  Na  Na3  1  0.652624  0.652624  0.652624  1
  Na  Na4  1  0.448961  0.448961  0.448961  1
  Na  Na5  1  0.833958  0.833958  0.833958  1
  Cd  Cd6  1  0.583116  0.094050  0.094050  1
  Cd  Cd7  1  0.094050  0.094050  0.583116  1
  Cd  Cd8  1  0.905950  0.905950  0.416884  1
  Cd  Cd9  1  0.905950  0.416884  0.905950  1
  Cd  Cd10  1  0.000000  0.000000  0.000000  1
  Cd  Cd11  1  0.094050  0.583116  0.094050  1
  Cd  Cd12  1  0.416884  0.905950  0.905950  1
