# generated using pymatgen
data_Li2PrGdSi4
_symmetry_space_group_name_H-M   'P 1'
_cell_length_a   3.85151400
_cell_length_b   7.70711237
_cell_length_c   10.40404100
_cell_angle_alpha   89.62808206
_cell_angle_beta   90.00000000
_cell_angle_gamma   90.00000000
_symmetry_Int_Tables_number   1
_chemical_formula_structural   Li2PrGdSi4
_chemical_formula_sum   'Li4 Pr2 Gd2 Si8'
_cell_volume   308.82757928
_cell_formula_units_Z   2
loop_
 _symmetry_equiv_pos_site_id
 _symmetry_equiv_pos_as_xyz
  1  'x, y, z'
loop_
 _atom_site_type_symbol
 _atom_site_label
 _atom_site_symmetry_multiplicity
 _atom_site_fract_x
 _atom_site_fract_y
 _atom_site_fract_z
 _atom_site_occupancy
  Li  Li0  1  0.250000  0.994805  0.389218  1
  Li  Li1  1  0.750000  0.005195  0.610782  1
  Li  Li2  1  0.250000  0.491641  0.107441  1
  Li  Li3  1  0.750000  0.508359  0.892559  1
  Pr  Pr4  1  0.250000  0.640561  0.635488  1
  Pr  Pr5  1  0.750000  0.359439  0.364512  1
  Gd  Gd6  1  0.250000  0.135326  0.865945  1
  Gd  Gd7  1  0.750000  0.864674  0.134055  1
  Si  Si8  1  0.750000  0.266355  0.065954  1
  Si  Si9  1  0.250000  0.733645  0.934046  1
  Si  Si10  1  0.750000  0.776120  0.424892  1
  Si  Si11  1  0.250000  0.223880  0.575108  1
  Si  Si12  1  0.750000  0.843010  0.825271  1
  Si  Si13  1  0.250000  0.156990  0.174729  1
  Si  Si14  1  0.750000  0.334195  0.682352  1
  Si  Si15  1  0.250000  0.665805  0.317648  1
