# generated using pymatgen
data_Tb15Y5(Hg3Ru)2
_symmetry_space_group_name_H-M   'P 1'
_cell_length_a   9.66813800
_cell_length_b   9.66820642
_cell_length_c   9.72393000
_cell_angle_alpha   90.00000000
_cell_angle_beta   90.00000000
_cell_angle_gamma   120.00025331
_symmetry_Int_Tables_number   1
_chemical_formula_structural   Tb15Y5(Hg3Ru)2
_chemical_formula_sum   'Tb15 Y5 Hg6 Ru2'
_cell_volume   787.15471662
_cell_formula_units_Z   1
loop_
 _symmetry_equiv_pos_site_id
 _symmetry_equiv_pos_as_xyz
  1  'x, y, z'
loop_
 _atom_site_type_symbol
 _atom_site_label
 _atom_site_symmetry_multiplicity
 _atom_site_fract_x
 _atom_site_fract_y
 _atom_site_fract_z
 _atom_site_occupancy
  Tb  Tb0  1  0.209532  0.790470  0.439648  1
  Tb  Tb1  1  0.209532  0.419062  0.439646  1
  Tb  Tb2  1  0.580937  0.790468  0.439646  1
  Tb  Tb3  1  0.790502  0.209497  0.560538  1
  Tb  Tb4  1  0.790503  0.581006  0.560540  1
  Tb  Tb5  1  0.418996  0.209497  0.560539  1
  Tb  Tb6  1  0.790502  0.209497  0.939462  1
  Tb  Tb7  1  0.790503  0.581006  0.939460  1
  Tb  Tb8  1  0.418996  0.209497  0.939461  1
  Tb  Tb9  1  0.209532  0.790470  0.060352  1
  Tb  Tb10  1  0.209532  0.419062  0.060354  1
  Tb  Tb11  1  0.580937  0.790468  0.060354  1
  Tb  Tb12  1  0.541113  0.458886  0.250000  1
  Tb  Tb13  1  0.541114  0.082228  0.250000  1
  Tb  Tb14  1  0.917771  0.458886  0.250000  1
  Y  Y15  1  0.000000  0.000000  0.500164  1
  Y  Y16  1  0.000000  0.000000  0.999836  1
  Y  Y17  1  0.458843  0.541158  0.750000  1
  Y  Y18  1  0.458843  0.917684  0.750000  1
  Y  Y19  1  0.082314  0.541157  0.750000  1
  Hg  Hg20  1  0.881570  0.118434  0.250000  1
  Hg  Hg21  1  0.881567  0.763138  0.250000  1
  Hg  Hg22  1  0.236864  0.118433  0.250000  1
  Hg  Hg23  1  0.118560  0.881439  0.750000  1
  Hg  Hg24  1  0.118561  0.237121  0.750000  1
  Hg  Hg25  1  0.762879  0.881440  0.750000  1
  Ru  Ru26  1  0.333331  0.666660  0.250000  1
  Ru  Ru27  1  0.666668  0.333336  0.750000  1
