# generated using pymatgen
data_Yb3Cd(Ir2O7)2
_symmetry_space_group_name_H-M   'P 1'
_cell_length_a   7.27858070
_cell_length_b   7.27858154
_cell_length_c   7.17344261
_cell_angle_alpha   59.51397225
_cell_angle_beta   59.51397455
_cell_angle_gamma   60.00000529
_symmetry_Int_Tables_number   1
_chemical_formula_structural   Yb3Cd(Ir2O7)2
_chemical_formula_sum   'Yb3 Cd1 Ir4 O14'
_cell_volume   266.73270788
_cell_formula_units_Z   1
loop_
 _symmetry_equiv_pos_site_id
 _symmetry_equiv_pos_as_xyz
  1  'x, y, z'
loop_
 _atom_site_type_symbol
 _atom_site_label
 _atom_site_symmetry_multiplicity
 _atom_site_fract_x
 _atom_site_fract_y
 _atom_site_fract_z
 _atom_site_occupancy
  Yb  Yb0  1  0.625000  0.125000  0.125000  1
  Yb  Yb1  1  0.125000  0.625000  0.125000  1
  Yb  Yb2  1  0.125000  0.125000  0.125000  1
  Cd  Cd3  1  0.125000  0.125000  0.625000  1
  Ir  Ir4  1  0.125000  0.625000  0.625000  1
  Ir  Ir5  1  0.625000  0.125000  0.625000  1
  Ir  Ir6  1  0.625000  0.625000  0.125000  1
  Ir  Ir7  1  0.625000  0.625000  0.625000  1
  O  O8  1  0.704079  0.704079  0.294359  1
  O  O9  1  0.301610  0.301610  0.702296  1
  O  O10  1  0.694485  0.301610  0.702296  1
  O  O11  1  0.297481  0.704079  0.294359  1
  O  O12  1  0.301610  0.694485  0.702296  1
  O  O13  1  0.704079  0.297481  0.294359  1
  O  O14  1  0.545921  0.545921  0.955641  1
  O  O15  1  0.948390  0.948390  0.547704  1
  O  O16  1  0.555515  0.948390  0.547704  1
  O  O17  1  0.952519  0.545921  0.955641  1
  O  O18  1  0.948390  0.555515  0.547704  1
  O  O19  1  0.545921  0.952519  0.955641  1
  O  O20  1  0.245328  0.245328  0.264016  1
  O  O21  1  0.004672  0.004672  0.985984  1
