# generated using pymatgen
data_Er2TmHf(Ga3Rh)6
_symmetry_space_group_name_H-M   'P 1'
_cell_length_a   7.53983514
_cell_length_b   7.52296431
_cell_length_c   9.44457700
_cell_angle_alpha   90.00000000
_cell_angle_beta   90.00000000
_cell_angle_gamma   119.87935850
_symmetry_Int_Tables_number   1
_chemical_formula_structural   Er2TmHf(Ga3Rh)6
_chemical_formula_sum   'Er2 Tm1 Hf1 Ga18 Rh6'
_cell_volume   464.50529392
_cell_formula_units_Z   1
loop_
 _symmetry_equiv_pos_site_id
 _symmetry_equiv_pos_as_xyz
  1  'x, y, z'
loop_
 _atom_site_type_symbol
 _atom_site_label
 _atom_site_symmetry_multiplicity
 _atom_site_fract_x
 _atom_site_fract_y
 _atom_site_fract_z
 _atom_site_occupancy
  Er  Er0  1  0.004089  0.330921  0.750000  1
  Er  Er1  1  0.331280  0.003580  0.750000  1
  Tm  Tm2  1  0.669454  0.997572  0.250000  1
  Hf  Hf3  1  0.996547  0.668266  0.250000  1
  Ga  Ga4  1  0.123525  0.122324  0.250000  1
  Ga  Ga5  1  0.873789  0.873653  0.750000  1
  Ga  Ga6  1  0.998843  0.337273  0.083314  1
  Ga  Ga7  1  0.001008  0.665543  0.922126  1
  Ga  Ga8  1  0.001008  0.665543  0.577874  1
  Ga  Ga9  1  0.331322  0.996567  0.416633  1
  Ga  Ga10  1  0.998843  0.337273  0.416686  1
  Ga  Ga11  1  0.665731  0.000311  0.579693  1
  Ga  Ga12  1  0.665731  0.000311  0.920307  1
  Ga  Ga13  1  0.331322  0.996567  0.083367  1
  Ga  Ga14  1  0.332656  0.332540  0.565377  1
  Ga  Ga15  1  0.670046  0.667916  0.430618  1
  Ga  Ga16  1  0.670046  0.667916  0.069382  1
  Ga  Ga17  1  0.332656  0.332540  0.934623  1
  Ga  Ga18  1  0.336871  0.548831  0.250000  1
  Ga  Ga19  1  0.661927  0.453095  0.750000  1
  Ga  Ga20  1  0.551959  0.340837  0.250000  1
  Ga  Ga21  1  0.451799  0.660954  0.750000  1
  Rh  Rh22  1  0.672384  0.328701  0.001058  1
  Rh  Rh23  1  0.327815  0.672119  0.001659  1
  Rh  Rh24  1  0.327815  0.672119  0.498341  1
  Rh  Rh25  1  0.672384  0.328701  0.498942  1
  Rh  Rh26  1  0.999577  0.999013  0.001226  1
  Rh  Rh27  1  0.999577  0.999013  0.498774  1
