# generated using pymatgen
data_Ir2Rh2Pb4O13
_symmetry_space_group_name_H-M   'P 1'
_cell_length_a   7.32346135
_cell_length_b   7.32346202
_cell_length_c   7.32346135
_cell_angle_alpha   119.95266397
_cell_angle_beta   89.98578127
_cell_angle_gamma   120.06378919
_symmetry_Int_Tables_number   1
_chemical_formula_structural   Ir2Rh2Pb4O13
_chemical_formula_sum   'Ir2 Rh2 Pb4 O13'
_cell_volume   277.70243167
_cell_formula_units_Z   1
loop_
 _symmetry_equiv_pos_site_id
 _symmetry_equiv_pos_as_xyz
  1  'x, y, z'
loop_
 _atom_site_type_symbol
 _atom_site_label
 _atom_site_symmetry_multiplicity
 _atom_site_fract_x
 _atom_site_fract_y
 _atom_site_fract_z
 _atom_site_occupancy
  Ir  Ir0  1  0.624713  0.750487  0.375201  1
  Ir  Ir1  1  0.624714  0.249512  0.874225  1
  Rh  Rh2  1  0.624645  0.249528  0.375117  1
  Rh  Rh3  1  0.125589  0.750471  0.375117  1
  Pb  Pb4  1  0.122946  0.246060  0.369005  1
  Pb  Pb5  1  0.122139  0.244321  0.877817  1
  Pb  Pb6  1  0.122946  0.753939  0.876885  1
  Pb  Pb7  1  0.633496  0.755678  0.877817  1
  O  O8  1  0.546748  0.091608  0.042858  1
  O  O9  1  0.547629  0.500001  0.047629  1
  O  O10  1  0.951250  0.496111  0.042859  1
  O  O11  1  0.295989  0.000000  0.295989  1
  O  O12  1  0.699940  0.995631  0.296489  1
  O  O13  1  0.300858  0.596548  0.296489  1
  O  O14  1  0.956392  0.500001  0.456391  1
  O  O15  1  0.951250  0.908391  0.455139  1
  O  O16  1  0.546748  0.503891  0.455140  1
  O  O17  1  0.300858  0.004369  0.704309  1
  O  O18  1  0.700178  0.000000  0.700178  1
  O  O19  1  0.699940  0.403451  0.704309  1
  O  O20  1  0.251037  0.500001  0.751038  1
