# generated using pymatgen
data_Ca2Y2Al15(SiRh2)3
_symmetry_space_group_name_H-M   'P 1'
_cell_length_a   7.52549434
_cell_length_b   7.48349015
_cell_length_c   9.47814555
_cell_angle_alpha   89.94330652
_cell_angle_beta   89.96328203
_cell_angle_gamma   119.62137978
_symmetry_Int_Tables_number   1
_chemical_formula_structural   Ca2Y2Al15(SiRh2)3
_chemical_formula_sum   'Ca2 Y2 Al15 Si3 Rh6'
_cell_volume   464.02029080
_cell_formula_units_Z   1
loop_
 _symmetry_equiv_pos_site_id
 _symmetry_equiv_pos_as_xyz
  1  'x, y, z'
loop_
 _atom_site_type_symbol
 _atom_site_label
 _atom_site_symmetry_multiplicity
 _atom_site_fract_x
 _atom_site_fract_y
 _atom_site_fract_z
 _atom_site_occupancy
  Ca  Ca0  1  0.993997  0.663806  0.246919  1
  Ca  Ca1  1  0.006839  0.342743  0.754200  1
  Y  Y2  1  0.677551  0.003324  0.246855  1
  Y  Y3  1  0.317989  0.989504  0.750311  1
  Al  Al4  1  0.129016  0.128009  0.249587  1
  Al  Al5  1  0.871530  0.870100  0.749449  1
  Al  Al6  1  0.338642  0.003105  0.423696  1
  Al  Al7  1  0.002646  0.332199  0.431471  1
  Al  Al8  1  0.666000  0.001627  0.575023  1
  Al  Al9  1  0.663025  0.998551  0.922445  1
  Al  Al10  1  0.338287  0.003355  0.076541  1
  Al  Al11  1  0.332915  0.330800  0.554085  1
  Al  Al12  1  0.663918  0.667983  0.447541  1
  Al  Al13  1  0.663253  0.667305  0.053955  1
  Al  Al14  1  0.334919  0.331624  0.946242  1
  Al  Al15  1  0.339695  0.551584  0.249981  1
  Al  Al16  1  0.660975  0.448756  0.750841  1
  Al  Al17  1  0.546798  0.341856  0.249635  1
  Al  Al18  1  0.456945  0.659820  0.749944  1
  Si  Si19  1  0.004339  0.329439  0.075259  1
  Si  Si20  1  0.994773  0.670117  0.930070  1
  Si  Si21  1  0.996421  0.665078  0.565374  1
  Rh  Rh22  1  0.686928  0.336346  0.002009  1
  Rh  Rh23  1  0.312730  0.664208  0.996707  1
  Rh  Rh24  1  0.321410  0.671517  0.503256  1
  Rh  Rh25  1  0.677675  0.335535  0.499592  1
  Rh  Rh26  1  0.000044  0.998991  0.999118  1
  Rh  Rh27  1  0.000738  0.992722  0.499898  1
