# generated using pymatgen
data_Sc3Nb(Fe3Si4)2
_symmetry_space_group_name_H-M   'P 1'
_cell_length_a   9.67109267
_cell_length_b   9.67109271
_cell_length_c   12.92800700
_cell_angle_alpha   53.05886943
_cell_angle_beta   53.05886927
_cell_angle_gamma   30.74195510
_symmetry_Int_Tables_number   1
_chemical_formula_structural   Sc3Nb(Fe3Si4)2
_chemical_formula_sum   'Sc6 Nb2 Fe12 Si16'
_cell_volume   483.33918709
_cell_formula_units_Z   2
loop_
 _symmetry_equiv_pos_site_id
 _symmetry_equiv_pos_as_xyz
  1  'x, y, z'
loop_
 _atom_site_type_symbol
 _atom_site_label
 _atom_site_symmetry_multiplicity
 _atom_site_fract_x
 _atom_site_fract_y
 _atom_site_fract_z
 _atom_site_occupancy
  Sc  Sc0  1  0.291725  0.566615  0.642570  1
  Sc  Sc1  1  0.433385  0.708275  0.857430  1
  Sc  Sc2  1  0.707061  0.433700  0.355536  1
  Sc  Sc3  1  0.566300  0.292939  0.144464  1
  Sc  Sc4  1  0.035765  0.293691  0.643150  1
  Sc  Sc5  1  0.706309  0.964235  0.856850  1
  Nb  Nb6  1  0.962216  0.700756  0.363597  1
  Nb  Nb7  1  0.299244  0.037784  0.136403  1
  Fe  Fe8  1  0.647345  0.834249  0.278244  1
  Fe  Fe9  1  0.165751  0.352655  0.221756  1
  Fe  Fe10  1  0.757965  0.481790  0.069613  1
  Fe  Fe11  1  0.830025  0.649149  0.777480  1
  Fe  Fe12  1  0.899096  0.141571  0.584866  1
  Fe  Fe13  1  0.858429  0.100904  0.915134  1
  Fe  Fe14  1  0.102194  0.856964  0.414328  1
  Fe  Fe15  1  0.143036  0.897806  0.085672  1
  Fe  Fe16  1  0.236664  0.512853  0.936797  1
  Fe  Fe17  1  0.487147  0.763336  0.563203  1
  Fe  Fe18  1  0.518210  0.242035  0.430387  1
  Fe  Fe19  1  0.350851  0.169975  0.722520  1
  Si  Si20  1  0.881990  0.118010  0.250000  1
  Si  Si21  1  0.122272  0.877728  0.750000  1
  Si  Si22  1  0.379188  0.620812  0.250000  1
  Si  Si23  1  0.619132  0.380868  0.750000  1
  Si  Si24  1  0.969437  0.257234  0.895417  1
  Si  Si25  1  0.742766  0.030563  0.604583  1
  Si  Si26  1  0.028774  0.743568  0.107161  1
  Si  Si27  1  0.256432  0.971226  0.392839  1
  Si  Si28  1  0.567240  0.093992  0.065641  1
  Si  Si29  1  0.906008  0.432760  0.434359  1
  Si  Si30  1  0.433860  0.905738  0.935821  1
  Si  Si31  1  0.094262  0.566140  0.564179  1
  Si  Si32  1  0.394577  0.137315  0.395388  1
  Si  Si33  1  0.862685  0.605423  0.104612  1
  Si  Si34  1  0.608008  0.865350  0.604732  1
  Si  Si35  1  0.134650  0.391992  0.895268  1
