# generated using pymatgen
data_Tb5ErNiBr10
_symmetry_space_group_name_H-M   'P 1'
_cell_length_a   7.34522724
_cell_length_b   9.17761120
_cell_length_c   9.20153740
_cell_angle_alpha   107.95542832
_cell_angle_beta   97.09273665
_cell_angle_gamma   105.00746046
_symmetry_Int_Tables_number   1
_chemical_formula_structural   Tb5ErNiBr10
_chemical_formula_sum   'Tb5 Er1 Ni1 Br10'
_cell_volume   555.82800507
_cell_formula_units_Z   1
loop_
 _symmetry_equiv_pos_site_id
 _symmetry_equiv_pos_as_xyz
  1  'x, y, z'
loop_
 _atom_site_type_symbol
 _atom_site_label
 _atom_site_symmetry_multiplicity
 _atom_site_fract_x
 _atom_site_fract_y
 _atom_site_fract_z
 _atom_site_occupancy
  Tb  Tb0  1  0.877884  0.955381  0.243808  1
  Tb  Tb1  1  0.968932  0.293717  0.091023  1
  Tb  Tb2  1  0.031243  0.706003  0.907058  1
  Tb  Tb3  1  0.353771  0.131300  0.176379  1
  Tb  Tb4  1  0.646213  0.868849  0.823716  1
  Er  Er5  1  0.120835  0.044203  0.759428  1
  Ni  Ni6  1  0.999974  0.999780  0.000121  1
  Br  Br7  1  0.543477  0.178006  0.912709  1
  Br  Br8  1  0.453608  0.820606  0.085335  1
  Br  Br9  1  0.351475  0.453392  0.271929  1
  Br  Br10  1  0.648057  0.546532  0.727908  1
  Br  Br11  1  0.251590  0.083357  0.461975  1
  Br  Br12  1  0.751921  0.917822  0.542500  1
  Br  Br13  1  0.782203  0.256765  0.346571  1
  Br  Br14  1  0.216886  0.747411  0.652375  1
  Br  Br15  1  0.087445  0.367461  0.823951  1
  Br  Br16  1  0.914486  0.629413  0.173214  1
