# generated using pymatgen
data_Ac3(CdAu2)2
_symmetry_space_group_name_H-M   'P 1'
_cell_length_a   8.16402123
_cell_length_b   8.16402153
_cell_length_c   4.17981800
_cell_angle_alpha   90.00000000
_cell_angle_beta   90.00000000
_cell_angle_gamma   118.20691014
_symmetry_Int_Tables_number   1
_chemical_formula_structural   Ac3(CdAu2)2
_chemical_formula_sum   'Ac3 Cd2 Au4'
_cell_volume   245.50651474
_cell_formula_units_Z   1
loop_
 _symmetry_equiv_pos_site_id
 _symmetry_equiv_pos_as_xyz
  1  'x, y, z'
loop_
 _atom_site_type_symbol
 _atom_site_label
 _atom_site_symmetry_multiplicity
 _atom_site_fract_x
 _atom_site_fract_y
 _atom_site_fract_z
 _atom_site_occupancy
  Ac  Ac0  1  0.417771  0.417771  0.500000  1
  Ac  Ac1  1  0.982007  0.604678  0.500000  1
  Ac  Ac2  1  0.604678  0.982007  0.500000  1
  Cd  Cd3  1  0.258601  0.006859  0.000000  1
  Cd  Cd4  1  0.006859  0.258601  0.000000  1
  Au  Au5  1  0.665497  0.315891  0.000000  1
  Au  Au6  1  0.017480  0.017480  0.500000  1
  Au  Au7  1  0.315891  0.665497  0.000000  1
  Au  Au8  1  0.731215  0.731215  0.000000  1
