# generated using pymatgen
data_Pa6Ge(P3Rh5)4
_symmetry_space_group_name_H-M   'P 1'
_cell_length_a   13.45162000
_cell_length_b   13.45161981
_cell_length_c   3.91961400
_cell_angle_alpha   90.00000000
_cell_angle_beta   90.00000000
_cell_angle_gamma   119.99999555
_symmetry_Int_Tables_number   1
_chemical_formula_structural   Pa6Ge(P3Rh5)4
_chemical_formula_sum   'Pa6 Ge1 P12 Rh20'
_cell_volume   614.21882911
_cell_formula_units_Z   1
loop_
 _symmetry_equiv_pos_site_id
 _symmetry_equiv_pos_as_xyz
  1  'x, y, z'
loop_
 _atom_site_type_symbol
 _atom_site_label
 _atom_site_symmetry_multiplicity
 _atom_site_fract_x
 _atom_site_fract_y
 _atom_site_fract_z
 _atom_site_occupancy
  Pa  Pa0  1  0.528177  0.718014  0.249398  1
  Pa  Pa1  1  0.281986  0.810163  0.249398  1
  Pa  Pa2  1  0.189837  0.471823  0.249398  1
  Pa  Pa3  1  0.471823  0.281986  0.750602  1
  Pa  Pa4  1  0.718014  0.189837  0.750602  1
  Pa  Pa5  1  0.810163  0.528177  0.750602  1
  Ge  Ge6  1  0.000000  0.000000  0.000000  1
  P  P7  1  0.527619  0.139357  0.250493  1
  P  P8  1  0.860643  0.388263  0.250493  1
  P  P9  1  0.611737  0.472381  0.250493  1
  P  P10  1  0.947226  0.718704  0.249733  1
  P  P11  1  0.281296  0.228522  0.249733  1
  P  P12  1  0.771478  0.052774  0.249733  1
  P  P13  1  0.388263  0.527619  0.749507  1
  P  P14  1  0.472381  0.860643  0.749507  1
  P  P15  1  0.139357  0.611737  0.749507  1
  P  P16  1  0.718704  0.771478  0.750267  1
  P  P17  1  0.228522  0.947226  0.750267  1
  P  P18  1  0.052774  0.281296  0.750267  1
  Rh  Rh19  1  0.333333  0.666667  0.748762  1
  Rh  Rh20  1  0.916527  0.251219  0.248719  1
  Rh  Rh21  1  0.748781  0.665308  0.248719  1
  Rh  Rh22  1  0.334692  0.083473  0.248719  1
  Rh  Rh23  1  0.434398  0.014487  0.749969  1
  Rh  Rh24  1  0.985513  0.419911  0.749969  1
  Rh  Rh25  1  0.580089  0.565602  0.749969  1
  Rh  Rh26  1  0.666667  0.333333  0.251238  1
  Rh  Rh27  1  0.094844  0.195945  0.259563  1
  Rh  Rh28  1  0.804055  0.898898  0.259563  1
  Rh  Rh29  1  0.101102  0.905156  0.259563  1
  Rh  Rh30  1  0.014487  0.580089  0.250031  1
  Rh  Rh31  1  0.419911  0.434398  0.250031  1
  Rh  Rh32  1  0.565602  0.985513  0.250031  1
  Rh  Rh33  1  0.665308  0.916527  0.751281  1
  Rh  Rh34  1  0.083473  0.748781  0.751281  1
  Rh  Rh35  1  0.251219  0.334692  0.751281  1
  Rh  Rh36  1  0.905156  0.804055  0.740437  1
  Rh  Rh37  1  0.195945  0.101102  0.740437  1
  Rh  Rh38  1  0.898898  0.094844  0.740437  1
