# generated using pymatgen
data_Tb12Co4TcBi
_symmetry_space_group_name_H-M   'P 1'
_cell_length_a   8.38868871
_cell_length_b   8.38868973
_cell_length_c   8.38868933
_cell_angle_alpha   111.49828728
_cell_angle_beta   110.40217739
_cell_angle_gamma   106.55400186
_symmetry_Int_Tables_number   1
_chemical_formula_structural   Tb12Co4TcBi
_chemical_formula_sum   'Tb12 Co4 Tc1 Bi1'
_cell_volume   453.50147950
_cell_formula_units_Z   1
loop_
 _symmetry_equiv_pos_site_id
 _symmetry_equiv_pos_as_xyz
  1  'x, y, z'
loop_
 _atom_site_type_symbol
 _atom_site_label
 _atom_site_symmetry_multiplicity
 _atom_site_fract_x
 _atom_site_fract_y
 _atom_site_fract_z
 _atom_site_occupancy
  Tb  Tb0  1  0.817181  0.713988  0.531169  1
  Tb  Tb1  1  0.182819  0.286012  0.468831  1
  Tb  Tb2  1  0.182819  0.713988  0.896808  1
  Tb  Tb3  1  0.817181  0.286012  0.103192  1
  Tb  Tb4  1  0.690022  0.380700  0.690678  1
  Tb  Tb5  1  0.309978  0.619300  0.309322  1
  Tb  Tb6  1  0.690022  0.999344  0.309322  1
  Tb  Tb7  1  0.309978  0.000656  0.690678  1
  Tb  Tb8  1  0.593481  0.788899  0.804583  1
  Tb  Tb9  1  0.406519  0.211101  0.195417  1
  Tb  Tb10  1  0.984315  0.788899  0.195417  1
  Tb  Tb11  1  0.015685  0.211101  0.804583  1
  Co  Co12  1  0.620120  0.000000  0.620120  1
  Co  Co13  1  0.379880  0.000000  0.379880  1
  Co  Co14  1  0.110192  0.610192  0.500000  1
  Co  Co15  1  0.889808  0.389808  0.500000  1
  Tc  Tc16  1  0.000000  0.000000  0.000000  1
  Bi  Bi17  1  0.500000  0.500000  0.000000  1
