# generated using pymatgen
data_Ta6Nb2Co7Si14Rh
_symmetry_space_group_name_H-M   'P 1'
_cell_length_a   9.26756574
_cell_length_b   9.27625372
_cell_length_c   9.25076001
_cell_angle_alpha   94.26174873
_cell_angle_beta   94.21176387
_cell_angle_gamma   148.49353037
_symmetry_Int_Tables_number   1
_chemical_formula_structural   Ta6Nb2Co7Si14Rh
_chemical_formula_sum   'Ta6 Nb2 Co7 Si14 Rh1'
_cell_volume   399.92197638
_cell_formula_units_Z   1
loop_
 _symmetry_equiv_pos_site_id
 _symmetry_equiv_pos_as_xyz
  1  'x, y, z'
loop_
 _atom_site_type_symbol
 _atom_site_label
 _atom_site_symmetry_multiplicity
 _atom_site_fract_x
 _atom_site_fract_y
 _atom_site_fract_z
 _atom_site_occupancy
  Ta  Ta0  1  0.310619  0.498899  0.809693  1
  Ta  Ta1  1  0.690539  0.501965  0.191486  1
  Ta  Ta2  1  0.500947  0.689521  0.191486  1
  Ta  Ta3  1  0.499074  0.310794  0.809693  1
  Ta  Ta4  1  0.133555  0.133555  0.267109  1
  Ta  Ta5  1  0.866492  0.866492  0.732986  1
  Nb  Nb6  1  0.133242  0.868654  0.001558  1
  Nb  Nb7  1  0.868316  0.132905  0.001558  1
  Co  Co8  1  0.103571  0.603571  0.207144  1
  Co  Co9  1  0.898882  0.098125  0.497234  1
  Co  Co10  1  0.598352  0.399108  0.497234  1
  Co  Co11  1  0.599893  0.099893  0.199786  1
  Co  Co12  1  0.899234  0.399234  0.798467  1
  Co  Co13  1  0.102106  0.899256  0.500442  1
  Co  Co14  1  0.398337  0.601186  0.500442  1
  Si  Si15  1  0.291592  0.291592  0.583185  1
  Si  Si16  1  0.708089  0.708089  0.416178  1
  Si  Si17  1  0.283313  0.696948  0.004906  1
  Si  Si18  1  0.721592  0.307958  0.004906  1
  Si  Si19  1  0.073558  0.477063  0.588163  1
  Si  Si20  1  0.903238  0.498028  0.406461  1
  Si  Si21  1  0.503224  0.908434  0.406461  1
  Si  Si22  1  0.514605  0.111100  0.588163  1
  Si  Si23  1  0.249548  0.249235  0.000418  1
  Si  Si24  1  0.750869  0.751182  0.000418  1
  Si  Si25  1  0.298086  0.001476  0.296215  1
  Si  Si26  1  0.715918  0.006685  0.702750  1
  Si  Si27  1  0.986832  0.696065  0.702750  1
  Si  Si28  1  0.998130  0.294739  0.296215  1
  Rh  Rh29  1  0.398246  0.898246  0.796491  1
