# generated using pymatgen
data_Tm20Cd3Hg3IrRu
_symmetry_space_group_name_H-M   'P 1'
_cell_length_a   9.49788500
_cell_length_b   9.49788638
_cell_length_c   9.62345200
_cell_angle_alpha   90.00000000
_cell_angle_beta   90.00000000
_cell_angle_gamma   119.99999867
_symmetry_Int_Tables_number   1
_chemical_formula_structural   Tm20Cd3Hg3IrRu
_chemical_formula_sum   'Tm20 Cd3 Hg3 Ir1 Ru1'
_cell_volume   751.82263868
_cell_formula_units_Z   1
loop_
 _symmetry_equiv_pos_site_id
 _symmetry_equiv_pos_as_xyz
  1  'x, y, z'
loop_
 _atom_site_type_symbol
 _atom_site_label
 _atom_site_symmetry_multiplicity
 _atom_site_fract_x
 _atom_site_fract_y
 _atom_site_fract_z
 _atom_site_occupancy
  Tm  Tm0  1  0.000000  0.000000  0.489683  1
  Tm  Tm1  1  0.000000  0.000000  0.010317  1
  Tm  Tm2  1  0.209436  0.790564  0.439537  1
  Tm  Tm3  1  0.209436  0.418874  0.439537  1
  Tm  Tm4  1  0.581126  0.790564  0.439537  1
  Tm  Tm5  1  0.791090  0.208910  0.558892  1
  Tm  Tm6  1  0.791090  0.582179  0.558892  1
  Tm  Tm7  1  0.417821  0.208910  0.558892  1
  Tm  Tm8  1  0.791090  0.208910  0.941108  1
  Tm  Tm9  1  0.791090  0.582179  0.941108  1
  Tm  Tm10  1  0.417821  0.208910  0.941108  1
  Tm  Tm11  1  0.209436  0.790564  0.060463  1
  Tm  Tm12  1  0.209436  0.418874  0.060463  1
  Tm  Tm13  1  0.581126  0.790564  0.060463  1
  Tm  Tm14  1  0.540878  0.459122  0.250000  1
  Tm  Tm15  1  0.540878  0.081757  0.250000  1
  Tm  Tm16  1  0.918243  0.459122  0.250000  1
  Tm  Tm17  1  0.458756  0.541244  0.750000  1
  Tm  Tm18  1  0.458756  0.917512  0.750000  1
  Tm  Tm19  1  0.082488  0.541244  0.750000  1
  Cd  Cd20  1  0.112717  0.887283  0.750000  1
  Cd  Cd21  1  0.112717  0.225433  0.750000  1
  Cd  Cd22  1  0.774567  0.887283  0.750000  1
  Hg  Hg23  1  0.878825  0.121175  0.250000  1
  Hg  Hg24  1  0.878825  0.757651  0.250000  1
  Hg  Hg25  1  0.242349  0.121175  0.250000  1
  Ir  Ir26  1  0.666667  0.333333  0.750000  1
  Ru  Ru27  1  0.333333  0.666667  0.250000  1
