# generated using pymatgen
data_Yb6Th2Pd24Pb
_symmetry_space_group_name_H-M   'P 1'
_cell_length_a   8.42934822
_cell_length_b   8.42934822
_cell_length_c   8.42934822
_cell_angle_alpha   89.88007592
_cell_angle_beta   89.88007592
_cell_angle_gamma   89.88007592
_symmetry_Int_Tables_number   1
_chemical_formula_structural   Yb6Th2Pd24Pb
_chemical_formula_sum   'Yb6 Th2 Pd24 Pb1'
_cell_volume   598.93423185
_cell_formula_units_Z   1
loop_
 _symmetry_equiv_pos_site_id
 _symmetry_equiv_pos_as_xyz
  1  'x, y, z'
loop_
 _atom_site_type_symbol
 _atom_site_label
 _atom_site_symmetry_multiplicity
 _atom_site_fract_x
 _atom_site_fract_y
 _atom_site_fract_z
 _atom_site_occupancy
  Yb  Yb0  1  0.748839  0.748839  0.251921  1
  Yb  Yb1  1  0.748839  0.251921  0.748839  1
  Yb  Yb2  1  0.251161  0.251161  0.748079  1
  Yb  Yb3  1  0.251161  0.748079  0.251161  1
  Yb  Yb4  1  0.251921  0.748839  0.748839  1
  Yb  Yb5  1  0.748079  0.251161  0.251161  1
  Th  Th6  1  0.256794  0.256794  0.256794  1
  Th  Th7  1  0.743206  0.743206  0.743206  1
  Pd  Pd8  1  0.268362  0.500358  0.998676  1
  Pd  Pd9  1  0.731638  0.499642  0.001324  1
  Pd  Pd10  1  0.998676  0.268362  0.500358  1
  Pd  Pd11  1  0.500358  0.268362  0.998676  1
  Pd  Pd12  1  0.001324  0.731638  0.499642  1
  Pd  Pd13  1  0.499642  0.731638  0.001324  1
  Pd  Pd14  1  0.500358  0.998676  0.268362  1
  Pd  Pd15  1  0.268362  0.998676  0.500358  1
  Pd  Pd16  1  0.499642  0.001324  0.731638  1
  Pd  Pd17  1  0.731638  0.001324  0.499642  1
  Pd  Pd18  1  0.998676  0.500358  0.268362  1
  Pd  Pd19  1  0.001324  0.499642  0.731638  1
  Pd  Pd20  1  0.255662  0.501667  0.501667  1
  Pd  Pd21  1  0.744338  0.498333  0.498333  1
  Pd  Pd22  1  0.501667  0.255662  0.501667  1
  Pd  Pd23  1  0.498333  0.744338  0.498333  1
  Pd  Pd24  1  0.501667  0.501667  0.255662  1
  Pd  Pd25  1  0.498333  0.498333  0.744338  1
  Pd  Pd26  1  0.319463  0.999344  0.999344  1
  Pd  Pd27  1  0.680537  0.000656  0.000656  1
  Pd  Pd28  1  0.999344  0.319463  0.999344  1
  Pd  Pd29  1  0.000656  0.680537  0.000656  1
  Pd  Pd30  1  0.999344  0.999344  0.319463  1
  Pd  Pd31  1  0.000656  0.000656  0.680537  1
  Pb  Pb32  1  0.000000  0.000000  0.000000  1
