# generated using pymatgen
data_CeNd2(BN2)2
_symmetry_space_group_name_H-M   'P 1'
_cell_length_a   6.44406508
_cell_length_b   6.44406558
_cell_length_c   6.44406582
_cell_angle_alpha   147.91005766
_cell_angle_beta   121.70975780
_cell_angle_gamma   68.10963393
_symmetry_Int_Tables_number   1
_chemical_formula_structural   CeNd2(BN2)2
_chemical_formula_sum   'Ce1 Nd2 B2 N4'
_cell_volume   119.37361705
_cell_formula_units_Z   1
loop_
 _symmetry_equiv_pos_site_id
 _symmetry_equiv_pos_as_xyz
  1  'x, y, z'
loop_
 _atom_site_type_symbol
 _atom_site_label
 _atom_site_symmetry_multiplicity
 _atom_site_fract_x
 _atom_site_fract_y
 _atom_site_fract_z
 _atom_site_occupancy
  Ce  Ce0  1  0.297847  0.797847  0.500000  1
  Nd  Nd1  1  0.698786  0.198786  0.500000  1
  Nd  Nd2  1  0.000180  0.000180  0.000000  1
  B  B3  1  0.359239  0.501539  0.857699  1
  B  B4  1  0.643840  0.501539  0.142301  1
  N  N5  1  0.359772  0.621267  0.738504  1
  N  N6  1  0.882762  0.621267  0.261496  1
  N  N7  1  0.128589  0.378787  0.749801  1
  N  N8  1  0.628986  0.378787  0.250199  1
