# generated using pymatgen
data_RbIn9CoRh
_symmetry_space_group_name_H-M   'P 1'
_cell_length_a   8.96173400
_cell_length_b   8.96173510
_cell_length_c   4.25833900
_cell_angle_alpha   90.00000000
_cell_angle_beta   90.00000000
_cell_angle_gamma   120.00000332
_symmetry_Int_Tables_number   1
_chemical_formula_structural   RbIn9CoRh
_chemical_formula_sum   'Rb1 In9 Co1 Rh1'
_cell_volume   296.17950355
_cell_formula_units_Z   1
loop_
 _symmetry_equiv_pos_site_id
 _symmetry_equiv_pos_as_xyz
  1  'x, y, z'
loop_
 _atom_site_type_symbol
 _atom_site_label
 _atom_site_symmetry_multiplicity
 _atom_site_fract_x
 _atom_site_fract_y
 _atom_site_fract_z
 _atom_site_occupancy
  Rb  Rb0  1  0.000000  0.000000  0.000000  1
  In  In1  1  0.793212  0.586423  0.500000  1
  In  In2  1  0.496162  0.503838  0.000000  1
  In  In3  1  0.496162  0.992323  0.000000  1
  In  In4  1  0.413577  0.206788  0.500000  1
  In  In5  1  0.209055  0.418111  0.500000  1
  In  In6  1  0.209055  0.790945  0.500000  1
  In  In7  1  0.581889  0.790945  0.500000  1
  In  In8  1  0.007677  0.503838  0.000000  1
  In  In9  1  0.793212  0.206788  0.500000  1
  Co  Co10  1  0.333333  0.666667  0.000000  1
  Rh  Rh11  1  0.666667  0.333333  0.000000  1
