# generated using pymatgen
data_CsBiTeO6
_symmetry_space_group_name_H-M   'P 1'
_cell_length_a   7.54057285
_cell_length_b   7.54057318
_cell_length_c   7.54057315
_cell_angle_alpha   120.43935191
_cell_angle_beta   119.49720579
_cell_angle_gamma   90.05688268
_symmetry_Int_Tables_number   1
_chemical_formula_structural   CsBiTeO6
_chemical_formula_sum   'Cs2 Bi2 Te2 O12'
_cell_volume   303.29787310
_cell_formula_units_Z   2
loop_
 _symmetry_equiv_pos_site_id
 _symmetry_equiv_pos_as_xyz
  1  'x, y, z'
loop_
 _atom_site_type_symbol
 _atom_site_label
 _atom_site_symmetry_multiplicity
 _atom_site_fract_x
 _atom_site_fract_y
 _atom_site_fract_z
 _atom_site_occupancy
  Cs  Cs0  1  0.631468  0.881468  0.750000  1
  Cs  Cs1  1  0.368532  0.118532  0.250000  1
  Bi  Bi2  1  0.500000  0.500000  0.000000  1
  Bi  Bi3  1  0.000000  0.500000  0.500000  1
  Te  Te4  1  0.000000  0.500000  0.000000  1
  Te  Te5  1  0.000000  0.000000  0.500000  1
  O  O6  1  0.058254  0.808254  0.250000  1
  O  O7  1  0.660968  0.410968  0.250000  1
  O  O8  1  0.063452  0.842066  0.650838  1
  O  O9  1  0.691228  0.412615  0.849162  1
  O  O10  1  0.691228  0.842066  0.278615  1
  O  O11  1  0.063452  0.412615  0.221385  1
  O  O12  1  0.941746  0.191746  0.750000  1
  O  O13  1  0.339032  0.589032  0.750000  1
  O  O14  1  0.936548  0.157934  0.349162  1
  O  O15  1  0.308772  0.587385  0.150838  1
  O  O16  1  0.308772  0.157934  0.721385  1
  O  O17  1  0.936548  0.587385  0.778615  1
