# generated using pymatgen
data_SrPt3RhPbO8
_symmetry_space_group_name_H-M   'P 1'
_cell_length_a   5.70006082
_cell_length_b   6.21923286
_cell_length_c   6.76623607
_cell_angle_alpha   116.38737018
_cell_angle_beta   95.91094930
_cell_angle_gamma   109.93046523
_symmetry_Int_Tables_number   1
_chemical_formula_structural   SrPt3RhPbO8
_chemical_formula_sum   'Sr1 Pt3 Rh1 Pb1 O8'
_cell_volume   192.55901860
_cell_formula_units_Z   1
loop_
 _symmetry_equiv_pos_site_id
 _symmetry_equiv_pos_as_xyz
  1  'x, y, z'
loop_
 _atom_site_type_symbol
 _atom_site_label
 _atom_site_symmetry_multiplicity
 _atom_site_fract_x
 _atom_site_fract_y
 _atom_site_fract_z
 _atom_site_occupancy
  Sr  Sr0  1  0.871502  0.245565  0.136692  1
  Pt  Pt1  1  0.999242  0.001091  0.503367  1
  Pt  Pt2  1  0.498630  0.503776  0.001775  1
  Pt  Pt3  1  0.497967  0.000179  0.499935  1
  Rh  Rh4  1  0.500038  0.498983  0.500034  1
  Pb  Pb5  1  0.140370  0.743402  0.844245  1
  O  O6  1  0.528491  0.868487  0.725359  1
  O  O7  1  0.474057  0.133317  0.278962  1
  O  O8  1  0.841904  0.824510  0.158464  1
  O  O9  1  0.152184  0.177453  0.845806  1
  O  O10  1  0.867144  0.653419  0.488961  1
  O  O11  1  0.135406  0.349273  0.515133  1
  O  O12  1  0.358304  0.600511  0.274881  1
  O  O13  1  0.634761  0.400034  0.726384  1
