# generated using pymatgen
data_Nd3CuPd5
_symmetry_space_group_name_H-M   'P 1'
_cell_length_a   7.31076400
_cell_length_b   7.31076543
_cell_length_c   3.99554300
_cell_angle_alpha   90.00000000
_cell_angle_beta   90.00000000
_cell_angle_gamma   119.99999352
_symmetry_Int_Tables_number   1
_chemical_formula_structural   Nd3CuPd5
_chemical_formula_sum   'Nd3 Cu1 Pd5'
_cell_volume   184.94052379
_cell_formula_units_Z   1
loop_
 _symmetry_equiv_pos_site_id
 _symmetry_equiv_pos_as_xyz
  1  'x, y, z'
loop_
 _atom_site_type_symbol
 _atom_site_label
 _atom_site_symmetry_multiplicity
 _atom_site_fract_x
 _atom_site_fract_y
 _atom_site_fract_z
 _atom_site_occupancy
  Nd  Nd0  1  0.400340  0.400340  0.000000  1
  Nd  Nd1  1  0.599660  0.000000  0.000000  1
  Nd  Nd2  1  0.000000  0.599660  0.000000  1
  Cu  Cu3  1  0.000000  0.000000  0.000000  1
  Pd  Pd4  1  0.767744  0.767744  0.500000  1
  Pd  Pd5  1  0.232256  0.000000  0.500000  1
  Pd  Pd6  1  0.000000  0.232256  0.500000  1
  Pd  Pd7  1  0.666667  0.333333  0.500000  1
  Pd  Pd8  1  0.333333  0.666667  0.500000  1
