# generated using pymatgen
data_NpHBrCl
_symmetry_space_group_name_H-M   'P 1'
_cell_length_a   3.91907300
_cell_length_b   3.91907344
_cell_length_c   14.24593600
_cell_angle_alpha   90.00000000
_cell_angle_beta   90.00000000
_cell_angle_gamma   120.00000470
_symmetry_Int_Tables_number   1
_chemical_formula_structural   NpHBrCl
_chemical_formula_sum   'Np2 H2 Br2 Cl2'
_cell_volume   189.49089861
_cell_formula_units_Z   2
loop_
 _symmetry_equiv_pos_site_id
 _symmetry_equiv_pos_as_xyz
  1  'x, y, z'
loop_
 _atom_site_type_symbol
 _atom_site_label
 _atom_site_symmetry_multiplicity
 _atom_site_fract_x
 _atom_site_fract_y
 _atom_site_fract_z
 _atom_site_occupancy
  Np  Np0  1  0.000000  0.000000  0.244940  1
  Np  Np1  1  0.000000  0.000000  0.755060  1
  H  H2  1  0.333333  0.666667  0.750653  1
  H  H3  1  0.666667  0.333333  0.249347  1
  Br  Br4  1  0.666667  0.333333  0.616283  1
  Br  Br5  1  0.333333  0.666667  0.383717  1
  Cl  Cl6  1  0.333333  0.666667  0.121704  1
  Cl  Cl7  1  0.666667  0.333333  0.878296  1
