# generated using pymatgen
data_Yb4Tl2N
_symmetry_space_group_name_H-M   'P 1'
_cell_length_a   4.89388257
_cell_length_b   4.89388278
_cell_length_c   14.73828700
_cell_angle_alpha   99.55685652
_cell_angle_beta   99.55685694
_cell_angle_gamma   89.99999940
_symmetry_Int_Tables_number   1
_chemical_formula_structural   Yb4Tl2N
_chemical_formula_sum   'Yb8 Tl4 N2'
_cell_volume   343.11545225
_cell_formula_units_Z   2
loop_
 _symmetry_equiv_pos_site_id
 _symmetry_equiv_pos_as_xyz
  1  'x, y, z'
loop_
 _atom_site_type_symbol
 _atom_site_label
 _atom_site_symmetry_multiplicity
 _atom_site_fract_x
 _atom_site_fract_y
 _atom_site_fract_z
 _atom_site_occupancy
  Yb  Yb0  1  0.043510  0.793510  0.087020  1
  Yb  Yb1  1  0.124852  0.374852  0.249704  1
  Yb  Yb2  1  0.625149  0.875149  0.250296  1
  Yb  Yb3  1  0.206490  0.956490  0.412980  1
  Yb  Yb4  1  0.793509  0.043509  0.587020  1
  Yb  Yb5  1  0.374852  0.124852  0.749704  1
  Yb  Yb6  1  0.875148  0.625148  0.750296  1
  Yb  Yb7  1  0.956491  0.206491  0.912980  1
  Tl  Tl8  1  0.538886  0.288886  0.077769  1
  Tl  Tl9  1  0.711114  0.461114  0.422231  1
  Tl  Tl10  1  0.288885  0.538885  0.577769  1
  Tl  Tl11  1  0.461115  0.711115  0.922231  1
  N  N12  1  0.125000  0.875000  0.250000  1
  N  N13  1  0.875000  0.125000  0.750000  1
