# generated using pymatgen
data_Rb2Ca(Hf2Se5)2
_symmetry_space_group_name_H-M   'P 1'
_cell_length_a   6.75326507
_cell_length_b   11.44542125
_cell_length_c   9.15441300
_cell_angle_alpha   59.41487269
_cell_angle_beta   68.47211186
_cell_angle_gamma   90.11275330
_symmetry_Int_Tables_number   1
_chemical_formula_structural   Rb2Ca(Hf2Se5)2
_chemical_formula_sum   'Rb2 Ca1 Hf4 Se10'
_cell_volume   550.69171470
_cell_formula_units_Z   1
loop_
 _symmetry_equiv_pos_site_id
 _symmetry_equiv_pos_as_xyz
  1  'x, y, z'
loop_
 _atom_site_type_symbol
 _atom_site_label
 _atom_site_symmetry_multiplicity
 _atom_site_fract_x
 _atom_site_fract_y
 _atom_site_fract_z
 _atom_site_occupancy
  Rb  Rb0  1  0.784976  0.075253  0.426904  1
  Rb  Rb1  1  0.007043  0.525340  0.981810  1
  Ca  Ca2  1  0.799454  0.600582  0.403352  1
  Hf  Hf3  1  0.399883  0.797477  0.200182  1
  Hf  Hf4  1  0.201819  0.402011  0.592795  1
  Hf  Hf5  1  0.601955  0.203826  0.801514  1
  Hf  Hf6  1  0.997870  0.995785  0.002013  1
  Se  Se7  1  0.013917  0.854561  0.331498  1
  Se  Se8  1  0.595017  0.034129  0.148373  1
  Se  Se9  1  0.196439  0.238975  0.943843  1
  Se  Se10  1  0.793044  0.418344  0.771626  1
  Se  Se11  1  0.363818  0.637772  0.548089  1
  Se  Se12  1  0.400643  0.963054  0.856969  1
  Se  Se13  1  0.004225  0.165231  0.652202  1
  Se  Se14  1  0.591591  0.343113  0.467251  1
  Se  Se15  1  0.240708  0.561726  0.244583  1
  Se  Se16  1  0.807603  0.782819  0.026995  1
