# generated using pymatgen
data_Y4Mg4Ir3Pd
_symmetry_space_group_name_H-M   'P 1'
_cell_length_a   4.15811500
_cell_length_b   7.11687828
_cell_length_c   8.55578068
_cell_angle_alpha   90.98703242
_cell_angle_beta   90.00000000
_cell_angle_gamma   90.00000000
_symmetry_Int_Tables_number   1
_chemical_formula_structural   Y4Mg4Ir3Pd
_chemical_formula_sum   'Y4 Mg4 Ir3 Pd1'
_cell_volume   253.15192372
_cell_formula_units_Z   1
loop_
 _symmetry_equiv_pos_site_id
 _symmetry_equiv_pos_as_xyz
  1  'x, y, z'
loop_
 _atom_site_type_symbol
 _atom_site_label
 _atom_site_symmetry_multiplicity
 _atom_site_fract_x
 _atom_site_fract_y
 _atom_site_fract_z
 _atom_site_occupancy
  Y  Y0  1  0.750000  0.469599  0.167462  1
  Y  Y1  1  0.750000  0.947129  0.322001  1
  Y  Y2  1  0.250000  0.539532  0.822863  1
  Y  Y3  1  0.250000  0.033662  0.683791  1
  Mg  Mg4  1  0.750000  0.865303  0.938943  1
  Mg  Mg5  1  0.750000  0.364687  0.563657  1
  Mg  Mg6  1  0.250000  0.136660  0.060044  1
  Mg  Mg7  1  0.250000  0.636629  0.438889  1
  Ir  Ir8  1  0.750000  0.250757  0.873997  1
  Ir  Ir9  1  0.750000  0.749583  0.623707  1
  Ir  Ir10  1  0.250000  0.753994  0.128304  1
  Pd  Pd11  1  0.250000  0.252464  0.376343  1
