# generated using pymatgen
data_Er4NiMoRu6
_symmetry_space_group_name_H-M   'P 1'
_cell_length_a   5.39290755
_cell_length_b   5.10757264
_cell_length_c   8.92698700
_cell_angle_alpha   90.00000000
_cell_angle_beta   90.00000000
_cell_angle_gamma   120.28096234
_symmetry_Int_Tables_number   1
_chemical_formula_structural   Er4NiMoRu6
_chemical_formula_sum   'Er4 Ni1 Mo1 Ru6'
_cell_volume   212.34230506
_cell_formula_units_Z   1
loop_
 _symmetry_equiv_pos_site_id
 _symmetry_equiv_pos_as_xyz
  1  'x, y, z'
loop_
 _atom_site_type_symbol
 _atom_site_label
 _atom_site_symmetry_multiplicity
 _atom_site_fract_x
 _atom_site_fract_y
 _atom_site_fract_z
 _atom_site_occupancy
  Er  Er0  1  0.330553  0.667755  0.431034  1
  Er  Er1  1  0.673151  0.345271  0.560753  1
  Er  Er2  1  0.673151  0.345271  0.939247  1
  Er  Er3  1  0.330553  0.667755  0.068966  1
  Ni  Ni4  1  0.331435  0.163408  0.250000  1
  Mo  Mo5  1  0.160014  0.318666  0.750000  1
  Ru  Ru6  1  0.173741  0.819211  0.750000  1
  Ru  Ru7  1  0.828836  0.650248  0.250000  1
  Ru  Ru8  1  0.653362  0.825381  0.750000  1
  Ru  Ru9  1  0.005624  0.014865  0.003522  1
  Ru  Ru10  1  0.833955  0.167305  0.250000  1
  Ru  Ru11  1  0.005624  0.014865  0.496478  1
