# generated using pymatgen
data_Sc8Mn10VSi16Mo
_symmetry_space_group_name_H-M   'P 1'
_cell_length_a   6.43851246
_cell_length_b   6.48547415
_cell_length_c   12.13861231
_cell_angle_alpha   90.02881004
_cell_angle_beta   90.01845010
_cell_angle_gamma   90.05906883
_symmetry_Int_Tables_number   1
_chemical_formula_structural   Sc8Mn10VSi16Mo
_chemical_formula_sum   'Sc8 Mn10 V1 Si16 Mo1'
_cell_volume   506.86932063
_cell_formula_units_Z   1
loop_
 _symmetry_equiv_pos_site_id
 _symmetry_equiv_pos_as_xyz
  1  'x, y, z'
loop_
 _atom_site_type_symbol
 _atom_site_label
 _atom_site_symmetry_multiplicity
 _atom_site_fract_x
 _atom_site_fract_y
 _atom_site_fract_z
 _atom_site_occupancy
  Sc  Sc0  1  0.493851  0.333930  0.094688  1
  Sc  Sc1  1  0.996349  0.163950  0.403407  1
  Sc  Sc2  1  0.509240  0.664183  0.595566  1
  Sc  Sc3  1  0.005455  0.831292  0.910707  1
  Sc  Sc4  1  0.508244  0.667255  0.911402  1
  Sc  Sc5  1  0.008359  0.836987  0.595395  1
  Sc  Sc6  1  0.494424  0.336711  0.402909  1
  Sc  Sc7  1  0.993084  0.166539  0.094150  1
  Mn  Mn8  1  0.327487  0.151053  0.880373  1
  Mn  Mn9  1  0.169767  0.656462  0.117635  1
  Mn  Mn10  1  0.672284  0.837351  0.375240  1
  Mn  Mn11  1  0.167568  0.662585  0.375127  1
  Mn  Mn12  1  0.667020  0.844654  0.117491  1
  Mn  Mn13  1  0.827778  0.349628  0.882434  1
  Mn  Mn14  1  0.673842  0.990421  0.751721  1
  Mn  Mn15  1  0.172355  0.509161  0.751625  1
  Mn  Mn16  1  0.324955  0.009730  0.247105  1
  Mn  Mn17  1  0.824734  0.490885  0.248077  1
  V  V18  1  0.833581  0.334608  0.624262  1
  Si  Si19  1  0.666537  0.037908  0.541742  1
  Si  Si20  1  0.161925  0.448927  0.950156  1
  Si  Si21  1  0.337155  0.952100  0.049891  1
  Si  Si22  1  0.837853  0.548271  0.449354  1
  Si  Si23  1  0.341899  0.947617  0.446168  1
  Si  Si24  1  0.838265  0.549233  0.051189  1
  Si  Si25  1  0.661506  0.051939  0.949717  1
  Si  Si26  1  0.160431  0.465507  0.542292  1
  Si  Si27  1  0.535353  0.358501  0.759687  1
  Si  Si28  1  0.028413  0.141449  0.760359  1
  Si  Si29  1  0.464460  0.649900  0.247239  1
  Si  Si30  1  0.964841  0.851199  0.246276  1
  Si  Si31  1  0.808638  0.632955  0.752147  1
  Si  Si32  1  0.308242  0.862255  0.754060  1
  Si  Si33  1  0.191562  0.376085  0.248471  1
  Si  Si34  1  0.692333  0.124588  0.248623  1
  Mo  Mo35  1  0.330215  0.164181  0.623316  1
