# generated using pymatgen
data_Y5Ti3(As3Rh4)4
_symmetry_space_group_name_H-M   'P 1'
_cell_length_a   13.22920500
_cell_length_b   13.22920609
_cell_length_c   3.98736000
_cell_angle_alpha   90.00000000
_cell_angle_beta   90.00000000
_cell_angle_gamma   120.00000476
_symmetry_Int_Tables_number   1
_chemical_formula_structural   Y5Ti3(As3Rh4)4
_chemical_formula_sum   'Y5 Ti3 As12 Rh16'
_cell_volume   604.34312691
_cell_formula_units_Z   1
loop_
 _symmetry_equiv_pos_site_id
 _symmetry_equiv_pos_as_xyz
  1  'x, y, z'
loop_
 _atom_site_type_symbol
 _atom_site_label
 _atom_site_symmetry_multiplicity
 _atom_site_fract_x
 _atom_site_fract_y
 _atom_site_fract_z
 _atom_site_occupancy
  Y  Y0  1  0.191407  0.191407  0.500000  1
  Y  Y1  1  0.808593  0.000000  0.500000  1
  Y  Y2  1  0.000000  0.808593  0.500000  1
  Y  Y3  1  0.333333  0.666667  0.000000  1
  Y  Y4  1  0.666667  0.333333  0.000000  1
  Ti  Ti5  1  0.557790  0.557790  0.000000  1
  Ti  Ti6  1  0.442210  0.000000  0.000000  1
  Ti  Ti7  1  0.000000  0.442210  0.000000  1
  As  As8  1  0.823699  0.823699  0.000000  1
  As  As9  1  0.176301  0.000000  0.000000  1
  As  As10  1  0.000000  0.176301  0.000000  1
  As  As11  1  0.167105  0.485717  0.500000  1
  As  As12  1  0.514283  0.681389  0.500000  1
  As  As13  1  0.318611  0.832895  0.500000  1
  As  As14  1  0.681389  0.514283  0.500000  1
  As  As15  1  0.832895  0.318611  0.500000  1
  As  As16  1  0.485717  0.167105  0.500000  1
  As  As17  1  0.363627  0.363627  0.000000  1
  As  As18  1  0.636373  0.000000  0.000000  1
  As  As19  1  0.000000  0.636373  0.000000  1
  Rh  Rh20  1  0.715829  0.715829  0.500000  1
  Rh  Rh21  1  0.284171  0.000000  0.500000  1
  Rh  Rh22  1  0.000000  0.284171  0.500000  1
  Rh  Rh23  1  0.176396  0.374923  0.000000  1
  Rh  Rh24  1  0.625077  0.801472  0.000000  1
  Rh  Rh25  1  0.198528  0.823604  0.000000  1
  Rh  Rh26  1  0.801472  0.625077  0.000000  1
  Rh  Rh27  1  0.823604  0.198528  0.000000  1
  Rh  Rh28  1  0.374923  0.176396  0.000000  1
  Rh  Rh29  1  0.354176  0.482297  0.500000  1
  Rh  Rh30  1  0.517703  0.871878  0.500000  1
  Rh  Rh31  1  0.128122  0.645824  0.500000  1
  Rh  Rh32  1  0.871878  0.517703  0.500000  1
  Rh  Rh33  1  0.645824  0.128122  0.500000  1
  Rh  Rh34  1  0.482297  0.354176  0.500000  1
  Rh  Rh35  1  0.000000  0.000000  0.000000  1
