# generated using pymatgen
data_Y12Ho4Cd4Ir3Os
_symmetry_space_group_name_H-M   'P 1'
_cell_length_a   9.71206966
_cell_length_b   9.71207801
_cell_length_c   9.71208968
_cell_angle_alpha   59.32131970
_cell_angle_beta   59.32121335
_cell_angle_gamma   59.32159339
_symmetry_Int_Tables_number   1
_chemical_formula_structural   Y12Ho4Cd4Ir3Os
_chemical_formula_sum   'Y12 Ho4 Cd4 Ir3 Os1'
_cell_volume   637.76290250
_cell_formula_units_Z   1
loop_
 _symmetry_equiv_pos_site_id
 _symmetry_equiv_pos_as_xyz
  1  'x, y, z'
loop_
 _atom_site_type_symbol
 _atom_site_label
 _atom_site_symmetry_multiplicity
 _atom_site_fract_x
 _atom_site_fract_y
 _atom_site_fract_z
 _atom_site_occupancy
  Y  Y0  1  0.812491  0.188886  0.188887  1
  Y  Y1  1  0.187387  0.808823  0.808825  1
  Y  Y2  1  0.188883  0.812490  0.188887  1
  Y  Y3  1  0.808824  0.187384  0.808830  1
  Y  Y4  1  0.188885  0.188892  0.812498  1
  Y  Y5  1  0.808823  0.808825  0.187381  1
  Y  Y6  1  0.939101  0.560794  0.560790  1
  Y  Y7  1  0.557170  0.939139  0.939134  1
  Y  Y8  1  0.560789  0.939106  0.560791  1
  Y  Y9  1  0.939136  0.557184  0.939128  1
  Y  Y10  1  0.560789  0.560791  0.939104  1
  Y  Y11  1  0.939138  0.939137  0.557178  1
  Ho  Ho12  1  0.349543  0.349549  0.349548  1
  Ho  Ho13  1  0.348186  0.348189  0.959728  1
  Ho  Ho14  1  0.348195  0.959725  0.348191  1
  Ho  Ho15  1  0.959732  0.348192  0.348185  1
  Cd  Cd16  1  0.578973  0.578961  0.578958  1
  Cd  Cd17  1  0.579935  0.579918  0.256604  1
  Cd  Cd18  1  0.579930  0.256597  0.579915  1
  Cd  Cd19  1  0.256603  0.579925  0.579931  1
  Ir  Ir20  1  0.144573  0.144567  0.575692  1
  Ir  Ir21  1  0.144571  0.575690  0.144570  1
  Ir  Ir22  1  0.575676  0.144576  0.144577  1
  Os  Os23  1  0.142668  0.142664  0.142668  1
