# generated using pymatgen
data_YbBiRh2F14
_symmetry_space_group_name_H-M   'P 1'
_cell_length_a   5.55813565
_cell_length_b   5.95318900
_cell_length_c   8.13985700
_cell_angle_alpha   100.98182286
_cell_angle_beta   89.68566277
_cell_angle_gamma   90.02340431
_symmetry_Int_Tables_number   1
_chemical_formula_structural   YbBiRh2F14
_chemical_formula_sum   'Yb1 Bi1 Rh2 F14'
_cell_volume   264.40051445
_cell_formula_units_Z   1
loop_
 _symmetry_equiv_pos_site_id
 _symmetry_equiv_pos_as_xyz
  1  'x, y, z'
loop_
 _atom_site_type_symbol
 _atom_site_label
 _atom_site_symmetry_multiplicity
 _atom_site_fract_x
 _atom_site_fract_y
 _atom_site_fract_z
 _atom_site_occupancy
  Yb  Yb0  1  0.200950  0.336056  0.311007  1
  Bi  Bi1  1  0.694699  0.646564  0.667405  1
  Rh  Rh2  1  0.713893  0.811027  0.219164  1
  Rh  Rh3  1  0.213050  0.192596  0.782102  1
  F  F4  1  0.865378  0.416298  0.466273  1
  F  F5  1  0.371029  0.560190  0.525633  1
  F  F6  1  0.396011  0.919554  0.785568  1
  F  F7  1  0.924937  0.062788  0.218683  1
  F  F8  1  0.923243  0.013946  0.773830  1
  F  F9  1  0.443086  0.016119  0.234668  1
  F  F10  1  0.029860  0.470372  0.792725  1
  F  F11  1  0.505931  0.552988  0.212704  1
  F  F12  1  0.704740  0.762484  0.981465  1
  F  F13  1  0.207439  0.246534  0.019929  1
  F  F14  1  0.726271  0.876622  0.464504  1
  F  F15  1  0.224966  0.133419  0.543302  1
  F  F16  1  0.515131  0.365953  0.793421  1
  F  F17  1  0.992103  0.616488  0.207619  1
