# generated using pymatgen
data_Hf5Co19(Si5P)2
_symmetry_space_group_name_H-M   'P 1'
_cell_length_a   11.95574668
_cell_length_b   11.95574741
_cell_length_c   3.61924300
_cell_angle_alpha   90.00000000
_cell_angle_beta   90.00000000
_cell_angle_gamma   120.12559406
_symmetry_Int_Tables_number   1
_chemical_formula_structural   Hf5Co19(Si5P)2
_chemical_formula_sum   'Hf5 Co19 Si10 P2'
_cell_volume   447.45646614
_cell_formula_units_Z   1
loop_
 _symmetry_equiv_pos_site_id
 _symmetry_equiv_pos_as_xyz
  1  'x, y, z'
loop_
 _atom_site_type_symbol
 _atom_site_label
 _atom_site_symmetry_multiplicity
 _atom_site_fract_x
 _atom_site_fract_y
 _atom_site_fract_z
 _atom_site_occupancy
  Hf  Hf0  1  0.667430  0.332895  0.000000  1
  Hf  Hf1  1  0.332895  0.667430  0.000000  1
  Hf  Hf2  1  0.183103  0.183103  0.500000  1
  Hf  Hf3  1  0.816689  0.999998  0.500000  1
  Hf  Hf4  1  0.999998  0.816689  0.500000  1
  Co  Co5  1  0.555544  0.555544  0.000000  1
  Co  Co6  1  0.445965  0.000966  0.000000  1
  Co  Co7  1  0.000966  0.445965  0.000000  1
  Co  Co8  1  0.824782  0.196429  0.000000  1
  Co  Co9  1  0.803241  0.624963  0.000000  1
  Co  Co10  1  0.371143  0.174936  0.000000  1
  Co  Co11  1  0.196429  0.824782  0.000000  1
  Co  Co12  1  0.624963  0.803241  0.000000  1
  Co  Co13  1  0.174936  0.371143  0.000000  1
  Co  Co14  1  0.647076  0.125985  0.500000  1
  Co  Co15  1  0.875071  0.520659  0.500000  1
  Co  Co16  1  0.478743  0.352255  0.500000  1
  Co  Co17  1  0.125985  0.647076  0.500000  1
  Co  Co18  1  0.520659  0.875071  0.500000  1
  Co  Co19  1  0.352255  0.478743  0.500000  1
  Co  Co20  1  0.719852  0.719852  0.500000  1
  Co  Co21  1  0.276093  0.999925  0.500000  1
  Co  Co22  1  0.999925  0.276093  0.500000  1
  Co  Co23  1  0.005190  0.005190  0.000000  1
  Si  Si24  1  0.363705  0.363705  0.000000  1
  Si  Si25  1  0.636887  0.000249  0.000000  1
  Si  Si26  1  0.000249  0.636887  0.000000  1
  Si  Si27  1  0.839136  0.320325  0.500000  1
  Si  Si28  1  0.679965  0.517431  0.500000  1
  Si  Si29  1  0.481709  0.161386  0.500000  1
  Si  Si30  1  0.320325  0.839136  0.500000  1
  Si  Si31  1  0.517431  0.679965  0.500000  1
  Si  Si32  1  0.161386  0.481709  0.500000  1
  Si  Si33  1  0.823180  0.823180  0.000000  1
  P  P34  1  0.177615  0.999480  0.000000  1
  P  P35  1  0.999480  0.177615  0.000000  1
