# generated using pymatgen
data_La3TbAu5
_symmetry_space_group_name_H-M   'P 1'
_cell_length_a   8.35055814
_cell_length_b   8.35055682
_cell_length_c   8.35055753
_cell_angle_alpha   65.59107677
_cell_angle_beta   65.59107869
_cell_angle_gamma   65.59105778
_symmetry_Int_Tables_number   1
_chemical_formula_structural   La3TbAu5
_chemical_formula_sum   'La6 Tb2 Au10'
_cell_volume   461.75455154
_cell_formula_units_Z   2
loop_
 _symmetry_equiv_pos_site_id
 _symmetry_equiv_pos_as_xyz
  1  'x, y, z'
loop_
 _atom_site_type_symbol
 _atom_site_label
 _atom_site_symmetry_multiplicity
 _atom_site_fract_x
 _atom_site_fract_y
 _atom_site_fract_z
 _atom_site_occupancy
  La  La0  1  0.892834  0.185259  0.621541  1
  La  La1  1  0.621541  0.892834  0.185259  1
  La  La2  1  0.185259  0.621541  0.892834  1
  La  La3  1  0.107166  0.814741  0.378459  1
  La  La4  1  0.378459  0.107166  0.814741  1
  La  La5  1  0.814741  0.378459  0.107166  1
  Tb  Tb6  1  0.657010  0.657010  0.657010  1
  Tb  Tb7  1  0.342990  0.342990  0.342990  1
  Au  Au8  1  0.000000  0.000000  0.000000  1
  Au  Au9  1  0.500000  0.500000  0.500000  1
  Au  Au10  1  0.804855  0.804855  0.804855  1
  Au  Au11  1  0.195145  0.195145  0.195145  1
  Au  Au12  1  0.941757  0.547933  0.319473  1
  Au  Au13  1  0.319473  0.941757  0.547933  1
  Au  Au14  1  0.547933  0.319473  0.941757  1
  Au  Au15  1  0.058243  0.452067  0.680527  1
  Au  Au16  1  0.680527  0.058243  0.452067  1
  Au  Au17  1  0.452067  0.680527  0.058243  1
