# generated using pymatgen
data_Ac7Pr5(Si7Br3)2
_symmetry_space_group_name_H-M   'P 1'
_cell_length_a   4.21064900
_cell_length_b   12.18942704
_cell_length_c   17.08752485
_cell_angle_alpha   89.48801070
_cell_angle_beta   90.00000000
_cell_angle_gamma   90.00000000
_symmetry_Int_Tables_number   1
_chemical_formula_structural   Ac7Pr5(Si7Br3)2
_chemical_formula_sum   'Ac7 Pr5 Si14 Br6'
_cell_volume   876.98901194
_cell_formula_units_Z   1
loop_
 _symmetry_equiv_pos_site_id
 _symmetry_equiv_pos_as_xyz
  1  'x, y, z'
loop_
 _atom_site_type_symbol
 _atom_site_label
 _atom_site_symmetry_multiplicity
 _atom_site_fract_x
 _atom_site_fract_y
 _atom_site_fract_z
 _atom_site_occupancy
  Ac  Ac0  1  0.500000  0.339650  0.502249  1
  Ac  Ac1  1  0.000000  0.658555  0.995514  1
  Ac  Ac2  1  0.000000  0.640005  0.254475  1
  Ac  Ac3  1  0.500000  0.068567  0.877378  1
  Ac  Ac4  1  0.000000  0.930584  0.624479  1
  Ac  Ac5  1  0.500000  0.071777  0.121430  1
  Ac  Ac6  1  0.000000  0.932390  0.380202  1
  Pr  Pr7  1  0.500000  0.365460  0.758152  1
  Pr  Pr8  1  0.000000  0.632928  0.742201  1
  Pr  Pr9  1  0.500000  0.366383  0.240729  1
  Pr  Pr10  1  0.500000  0.360434  0.997439  1
  Pr  Pr11  1  0.000000  0.637959  0.502034  1
  Si  Si12  1  0.000000  0.164483  0.998742  1
  Si  Si13  1  0.500000  0.836581  0.502766  1
  Si  Si14  1  0.500000  0.561495  0.873284  1
  Si  Si15  1  0.000000  0.437476  0.625865  1
  Si  Si16  1  0.500000  0.558808  0.118937  1
  Si  Si17  1  0.000000  0.435518  0.377631  1
  Si  Si18  1  0.000000  0.261859  0.873618  1
  Si  Si19  1  0.500000  0.736581  0.626510  1
  Si  Si20  1  0.000000  0.262899  0.123927  1
  Si  Si21  1  0.500000  0.738088  0.379813  1
  Si  Si22  1  0.000000  0.458491  0.874477  1
  Si  Si23  1  0.500000  0.539976  0.625654  1
  Si  Si24  1  0.500000  0.539402  0.377220  1
  Si  Si25  1  0.000000  0.457383  0.121230  1
  Br  Br26  1  0.500000  0.115327  0.691302  1
  Br  Br27  1  0.000000  0.883931  0.810010  1
  Br  Br28  1  0.000000  0.133280  0.500924  1
  Br  Br29  1  0.500000  0.865794  0.001319  1
  Br  Br30  1  0.500000  0.115206  0.308419  1
  Br  Br31  1  0.000000  0.892730  0.192071  1
