# generated using pymatgen
data_Tb4SmMn2O12
_symmetry_space_group_name_H-M   'P 1'
_cell_length_a   6.87347710
_cell_length_b   6.87347655
_cell_length_c   7.31606700
_cell_angle_alpha   74.58595530
_cell_angle_beta   74.58595449
_cell_angle_gamma   49.80529074
_symmetry_Int_Tables_number   1
_chemical_formula_structural   Tb4SmMn2O12
_chemical_formula_sum   'Tb4 Sm1 Mn2 O12'
_cell_volume   252.43270214
_cell_formula_units_Z   1
loop_
 _symmetry_equiv_pos_site_id
 _symmetry_equiv_pos_as_xyz
  1  'x, y, z'
loop_
 _atom_site_type_symbol
 _atom_site_label
 _atom_site_symmetry_multiplicity
 _atom_site_fract_x
 _atom_site_fract_y
 _atom_site_fract_z
 _atom_site_occupancy
  Tb  Tb0  1  0.306014  0.306014  0.355906  1
  Tb  Tb1  1  0.693986  0.693986  0.644094  1
  Tb  Tb2  1  0.693277  0.693277  0.163445  1
  Tb  Tb3  1  0.306723  0.306723  0.836555  1
  Sm  Sm4  1  0.000000  0.000000  0.500000  1
  Mn  Mn5  1  0.754093  0.245907  0.000000  1
  Mn  Mn6  1  0.245907  0.754093  0.000000  1
  O  O7  1  0.096334  0.592904  0.577284  1
  O  O8  1  0.999474  0.999474  0.175440  1
  O  O9  1  0.407096  0.903666  0.422716  1
  O  O10  1  0.500187  0.500187  0.178757  1
  O  O11  1  0.099126  0.580080  0.079745  1
  O  O12  1  0.903666  0.407096  0.422716  1
  O  O13  1  0.000526  0.000526  0.824560  1
  O  O14  1  0.592904  0.096333  0.577284  1
  O  O15  1  0.499813  0.499813  0.821243  1
  O  O16  1  0.580080  0.099126  0.079745  1
  O  O17  1  0.419920  0.900874  0.920255  1
  O  O18  1  0.900874  0.419920  0.920255  1
