# generated using pymatgen
data_Ho6InCo2Sn11
_symmetry_space_group_name_H-M   'P 1'
_cell_length_a   8.43406177
_cell_length_b   8.43406263
_cell_length_c   13.10562574
_cell_angle_alpha   90.03670686
_cell_angle_beta   89.96329279
_cell_angle_gamma   148.65408480
_symmetry_Int_Tables_number   1
_chemical_formula_structural   Ho6InCo2Sn11
_chemical_formula_sum   'Ho6 In1 Co2 Sn11'
_cell_volume   484.95862544
_cell_formula_units_Z   1
loop_
 _symmetry_equiv_pos_site_id
 _symmetry_equiv_pos_as_xyz
  1  'x, y, z'
loop_
 _atom_site_type_symbol
 _atom_site_label
 _atom_site_symmetry_multiplicity
 _atom_site_fract_x
 _atom_site_fract_y
 _atom_site_fract_z
 _atom_site_occupancy
  Ho  Ho0  1  0.898718  0.101282  0.093926  1
  Ho  Ho1  1  0.100100  0.899900  0.593897  1
  Ho  Ho2  1  0.900863  0.099137  0.751512  1
  Ho  Ho3  1  0.101111  0.898889  0.906316  1
  Ho  Ho4  1  0.099726  0.900274  0.250493  1
  Ho  Ho5  1  0.900189  0.099811  0.404104  1
  In  In6  1  0.756339  0.243661  0.570584  1
  Co  Co7  1  0.299849  0.700151  0.249360  1
  Co  Co8  1  0.700414  0.299586  0.752050  1
  Sn  Sn9  1  0.425395  0.574605  0.575405  1
  Sn  Sn10  1  0.571970  0.428030  0.424883  1
  Sn  Sn11  1  0.734575  0.265425  0.251464  1
  Sn  Sn12  1  0.264990  0.735010  0.747076  1
  Sn  Sn13  1  0.244147  0.755853  0.071389  1
  Sn  Sn14  1  0.245247  0.754753  0.429380  1
  Sn  Sn15  1  0.572519  0.427481  0.075666  1
  Sn  Sn16  1  0.454174  0.545826  0.249800  1
  Sn  Sn17  1  0.546112  0.453888  0.749423  1
  Sn  Sn18  1  0.756048  0.243952  0.929126  1
  Sn  Sn19  1  0.427514  0.572486  0.924145  1
