# generated using pymatgen
data_YbTa5(B2Ru5)2
_symmetry_space_group_name_H-M   'P 1'
_cell_length_a   9.50241533
_cell_length_b   9.50241533
_cell_length_c   3.04571600
_cell_angle_alpha   90.00000000
_cell_angle_beta   90.00000000
_cell_angle_gamma   90.37294358
_symmetry_Int_Tables_number   1
_chemical_formula_structural   YbTa5(B2Ru5)2
_chemical_formula_sum   'Yb1 Ta5 B4 Ru10'
_cell_volume   275.00983231
_cell_formula_units_Z   1
loop_
 _symmetry_equiv_pos_site_id
 _symmetry_equiv_pos_as_xyz
  1  'x, y, z'
loop_
 _atom_site_type_symbol
 _atom_site_label
 _atom_site_symmetry_multiplicity
 _atom_site_fract_x
 _atom_site_fract_y
 _atom_site_fract_z
 _atom_site_occupancy
  Yb  Yb0  1  0.824674  0.675326  0.000000  1
  Ta  Ta1  1  0.176981  0.323019  0.000000  1
  Ta  Ta2  1  0.325395  0.822636  0.000000  1
  Ta  Ta3  1  0.677364  0.174605  0.000000  1
  Ta  Ta4  1  0.503367  0.501120  0.000000  1
  Ta  Ta5  1  0.998880  0.996633  0.000000  1
  B  B6  1  0.619874  0.880126  0.000000  1
  B  B7  1  0.377097  0.122903  0.000000  1
  B  B8  1  0.123170  0.619420  0.000000  1
  B  B9  1  0.880580  0.376830  0.000000  1
  Ru  Ru10  1  0.555783  0.725722  0.500000  1
  Ru  Ru11  1  0.425064  0.284206  0.500000  1
  Ru  Ru12  1  0.084825  0.783306  0.500000  1
  Ru  Ru13  1  0.930328  0.215057  0.500000  1
  Ru  Ru14  1  0.284943  0.569672  0.500000  1
  Ru  Ru15  1  0.716694  0.415175  0.500000  1
  Ru  Ru16  1  0.215794  0.074936  0.500000  1
  Ru  Ru17  1  0.774278  0.944217  0.500000  1
  Ru  Ru18  1  0.495059  0.004941  0.500000  1
  Ru  Ru19  1  0.009849  0.490151  0.500000  1
