# generated using pymatgen
data_Sr6HoFe(BO3)6
_symmetry_space_group_name_H-M   'P 1'
_cell_length_a   7.76599299
_cell_length_b   7.76599345
_cell_length_c   7.76599323
_cell_angle_alpha   105.26743513
_cell_angle_beta   105.26743498
_cell_angle_gamma   105.26743160
_symmetry_Int_Tables_number   1
_chemical_formula_structural   Sr6HoFe(BO3)6
_chemical_formula_sum   'Sr6 Ho1 Fe1 B6 O18'
_cell_volume   407.09656404
_cell_formula_units_Z   1
loop_
 _symmetry_equiv_pos_site_id
 _symmetry_equiv_pos_as_xyz
  1  'x, y, z'
loop_
 _atom_site_type_symbol
 _atom_site_label
 _atom_site_symmetry_multiplicity
 _atom_site_fract_x
 _atom_site_fract_y
 _atom_site_fract_z
 _atom_site_occupancy
  Sr  Sr0  1  0.648401  0.265707  0.162870  1
  Sr  Sr1  1  0.162870  0.648401  0.265707  1
  Sr  Sr2  1  0.734292  0.837131  0.351599  1
  Sr  Sr3  1  0.265708  0.162869  0.648401  1
  Sr  Sr4  1  0.837131  0.351599  0.734293  1
  Sr  Sr5  1  0.351599  0.734293  0.837130  1
  Ho  Ho6  1  0.000000  0.000000  0.000000  1
  Fe  Fe7  1  0.500000  0.500000  0.500000  1
  B  B8  1  0.296055  0.377667  0.046151  1
  B  B9  1  0.377666  0.046151  0.296055  1
  B  B10  1  0.046151  0.296055  0.377666  1
  B  B11  1  0.953849  0.703946  0.622334  1
  B  B12  1  0.622334  0.953850  0.703945  1
  B  B13  1  0.703946  0.622334  0.953850  1
  O  O14  1  0.727617  0.815611  0.015915  1
  O  O15  1  0.804594  0.548160  0.069157  1
  O  O16  1  0.984085  0.272383  0.184387  1
  O  O17  1  0.451839  0.930843  0.195405  1
  O  O18  1  0.432774  0.498170  0.226172  1
  O  O19  1  0.184388  0.984085  0.272382  1
  O  O20  1  0.498169  0.226172  0.432774  1
  O  O21  1  0.930843  0.195405  0.451840  1
  O  O22  1  0.226172  0.432774  0.498170  1
  O  O23  1  0.773828  0.567226  0.501831  1
  O  O24  1  0.069157  0.804594  0.548160  1
  O  O25  1  0.501831  0.773828  0.567226  1
  O  O26  1  0.815611  0.015914  0.727617  1
  O  O27  1  0.567226  0.501831  0.773829  1
  O  O28  1  0.548160  0.069157  0.804595  1
  O  O29  1  0.015914  0.727616  0.815612  1
  O  O30  1  0.195405  0.451839  0.930843  1
  O  O31  1  0.272383  0.184388  0.984085  1
