# generated using pymatgen
data_NaHoPa4O12
_symmetry_space_group_name_H-M   'P 1'
_cell_length_a   6.46847445
_cell_length_b   6.46847452
_cell_length_c   7.51238400
_cell_angle_alpha   73.11843756
_cell_angle_beta   73.11843736
_cell_angle_gamma   48.28776467
_symmetry_Int_Tables_number   1
_chemical_formula_structural   NaHoPa4O12
_chemical_formula_sum   'Na1 Ho1 Pa4 O12'
_cell_volume   222.44525943
_cell_formula_units_Z   1
loop_
 _symmetry_equiv_pos_site_id
 _symmetry_equiv_pos_as_xyz
  1  'x, y, z'
loop_
 _atom_site_type_symbol
 _atom_site_label
 _atom_site_symmetry_multiplicity
 _atom_site_fract_x
 _atom_site_fract_y
 _atom_site_fract_z
 _atom_site_occupancy
  Na  Na0  1  0.999975  0.000025  0.000000  1
  Ho  Ho1  1  0.000028  0.999972  0.500000  1
  Pa  Pa2  1  0.660602  0.660590  0.672773  1
  Pa  Pa3  1  0.335884  0.335912  0.834893  1
  Pa  Pa4  1  0.339410  0.339398  0.327227  1
  Pa  Pa5  1  0.664088  0.664116  0.165107  1
  O  O6  1  0.432988  0.914451  0.911982  1
  O  O7  1  0.914297  0.432875  0.911924  1
  O  O8  1  0.082688  0.576592  0.583842  1
  O  O9  1  0.262407  0.735915  0.743914  1
  O  O10  1  0.576527  0.082508  0.583750  1
  O  O11  1  0.735795  0.262346  0.743701  1
  O  O12  1  0.737654  0.264205  0.256299  1
  O  O13  1  0.917492  0.423473  0.416250  1
  O  O14  1  0.423408  0.917312  0.416158  1
  O  O15  1  0.264085  0.737593  0.256086  1
  O  O16  1  0.567125  0.085703  0.088076  1
  O  O17  1  0.085549  0.567012  0.088018  1
