# generated using pymatgen
data_Cu5NiMo12(IrN2)2
_symmetry_space_group_name_H-M   'P 1'
_cell_length_a   6.75898982
_cell_length_b   6.74481588
_cell_length_c   6.74967318
_cell_angle_alpha   90.16213677
_cell_angle_beta   90.07215468
_cell_angle_gamma   90.11626107
_symmetry_Int_Tables_number   1
_chemical_formula_structural   Cu5NiMo12(IrN2)2
_chemical_formula_sum   'Cu5 Ni1 Mo12 Ir2 N4'
_cell_volume   307.70294664
_cell_formula_units_Z   1
loop_
 _symmetry_equiv_pos_site_id
 _symmetry_equiv_pos_as_xyz
  1  'x, y, z'
loop_
 _atom_site_type_symbol
 _atom_site_label
 _atom_site_symmetry_multiplicity
 _atom_site_fract_x
 _atom_site_fract_y
 _atom_site_fract_z
 _atom_site_occupancy
  Cu  Cu0  1  0.181226  0.318789  0.566528  1
  Cu  Cu1  1  0.681729  0.680358  0.433461  1
  Cu  Cu2  1  0.934151  0.440145  0.324425  1
  Cu  Cu3  1  0.565277  0.926975  0.194378  1
  Cu  Cu4  1  0.434811  0.560958  0.675149  1
  Ni  Ni5  1  0.063856  0.070597  0.806748  1
  Mo  Mo6  1  0.369938  0.954768  0.548568  1
  Mo  Mo7  1  0.871571  0.047515  0.455303  1
  Mo  Mo8  1  0.120709  0.443713  0.959200  1
  Mo  Mo9  1  0.622015  0.553581  0.039853  1
  Mo  Mo10  1  0.798477  0.374517  0.706068  1
  Mo  Mo11  1  0.708549  0.875189  0.804604  1
  Mo  Mo12  1  0.206138  0.124267  0.193696  1
  Mo  Mo13  1  0.295742  0.623807  0.295404  1
  Mo  Mo14  1  0.954875  0.799666  0.121982  1
  Mo  Mo15  1  0.052908  0.710236  0.627721  1
  Mo  Mo16  1  0.451139  0.203030  0.874279  1
  Mo  Mo17  1  0.552303  0.291787  0.372901  1
  Ir  Ir18  1  0.314244  0.817606  0.930369  1
  Ir  Ir19  1  0.815429  0.182217  0.068980  1
  N  N20  1  0.625395  0.124130  0.626739  1
  N  N21  1  0.125060  0.876299  0.374181  1
  N  N22  1  0.877589  0.624944  0.876502  1
  N  N23  1  0.376871  0.374905  0.122959  1
