# generated using pymatgen
data_Hf8In4Pt7Au
_symmetry_space_group_name_H-M   'P 1'
_cell_length_a   7.55987223
_cell_length_b   7.55987271
_cell_length_c   6.82923962
_cell_angle_alpha   89.88400304
_cell_angle_beta   90.11599207
_cell_angle_gamma   90.04188778
_symmetry_Int_Tables_number   1
_chemical_formula_structural   Hf8In4Pt7Au
_chemical_formula_sum   'Hf8 In4 Pt7 Au1'
_cell_volume   390.30075806
_cell_formula_units_Z   1
loop_
 _symmetry_equiv_pos_site_id
 _symmetry_equiv_pos_as_xyz
  1  'x, y, z'
loop_
 _atom_site_type_symbol
 _atom_site_label
 _atom_site_symmetry_multiplicity
 _atom_site_fract_x
 _atom_site_fract_y
 _atom_site_fract_z
 _atom_site_occupancy
  Hf  Hf0  1  0.145994  0.153775  0.004848  1
  Hf  Hf1  1  0.846225  0.854006  0.004848  1
  Hf  Hf2  1  0.651297  0.348703  0.500992  1
  Hf  Hf3  1  0.355339  0.644661  0.494893  1
  Hf  Hf4  1  0.683986  0.316014  0.000201  1
  Hf  Hf5  1  0.320482  0.679518  0.003987  1
  Hf  Hf6  1  0.810995  0.817235  0.496560  1
  Hf  Hf7  1  0.182765  0.189005  0.496560  1
  In  In8  1  0.497228  0.000611  0.249137  1
  In  In9  1  0.502300  0.000819  0.751709  1
  In  In10  1  0.999389  0.502772  0.249137  1
  In  In11  1  0.999181  0.497700  0.751709  1
  Pt  Pt12  1  0.369737  0.368196  0.217334  1
  Pt  Pt13  1  0.632075  0.631391  0.782303  1
  Pt  Pt14  1  0.631804  0.630263  0.217334  1
  Pt  Pt15  1  0.870551  0.129449  0.720287  1
  Pt  Pt16  1  0.867964  0.132036  0.283836  1
  Pt  Pt17  1  0.368609  0.367925  0.782303  1
  Pt  Pt18  1  0.130950  0.869050  0.280361  1
  Au  Au19  1  0.133128  0.866872  0.711655  1
