# generated using pymatgen
data_DyIn2AuO7
_symmetry_space_group_name_H-M   'P 1'
_cell_length_a   6.38224783
_cell_length_b   6.38224790
_cell_length_c   7.35416500
_cell_angle_alpha   90.00000000
_cell_angle_beta   90.00000000
_cell_angle_gamma   109.55803270
_symmetry_Int_Tables_number   1
_chemical_formula_structural   DyIn2AuO7
_chemical_formula_sum   'Dy2 In4 Au2 O14'
_cell_volume   282.27423167
_cell_formula_units_Z   2
loop_
 _symmetry_equiv_pos_site_id
 _symmetry_equiv_pos_as_xyz
  1  'x, y, z'
loop_
 _atom_site_type_symbol
 _atom_site_label
 _atom_site_symmetry_multiplicity
 _atom_site_fract_x
 _atom_site_fract_y
 _atom_site_fract_z
 _atom_site_occupancy
  Dy  Dy0  1  0.500000  0.500000  0.000000  1
  Dy  Dy1  1  0.500000  0.500000  0.500000  1
  In  In2  1  0.002525  0.475541  0.750000  1
  In  In3  1  0.997475  0.524459  0.250000  1
  In  In4  1  0.475541  0.002525  0.250000  1
  In  In5  1  0.524459  0.997475  0.750000  1
  Au  Au6  1  0.000000  0.000000  0.000000  1
  Au  Au7  1  0.000000  0.000000  0.500000  1
  O  O8  1  0.085118  0.336333  0.476572  1
  O  O9  1  0.920805  0.079195  0.750000  1
  O  O10  1  0.085118  0.336333  0.023428  1
  O  O11  1  0.914882  0.663667  0.523428  1
  O  O12  1  0.644020  0.355980  0.750000  1
  O  O13  1  0.663667  0.914882  0.476572  1
  O  O14  1  0.336333  0.085118  0.523428  1
  O  O15  1  0.336333  0.085118  0.976572  1
  O  O16  1  0.663667  0.914882  0.023428  1
  O  O17  1  0.914882  0.663667  0.976572  1
  O  O18  1  0.637072  0.362928  0.250000  1
  O  O19  1  0.355980  0.644020  0.250000  1
  O  O20  1  0.362928  0.637072  0.750000  1
  O  O21  1  0.079195  0.920805  0.250000  1
