# generated using pymatgen
data_Hf3Zn2AuC
_symmetry_space_group_name_H-M   'P 1'
_cell_length_a   8.64452590
_cell_length_b   8.64452504
_cell_length_c   8.64452700
_cell_angle_alpha   59.99999634
_cell_angle_beta   59.99999960
_cell_angle_gamma   60.00000089
_symmetry_Int_Tables_number   1
_chemical_formula_structural   Hf3Zn2AuC
_chemical_formula_sum   'Hf12 Zn8 Au4 C4'
_cell_volume   456.78153884
_cell_formula_units_Z   4
loop_
 _symmetry_equiv_pos_site_id
 _symmetry_equiv_pos_as_xyz
  1  'x, y, z'
loop_
 _atom_site_type_symbol
 _atom_site_label
 _atom_site_symmetry_multiplicity
 _atom_site_fract_x
 _atom_site_fract_y
 _atom_site_fract_z
 _atom_site_occupancy
  Hf  Hf0  1  0.437106  0.437106  0.062894  1
  Hf  Hf1  1  0.062894  0.437106  0.062894  1
  Hf  Hf2  1  0.437106  0.062894  0.062894  1
  Hf  Hf3  1  0.062894  0.062894  0.437106  1
  Hf  Hf4  1  0.437106  0.062894  0.437106  1
  Hf  Hf5  1  0.062894  0.437106  0.437106  1
  Hf  Hf6  1  0.812894  0.812894  0.187106  1
  Hf  Hf7  1  0.187106  0.812894  0.187106  1
  Hf  Hf8  1  0.812894  0.187106  0.187106  1
  Hf  Hf9  1  0.187106  0.187106  0.812894  1
  Hf  Hf10  1  0.812894  0.187106  0.812894  1
  Hf  Hf11  1  0.187106  0.812894  0.812894  1
  Zn  Zn12  1  0.834597  0.834597  0.496208  1
  Zn  Zn13  1  0.834597  0.496208  0.834597  1
  Zn  Zn14  1  0.496208  0.834597  0.834597  1
  Zn  Zn15  1  0.834597  0.834597  0.834597  1
  Zn  Zn16  1  0.415403  0.415403  0.753792  1
  Zn  Zn17  1  0.415403  0.753792  0.415403  1
  Zn  Zn18  1  0.753792  0.415403  0.415403  1
  Zn  Zn19  1  0.415403  0.415403  0.415403  1
  Au  Au20  1  0.625000  0.625000  0.125000  1
  Au  Au21  1  0.625000  0.125000  0.625000  1
  Au  Au22  1  0.125000  0.625000  0.625000  1
  Au  Au23  1  0.625000  0.625000  0.625000  1
  C  C24  1  0.125000  0.125000  0.625000  1
  C  C25  1  0.125000  0.625000  0.125000  1
  C  C26  1  0.625000  0.125000  0.125000  1
  C  C27  1  0.125000  0.125000  0.125000  1
