# generated using pymatgen
data_Er6Hf3Zr(Sn3O)2
_symmetry_space_group_name_H-M   'P 1'
_cell_length_a   8.68295900
_cell_length_b   8.68296005
_cell_length_c   5.97188100
_cell_angle_alpha   90.00000000
_cell_angle_beta   90.00000000
_cell_angle_gamma   119.99999980
_symmetry_Int_Tables_number   1
_chemical_formula_structural   Er6Hf3Zr(Sn3O)2
_chemical_formula_sum   'Er6 Hf3 Zr1 Sn6 O2'
_cell_volume   389.92163322
_cell_formula_units_Z   1
loop_
 _symmetry_equiv_pos_site_id
 _symmetry_equiv_pos_as_xyz
  1  'x, y, z'
loop_
 _atom_site_type_symbol
 _atom_site_label
 _atom_site_symmetry_multiplicity
 _atom_site_fract_x
 _atom_site_fract_y
 _atom_site_fract_z
 _atom_site_occupancy
  Er  Er0  1  0.000013  0.773141  0.749958  1
  Er  Er1  1  0.000013  0.226871  0.250042  1
  Er  Er2  1  0.226859  0.226871  0.749958  1
  Er  Er3  1  0.226859  0.999987  0.250042  1
  Er  Er4  1  0.773129  0.773141  0.250042  1
  Er  Er5  1  0.773129  0.999987  0.749958  1
  Hf  Hf6  1  0.333333  0.666667  0.000000  1
  Hf  Hf7  1  0.333333  0.666667  0.500000  1
  Hf  Hf8  1  0.666667  0.333333  0.000000  1
  Zr  Zr9  1  0.666667  0.333333  0.500000  1
  Sn  Sn10  1  0.000679  0.595705  0.249390  1
  Sn  Sn11  1  0.000679  0.404974  0.750610  1
  Sn  Sn12  1  0.404295  0.404974  0.249390  1
  Sn  Sn13  1  0.595026  0.595705  0.750610  1
  Sn  Sn14  1  0.404295  0.999321  0.750610  1
  Sn  Sn15  1  0.595026  0.999321  0.249390  1
  O  O16  1  0.000000  0.000000  0.000000  1
  O  O17  1  0.000000  0.000000  0.500000  1
