# generated using pymatgen
data_LiLa7YPt6
_symmetry_space_group_name_H-M   'P 1'
_cell_length_a   7.81496999
_cell_length_b   7.81496926
_cell_length_c   7.81496944
_cell_angle_alpha   70.01833512
_cell_angle_beta   70.01833744
_cell_angle_gamma   70.01833168
_symmetry_Int_Tables_number   1
_chemical_formula_structural   LiLa7YPt6
_chemical_formula_sum   'Li1 La7 Y1 Pt6'
_cell_volume   407.65388558
_cell_formula_units_Z   1
loop_
 _symmetry_equiv_pos_site_id
 _symmetry_equiv_pos_as_xyz
  1  'x, y, z'
loop_
 _atom_site_type_symbol
 _atom_site_label
 _atom_site_symmetry_multiplicity
 _atom_site_fract_x
 _atom_site_fract_y
 _atom_site_fract_z
 _atom_site_occupancy
  Li  Li0  1  0.998314  0.998314  0.998314  1
  La  La1  1  0.186005  0.186005  0.186005  1
  La  La2  1  0.317356  0.616288  0.854978  1
  La  La3  1  0.854978  0.317356  0.616288  1
  La  La4  1  0.616288  0.854978  0.317356  1
  La  La5  1  0.681640  0.388766  0.142305  1
  La  La6  1  0.142305  0.681640  0.388766  1
  La  La7  1  0.388766  0.142305  0.681640  1
  Y  Y8  1  0.815670  0.815670  0.815670  1
  Pt  Pt9  1  0.174916  0.953081  0.580268  1
  Pt  Pt10  1  0.580268  0.174916  0.953081  1
  Pt  Pt11  1  0.953081  0.580268  0.174916  1
  Pt  Pt12  1  0.820143  0.042358  0.427912  1
  Pt  Pt13  1  0.427912  0.820143  0.042358  1
  Pt  Pt14  1  0.042358  0.427912  0.820143  1
