# generated using pymatgen
data_La2CdCuPt
_symmetry_space_group_name_H-M   'P 1'
_cell_length_a   7.91482600
_cell_length_b   7.97851900
_cell_length_c   3.94250400
_cell_angle_alpha   90.00000000
_cell_angle_beta   90.00000000
_cell_angle_gamma   90.00000000
_symmetry_Int_Tables_number   1
_chemical_formula_structural   La2CdCuPt
_chemical_formula_sum   'La4 Cd2 Cu2 Pt2'
_cell_volume   248.96356718
_cell_formula_units_Z   2
loop_
 _symmetry_equiv_pos_site_id
 _symmetry_equiv_pos_as_xyz
  1  'x, y, z'
loop_
 _atom_site_type_symbol
 _atom_site_label
 _atom_site_symmetry_multiplicity
 _atom_site_fract_x
 _atom_site_fract_y
 _atom_site_fract_z
 _atom_site_occupancy
  La  La0  1  0.825824  0.683007  0.500000  1
  La  La1  1  0.325824  0.816993  0.500000  1
  La  La2  1  0.676212  0.164767  0.500000  1
  La  La3  1  0.176212  0.335233  0.500000  1
  Cd  Cd4  1  0.006854  0.009116  0.000000  1
  Cd  Cd5  1  0.506854  0.490884  0.000000  1
  Cu  Cu6  1  0.873439  0.377798  0.000000  1
  Cu  Cu7  1  0.373439  0.122202  0.000000  1
  Pt  Pt8  1  0.617670  0.880372  0.000000  1
  Pt  Pt9  1  0.117670  0.619628  0.000000  1
