# generated using pymatgen
data_Cs4Na2HoInSb4
_symmetry_space_group_name_H-M   'P 1'
_cell_length_a   10.39463364
_cell_length_b   10.39463355
_cell_length_c   10.39463380
_cell_angle_alpha   137.33149725
_cell_angle_beta   61.22245262
_cell_angle_gamma   138.25564328
_symmetry_Int_Tables_number   1
_chemical_formula_structural   Cs4Na2HoInSb4
_chemical_formula_sum   'Cs4 Na2 Ho1 In1 Sb4'
_cell_volume   501.16339946
_cell_formula_units_Z   1
loop_
 _symmetry_equiv_pos_site_id
 _symmetry_equiv_pos_as_xyz
  1  'x, y, z'
loop_
 _atom_site_type_symbol
 _atom_site_label
 _atom_site_symmetry_multiplicity
 _atom_site_fract_x
 _atom_site_fract_y
 _atom_site_fract_z
 _atom_site_occupancy
  Cs  Cs0  1  0.330766  0.772998  0.094559  1
  Cs  Cs1  1  0.169234  0.263793  0.442233  1
  Cs  Cs2  1  0.821562  0.727002  0.557768  1
  Cs  Cs3  1  0.678439  0.236207  0.905441  1
  Na  Na4  1  0.750000  0.250000  0.500000  1
  Na  Na5  1  0.250000  0.750000  0.500000  1
  Ho  Ho6  1  0.250000  0.250000  0.000000  1
  In  In7  1  0.750000  0.750000  0.000000  1
  Sb  Sb8  1  0.901212  0.217743  0.127847  1
  Sb  Sb9  1  0.598788  0.726635  0.316532  1
  Sb  Sb10  1  0.410104  0.282257  0.683469  1
  Sb  Sb11  1  0.089896  0.773365  0.872153  1
