# generated using pymatgen
data_Pr3Bi(Pt2O7)2
_symmetry_space_group_name_H-M   'P 1'
_cell_length_a   7.47438587
_cell_length_b   7.47438702
_cell_length_c   7.45011580
_cell_angle_alpha   59.89217454
_cell_angle_beta   59.89216817
_cell_angle_gamma   60.00000727
_symmetry_Int_Tables_number   1
_chemical_formula_structural   Pr3Bi(Pt2O7)2
_chemical_formula_sum   'Pr3 Bi1 Pt4 O14'
_cell_volume   293.82543896
_cell_formula_units_Z   1
loop_
 _symmetry_equiv_pos_site_id
 _symmetry_equiv_pos_as_xyz
  1  'x, y, z'
loop_
 _atom_site_type_symbol
 _atom_site_label
 _atom_site_symmetry_multiplicity
 _atom_site_fract_x
 _atom_site_fract_y
 _atom_site_fract_z
 _atom_site_occupancy
  Pr  Pr0  1  0.125000  0.625000  0.125000  1
  Pr  Pr1  1  0.625000  0.125000  0.125000  1
  Pr  Pr2  1  0.125000  0.125000  0.125000  1
  Bi  Bi3  1  0.125000  0.125000  0.625000  1
  Pt  Pt4  1  0.625000  0.625000  0.125000  1
  Pt  Pt5  1  0.625000  0.125000  0.625000  1
  Pt  Pt6  1  0.125000  0.625000  0.625000  1
  Pt  Pt7  1  0.625000  0.625000  0.625000  1
  O  O8  1  0.249622  0.249622  0.251135  1
  O  O9  1  0.000378  0.000378  0.998865  1
  O  O10  1  0.542303  0.958251  0.541194  1
  O  O11  1  0.290744  0.709502  0.290252  1
  O  O12  1  0.540498  0.540498  0.959748  1
  O  O13  1  0.958251  0.542303  0.541194  1
  O  O14  1  0.540498  0.959256  0.959748  1
  O  O15  1  0.958251  0.958251  0.541194  1
  O  O16  1  0.959256  0.540498  0.959748  1
  O  O17  1  0.709502  0.290744  0.290252  1
  O  O18  1  0.291749  0.707697  0.708806  1
  O  O19  1  0.707697  0.291749  0.708806  1
  O  O20  1  0.291749  0.291749  0.708806  1
  O  O21  1  0.709502  0.709502  0.290252  1
