# generated using pymatgen
data_Cs(NdI3)2
_symmetry_space_group_name_H-M   'P 1'
_cell_length_a   9.20801500
_cell_length_b   9.20801483
_cell_length_c   14.97427900
_cell_angle_alpha   90.00000000
_cell_angle_beta   90.00000000
_cell_angle_gamma   119.99999702
_symmetry_Int_Tables_number   1
_chemical_formula_structural   Cs(NdI3)2
_chemical_formula_sum   'Cs2 Nd4 I12'
_cell_volume   1099.53382341
_cell_formula_units_Z   2
loop_
 _symmetry_equiv_pos_site_id
 _symmetry_equiv_pos_as_xyz
  1  'x, y, z'
loop_
 _atom_site_type_symbol
 _atom_site_label
 _atom_site_symmetry_multiplicity
 _atom_site_fract_x
 _atom_site_fract_y
 _atom_site_fract_z
 _atom_site_occupancy
  Cs  Cs0  1  0.333333  0.666667  0.872798  1
  Cs  Cs1  1  0.666667  0.333333  0.372798  1
  Nd  Nd2  1  0.000000  0.000000  0.125610  1
  Nd  Nd3  1  0.000000  0.000000  0.375910  1
  Nd  Nd4  1  0.000000  0.000000  0.625610  1
  Nd  Nd5  1  0.000000  0.000000  0.875910  1
  I  I6  1  0.978032  0.712133  0.001173  1
  I  I7  1  0.262424  0.971942  0.250630  1
  I  I8  1  0.028058  0.290482  0.250630  1
  I  I9  1  0.287867  0.265901  0.001173  1
  I  I10  1  0.265901  0.287867  0.501173  1
  I  I11  1  0.734099  0.021968  0.001173  1
  I  I12  1  0.290482  0.028058  0.750630  1
  I  I13  1  0.709518  0.737576  0.250630  1
  I  I14  1  0.737576  0.709518  0.750630  1
  I  I15  1  0.021968  0.734099  0.501173  1
  I  I16  1  0.712133  0.978032  0.501173  1
  I  I17  1  0.971942  0.262424  0.750630  1
