# generated using pymatgen
data_Pm4Te7Pt
_symmetry_space_group_name_H-M   'P 1'
_cell_length_a   4.26750618
_cell_length_b   8.79531306
_cell_length_c   9.35198909
_cell_angle_alpha   90.03562088
_cell_angle_beta   89.99739661
_cell_angle_gamma   90.00358880
_symmetry_Int_Tables_number   1
_chemical_formula_structural   Pm4Te7Pt
_chemical_formula_sum   'Pm4 Te7 Pt1'
_cell_volume   351.01798392
_cell_formula_units_Z   1
loop_
 _symmetry_equiv_pos_site_id
 _symmetry_equiv_pos_as_xyz
  1  'x, y, z'
loop_
 _atom_site_type_symbol
 _atom_site_label
 _atom_site_symmetry_multiplicity
 _atom_site_fract_x
 _atom_site_fract_y
 _atom_site_fract_z
 _atom_site_occupancy
  Pm  Pm0  1  0.249692  0.125485  0.212241  1
  Pm  Pm1  1  0.750106  0.377156  0.767953  1
  Pm  Pm2  1  0.750122  0.872483  0.767845  1
  Pm  Pm3  1  0.249841  0.625676  0.244050  1
  Te  Te4  1  0.250173  0.319504  0.499770  1
  Te  Te5  1  0.250214  0.929461  0.499474  1
  Te  Te6  1  0.749977  0.624663  0.502613  1
  Te  Te7  1  0.250040  0.125079  0.869891  1
  Te  Te8  1  0.749727  0.379158  0.126540  1
  Te  Te9  1  0.749841  0.871855  0.126494  1
  Te  Te10  1  0.250066  0.625015  0.876563  1
  Pt  Pt11  1  0.750200  0.124467  0.506567  1
