# generated using pymatgen
data_Sr6NpReO12
_symmetry_space_group_name_H-M   'P 1'
_cell_length_a   6.98551268
_cell_length_b   6.98551236
_cell_length_c   6.98551264
_cell_angle_alpha   92.19501633
_cell_angle_beta   92.19502102
_cell_angle_gamma   92.19502472
_symmetry_Int_Tables_number   1
_chemical_formula_structural   Sr6NpReO12
_chemical_formula_sum   'Sr6 Np1 Re1 O12'
_cell_volume   340.10465229
_cell_formula_units_Z   1
loop_
 _symmetry_equiv_pos_site_id
 _symmetry_equiv_pos_as_xyz
  1  'x, y, z'
loop_
 _atom_site_type_symbol
 _atom_site_label
 _atom_site_symmetry_multiplicity
 _atom_site_fract_x
 _atom_site_fract_y
 _atom_site_fract_z
 _atom_site_occupancy
  Sr  Sr0  1  0.067748  0.259466  0.561561  1
  Sr  Sr1  1  0.438439  0.932252  0.740534  1
  Sr  Sr2  1  0.740534  0.438439  0.932252  1
  Sr  Sr3  1  0.259466  0.561561  0.067748  1
  Sr  Sr4  1  0.561561  0.067748  0.259466  1
  Sr  Sr5  1  0.932252  0.740534  0.438439  1
  Np  Np6  1  0.000000  0.000000  0.000000  1
  Re  Re7  1  0.500000  0.500000  0.500000  1
  O  O8  1  0.064038  0.284079  0.933648  1
  O  O9  1  0.066352  0.935962  0.715921  1
  O  O10  1  0.453858  0.573658  0.767507  1
  O  O11  1  0.715921  0.066352  0.935962  1
  O  O12  1  0.232493  0.546142  0.426342  1
  O  O13  1  0.426342  0.232493  0.546142  1
  O  O14  1  0.573658  0.767507  0.453858  1
  O  O15  1  0.767507  0.453858  0.573658  1
  O  O16  1  0.284079  0.933648  0.064038  1
  O  O17  1  0.546142  0.426342  0.232493  1
  O  O18  1  0.933648  0.064038  0.284079  1
  O  O19  1  0.935962  0.715921  0.066352  1
