# generated using pymatgen
data_TbSmFe2(SiPd)2
_symmetry_space_group_name_H-M   'P 1'
_cell_length_a   8.93255241
_cell_length_b   8.93255263
_cell_length_c   4.04303100
_cell_angle_alpha   90.00000000
_cell_angle_beta   90.00000000
_cell_angle_gamma   154.28310612
_symmetry_Int_Tables_number   1
_chemical_formula_structural   TbSmFe2(SiPd)2
_chemical_formula_sum   'Tb1 Sm1 Fe2 Si2 Pd2'
_cell_volume   139.98214738
_cell_formula_units_Z   1
loop_
 _symmetry_equiv_pos_site_id
 _symmetry_equiv_pos_as_xyz
  1  'x, y, z'
loop_
 _atom_site_type_symbol
 _atom_site_label
 _atom_site_symmetry_multiplicity
 _atom_site_fract_x
 _atom_site_fract_y
 _atom_site_fract_z
 _atom_site_occupancy
  Tb  Tb0  1  0.385955  0.614045  0.750000  1
  Sm  Sm1  1  0.612608  0.387392  0.250000  1
  Fe  Fe2  1  0.251193  0.748807  0.250000  1
  Fe  Fe3  1  0.750562  0.249438  0.750000  1
  Si  Si4  1  0.812136  0.187864  0.250000  1
  Si  Si5  1  0.188776  0.811224  0.750000  1
  Pd  Pd6  1  0.950434  0.049566  0.250000  1
  Pd  Pd7  1  0.048336  0.951664  0.750000  1
