# generated using pymatgen
data_Tm20Ir7PtRh4
_symmetry_space_group_name_H-M   'P 1'
_cell_length_a   10.74688222
_cell_length_b   10.74688294
_cell_length_c   6.30361600
_cell_angle_alpha   89.99611022
_cell_angle_beta   89.99611154
_cell_angle_gamma   89.82841444
_symmetry_Int_Tables_number   1
_chemical_formula_structural   Tm20Ir7PtRh4
_chemical_formula_sum   'Tm20 Ir7 Pt1 Rh4'
_cell_volume   728.03592043
_cell_formula_units_Z   1
loop_
 _symmetry_equiv_pos_site_id
 _symmetry_equiv_pos_as_xyz
  1  'x, y, z'
loop_
 _atom_site_type_symbol
 _atom_site_label
 _atom_site_symmetry_multiplicity
 _atom_site_fract_x
 _atom_site_fract_y
 _atom_site_fract_z
 _atom_site_occupancy
  Tm  Tm0  1  0.290130  0.088377  0.378822  1
  Tm  Tm1  1  0.291053  0.911207  0.877988  1
  Tm  Tm2  1  0.707235  0.086943  0.874643  1
  Tm  Tm3  1  0.707891  0.908124  0.379994  1
  Tm  Tm4  1  0.588343  0.790343  0.879321  1
  Tm  Tm5  1  0.584858  0.209687  0.378859  1
  Tm  Tm6  1  0.410988  0.790447  0.379058  1
  Tm  Tm7  1  0.410894  0.209353  0.878850  1
  Tm  Tm8  1  0.209657  0.411657  0.620679  1
  Tm  Tm9  1  0.209553  0.589012  0.120942  1
  Tm  Tm10  1  0.790313  0.415142  0.121141  1
  Tm  Tm11  1  0.790647  0.589106  0.621150  1
  Tm  Tm12  1  0.911623  0.709870  0.121178  1
  Tm  Tm13  1  0.913057  0.292765  0.625357  1
  Tm  Tm14  1  0.088793  0.708947  0.622012  1
  Tm  Tm15  1  0.091876  0.292109  0.120006  1
  Tm  Tm16  1  0.001006  0.998365  0.500926  1
  Tm  Tm17  1  0.001635  0.998994  0.999074  1
  Tm  Tm18  1  0.499816  0.499698  0.999607  1
  Tm  Tm19  1  0.500302  0.500184  0.500393  1
  Ir  Ir20  1  0.845746  0.847082  0.750236  1
  Ir  Ir21  1  0.152918  0.154254  0.749764  1
  Ir  Ir22  1  0.154222  0.845778  0.250000  1
  Ir  Ir23  1  0.655197  0.344803  0.750000  1
  Ir  Ir24  1  0.654219  0.653615  0.249603  1
  Ir  Ir25  1  0.346385  0.345781  0.250397  1
  Ir  Ir26  1  0.345793  0.654207  0.750000  1
  Pt  Pt27  1  0.845484  0.154516  0.250000  1
  Rh  Rh28  1  0.500321  0.000076  0.125359  1
  Rh  Rh29  1  0.500371  0.000252  0.624100  1
  Rh  Rh30  1  0.999748  0.499629  0.875900  1
  Rh  Rh31  1  0.999924  0.499679  0.374641  1
