# generated using pymatgen
data_HoEr(TmBi)3
_symmetry_space_group_name_H-M   'P 1'
_cell_length_a   8.18022200
_cell_length_b   9.43780600
_cell_length_c   11.92985900
_cell_angle_alpha   90.00000000
_cell_angle_beta   90.00000000
_cell_angle_gamma   90.00000000
_symmetry_Int_Tables_number   1
_chemical_formula_structural   HoEr(TmBi)3
_chemical_formula_sum   'Ho4 Er4 Tm12 Bi12'
_cell_volume   921.02505922
_cell_formula_units_Z   4
loop_
 _symmetry_equiv_pos_site_id
 _symmetry_equiv_pos_as_xyz
  1  'x, y, z'
loop_
 _atom_site_type_symbol
 _atom_site_label
 _atom_site_symmetry_multiplicity
 _atom_site_fract_x
 _atom_site_fract_y
 _atom_site_fract_z
 _atom_site_occupancy
  Ho  Ho0  1  0.313775  0.250000  0.217844  1
  Ho  Ho1  1  0.813775  0.250000  0.282156  1
  Ho  Ho2  1  0.686225  0.750000  0.782156  1
  Ho  Ho3  1  0.186225  0.750000  0.717844  1
  Er  Er4  1  0.353498  0.750000  0.217321  1
  Er  Er5  1  0.853498  0.750000  0.282679  1
  Er  Er6  1  0.646502  0.250000  0.782679  1
  Er  Er7  1  0.146502  0.250000  0.717321  1
  Tm  Tm8  1  0.691896  0.565662  0.059280  1
  Tm  Tm9  1  0.191896  0.934338  0.440720  1
  Tm  Tm10  1  0.308104  0.065662  0.940720  1
  Tm  Tm11  1  0.808104  0.434338  0.559280  1
  Tm  Tm12  1  0.308104  0.434338  0.940720  1
  Tm  Tm13  1  0.808104  0.065662  0.559280  1
  Tm  Tm14  1  0.691896  0.934338  0.059280  1
  Tm  Tm15  1  0.191896  0.565662  0.440720  1
  Tm  Tm16  1  0.476818  0.250000  0.488996  1
  Tm  Tm17  1  0.976818  0.250000  0.011004  1
  Tm  Tm18  1  0.523182  0.750000  0.511004  1
  Tm  Tm19  1  0.023182  0.750000  0.988996  1
  Bi  Bi20  1  0.404289  0.750000  0.957975  1
  Bi  Bi21  1  0.904289  0.750000  0.542025  1
  Bi  Bi22  1  0.595711  0.250000  0.042025  1
  Bi  Bi23  1  0.095711  0.250000  0.457975  1
  Bi  Bi24  1  0.566197  0.995875  0.326206  1
  Bi  Bi25  1  0.066197  0.504125  0.173794  1
  Bi  Bi26  1  0.433803  0.495875  0.673794  1
  Bi  Bi27  1  0.933803  0.004125  0.826206  1
  Bi  Bi28  1  0.433803  0.004125  0.673794  1
  Bi  Bi29  1  0.933803  0.495875  0.826206  1
  Bi  Bi30  1  0.566197  0.504125  0.326206  1
  Bi  Bi31  1  0.066197  0.995875  0.173794  1
