# generated using pymatgen
data_Pr8Sm12Si15As
_symmetry_space_group_name_H-M   'P 1'
_cell_length_a   7.71217850
_cell_length_b   7.92737095
_cell_length_c   15.07154000
_cell_angle_alpha   90.00000000
_cell_angle_beta   90.00000000
_cell_angle_gamma   90.28580719
_symmetry_Int_Tables_number   1
_chemical_formula_structural   Pr8Sm12Si15As
_chemical_formula_sum   'Pr8 Sm12 Si15 As1'
_cell_volume   921.42179522
_cell_formula_units_Z   1
loop_
 _symmetry_equiv_pos_site_id
 _symmetry_equiv_pos_as_xyz
  1  'x, y, z'
loop_
 _atom_site_type_symbol
 _atom_site_label
 _atom_site_symmetry_multiplicity
 _atom_site_fract_x
 _atom_site_fract_y
 _atom_site_fract_z
 _atom_site_occupancy
  Pr  Pr0  1  0.034309  0.184826  0.400358  1
  Pr  Pr1  1  0.533450  0.315961  0.400353  1
  Pr  Pr2  1  0.470429  0.679304  0.901736  1
  Pr  Pr3  1  0.470429  0.679304  0.598264  1
  Pr  Pr4  1  0.966847  0.817646  0.601935  1
  Pr  Pr5  1  0.966847  0.817646  0.898065  1
  Pr  Pr6  1  0.533450  0.315961  0.099647  1
  Pr  Pr7  1  0.034309  0.184826  0.099642  1
  Sm  Sm8  1  0.311249  0.177553  0.623023  1
  Sm  Sm9  1  0.686476  0.821067  0.377830  1
  Sm  Sm10  1  0.645810  0.990968  0.750000  1
  Sm  Sm11  1  0.185505  0.680749  0.377592  1
  Sm  Sm12  1  0.810438  0.321674  0.878969  1
  Sm  Sm13  1  0.810438  0.321674  0.621031  1
  Sm  Sm14  1  0.856328  0.488964  0.250000  1
  Sm  Sm15  1  0.357646  0.012847  0.250000  1
  Sm  Sm16  1  0.311249  0.177553  0.876977  1
  Sm  Sm17  1  0.185505  0.680749  0.122408  1
  Sm  Sm18  1  0.686476  0.821067  0.122170  1
  Sm  Sm19  1  0.141573  0.503652  0.750000  1
  Si  Si20  1  0.478719  0.606345  0.250000  1
  Si  Si21  1  0.009899  0.121500  0.750000  1
  Si  Si22  1  0.518559  0.390957  0.750000  1
  Si  Si23  1  0.138288  0.472634  0.540906  1
  Si  Si24  1  0.979119  0.895245  0.250000  1
  Si  Si25  1  0.743777  0.120001  0.250000  1
  Si  Si26  1  0.862659  0.530908  0.040417  1
  Si  Si27  1  0.361900  0.970786  0.039893  1
  Si  Si28  1  0.138288  0.472634  0.959094  1
  Si  Si29  1  0.636620  0.026662  0.541125  1
  Si  Si30  1  0.361900  0.970786  0.460107  1
  Si  Si31  1  0.862659  0.530908  0.459583  1
  Si  Si32  1  0.758686  0.621979  0.750000  1
  Si  Si33  1  0.243269  0.381406  0.250000  1
  Si  Si34  1  0.636620  0.026662  0.958875  1
  As  As35  1  0.270272  0.866595  0.750000  1
