# generated using pymatgen
data_La7Pr9(Ga3Tc)2
_symmetry_space_group_name_H-M   'P 1'
_cell_length_a   10.62569542
_cell_length_b   10.61860040
_cell_length_c   7.23879266
_cell_angle_alpha   89.95588782
_cell_angle_beta   90.09813499
_cell_angle_gamma   120.14975297
_symmetry_Int_Tables_number   1
_chemical_formula_structural   La7Pr9(Ga3Tc)2
_chemical_formula_sum   'La7 Pr9 Ga6 Tc2'
_cell_volume   706.25808945
_cell_formula_units_Z   1
loop_
 _symmetry_equiv_pos_site_id
 _symmetry_equiv_pos_as_xyz
  1  'x, y, z'
loop_
 _atom_site_type_symbol
 _atom_site_label
 _atom_site_symmetry_multiplicity
 _atom_site_fract_x
 _atom_site_fract_y
 _atom_site_fract_z
 _atom_site_occupancy
  La  La0  1  0.167680  0.832271  0.986667  1
  La  La1  1  0.342386  0.171213  0.489739  1
  La  La2  1  0.828833  0.657631  0.489730  1
  La  La3  1  0.167749  0.335488  0.986676  1
  La  La4  1  0.664539  0.832253  0.986696  1
  La  La5  1  0.828885  0.171122  0.489632  1
  La  La6  1  0.333262  0.666690  0.681009  1
  Pr  Pr7  1  0.666600  0.333324  0.165742  1
  Pr  Pr8  1  0.460919  0.538970  0.297708  1
  Pr  Pr9  1  0.924473  0.462344  0.800259  1
  Pr  Pr10  1  0.537687  0.075533  0.800271  1
  Pr  Pr11  1  0.460994  0.921923  0.297716  1
  Pr  Pr12  1  0.078059  0.538937  0.297685  1
  Pr  Pr13  1  0.537794  0.462245  0.800295  1
  Pr  Pr14  1  0.000022  0.000141  0.270652  1
  Pr  Pr15  1  0.000004  0.999880  0.767622  1
  Ga  Ga16  1  0.165770  0.834526  0.537720  1
  Ga  Ga17  1  0.332953  0.166615  0.040861  1
  Ga  Ga18  1  0.833325  0.666875  0.040621  1
  Ga  Ga19  1  0.165905  0.331144  0.537675  1
  Ga  Ga20  1  0.668921  0.834078  0.537449  1
  Ga  Ga21  1  0.833285  0.166829  0.040483  1
  Tc  Tc22  1  0.333296  0.666676  0.032709  1
  Tc  Tc23  1  0.666658  0.333289  0.550386  1
