# generated using pymatgen
data_Eu6Ru2N7
_symmetry_space_group_name_H-M   'P 1'
_cell_length_a   6.22129303
_cell_length_b   6.22129257
_cell_length_c   6.22129021
_cell_angle_alpha   95.07300044
_cell_angle_beta   95.07298900
_cell_angle_gamma   95.07300396
_symmetry_Int_Tables_number   1
_chemical_formula_structural   Eu6Ru2N7
_chemical_formula_sum   'Eu6 Ru2 N7'
_cell_volume   237.78242939
_cell_formula_units_Z   1
loop_
 _symmetry_equiv_pos_site_id
 _symmetry_equiv_pos_as_xyz
  1  'x, y, z'
loop_
 _atom_site_type_symbol
 _atom_site_label
 _atom_site_symmetry_multiplicity
 _atom_site_fract_x
 _atom_site_fract_y
 _atom_site_fract_z
 _atom_site_occupancy
  Eu  Eu0  1  0.654845  0.105197  0.799130  1
  Eu  Eu1  1  0.105197  0.799130  0.654845  1
  Eu  Eu2  1  0.799130  0.654845  0.105197  1
  Eu  Eu3  1  0.345155  0.894803  0.200870  1
  Eu  Eu4  1  0.894803  0.200870  0.345155  1
  Eu  Eu5  1  0.200870  0.345155  0.894803  1
  Ru  Ru6  1  0.623765  0.623765  0.623765  1
  Ru  Ru7  1  0.376235  0.376235  0.376235  1
  N  N8  1  0.000000  0.000000  0.000000  1
  N  N9  1  0.732760  0.859839  0.468488  1
  N  N10  1  0.859839  0.468488  0.732760  1
  N  N11  1  0.468488  0.732760  0.859839  1
  N  N12  1  0.267240  0.140161  0.531512  1
  N  N13  1  0.140161  0.531512  0.267240  1
  N  N14  1  0.531512  0.267240  0.140161  1
