# generated using pymatgen
data_Tm3In3CuIrAu
_symmetry_space_group_name_H-M   'P 1'
_cell_length_a   7.62151800
_cell_length_b   7.62151746
_cell_length_c   3.82573000
_cell_angle_alpha   90.00000000
_cell_angle_beta   90.00000000
_cell_angle_gamma   120.00001103
_symmetry_Int_Tables_number   1
_chemical_formula_structural   Tm3In3CuIrAu
_chemical_formula_sum   'Tm3 In3 Cu1 Ir1 Au1'
_cell_volume   192.45439279
_cell_formula_units_Z   1
loop_
 _symmetry_equiv_pos_site_id
 _symmetry_equiv_pos_as_xyz
  1  'x, y, z'
loop_
 _atom_site_type_symbol
 _atom_site_label
 _atom_site_symmetry_multiplicity
 _atom_site_fract_x
 _atom_site_fract_y
 _atom_site_fract_z
 _atom_site_occupancy
  Tm  Tm0  1  0.420252  0.397674  0.500000  1
  Tm  Tm1  1  0.602326  0.022579  0.500000  1
  Tm  Tm2  1  0.977421  0.579748  0.500000  1
  In  In3  1  0.748510  0.749029  0.000000  1
  In  In4  1  0.250971  0.999482  0.000000  1
  In  In5  1  0.000518  0.251490  0.000000  1
  Cu  Cu6  1  0.000000  0.000000  0.500000  1
  Ir  Ir7  1  0.666667  0.333333  0.000000  1
  Au  Au8  1  0.333333  0.666667  0.000000  1
