# generated using pymatgen
data_Ho2Er2CdSnAu4
_symmetry_space_group_name_H-M   'P 1'
_cell_length_a   7.98867800
_cell_length_b   7.98867800
_cell_length_c   7.29543300
_cell_angle_alpha   90.00000000
_cell_angle_beta   90.00000000
_cell_angle_gamma   90.00000000
_symmetry_Int_Tables_number   1
_chemical_formula_structural   Ho2Er2CdSnAu4
_chemical_formula_sum   'Ho4 Er4 Cd2 Sn2 Au8'
_cell_volume   465.58706491
_cell_formula_units_Z   2
loop_
 _symmetry_equiv_pos_site_id
 _symmetry_equiv_pos_as_xyz
  1  'x, y, z'
loop_
 _atom_site_type_symbol
 _atom_site_label
 _atom_site_symmetry_multiplicity
 _atom_site_fract_x
 _atom_site_fract_y
 _atom_site_fract_z
 _atom_site_occupancy
  Ho  Ho0  1  0.342417  0.657583  0.000000  1
  Ho  Ho1  1  0.657583  0.342417  0.000000  1
  Ho  Ho2  1  0.842417  0.842417  0.500000  1
  Ho  Ho3  1  0.157583  0.157583  0.500000  1
  Er  Er4  1  0.183401  0.183401  0.000000  1
  Er  Er5  1  0.316599  0.683401  0.500000  1
  Er  Er6  1  0.683401  0.316599  0.500000  1
  Er  Er7  1  0.816599  0.816599  0.000000  1
  Cd  Cd8  1  0.000000  0.500000  0.750000  1
  Cd  Cd9  1  0.500000  0.000000  0.250000  1
  Sn  Sn10  1  0.000000  0.500000  0.250000  1
  Sn  Sn11  1  0.500000  0.000000  0.750000  1
  Au  Au12  1  0.125836  0.869166  0.775687  1
  Au  Au13  1  0.869166  0.125836  0.224313  1
  Au  Au14  1  0.374164  0.369166  0.275687  1
  Au  Au15  1  0.630834  0.625836  0.724313  1
  Au  Au16  1  0.625836  0.630834  0.275687  1
  Au  Au17  1  0.874164  0.130834  0.775687  1
  Au  Au18  1  0.369166  0.374164  0.724313  1
  Au  Au19  1  0.130834  0.874164  0.224313  1
