# generated using pymatgen
data_Li2Os2(OF2)3
_symmetry_space_group_name_H-M   'P 1'
_cell_length_a   5.55299300
_cell_length_b   5.55299238
_cell_length_c   20.82697800
_cell_angle_alpha   90.00000000
_cell_angle_beta   90.00000000
_cell_angle_gamma   120.00000965
_symmetry_Int_Tables_number   1
_chemical_formula_structural   Li2Os2(OF2)3
_chemical_formula_sum   'Li6 Os6 O9 F18'
_cell_volume   556.17447205
_cell_formula_units_Z   3
loop_
 _symmetry_equiv_pos_site_id
 _symmetry_equiv_pos_as_xyz
  1  'x, y, z'
loop_
 _atom_site_type_symbol
 _atom_site_label
 _atom_site_symmetry_multiplicity
 _atom_site_fract_x
 _atom_site_fract_y
 _atom_site_fract_z
 _atom_site_occupancy
  Li  Li0  1  0.437922  0.446751  0.142096  1
  Li  Li1  1  0.991172  0.553249  0.524570  1
  Li  Li2  1  0.446751  0.437922  0.857904  1
  Li  Li3  1  0.553249  0.991172  0.475430  1
  Li  Li4  1  0.562078  0.008828  0.191237  1
  Li  Li5  1  0.008828  0.562078  0.808763  1
  Os  Os6  1  0.774348  0.107132  0.043908  1
  Os  Os7  1  0.667217  0.892868  0.622759  1
  Os  Os8  1  0.225652  0.332783  0.289426  1
  Os  Os9  1  0.892868  0.667217  0.377241  1
  Os  Os10  1  0.332783  0.225652  0.710574  1
  Os  Os11  1  0.107132  0.774348  0.956092  1
  O  O12  1  0.097677  0.000000  0.333333  1
  O  O13  1  0.902323  0.902323  0.000000  1
  O  O14  1  0.506652  0.578461  0.674229  1
  O  O15  1  0.578461  0.506652  0.325771  1
  O  O16  1  0.421539  0.928192  0.007563  1
  O  O17  1  0.000000  0.097677  0.666667  1
  O  O18  1  0.928192  0.421539  0.992437  1
  O  O19  1  0.071808  0.493348  0.340896  1
  O  O20  1  0.493348  0.071808  0.659104  1
  F  F21  1  0.360147  0.701948  0.558899  1
  F  F22  1  0.158197  0.875505  0.759809  1
  F  F23  1  0.282693  0.124495  0.906858  1
  F  F24  1  0.827429  0.635261  0.884571  1
  F  F25  1  0.658199  0.298052  0.107768  1
  F  F26  1  0.635261  0.827429  0.115429  1
  F  F27  1  0.192168  0.364739  0.782096  1
  F  F28  1  0.172571  0.807832  0.448762  1
  F  F29  1  0.639853  0.341801  0.774434  1
  F  F30  1  0.717307  0.841803  0.426476  1
  F  F31  1  0.364739  0.192168  0.217904  1
  F  F32  1  0.124495  0.282693  0.093142  1
  F  F33  1  0.875505  0.158197  0.240191  1
  F  F34  1  0.341801  0.639853  0.225566  1
  F  F35  1  0.298052  0.658199  0.892232  1
  F  F36  1  0.701948  0.360147  0.441101  1
  F  F37  1  0.807832  0.172571  0.551238  1
  F  F38  1  0.841803  0.717307  0.573524  1
