# generated using pymatgen
data_Sc2ZnB2RuRh4
_symmetry_space_group_name_H-M   'P 1'
_cell_length_a   9.40011200
_cell_length_b   9.40011200
_cell_length_c   3.04152100
_cell_angle_alpha   90.00000000
_cell_angle_beta   90.00000000
_cell_angle_gamma   90.00000000
_symmetry_Int_Tables_number   1
_chemical_formula_structural   Sc2ZnB2RuRh4
_chemical_formula_sum   'Sc4 Zn2 B4 Ru2 Rh8'
_cell_volume   268.75519982
_cell_formula_units_Z   2
loop_
 _symmetry_equiv_pos_site_id
 _symmetry_equiv_pos_as_xyz
  1  'x, y, z'
loop_
 _atom_site_type_symbol
 _atom_site_label
 _atom_site_symmetry_multiplicity
 _atom_site_fract_x
 _atom_site_fract_y
 _atom_site_fract_z
 _atom_site_occupancy
  Sc  Sc0  1  0.673810  0.173810  0.000000  1
  Sc  Sc1  1  0.326190  0.826190  0.000000  1
  Sc  Sc2  1  0.173810  0.326190  0.000000  1
  Sc  Sc3  1  0.826190  0.673810  0.000000  1
  Zn  Zn4  1  0.500000  0.500000  0.000000  1
  Zn  Zn5  1  0.000000  0.000000  0.000000  1
  B  B6  1  0.123403  0.623403  0.000000  1
  B  B7  1  0.876597  0.376597  0.000000  1
  B  B8  1  0.623403  0.876597  0.000000  1
  B  B9  1  0.376597  0.123403  0.000000  1
  Ru  Ru10  1  0.500000  0.000000  0.500000  1
  Ru  Ru11  1  0.000000  0.500000  0.500000  1
  Rh  Rh12  1  0.571851  0.716037  0.500000  1
  Rh  Rh13  1  0.428149  0.283963  0.500000  1
  Rh  Rh14  1  0.071851  0.783963  0.500000  1
  Rh  Rh15  1  0.928149  0.216037  0.500000  1
  Rh  Rh16  1  0.283963  0.571851  0.500000  1
  Rh  Rh17  1  0.716037  0.428149  0.500000  1
  Rh  Rh18  1  0.216037  0.071851  0.500000  1
  Rh  Rh19  1  0.783963  0.928149  0.500000  1
