# generated using pymatgen
data_Nb4V4GaGe3
_symmetry_space_group_name_H-M   'P 1'
_cell_length_a   3.42359100
_cell_length_b   6.71596034
_cell_length_c   8.13668679
_cell_angle_alpha   90.13603093
_cell_angle_beta   90.00000000
_cell_angle_gamma   90.00000000
_symmetry_Int_Tables_number   1
_chemical_formula_structural   Nb4V4GaGe3
_chemical_formula_sum   'Nb4 V4 Ga1 Ge3'
_cell_volume   187.08388224
_cell_formula_units_Z   1
loop_
 _symmetry_equiv_pos_site_id
 _symmetry_equiv_pos_as_xyz
  1  'x, y, z'
loop_
 _atom_site_type_symbol
 _atom_site_label
 _atom_site_symmetry_multiplicity
 _atom_site_fract_x
 _atom_site_fract_y
 _atom_site_fract_z
 _atom_site_occupancy
  Nb  Nb0  1  0.250000  0.055565  0.830840  1
  Nb  Nb1  1  0.250000  0.550967  0.666623  1
  Nb  Nb2  1  0.750000  0.946841  0.169064  1
  Nb  Nb3  1  0.750000  0.448130  0.330949  1
  V  V4  1  0.250000  0.126394  0.438143  1
  V  V5  1  0.250000  0.624282  0.063534  1
  V  V6  1  0.750000  0.874352  0.561534  1
  V  V7  1  0.750000  0.373118  0.938700  1
  Ga  Ga8  1  0.750000  0.752343  0.862748  1
  Ge  Ge9  1  0.250000  0.748978  0.363320  1
  Ge  Ge10  1  0.250000  0.247450  0.137372  1
  Ge  Ge11  1  0.750000  0.251578  0.637173  1
