# generated using pymatgen
data_Er12Cu2Ru5
_symmetry_space_group_name_H-M   'P 1'
_cell_length_a   11.35435300
_cell_length_b   8.36507918
_cell_length_c   11.21859800
_cell_angle_alpha   56.08092710
_cell_angle_beta   90.00000000
_cell_angle_gamma   90.00000000
_symmetry_Int_Tables_number   1
_chemical_formula_structural   Er12Cu2Ru5
_chemical_formula_sum   'Er24 Cu4 Ru10'
_cell_volume   884.21600727
_cell_formula_units_Z   2
loop_
 _symmetry_equiv_pos_site_id
 _symmetry_equiv_pos_as_xyz
  1  'x, y, z'
loop_
 _atom_site_type_symbol
 _atom_site_label
 _atom_site_symmetry_multiplicity
 _atom_site_fract_x
 _atom_site_fract_y
 _atom_site_fract_z
 _atom_site_occupancy
  Er  Er0  1  0.703915  0.245142  0.530793  1
  Er  Er1  1  0.203915  0.754858  0.969207  1
  Er  Er2  1  0.848474  0.496297  0.660817  1
  Er  Er3  1  0.348474  0.503703  0.839183  1
  Er  Er4  1  0.151526  0.503703  0.339183  1
  Er  Er5  1  0.651526  0.496297  0.160817  1
  Er  Er6  1  0.005230  0.844431  0.357711  1
  Er  Er7  1  0.505230  0.155569  0.142289  1
  Er  Er8  1  0.994770  0.155569  0.642289  1
  Er  Er9  1  0.494770  0.844431  0.857711  1
  Er  Er10  1  0.796085  0.245142  0.030793  1
  Er  Er11  1  0.296085  0.754858  0.469207  1
  Er  Er12  1  0.932821  0.776737  0.089321  1
  Er  Er13  1  0.432821  0.223263  0.410679  1
  Er  Er14  1  0.067179  0.223263  0.910679  1
  Er  Er15  1  0.567179  0.776737  0.589321  1
  Er  Er16  1  0.303729  0.247318  0.665757  1
  Er  Er17  1  0.803729  0.752682  0.834243  1
  Er  Er18  1  0.696271  0.752682  0.334243  1
  Er  Er19  1  0.196271  0.247318  0.165757  1
  Er  Er20  1  0.920475  0.284201  0.289481  1
  Er  Er21  1  0.420475  0.715799  0.210519  1
  Er  Er22  1  0.079525  0.715799  0.710519  1
  Er  Er23  1  0.579525  0.284201  0.789481  1
  Cu  Cu24  1  0.656861  0.915478  0.037050  1
  Cu  Cu25  1  0.156861  0.084522  0.462950  1
  Cu  Cu26  1  0.343139  0.084522  0.962950  1
  Cu  Cu27  1  0.843139  0.915478  0.537050  1
  Ru  Ru28  1  0.500000  0.500000  0.500000  1
  Ru  Ru29  1  0.000000  0.500000  0.000000  1
  Ru  Ru30  1  0.396379  0.485168  0.105351  1
  Ru  Ru31  1  0.896379  0.514832  0.394649  1
  Ru  Ru32  1  0.603621  0.514832  0.894649  1
  Ru  Ru33  1  0.103621  0.485168  0.605351  1
  Ru  Ru34  1  0.814643  0.098030  0.843656  1
  Ru  Ru35  1  0.314643  0.901970  0.656344  1
  Ru  Ru36  1  0.185357  0.901970  0.156344  1
  Ru  Ru37  1  0.685357  0.098030  0.343656  1
