# generated using pymatgen
data_La8Ho12AgSn15
_symmetry_space_group_name_H-M   'P 1'
_cell_length_a   8.09698800
_cell_length_b   8.37264636
_cell_length_c   15.70133000
_cell_angle_alpha   90.00000000
_cell_angle_beta   90.00000000
_cell_angle_gamma   90.19067272
_symmetry_Int_Tables_number   1
_chemical_formula_structural   La8Ho12AgSn15
_chemical_formula_sum   'La8 Ho12 Ag1 Sn15'
_cell_volume   1064.43777962
_cell_formula_units_Z   1
loop_
 _symmetry_equiv_pos_site_id
 _symmetry_equiv_pos_as_xyz
  1  'x, y, z'
loop_
 _atom_site_type_symbol
 _atom_site_label
 _atom_site_symmetry_multiplicity
 _atom_site_fract_x
 _atom_site_fract_y
 _atom_site_fract_z
 _atom_site_occupancy
  La  La0  1  0.507207  0.315816  0.908630  1
  La  La1  1  0.008498  0.178837  0.596506  1
  La  La2  1  0.492392  0.678729  0.404414  1
  La  La3  1  0.989734  0.822291  0.096222  1
  La  La4  1  0.492392  0.678729  0.095586  1
  La  La5  1  0.989734  0.822291  0.403778  1
  La  La6  1  0.507207  0.315816  0.591370  1
  La  La7  1  0.008498  0.178837  0.903494  1
  Ho  Ho8  1  0.350986  0.836253  0.875604  1
  Ho  Ho9  1  0.844296  0.663432  0.625036  1
  Ho  Ho10  1  0.651044  0.162387  0.375821  1
  Ho  Ho11  1  0.151842  0.336484  0.125272  1
  Ho  Ho12  1  0.651044  0.162387  0.124179  1
  Ho  Ho13  1  0.151842  0.336484  0.374728  1
  Ho  Ho14  1  0.350986  0.836253  0.624396  1
  Ho  Ho15  1  0.844296  0.663432  0.874964  1
  Ho  Ho16  1  0.191938  0.508178  0.750000  1
  Ho  Ho17  1  0.683879  0.997813  0.750000  1
  Ho  Ho18  1  0.816662  0.498629  0.250000  1
  Ho  Ho19  1  0.315679  0.000283  0.250000  1
  Ag  Ag20  1  0.551221  0.625647  0.750000  1
  Sn  Sn21  1  0.309791  0.041535  0.042101  1
  Sn  Sn22  1  0.817037  0.457857  0.458661  1
  Sn  Sn23  1  0.689509  0.958518  0.542856  1
  Sn  Sn24  1  0.187269  0.540441  0.956083  1
  Sn  Sn25  1  0.689509  0.958518  0.957144  1
  Sn  Sn26  1  0.187269  0.540441  0.543917  1
  Sn  Sn27  1  0.309791  0.041535  0.457899  1
  Sn  Sn28  1  0.817037  0.457857  0.041339  1
  Sn  Sn29  1  0.049337  0.876287  0.750000  1
  Sn  Sn30  1  0.454987  0.373616  0.250000  1
  Sn  Sn31  1  0.952328  0.125685  0.250000  1
  Sn  Sn32  1  0.314763  0.142655  0.750000  1
  Sn  Sn33  1  0.803846  0.365799  0.750000  1
  Sn  Sn34  1  0.682377  0.857041  0.250000  1
  Sn  Sn35  1  0.183776  0.643202  0.250000  1
