# generated using pymatgen
data_PrNd2Sm3(RuBr3)2
_symmetry_space_group_name_H-M   'P 1'
_cell_length_a   4.20558000
_cell_length_b   8.91142806
_cell_length_c   12.17746392
_cell_angle_alpha   86.74214602
_cell_angle_beta   90.00000000
_cell_angle_gamma   90.00000000
_symmetry_Int_Tables_number   1
_chemical_formula_structural   PrNd2Sm3(RuBr3)2
_chemical_formula_sum   'Pr1 Nd2 Sm3 Ru2 Br6'
_cell_volume   455.64606078
_cell_formula_units_Z   1
loop_
 _symmetry_equiv_pos_site_id
 _symmetry_equiv_pos_as_xyz
  1  'x, y, z'
loop_
 _atom_site_type_symbol
 _atom_site_label
 _atom_site_symmetry_multiplicity
 _atom_site_fract_x
 _atom_site_fract_y
 _atom_site_fract_z
 _atom_site_occupancy
  Pr  Pr0  1  0.750000  0.120508  0.162125  1
  Nd  Nd1  1  0.250000  0.314145  0.383958  1
  Nd  Nd2  1  0.750000  0.685837  0.617894  1
  Sm  Sm3  1  0.250000  0.893447  0.382928  1
  Sm  Sm4  1  0.750000  0.105255  0.617234  1
  Sm  Sm5  1  0.250000  0.879348  0.834673  1
  Ru  Ru6  1  0.250000  0.898830  0.616632  1
  Ru  Ru7  1  0.750000  0.100629  0.383432  1
  Br  Br8  1  0.250000  0.400819  0.628832  1
  Br  Br9  1  0.750000  0.599207  0.373010  1
  Br  Br10  1  0.250000  0.878781  0.113828  1
  Br  Br11  1  0.750000  0.113474  0.882757  1
  Br  Br12  1  0.250000  0.363061  0.131696  1
  Br  Br13  1  0.750000  0.646659  0.871004  1
