# generated using pymatgen
data_Tb7Ho(OsBr4)2
_symmetry_space_group_name_H-M   'P 1'
_cell_length_a   9.04947820
_cell_length_b   9.05966615
_cell_length_c   6.56416480
_cell_angle_alpha   89.67203403
_cell_angle_beta   89.74776387
_cell_angle_gamma   89.41682262
_symmetry_Int_Tables_number   1
_chemical_formula_structural   Tb7Ho(OsBr4)2
_chemical_formula_sum   'Tb7 Ho1 Os2 Br8'
_cell_volume   538.12293044
_cell_formula_units_Z   1
loop_
 _symmetry_equiv_pos_site_id
 _symmetry_equiv_pos_as_xyz
  1  'x, y, z'
loop_
 _atom_site_type_symbol
 _atom_site_label
 _atom_site_symmetry_multiplicity
 _atom_site_fract_x
 _atom_site_fract_y
 _atom_site_fract_z
 _atom_site_occupancy
  Tb  Tb0  1  0.751319  0.097726  0.989416  1
  Tb  Tb1  1  0.098065  0.751220  0.489521  1
  Tb  Tb2  1  0.902350  0.248685  0.510437  1
  Tb  Tb3  1  0.752051  0.903207  0.505509  1
  Tb  Tb4  1  0.248258  0.096584  0.494534  1
  Tb  Tb5  1  0.097135  0.247660  0.994589  1
  Tb  Tb6  1  0.903741  0.752004  0.005565  1
  Ho  Ho7  1  0.246501  0.903065  0.011209  1
  Os  Os8  1  0.996317  0.003852  0.249894  1
  Os  Os9  1  0.004556  0.995813  0.750481  1
  Br  Br10  1  0.415536  0.818089  0.412988  1
  Br  Br11  1  0.584486  0.182000  0.585924  1
  Br  Br12  1  0.182366  0.584992  0.085907  1
  Br  Br13  1  0.817990  0.415501  0.914014  1
  Br  Br14  1  0.411530  0.187497  0.088963  1
  Br  Br15  1  0.587780  0.812133  0.911066  1
  Br  Br16  1  0.811910  0.588417  0.411016  1
  Br  Br17  1  0.188107  0.411556  0.588968  1
