# generated using pymatgen
data_Rb2Na2GeS4
_symmetry_space_group_name_H-M   'P 1'
_cell_length_a   11.54761271
_cell_length_b   11.54761337
_cell_length_c   6.95038853
_cell_angle_alpha   81.73960653
_cell_angle_beta   81.73960543
_cell_angle_gamma   141.00730552
_symmetry_Int_Tables_number   1
_chemical_formula_structural   Rb2Na2GeS4
_chemical_formula_sum   'Rb4 Na4 Ge2 S8'
_cell_volume   526.37074485
_cell_formula_units_Z   2
loop_
 _symmetry_equiv_pos_site_id
 _symmetry_equiv_pos_as_xyz
  1  'x, y, z'
loop_
 _atom_site_type_symbol
 _atom_site_label
 _atom_site_symmetry_multiplicity
 _atom_site_fract_x
 _atom_site_fract_y
 _atom_site_fract_z
 _atom_site_occupancy
  Rb  Rb0  1  0.814150  0.185850  0.750000  1
  Rb  Rb1  1  0.064513  0.935487  0.750000  1
  Rb  Rb2  1  0.185850  0.814150  0.250000  1
  Rb  Rb3  1  0.935487  0.064513  0.250000  1
  Na  Na4  1  0.721846  0.278154  0.250000  1
  Na  Na5  1  0.527419  0.472581  0.250000  1
  Na  Na6  1  0.472581  0.527419  0.750000  1
  Na  Na7  1  0.278154  0.721846  0.750000  1
  Ge  Ge8  1  0.372082  0.627918  0.250000  1
  Ge  Ge9  1  0.627918  0.372082  0.750000  1
  S  S10  1  0.511660  0.882302  0.338728  1
  S  S11  1  0.767406  0.628704  0.474921  1
  S  S12  1  0.232594  0.371296  0.525079  1
  S  S13  1  0.488340  0.117698  0.661272  1
  S  S14  1  0.371296  0.232594  0.025079  1
  S  S15  1  0.117698  0.488340  0.161272  1
  S  S16  1  0.882302  0.511660  0.838728  1
  S  S17  1  0.628704  0.767406  0.974921  1
