# generated using pymatgen
data_YHo3Sc4(ReB6)4
_symmetry_space_group_name_H-M   'P 1'
_cell_length_a   3.58132000
_cell_length_b   9.00374900
_cell_length_c   11.37841600
_cell_angle_alpha   89.99826846
_cell_angle_beta   90.00000000
_cell_angle_gamma   90.00000000
_symmetry_Int_Tables_number   1
_chemical_formula_structural   YHo3Sc4(ReB6)4
_chemical_formula_sum   'Y1 Ho3 Sc4 Re4 B24'
_cell_volume   366.90050983
_cell_formula_units_Z   1
loop_
 _symmetry_equiv_pos_site_id
 _symmetry_equiv_pos_as_xyz
  1  'x, y, z'
loop_
 _atom_site_type_symbol
 _atom_site_label
 _atom_site_symmetry_multiplicity
 _atom_site_fract_x
 _atom_site_fract_y
 _atom_site_fract_z
 _atom_site_occupancy
  Y  Y0  1  0.000000  0.321642  0.414085  1
  Ho  Ho1  1  0.000000  0.678223  0.586003  1
  Ho  Ho2  1  0.000000  0.821768  0.085993  1
  Ho  Ho3  1  0.000000  0.178198  0.914025  1
  Sc  Sc4  1  0.000000  0.944100  0.370280  1
  Sc  Sc5  1  0.000000  0.055738  0.629755  1
  Sc  Sc6  1  0.000000  0.444128  0.129708  1
  Sc  Sc7  1  0.000000  0.555907  0.870264  1
  Re  Re8  1  0.000000  0.641070  0.318366  1
  Re  Re9  1  0.000000  0.359349  0.681842  1
  Re  Re10  1  0.000000  0.140493  0.181227  1
  Re  Re11  1  0.000000  0.859310  0.818465  1
  B  B12  1  0.500000  0.554688  0.432748  1
  B  B13  1  0.500000  0.445921  0.567560  1
  B  B14  1  0.500000  0.054273  0.067211  1
  B  B15  1  0.500000  0.945700  0.932746  1
  B  B16  1  0.500000  0.754608  0.418691  1
  B  B17  1  0.500000  0.245325  0.581720  1
  B  B18  1  0.500000  0.254584  0.081227  1
  B  B19  1  0.500000  0.745417  0.918693  1
  B  B20  1  0.500000  0.795320  0.264659  1
  B  B21  1  0.500000  0.204655  0.735399  1
  B  B22  1  0.500000  0.295292  0.234930  1
  B  B23  1  0.500000  0.704655  0.764752  1
  B  B24  1  0.500000  0.629374  0.182835  1
  B  B25  1  0.500000  0.370724  0.817147  1
  B  B26  1  0.500000  0.128927  0.316839  1
  B  B27  1  0.500000  0.870692  0.682943  1
  B  B28  1  0.500000  0.981291  0.213598  1
  B  B29  1  0.500000  0.018634  0.786378  1
  B  B30  1  0.500000  0.481671  0.286086  1
  B  B31  1  0.500000  0.518691  0.713751  1
  B  B32  1  0.500000  0.595635  0.026128  1
  B  B33  1  0.500000  0.404388  0.973827  1
  B  B34  1  0.500000  0.095273  0.473961  1
  B  B35  1  0.500000  0.904335  0.526156  1
