# generated using pymatgen
data_Tb4Re2TcOs5
_symmetry_space_group_name_H-M   'P 1'
_cell_length_a   5.39027825
_cell_length_b   5.21867087
_cell_length_c   8.99043800
_cell_angle_alpha   90.00000000
_cell_angle_beta   90.00000000
_cell_angle_gamma   118.40846542
_symmetry_Int_Tables_number   1
_chemical_formula_structural   Tb4Re2TcOs5
_chemical_formula_sum   'Tb4 Re2 Tc1 Os5'
_cell_volume   222.44694411
_cell_formula_units_Z   1
loop_
 _symmetry_equiv_pos_site_id
 _symmetry_equiv_pos_as_xyz
  1  'x, y, z'
loop_
 _atom_site_type_symbol
 _atom_site_label
 _atom_site_symmetry_multiplicity
 _atom_site_fract_x
 _atom_site_fract_y
 _atom_site_fract_z
 _atom_site_occupancy
  Tb  Tb0  1  0.330052  0.662539  0.437344  1
  Tb  Tb1  1  0.669899  0.330353  0.564514  1
  Tb  Tb2  1  0.669899  0.330353  0.935486  1
  Tb  Tb3  1  0.330052  0.662539  0.062656  1
  Re  Re4  1  0.832784  0.668464  0.250000  1
  Re  Re5  1  0.166555  0.837293  0.750000  1
  Tc  Tc6  1  0.828068  0.179563  0.250000  1
  Os  Os7  1  0.000171  0.985060  0.501156  1
  Os  Os8  1  0.000171  0.985060  0.998844  1
  Os  Os9  1  0.344878  0.175395  0.250000  1
  Os  Os10  1  0.173636  0.354468  0.750000  1
  Os  Os11  1  0.653837  0.828914  0.750000  1
