# generated using pymatgen
data_Tm2VP4Rh5
_symmetry_space_group_name_H-M   'P 1'
_cell_length_a   3.89807000
_cell_length_b   11.10589447
_cell_length_c   12.80959384
_cell_angle_alpha   89.97512179
_cell_angle_beta   90.00000000
_cell_angle_gamma   90.00000000
_symmetry_Int_Tables_number   1
_chemical_formula_structural   Tm2VP4Rh5
_chemical_formula_sum   'Tm6 V3 P12 Rh15'
_cell_volume   554.54717213
_cell_formula_units_Z   3
loop_
 _symmetry_equiv_pos_site_id
 _symmetry_equiv_pos_as_xyz
  1  'x, y, z'
loop_
 _atom_site_type_symbol
 _atom_site_label
 _atom_site_symmetry_multiplicity
 _atom_site_fract_x
 _atom_site_fract_y
 _atom_site_fract_z
 _atom_site_occupancy
  Tm  Tm0  1  0.000000  0.505277  0.518840  1
  Tm  Tm1  1  0.500000  0.997843  0.480043  1
  Tm  Tm2  1  0.500000  0.817158  0.200220  1
  Tm  Tm3  1  0.500000  0.182247  0.207158  1
  Tm  Tm4  1  0.000000  0.679205  0.798068  1
  Tm  Tm5  1  0.000000  0.317756  0.791938  1
  V  V6  1  0.500000  0.496762  0.158436  1
  V  V7  1  0.000000  0.999887  0.842374  1
  V  V8  1  0.500000  0.326163  0.000338  1
  P  P9  1  0.500000  0.489479  0.879272  1
  P  P10  1  0.000000  0.002317  0.119877  1
  P  P11  1  0.500000  0.503143  0.346369  1
  P  P12  1  0.000000  0.998657  0.655424  1
  P  P13  1  0.500000  0.314258  0.617325  1
  P  P14  1  0.500000  0.685374  0.617770  1
  P  P15  1  0.000000  0.187812  0.383333  1
  P  P16  1  0.000000  0.817466  0.380692  1
  P  P17  1  0.500000  0.845660  0.889194  1
  P  P18  1  0.500000  0.155097  0.884526  1
  P  P19  1  0.000000  0.652304  0.109493  1
  P  P20  1  0.000000  0.348786  0.116890  1
  Rh  Rh21  1  0.500000  0.498884  0.699384  1
  Rh  Rh22  1  0.000000  0.004011  0.298444  1
  Rh  Rh23  1  0.000000  0.496317  0.985580  1
  Rh  Rh24  1  0.500000  0.001200  0.013865  1
  Rh  Rh25  1  0.500000  0.666859  0.989455  1
  Rh  Rh26  1  0.000000  0.173418  0.004043  1
  Rh  Rh27  1  0.000000  0.832250  0.009164  1
  Rh  Rh28  1  0.500000  0.294846  0.433692  1
  Rh  Rh29  1  0.500000  0.708248  0.430688  1
  Rh  Rh30  1  0.000000  0.204394  0.568759  1
  Rh  Rh31  1  0.000000  0.795128  0.568387  1
  Rh  Rh32  1  0.500000  0.872419  0.710982  1
  Rh  Rh33  1  0.500000  0.123521  0.706848  1
  Rh  Rh34  1  0.000000  0.628208  0.288250  1
  Rh  Rh35  1  0.000000  0.377644  0.294879  1
