# generated using pymatgen
data_NdEu(Sn2Ir)4
_symmetry_space_group_name_H-M   'P 1'
_cell_length_a   4.53401200
_cell_length_b   7.27541066
_cell_length_c   18.72590307
_cell_angle_alpha   89.80451298
_cell_angle_beta   90.00000000
_cell_angle_gamma   90.00000000
_symmetry_Int_Tables_number   1
_chemical_formula_structural   NdEu(Sn2Ir)4
_chemical_formula_sum   'Nd2 Eu2 Sn16 Ir8'
_cell_volume   617.70400942
_cell_formula_units_Z   2
loop_
 _symmetry_equiv_pos_site_id
 _symmetry_equiv_pos_as_xyz
  1  'x, y, z'
loop_
 _atom_site_type_symbol
 _atom_site_label
 _atom_site_symmetry_multiplicity
 _atom_site_fract_x
 _atom_site_fract_y
 _atom_site_fract_z
 _atom_site_occupancy
  Nd  Nd0  1  0.750000  0.501721  0.642856  1
  Nd  Nd1  1  0.250000  0.498279  0.357144  1
  Eu  Eu2  1  0.250000  0.002894  0.857787  1
  Eu  Eu3  1  0.750000  0.997106  0.142213  1
  Sn  Sn4  1  0.250000  0.275086  0.193177  1
  Sn  Sn5  1  0.750000  0.979529  0.567358  1
  Sn  Sn6  1  0.750000  0.301161  0.818164  1
  Sn  Sn7  1  0.250000  0.132385  0.032271  1
  Sn  Sn8  1  0.750000  0.197423  0.317453  1
  Sn  Sn9  1  0.250000  0.479942  0.931665  1
  Sn  Sn10  1  0.750000  0.867615  0.967729  1
  Sn  Sn11  1  0.250000  0.367023  0.532119  1
  Sn  Sn12  1  0.250000  0.698839  0.181836  1
  Sn  Sn13  1  0.750000  0.520058  0.068335  1
  Sn  Sn14  1  0.750000  0.724914  0.806823  1
  Sn  Sn15  1  0.250000  0.020471  0.432642  1
  Sn  Sn16  1  0.750000  0.777605  0.305791  1
  Sn  Sn17  1  0.750000  0.632977  0.467881  1
  Sn  Sn18  1  0.250000  0.222395  0.694209  1
  Sn  Sn19  1  0.250000  0.802577  0.682547  1
  Ir  Ir20  1  0.250000  0.516232  0.784466  1
  Ir  Ir21  1  0.250000  0.745640  0.035649  1
  Ir  Ir22  1  0.750000  0.248646  0.464107  1
  Ir  Ir23  1  0.250000  0.982582  0.287337  1
  Ir  Ir24  1  0.250000  0.751354  0.535893  1
  Ir  Ir25  1  0.750000  0.254360  0.964351  1
  Ir  Ir26  1  0.750000  0.017418  0.712663  1
  Ir  Ir27  1  0.750000  0.483768  0.215534  1
