# generated using pymatgen
data_Nd8Dy11HoSn16
_symmetry_space_group_name_H-M   'P 1'
_cell_length_a   8.13254500
_cell_length_b   8.23314401
_cell_length_c   15.55468700
_cell_angle_alpha   90.00000000
_cell_angle_beta   90.00000000
_cell_angle_gamma   89.99781482
_symmetry_Int_Tables_number   1
_chemical_formula_structural   Nd8Dy11HoSn16
_chemical_formula_sum   'Nd8 Dy11 Ho1 Sn16'
_cell_volume   1041.48606352
_cell_formula_units_Z   1
loop_
 _symmetry_equiv_pos_site_id
 _symmetry_equiv_pos_as_xyz
  1  'x, y, z'
loop_
 _atom_site_type_symbol
 _atom_site_label
 _atom_site_symmetry_multiplicity
 _atom_site_fract_x
 _atom_site_fract_y
 _atom_site_fract_z
 _atom_site_occupancy
  Nd  Nd0  1  0.516043  0.321087  0.903179  1
  Nd  Nd1  1  0.016008  0.178892  0.596768  1
  Nd  Nd2  1  0.483885  0.679009  0.403130  1
  Nd  Nd3  1  0.984010  0.821199  0.096869  1
  Nd  Nd4  1  0.483885  0.679009  0.096870  1
  Nd  Nd5  1  0.984010  0.821199  0.403131  1
  Nd  Nd6  1  0.516043  0.321087  0.596821  1
  Nd  Nd7  1  0.016008  0.178892  0.903232  1
  Dy  Dy8  1  0.362489  0.836075  0.877200  1
  Dy  Dy9  1  0.862464  0.663895  0.622872  1
  Dy  Dy10  1  0.637450  0.163891  0.377244  1
  Dy  Dy11  1  0.137570  0.336055  0.122773  1
  Dy  Dy12  1  0.637450  0.163891  0.122756  1
  Dy  Dy13  1  0.137570  0.336055  0.377227  1
  Dy  Dy14  1  0.362489  0.836075  0.622800  1
  Dy  Dy15  1  0.862464  0.663895  0.877128  1
  Dy  Dy16  1  0.194943  0.502669  0.750000  1
  Dy  Dy17  1  0.694863  0.997349  0.750000  1
  Dy  Dy18  1  0.805108  0.497329  0.250000  1
  Ho  Ho19  1  0.305087  0.002768  0.250000  1
  Sn  Sn20  1  0.301145  0.039479  0.042211  1
  Sn  Sn21  1  0.801120  0.460384  0.457980  1
  Sn  Sn22  1  0.698815  0.960294  0.542133  1
  Sn  Sn23  1  0.198838  0.539630  0.957874  1
  Sn  Sn24  1  0.698815  0.960294  0.957867  1
  Sn  Sn25  1  0.198838  0.539630  0.542126  1
  Sn  Sn26  1  0.301145  0.039479  0.457789  1
  Sn  Sn27  1  0.801120  0.460384  0.042020  1
  Sn  Sn28  1  0.560938  0.621686  0.750000  1
  Sn  Sn29  1  0.060930  0.878404  0.750000  1
  Sn  Sn30  1  0.438967  0.378063  0.250000  1
  Sn  Sn31  1  0.939572  0.121430  0.250000  1
  Sn  Sn32  1  0.323488  0.142940  0.750000  1
  Sn  Sn33  1  0.823624  0.356989  0.750000  1
  Sn  Sn34  1  0.676234  0.857258  0.250000  1
  Sn  Sn35  1  0.176573  0.643335  0.250000  1
