# generated using pymatgen
data_Tb3Yb5(OsC2)4
_symmetry_space_group_name_H-M   'P 1'
_cell_length_a   5.13815700
_cell_length_b   6.43385949
_cell_length_c   10.15134660
_cell_angle_alpha   90.20704879
_cell_angle_beta   90.00000000
_cell_angle_gamma   90.00000000
_symmetry_Int_Tables_number   1
_chemical_formula_structural   Tb3Yb5(OsC2)4
_chemical_formula_sum   'Tb3 Yb5 Os4 C8'
_cell_volume   335.58285344
_cell_formula_units_Z   1
loop_
 _symmetry_equiv_pos_site_id
 _symmetry_equiv_pos_as_xyz
  1  'x, y, z'
loop_
 _atom_site_type_symbol
 _atom_site_label
 _atom_site_symmetry_multiplicity
 _atom_site_fract_x
 _atom_site_fract_y
 _atom_site_fract_z
 _atom_site_occupancy
  Tb  Tb0  1  0.250000  0.688757  0.552571  1
  Tb  Tb1  1  0.750000  0.311912  0.443560  1
  Tb  Tb2  1  0.750000  0.811917  0.056507  1
  Yb  Yb3  1  0.250000  0.195287  0.948205  1
  Yb  Yb4  1  0.250000  0.531118  0.223711  1
  Yb  Yb5  1  0.750000  0.466395  0.777911  1
  Yb  Yb6  1  0.750000  0.968439  0.726254  1
  Yb  Yb7  1  0.250000  0.032594  0.273802  1
  Os  Os8  1  0.250000  0.727462  0.855801  1
  Os  Os9  1  0.750000  0.273638  0.141764  1
  Os  Os10  1  0.750000  0.774979  0.358862  1
  Os  Os11  1  0.250000  0.226602  0.643794  1
  C  C12  1  0.250000  0.466680  0.755307  1
  C  C13  1  0.750000  0.536912  0.242664  1
  C  C14  1  0.750000  0.036444  0.257929  1
  C  C15  1  0.250000  0.962139  0.738452  1
  C  C16  1  0.250000  0.800039  0.035630  1
  C  C17  1  0.750000  0.187565  0.966119  1
  C  C18  1  0.750000  0.688504  0.536974  1
  C  C19  1  0.250000  0.312616  0.464185  1
