# generated using pymatgen
data_Yb2VN3
_symmetry_space_group_name_H-M   'P 1'
_cell_length_a   5.85766529
_cell_length_b   5.85766455
_cell_length_c   11.53356497
_cell_angle_alpha   88.92875431
_cell_angle_beta   88.92874999
_cell_angle_gamma   123.60715414
_symmetry_Int_Tables_number   1
_chemical_formula_structural   Yb2VN3
_chemical_formula_sum   'Yb8 V4 N12'
_cell_volume   329.33681588
_cell_formula_units_Z   4
loop_
 _symmetry_equiv_pos_site_id
 _symmetry_equiv_pos_as_xyz
  1  'x, y, z'
loop_
 _atom_site_type_symbol
 _atom_site_label
 _atom_site_symmetry_multiplicity
 _atom_site_fract_x
 _atom_site_fract_y
 _atom_site_fract_z
 _atom_site_occupancy
  Yb  Yb0  1  0.616080  0.840432  0.078412  1
  Yb  Yb1  1  0.463211  0.055281  0.351606  1
  Yb  Yb2  1  0.055281  0.463211  0.851606  1
  Yb  Yb3  1  0.536789  0.944719  0.648394  1
  Yb  Yb4  1  0.383920  0.159568  0.921588  1
  Yb  Yb5  1  0.840432  0.616080  0.578412  1
  Yb  Yb6  1  0.159568  0.383920  0.421588  1
  Yb  Yb7  1  0.944719  0.536789  0.148394  1
  V  V8  1  0.768489  0.768310  0.838504  1
  V  V9  1  0.231690  0.231511  0.661496  1
  V  V10  1  0.231511  0.231690  0.161496  1
  V  V11  1  0.768310  0.768489  0.338504  1
  N  N12  1  0.093638  0.906362  0.750000  1
  N  N13  1  0.906362  0.093638  0.250000  1
  N  N14  1  0.506270  0.493730  0.750000  1
  N  N15  1  0.493730  0.506270  0.250000  1
  N  N16  1  0.337329  0.007288  0.127335  1
  N  N17  1  0.992712  0.662671  0.372665  1
  N  N18  1  0.662671  0.992712  0.872665  1
  N  N19  1  0.007288  0.337329  0.627335  1
  N  N20  1  0.806520  0.619167  0.963573  1
  N  N21  1  0.619167  0.806520  0.463573  1
  N  N22  1  0.193480  0.380833  0.036427  1
  N  N23  1  0.380833  0.193480  0.536427  1
