# generated using pymatgen
data_MnP4Ru7
_symmetry_space_group_name_H-M   'P 1'
_cell_length_a   3.85966400
_cell_length_b   6.02784314
_cell_length_c   6.90658912
_cell_angle_alpha   91.37965159
_cell_angle_beta   90.00000000
_cell_angle_gamma   90.00000000
_symmetry_Int_Tables_number   1
_chemical_formula_structural   MnP4Ru7
_chemical_formula_sum   'Mn1 P4 Ru7'
_cell_volume   160.63831619
_cell_formula_units_Z   1
loop_
 _symmetry_equiv_pos_site_id
 _symmetry_equiv_pos_as_xyz
  1  'x, y, z'
loop_
 _atom_site_type_symbol
 _atom_site_label
 _atom_site_symmetry_multiplicity
 _atom_site_fract_x
 _atom_site_fract_y
 _atom_site_fract_z
 _atom_site_occupancy
  Mn  Mn0  1  0.750000  0.028861  0.669486  1
  P  P1  1  0.250000  0.738388  0.608669  1
  P  P2  1  0.750000  0.253701  0.387334  1
  P  P3  1  0.250000  0.246630  0.887000  1
  P  P4  1  0.750000  0.765998  0.119123  1
  Ru  Ru5  1  0.250000  0.951808  0.331717  1
  Ru  Ru6  1  0.750000  0.524914  0.844182  1
  Ru  Ru7  1  0.250000  0.490218  0.156851  1
  Ru  Ru8  1  0.250000  0.351154  0.569445  1
  Ru  Ru9  1  0.750000  0.637491  0.433722  1
  Ru  Ru10  1  0.250000  0.860023  0.920021  1
  Ru  Ru11  1  0.750000  0.150813  0.072450  1
