# generated using pymatgen
data_Zr18VCo2Re7
_symmetry_space_group_name_H-M   'P 1'
_cell_length_a   8.67443800
_cell_length_b   8.67443742
_cell_length_c   8.50592400
_cell_angle_alpha   90.00000000
_cell_angle_beta   90.00000000
_cell_angle_gamma   120.00000222
_symmetry_Int_Tables_number   1
_chemical_formula_structural   Zr18VCo2Re7
_chemical_formula_sum   'Zr18 V1 Co2 Re7'
_cell_volume   554.28711801
_cell_formula_units_Z   1
loop_
 _symmetry_equiv_pos_site_id
 _symmetry_equiv_pos_as_xyz
  1  'x, y, z'
loop_
 _atom_site_type_symbol
 _atom_site_label
 _atom_site_symmetry_multiplicity
 _atom_site_fract_x
 _atom_site_fract_y
 _atom_site_fract_z
 _atom_site_occupancy
  Zr  Zr0  1  0.542257  0.084513  0.249341  1
  Zr  Zr1  1  0.457743  0.915487  0.750659  1
  Zr  Zr2  1  0.915487  0.457743  0.249341  1
  Zr  Zr3  1  0.542257  0.457743  0.249341  1
  Zr  Zr4  1  0.457743  0.542257  0.750659  1
  Zr  Zr5  1  0.084513  0.542257  0.750659  1
  Zr  Zr6  1  0.199301  0.398602  0.059049  1
  Zr  Zr7  1  0.801434  0.602868  0.557424  1
  Zr  Zr8  1  0.601398  0.800699  0.059049  1
  Zr  Zr9  1  0.199301  0.800699  0.059049  1
  Zr  Zr10  1  0.801434  0.198566  0.557424  1
  Zr  Zr11  1  0.397132  0.198566  0.557424  1
  Zr  Zr12  1  0.800699  0.601398  0.940951  1
  Zr  Zr13  1  0.800699  0.199301  0.940951  1
  Zr  Zr14  1  0.398602  0.199301  0.940951  1
  Zr  Zr15  1  0.602868  0.801434  0.442576  1
  Zr  Zr16  1  0.198566  0.801434  0.442576  1
  Zr  Zr17  1  0.198566  0.397132  0.442576  1
  V  V18  1  0.000000  0.000000  0.500000  1
  Co  Co19  1  0.333333  0.666667  0.248574  1
  Co  Co20  1  0.666667  0.333333  0.751426  1
  Re  Re21  1  0.000000  0.000000  0.000000  1
  Re  Re22  1  0.892042  0.784083  0.253713  1
  Re  Re23  1  0.107958  0.215917  0.746287  1
  Re  Re24  1  0.215917  0.107958  0.253713  1
  Re  Re25  1  0.892042  0.107958  0.253713  1
  Re  Re26  1  0.107958  0.892042  0.746287  1
  Re  Re27  1  0.784083  0.892042  0.746287  1
