# generated using pymatgen
data_Ho4B12IrRh
_symmetry_space_group_name_H-M   'P 1'
_cell_length_a   3.64312400
_cell_length_b   9.17281051
_cell_length_c   11.50172339
_cell_angle_alpha   90.10018278
_cell_angle_beta   90.00000000
_cell_angle_gamma   90.00000000
_symmetry_Int_Tables_number   1
_chemical_formula_structural   Ho4B12IrRh
_chemical_formula_sum   'Ho8 B24 Ir2 Rh2'
_cell_volume   384.36039449
_cell_formula_units_Z   2
loop_
 _symmetry_equiv_pos_site_id
 _symmetry_equiv_pos_as_xyz
  1  'x, y, z'
loop_
 _atom_site_type_symbol
 _atom_site_label
 _atom_site_symmetry_multiplicity
 _atom_site_fract_x
 _atom_site_fract_y
 _atom_site_fract_z
 _atom_site_occupancy
  Ho  Ho0  1  0.500000  0.323497  0.413839  1
  Ho  Ho1  1  0.500000  0.676503  0.586161  1
  Ho  Ho2  1  0.500000  0.178465  0.912640  1
  Ho  Ho3  1  0.500000  0.821535  0.087360  1
  Ho  Ho4  1  0.500000  0.445520  0.126380  1
  Ho  Ho5  1  0.500000  0.554480  0.873620  1
  Ho  Ho6  1  0.500000  0.056410  0.625701  1
  Ho  Ho7  1  0.500000  0.943590  0.374299  1
  B  B8  1  0.000000  0.111849  0.469356  1
  B  B9  1  0.000000  0.888151  0.530644  1
  B  B10  1  0.000000  0.388428  0.969672  1
  B  B11  1  0.000000  0.611572  0.030328  1
  B  B12  1  0.000000  0.133083  0.315651  1
  B  B13  1  0.000000  0.866917  0.684349  1
  B  B14  1  0.000000  0.366118  0.815761  1
  B  B15  1  0.000000  0.633882  0.184239  1
  B  B16  1  0.000000  0.053990  0.065889  1
  B  B17  1  0.000000  0.946010  0.934111  1
  B  B18  1  0.000000  0.446448  0.565390  1
  B  B19  1  0.000000  0.553552  0.434610  1
  B  B20  1  0.000000  0.482988  0.287030  1
  B  B21  1  0.000000  0.517012  0.712970  1
  B  B22  1  0.000000  0.017156  0.786458  1
  B  B23  1  0.000000  0.982844  0.213542  1
  B  B24  1  0.000000  0.249637  0.079031  1
  B  B25  1  0.000000  0.750363  0.920969  1
  B  B26  1  0.000000  0.251469  0.579046  1
  B  B27  1  0.000000  0.748531  0.420954  1
  B  B28  1  0.000000  0.294052  0.234932  1
  B  B29  1  0.000000  0.705948  0.765068  1
  B  B30  1  0.000000  0.205980  0.735364  1
  B  B31  1  0.000000  0.794020  0.264636  1
  Ir  Ir32  1  0.500000  0.138980  0.177830  1
  Ir  Ir33  1  0.500000  0.861020  0.822170  1
  Rh  Rh34  1  0.500000  0.360572  0.679541  1
  Rh  Rh35  1  0.500000  0.639428  0.320459  1
