# generated using pymatgen
data_Nd12Ir2OsAu
_symmetry_space_group_name_H-M   'P 1'
_cell_length_a   6.57569358
_cell_length_b   7.43427357
_cell_length_c   9.90618700
_cell_angle_alpha   90.00000000
_cell_angle_beta   90.00000000
_cell_angle_gamma   90.17664285
_symmetry_Int_Tables_number   1
_chemical_formula_structural   Nd12Ir2OsAu
_chemical_formula_sum   'Nd12 Ir2 Os1 Au1'
_cell_volume   484.26665308
_cell_formula_units_Z   1
loop_
 _symmetry_equiv_pos_site_id
 _symmetry_equiv_pos_as_xyz
  1  'x, y, z'
loop_
 _atom_site_type_symbol
 _atom_site_label
 _atom_site_symmetry_multiplicity
 _atom_site_fract_x
 _atom_site_fract_y
 _atom_site_fract_z
 _atom_site_occupancy
  Nd  Nd0  1  0.339085  0.668905  0.061602  1
  Nd  Nd1  1  0.174060  0.187579  0.441502  1
  Nd  Nd2  1  0.673000  0.323001  0.564316  1
  Nd  Nd3  1  0.830391  0.824616  0.931594  1
  Nd  Nd4  1  0.673000  0.323001  0.935684  1
  Nd  Nd5  1  0.830391  0.824616  0.568406  1
  Nd  Nd6  1  0.339085  0.668905  0.438398  1
  Nd  Nd7  1  0.174060  0.187579  0.058498  1
  Nd  Nd8  1  0.852845  0.517386  0.250000  1
  Nd  Nd9  1  0.620402  0.039853  0.250000  1
  Nd  Nd10  1  0.140800  0.464642  0.750000  1
  Nd  Nd11  1  0.359793  0.962852  0.750000  1
  Ir  Ir12  1  0.939171  0.118421  0.750000  1
  Ir  Ir13  1  0.560582  0.618609  0.750000  1
  Os  Os14  1  0.432273  0.382816  0.250000  1
  Au  Au15  1  0.061062  0.887218  0.250000  1
