# generated using pymatgen
data_Dy3Al3ZnGeIr
_symmetry_space_group_name_H-M   'P 1'
_cell_length_a   7.00798600
_cell_length_b   7.00798608
_cell_length_c   4.22689600
_cell_angle_alpha   90.00000000
_cell_angle_beta   90.00000000
_cell_angle_gamma   119.99999961
_symmetry_Int_Tables_number   1
_chemical_formula_structural   Dy3Al3ZnGeIr
_chemical_formula_sum   'Dy3 Al3 Zn1 Ge1 Ir1'
_cell_volume   179.77887235
_cell_formula_units_Z   1
loop_
 _symmetry_equiv_pos_site_id
 _symmetry_equiv_pos_as_xyz
  1  'x, y, z'
loop_
 _atom_site_type_symbol
 _atom_site_label
 _atom_site_symmetry_multiplicity
 _atom_site_fract_x
 _atom_site_fract_y
 _atom_site_fract_z
 _atom_site_occupancy
  Dy  Dy0  1  0.414740  0.999527  0.000000  1
  Dy  Dy1  1  0.000473  0.415214  0.000000  1
  Dy  Dy2  1  0.584787  0.585259  0.000000  1
  Al  Al3  1  0.773644  0.006913  0.499999  1
  Al  Al4  1  0.233269  0.226356  0.499999  1
  Al  Al5  1  0.993087  0.766731  0.499999  1
  Zn  Zn6  1  0.666666  0.333333  0.499999  1
  Ge  Ge7  1  0.333334  0.666667  0.499999  1
  Ir  Ir8  1  0.000000  0.000000  0.000000  1
