# generated using pymatgen
data_TbNd3(Si5Os3)2
_symmetry_space_group_name_H-M   'P 1'
_cell_length_a   8.20253159
_cell_length_b   8.21637555
_cell_length_c   5.87234047
_cell_angle_alpha   70.38380885
_cell_angle_beta   70.42399867
_cell_angle_gamma   93.66922775
_symmetry_Int_Tables_number   1
_chemical_formula_structural   TbNd3(Si5Os3)2
_chemical_formula_sum   'Tb1 Nd3 Si10 Os6'
_cell_volume   344.23474477
_cell_formula_units_Z   1
loop_
 _symmetry_equiv_pos_site_id
 _symmetry_equiv_pos_as_xyz
  1  'x, y, z'
loop_
 _atom_site_type_symbol
 _atom_site_label
 _atom_site_symmetry_multiplicity
 _atom_site_fract_x
 _atom_site_fract_y
 _atom_site_fract_z
 _atom_site_occupancy
  Tb  Tb0  1  0.867895  0.602898  0.754155  1
  Nd  Nd1  1  0.396925  0.132844  0.745228  1
  Nd  Nd2  1  0.132944  0.396666  0.245166  1
  Nd  Nd3  1  0.602509  0.868055  0.254728  1
  Si  Si4  1  0.060581  0.260145  0.836237  1
  Si  Si5  1  0.739961  0.935050  0.664992  1
  Si  Si6  1  0.937211  0.739118  0.164974  1
  Si  Si7  1  0.261525  0.062088  0.335549  1
  Si  Si8  1  0.207044  0.790381  0.749072  1
  Si  Si9  1  0.791100  0.207809  0.252607  1
  Si  Si10  1  0.514832  0.489406  0.747699  1
  Si  Si11  1  0.488540  0.513316  0.249806  1
  Si  Si12  1  0.772055  0.230215  0.749137  1
  Si  Si13  1  0.226879  0.771911  0.252025  1
  Os  Os14  1  0.254886  0.541233  0.632796  1
  Os  Os15  1  0.457435  0.742997  0.868501  1
  Os  Os16  1  0.744630  0.459460  0.365351  1
  Os  Os17  1  0.543482  0.258891  0.130912  1
  Os  Os18  1  0.002660  0.995545  0.750530  1
  Os  Os19  1  0.996905  0.001972  0.250535  1
