# generated using pymatgen
data_Dy9Er11Co3Bi8Os
_symmetry_space_group_name_H-M   'P 1'
_cell_length_a   7.94026057
_cell_length_b   8.90787900
_cell_length_c   12.41055401
_cell_angle_alpha   90.00000000
_cell_angle_beta   90.20902916
_cell_angle_gamma   90.00000000
_symmetry_Int_Tables_number   1
_chemical_formula_structural   Dy9Er11Co3Bi8Os
_chemical_formula_sum   'Dy9 Er11 Co3 Bi8 Os1'
_cell_volume   877.80356990
_cell_formula_units_Z   1
loop_
 _symmetry_equiv_pos_site_id
 _symmetry_equiv_pos_as_xyz
  1  'x, y, z'
loop_
 _atom_site_type_symbol
 _atom_site_label
 _atom_site_symmetry_multiplicity
 _atom_site_fract_x
 _atom_site_fract_y
 _atom_site_fract_z
 _atom_site_occupancy
  Dy  Dy0  1  0.347679  0.250000  0.699413  1
  Dy  Dy1  1  0.377236  0.750000  0.693406  1
  Dy  Dy2  1  0.619237  0.250000  0.311489  1
  Dy  Dy3  1  0.880097  0.250000  0.812104  1
  Dy  Dy4  1  0.119350  0.750000  0.186158  1
  Dy  Dy5  1  0.944858  0.750000  0.503920  1
  Dy  Dy6  1  0.051102  0.250000  0.496482  1
  Dy  Dy7  1  0.450042  0.250000  0.997317  1
  Dy  Dy8  1  0.549603  0.750000  0.002685  1
  Er  Er9  1  0.847308  0.750000  0.800912  1
  Er  Er10  1  0.152158  0.250000  0.197777  1
  Er  Er11  1  0.654573  0.750000  0.294433  1
  Er  Er12  1  0.675063  0.041511  0.564939  1
  Er  Er13  1  0.325695  0.964756  0.436081  1
  Er  Er14  1  0.173813  0.965754  0.936710  1
  Er  Er15  1  0.325695  0.535244  0.436081  1
  Er  Er16  1  0.825567  0.036262  0.063213  1
  Er  Er17  1  0.675063  0.458489  0.564939  1
  Er  Er18  1  0.825567  0.463738  0.063213  1
  Er  Er19  1  0.173813  0.534246  0.936710  1
  Co  Co20  1  0.434419  0.250000  0.491394  1
  Co  Co21  1  0.060439  0.250000  0.992693  1
  Co  Co22  1  0.938445  0.750000  0.006662  1
  Bi  Bi23  1  0.570422  0.492423  0.827290  1
  Bi  Bi24  1  0.429855  0.507325  0.173627  1
  Bi  Bi25  1  0.069098  0.507792  0.674719  1
  Bi  Bi26  1  0.429855  0.992675  0.173627  1
  Bi  Bi27  1  0.932347  0.492509  0.325518  1
  Bi  Bi28  1  0.570422  0.007577  0.827290  1
  Bi  Bi29  1  0.932347  0.007491  0.325518  1
  Bi  Bi30  1  0.069098  0.992208  0.674719  1
  Os  Os31  1  0.569733  0.750000  0.508961  1
