# generated using pymatgen
data_Tb7Er(ZnRh)2
_symmetry_space_group_name_H-M   'P 1'
_cell_length_a   9.52124517
_cell_length_b   9.51340248
_cell_length_c   9.51340340
_cell_angle_alpha   60.05583020
_cell_angle_beta   60.02006015
_cell_angle_gamma   60.02004838
_symmetry_Int_Tables_number   1
_chemical_formula_structural   Tb7Er(ZnRh)2
_chemical_formula_sum   'Tb14 Er2 Zn4 Rh4'
_cell_volume   609.76870484
_cell_formula_units_Z   2
loop_
 _symmetry_equiv_pos_site_id
 _symmetry_equiv_pos_as_xyz
  1  'x, y, z'
loop_
 _atom_site_type_symbol
 _atom_site_label
 _atom_site_symmetry_multiplicity
 _atom_site_fract_x
 _atom_site_fract_y
 _atom_site_fract_z
 _atom_site_occupancy
  Tb  Tb0  1  0.190798  0.191365  0.808645  1
  Tb  Tb1  1  0.646447  0.061751  0.646316  1
  Tb  Tb2  1  0.063726  0.064238  0.436400  1
  Tb  Tb3  1  0.436507  0.435754  0.063605  1
  Tb  Tb4  1  0.646516  0.645691  0.645691  1
  Tb  Tb5  1  0.808598  0.190860  0.190860  1
  Tb  Tb6  1  0.190273  0.809130  0.809130  1
  Tb  Tb7  1  0.061389  0.646248  0.646248  1
  Tb  Tb8  1  0.436894  0.063865  0.063865  1
  Tb  Tb9  1  0.436507  0.063605  0.435754  1
  Tb  Tb10  1  0.063726  0.436400  0.064238  1
  Tb  Tb11  1  0.646447  0.646316  0.061751  1
  Tb  Tb12  1  0.190798  0.808645  0.191365  1
  Tb  Tb13  1  0.063348  0.436120  0.436120  1
  Er  Er14  1  0.808788  0.809238  0.190760  1
  Er  Er15  1  0.808788  0.190760  0.809238  1
  Zn  Zn16  1  0.420399  0.420355  0.420355  1
  Zn  Zn17  1  0.420518  0.420282  0.738954  1
  Zn  Zn18  1  0.420518  0.738954  0.420282  1
  Zn  Zn19  1  0.739033  0.420403  0.420403  1
  Rh  Rh20  1  0.856817  0.429451  0.856799  1
  Rh  Rh21  1  0.856785  0.856944  0.856944  1
  Rh  Rh22  1  0.856817  0.856799  0.429451  1
  Rh  Rh23  1  0.429567  0.856826  0.856826  1
