# generated using pymatgen
data_Ba5Os3O15F
_symmetry_space_group_name_H-M   'P 1'
_cell_length_a   10.83758900
_cell_length_b   10.83758978
_cell_length_c   7.77546400
_cell_angle_alpha   90.00000000
_cell_angle_beta   90.00000000
_cell_angle_gamma   120.00000068
_symmetry_Int_Tables_number   1
_chemical_formula_structural   Ba5Os3O15F
_chemical_formula_sum   'Ba10 Os6 O30 F2'
_cell_volume   790.90137190
_cell_formula_units_Z   2
loop_
 _symmetry_equiv_pos_site_id
 _symmetry_equiv_pos_as_xyz
  1  'x, y, z'
loop_
 _atom_site_type_symbol
 _atom_site_label
 _atom_site_symmetry_multiplicity
 _atom_site_fract_x
 _atom_site_fract_y
 _atom_site_fract_z
 _atom_site_occupancy
  Ba  Ba0  1  0.000000  0.253198  0.757855  1
  Ba  Ba1  1  0.000000  0.746802  0.257855  1
  Ba  Ba2  1  0.253198  0.253198  0.257855  1
  Ba  Ba3  1  0.746802  0.000000  0.257855  1
  Ba  Ba4  1  0.253198  0.000000  0.757855  1
  Ba  Ba5  1  0.666667  0.333333  0.491551  1
  Ba  Ba6  1  0.746802  0.746802  0.757855  1
  Ba  Ba7  1  0.333333  0.666667  0.491551  1
  Ba  Ba8  1  0.666667  0.333333  0.991551  1
  Ba  Ba9  1  0.333333  0.666667  0.991551  1
  Os  Os10  1  0.386065  0.000000  0.208700  1
  Os  Os11  1  0.000000  0.613935  0.708700  1
  Os  Os12  1  0.613935  0.613935  0.208700  1
  Os  Os13  1  0.386065  0.386065  0.708700  1
  Os  Os14  1  0.000000  0.386065  0.208700  1
  Os  Os15  1  0.613935  0.000000  0.708700  1
  O  O16  1  0.251132  0.866621  0.058951  1
  O  O17  1  0.553347  0.421508  0.239224  1
  O  O18  1  0.384512  0.133379  0.058951  1
  O  O19  1  0.868162  0.421508  0.739224  1
  O  O20  1  0.446653  0.578492  0.739224  1
  O  O21  1  0.553347  0.131838  0.739224  1
  O  O22  1  0.578492  0.446653  0.739224  1
  O  O23  1  0.288432  0.000000  0.387768  1
  O  O24  1  0.133379  0.384512  0.058951  1
  O  O25  1  0.288432  0.288432  0.887768  1
  O  O26  1  0.000000  0.711568  0.887768  1
  O  O27  1  0.711568  0.000000  0.887768  1
  O  O28  1  0.421508  0.553347  0.239224  1
  O  O29  1  0.711568  0.711568  0.387768  1
  O  O30  1  0.000000  0.288432  0.387768  1
  O  O31  1  0.131838  0.553347  0.739224  1
  O  O32  1  0.615488  0.866621  0.558951  1
  O  O33  1  0.384512  0.251132  0.558951  1
  O  O34  1  0.748868  0.133379  0.558951  1
  O  O35  1  0.866621  0.251132  0.058951  1
  O  O36  1  0.251132  0.384512  0.558951  1
  O  O37  1  0.868162  0.446653  0.239224  1
  O  O38  1  0.615488  0.748868  0.058951  1
  O  O39  1  0.131838  0.578492  0.239224  1
  O  O40  1  0.446653  0.868162  0.239224  1
  O  O41  1  0.748868  0.615488  0.058951  1
  O  O42  1  0.133379  0.748868  0.558951  1
  O  O43  1  0.578492  0.131838  0.239224  1
  O  O44  1  0.421508  0.868162  0.739224  1
  O  O45  1  0.866621  0.615488  0.558951  1
  F  F46  1  0.000000  0.000000  0.226582  1
  F  F47  1  0.000000  0.000000  0.726582  1
