# generated using pymatgen
data_Ho2TmCo7(P3Ru)2
_symmetry_space_group_name_H-M   'P 1'
_cell_length_a   3.72667100
_cell_length_b   10.53628600
_cell_length_c   12.28239300
_cell_angle_alpha   90.00000000
_cell_angle_beta   90.00000000
_cell_angle_gamma   90.00000000
_symmetry_Int_Tables_number   1
_chemical_formula_structural   Ho2TmCo7(P3Ru)2
_chemical_formula_sum   'Ho4 Tm2 Co14 P12 Ru4'
_cell_volume   482.27149562
_cell_formula_units_Z   2
loop_
 _symmetry_equiv_pos_site_id
 _symmetry_equiv_pos_as_xyz
  1  'x, y, z'
loop_
 _atom_site_type_symbol
 _atom_site_label
 _atom_site_symmetry_multiplicity
 _atom_site_fract_x
 _atom_site_fract_y
 _atom_site_fract_z
 _atom_site_occupancy
  Ho  Ho0  1  0.000000  0.500000  0.529444  1
  Ho  Ho1  1  0.500000  0.000000  0.478477  1
  Ho  Ho2  1  0.500000  0.818055  0.202663  1
  Ho  Ho3  1  0.500000  0.181945  0.202663  1
  Tm  Tm4  1  0.000000  0.682601  0.795792  1
  Tm  Tm5  1  0.000000  0.317399  0.795792  1
  Co  Co6  1  0.000000  0.500000  0.984592  1
  Co  Co7  1  0.500000  0.000000  0.012740  1
  Co  Co8  1  0.000000  0.200291  0.574368  1
  Co  Co9  1  0.000000  0.799709  0.574368  1
  Co  Co10  1  0.500000  0.879138  0.711156  1
  Co  Co11  1  0.500000  0.120862  0.711156  1
  Co  Co12  1  0.000000  0.621170  0.286945  1
  Co  Co13  1  0.000000  0.378830  0.286945  1
  Co  Co14  1  0.500000  0.332678  0.988940  1
  Co  Co15  1  0.500000  0.667322  0.988940  1
  Co  Co16  1  0.000000  0.167555  0.008275  1
  Co  Co17  1  0.000000  0.832445  0.008275  1
  Co  Co18  1  0.500000  0.500000  0.705267  1
  Co  Co19  1  0.000000  0.000000  0.294595  1
  P  P20  1  0.500000  0.310075  0.622576  1
  P  P21  1  0.500000  0.689925  0.622576  1
  P  P22  1  0.000000  0.183530  0.382035  1
  P  P23  1  0.000000  0.816470  0.382035  1
  P  P24  1  0.500000  0.500000  0.880997  1
  P  P25  1  0.000000  0.000000  0.116663  1
  P  P26  1  0.500000  0.845623  0.893118  1
  P  P27  1  0.500000  0.154377  0.893118  1
  P  P28  1  0.000000  0.653533  0.104570  1
  P  P29  1  0.000000  0.346467  0.104570  1
  P  P30  1  0.500000  0.500000  0.345520  1
  P  P31  1  0.000000  0.000000  0.651193  1
  Ru  Ru32  1  0.500000  0.296026  0.431197  1
  Ru  Ru33  1  0.500000  0.703974  0.431197  1
  Ru  Ru34  1  0.500000  0.500000  0.156220  1
  Ru  Ru35  1  0.000000  0.000000  0.841020  1
