# generated using pymatgen
data_Ac3Sn6Ir
_symmetry_space_group_name_H-M   'P 1'
_cell_length_a   9.13396828
_cell_length_b   9.13396908
_cell_length_c   13.70893100
_cell_angle_alpha   90.00000000
_cell_angle_beta   90.00000000
_cell_angle_gamma   148.59060692
_symmetry_Int_Tables_number   1
_chemical_formula_structural   Ac3Sn6Ir
_chemical_formula_sum   'Ac6 Sn12 Ir2'
_cell_volume   596.05316565
_cell_formula_units_Z   2
loop_
 _symmetry_equiv_pos_site_id
 _symmetry_equiv_pos_as_xyz
  1  'x, y, z'
loop_
 _atom_site_type_symbol
 _atom_site_label
 _atom_site_symmetry_multiplicity
 _atom_site_fract_x
 _atom_site_fract_y
 _atom_site_fract_z
 _atom_site_occupancy
  Ac  Ac0  1  0.605425  0.394575  0.250000  1
  Ac  Ac1  1  0.394575  0.605425  0.750000  1
  Ac  Ac2  1  0.400188  0.599812  0.406424  1
  Ac  Ac3  1  0.599812  0.400188  0.593576  1
  Ac  Ac4  1  0.400188  0.599812  0.093576  1
  Ac  Ac5  1  0.599812  0.400188  0.906424  1
  Sn  Sn6  1  0.935294  0.064706  0.922006  1
  Sn  Sn7  1  0.064706  0.935294  0.077994  1
  Sn  Sn8  1  0.935294  0.064706  0.577994  1
  Sn  Sn9  1  0.064706  0.935294  0.422006  1
  Sn  Sn10  1  0.954904  0.045096  0.250000  1
  Sn  Sn11  1  0.045096  0.954904  0.750000  1
  Sn  Sn12  1  0.753775  0.246226  0.437800  1
  Sn  Sn13  1  0.246226  0.753774  0.562200  1
  Sn  Sn14  1  0.753775  0.246226  0.062200  1
  Sn  Sn15  1  0.246226  0.753774  0.937800  1
  Sn  Sn16  1  0.235360  0.764640  0.250000  1
  Sn  Sn17  1  0.764640  0.235360  0.750000  1
  Ir  Ir18  1  0.799096  0.200904  0.250000  1
  Ir  Ir19  1  0.200904  0.799096  0.750000  1
