# generated using pymatgen
data_Th10Sn5Bi2Sb
_symmetry_space_group_name_H-M   'P 1'
_cell_length_a   9.73283200
_cell_length_b   9.72544025
_cell_length_c   6.58502500
_cell_angle_alpha   90.00000000
_cell_angle_beta   90.00000000
_cell_angle_gamma   120.02513840
_symmetry_Int_Tables_number   1
_chemical_formula_structural   Th10Sn5Bi2Sb
_chemical_formula_sum   'Th10 Sn5 Bi2 Sb1'
_cell_volume   539.66777927
_cell_formula_units_Z   1
loop_
 _symmetry_equiv_pos_site_id
 _symmetry_equiv_pos_as_xyz
  1  'x, y, z'
loop_
 _atom_site_type_symbol
 _atom_site_label
 _atom_site_symmetry_multiplicity
 _atom_site_fract_x
 _atom_site_fract_y
 _atom_site_fract_z
 _atom_site_occupancy
  Th  Th0  1  0.003394  0.723916  0.750000  1
  Th  Th1  1  0.279478  0.276084  0.750000  1
  Th  Th2  1  0.333673  0.668842  0.496469  1
  Th  Th3  1  0.664833  0.331158  0.496469  1
  Th  Th4  1  0.719934  0.720107  0.250000  1
  Th  Th5  1  0.718188  0.000000  0.750000  1
  Th  Th6  1  0.999828  0.279893  0.250000  1
  Th  Th7  1  0.281463  0.000000  0.250000  1
  Th  Th8  1  0.333673  0.668842  0.003531  1
  Th  Th9  1  0.664833  0.331158  0.003531  1
  Sn  Sn10  1  0.620414  0.000000  0.250000  1
  Sn  Sn11  1  0.379698  0.379932  0.250000  1
  Sn  Sn12  1  0.999762  0.000000  0.000876  1
  Sn  Sn13  1  0.999766  0.620068  0.250000  1
  Sn  Sn14  1  0.999762  0.000000  0.499124  1
  Bi  Bi15  1  0.618858  0.618710  0.750000  1
  Bi  Bi16  1  0.000148  0.381290  0.750000  1
  Sb  Sb17  1  0.382293  0.000000  0.750000  1
