# generated using pymatgen
data_NaMn2(Sb6Ru)2
_symmetry_space_group_name_H-M   'P 1'
_cell_length_a   8.16084474
_cell_length_b   8.18184083
_cell_length_c   8.18184191
_cell_angle_alpha   109.74103344
_cell_angle_beta   109.40540394
_cell_angle_gamma   109.37104620
_symmetry_Int_Tables_number   1
_chemical_formula_structural   NaMn2(Sb6Ru)2
_chemical_formula_sum   'Na1 Mn2 Sb12 Ru2'
_cell_volume   420.00404714
_cell_formula_units_Z   1
loop_
 _symmetry_equiv_pos_site_id
 _symmetry_equiv_pos_as_xyz
  1  'x, y, z'
loop_
 _atom_site_type_symbol
 _atom_site_label
 _atom_site_symmetry_multiplicity
 _atom_site_fract_x
 _atom_site_fract_y
 _atom_site_fract_z
 _atom_site_occupancy
  Na  Na0  1  0.000000  0.000000  0.000000  1
  Mn  Mn1  1  0.500000  0.500000  0.500000  1
  Mn  Mn2  1  0.500000  0.000000  0.000000  1
  Sb  Sb3  1  0.153877  0.495214  0.337057  1
  Sb  Sb4  1  0.502571  0.656940  0.845632  1
  Sb  Sb5  1  0.337129  0.841615  0.183455  1
  Sb  Sb6  1  0.821292  0.663763  0.157530  1
  Sb  Sb7  1  0.662871  0.846324  0.504485  1
  Sb  Sb8  1  0.178708  0.336237  0.842470  1
  Sb  Sb9  1  0.662871  0.158385  0.816545  1
  Sb  Sb10  1  0.337129  0.153676  0.495515  1
  Sb  Sb11  1  0.497429  0.343060  0.154368  1
  Sb  Sb12  1  0.846123  0.504786  0.662943  1
  Sb  Sb13  1  0.846123  0.183182  0.341337  1
  Sb  Sb14  1  0.153877  0.816818  0.658663  1
  Ru  Ru15  1  0.000000  0.500000  0.000000  1
  Ru  Ru16  1  0.000000  0.000000  0.500000  1
