# generated using pymatgen
data_PrInSiRh3
_symmetry_space_group_name_H-M   'P 1'
_cell_length_a   6.96827853
_cell_length_b   6.96751272
_cell_length_c   6.96827893
_cell_angle_alpha   130.96060504
_cell_angle_beta   113.00915504
_cell_angle_gamma   87.34331624
_symmetry_Int_Tables_number   1
_chemical_formula_structural   PrInSiRh3
_chemical_formula_sum   'Pr2 In2 Si2 Rh6'
_cell_volume   224.18370407
_cell_formula_units_Z   2
loop_
 _symmetry_equiv_pos_site_id
 _symmetry_equiv_pos_as_xyz
  1  'x, y, z'
loop_
 _atom_site_type_symbol
 _atom_site_label
 _atom_site_symmetry_multiplicity
 _atom_site_fract_x
 _atom_site_fract_y
 _atom_site_fract_z
 _atom_site_occupancy
  Pr  Pr0  1  0.770167  0.019596  0.249430  1
  Pr  Pr1  1  0.229833  0.980404  0.750570  1
  In  In2  1  0.563046  0.312599  0.749552  1
  In  In3  1  0.436954  0.687401  0.250448  1
  Si  Si4  1  0.106097  0.356427  0.250330  1
  Si  Si5  1  0.893903  0.643573  0.749670  1
  Rh  Rh6  1  0.203492  0.500000  0.703492  1
  Rh  Rh7  1  0.796777  0.000000  0.796777  1
  Rh  Rh8  1  0.796508  0.500000  0.296508  1
  Rh  Rh9  1  0.203223  0.000000  0.203223  1
  Rh  Rh10  1  0.500000  0.500000  0.500000  1
  Rh  Rh11  1  0.000000  0.500000  0.000000  1
