# generated using pymatgen
data_Dy4U2Tc5Ir
_symmetry_space_group_name_H-M   'P 1'
_cell_length_a   5.81268875
_cell_length_b   5.81268877
_cell_length_c   8.22956900
_cell_angle_alpha   90.00000000
_cell_angle_beta   90.00000000
_cell_angle_gamma   120.50635658
_symmetry_Int_Tables_number   1
_chemical_formula_structural   Dy4U2Tc5Ir
_chemical_formula_sum   'Dy4 U2 Tc5 Ir1'
_cell_volume   239.56492516
_cell_formula_units_Z   1
loop_
 _symmetry_equiv_pos_site_id
 _symmetry_equiv_pos_as_xyz
  1  'x, y, z'
loop_
 _atom_site_type_symbol
 _atom_site_label
 _atom_site_symmetry_multiplicity
 _atom_site_fract_x
 _atom_site_fract_y
 _atom_site_fract_z
 _atom_site_occupancy
  Dy  Dy0  1  0.334133  0.665867  0.439196  1
  Dy  Dy1  1  0.668020  0.331980  0.557563  1
  Dy  Dy2  1  0.668020  0.331980  0.942437  1
  Dy  Dy3  1  0.334133  0.665867  0.060804  1
  U  U4  1  0.005267  0.994733  0.502415  1
  U  U5  1  0.005267  0.994733  0.997585  1
  Tc  Tc6  1  0.836985  0.679428  0.250000  1
  Tc  Tc7  1  0.320572  0.163015  0.250000  1
  Tc  Tc8  1  0.163400  0.836600  0.750000  1
  Tc  Tc9  1  0.165129  0.326014  0.750000  1
  Tc  Tc10  1  0.673986  0.834871  0.750000  1
  Ir  Ir11  1  0.825088  0.174912  0.250000  1
