# generated using pymatgen
data_Y6Sc4Si5As
_symmetry_space_group_name_H-M   'P 1'
_cell_length_a   8.29045000
_cell_length_b   8.30301620
_cell_length_c   6.01055600
_cell_angle_alpha   90.00000000
_cell_angle_beta   90.00000000
_cell_angle_gamma   119.94993217
_symmetry_Int_Tables_number   1
_chemical_formula_structural   Y6Sc4Si5As
_chemical_formula_sum   'Y6 Sc4 Si5 As1'
_cell_volume   358.49091734
_cell_formula_units_Z   1
loop_
 _symmetry_equiv_pos_site_id
 _symmetry_equiv_pos_as_xyz
  1  'x, y, z'
loop_
 _atom_site_type_symbol
 _atom_site_label
 _atom_site_symmetry_multiplicity
 _atom_site_fract_x
 _atom_site_fract_y
 _atom_site_fract_z
 _atom_site_occupancy
  Y  Y0  1  0.996298  0.750122  0.750000  1
  Y  Y1  1  0.000575  0.247362  0.250000  1
  Y  Y2  1  0.753212  0.752638  0.250000  1
  Y  Y3  1  0.753865  0.000000  0.750000  1
  Y  Y4  1  0.246177  0.249878  0.750000  1
  Y  Y5  1  0.247579  0.000000  0.250000  1
  Sc  Sc6  1  0.332909  0.664160  0.498123  1
  Sc  Sc7  1  0.668750  0.335840  0.001877  1
  Sc  Sc8  1  0.668750  0.335840  0.498123  1
  Sc  Sc9  1  0.332909  0.664160  0.001877  1
  Si  Si10  1  0.398150  0.396918  0.250000  1
  Si  Si11  1  0.001232  0.603082  0.250000  1
  Si  Si12  1  0.999512  0.397943  0.750000  1
  Si  Si13  1  0.601568  0.602057  0.750000  1
  Si  Si14  1  0.604303  0.000000  0.250000  1
  As  As15  1  0.394214  0.000000  0.750000  1
