# generated using pymatgen
data_Yb4Sn2As4Rh7
_symmetry_space_group_name_H-M   'P 1'
_cell_length_a   7.36147469
_cell_length_b   7.32413833
_cell_length_c   7.32413708
_cell_angle_alpha   109.20290172
_cell_angle_beta   109.50207146
_cell_angle_gamma   109.50207037
_symmetry_Int_Tables_number   1
_chemical_formula_structural   Yb4Sn2As4Rh7
_chemical_formula_sum   'Yb4 Sn2 As4 Rh7'
_cell_volume   304.75825702
_cell_formula_units_Z   1
loop_
 _symmetry_equiv_pos_site_id
 _symmetry_equiv_pos_as_xyz
  1  'x, y, z'
loop_
 _atom_site_type_symbol
 _atom_site_label
 _atom_site_symmetry_multiplicity
 _atom_site_fract_x
 _atom_site_fract_y
 _atom_site_fract_z
 _atom_site_occupancy
  Yb  Yb0  1  0.468772  0.463808  0.463808  1
  Yb  Yb1  1  0.010026  0.505013  0.005013  1
  Yb  Yb2  1  0.468772  0.004964  0.004964  1
  Yb  Yb3  1  0.010026  0.005013  0.505013  1
  Sn  Sn4  1  0.690068  0.991070  0.698998  1
  Sn  Sn5  1  0.690068  0.698998  0.991070  1
  As  As6  1  0.330268  0.336313  0.993955  1
  As  As7  1  0.988193  0.674422  0.674422  1
  As  As8  1  0.988193  0.313771  0.313771  1
  As  As9  1  0.330268  0.993955  0.336313  1
  Rh  Rh10  1  0.501524  0.750762  0.250762  1
  Rh  Rh11  1  0.750965  0.249461  0.501504  1
  Rh  Rh12  1  0.240823  0.740510  0.500312  1
  Rh  Rh13  1  0.240823  0.500312  0.740510  1
  Rh  Rh14  1  0.038723  0.019361  0.019361  1
  Rh  Rh15  1  0.501524  0.250762  0.750762  1
  Rh  Rh16  1  0.750965  0.501504  0.249461  1
