# generated using pymatgen
data_Hf3Ti3BI12
_symmetry_space_group_name_H-M   'P 1'
_cell_length_a   9.22975842
_cell_length_b   9.23925265
_cell_length_c   9.25021415
_cell_angle_alpha   106.77647809
_cell_angle_beta   106.69222872
_cell_angle_gamma   106.80352599
_symmetry_Int_Tables_number   1
_chemical_formula_structural   Hf3Ti3BI12
_chemical_formula_sum   'Hf3 Ti3 B1 I12'
_cell_volume   661.23707065
_cell_formula_units_Z   1
loop_
 _symmetry_equiv_pos_site_id
 _symmetry_equiv_pos_as_xyz
  1  'x, y, z'
loop_
 _atom_site_type_symbol
 _atom_site_label
 _atom_site_symmetry_multiplicity
 _atom_site_fract_x
 _atom_site_fract_y
 _atom_site_fract_z
 _atom_site_occupancy
  Hf  Hf0  1  0.914645  0.971944  0.730594  1
  Hf  Hf1  1  0.729939  0.912215  0.975148  1
  Hf  Hf2  1  0.028763  0.270763  0.088452  1
  Ti  Ti3  1  0.977969  0.749541  0.920573  1
  Ti  Ti4  1  0.251970  0.080524  0.026656  1
  Ti  Ti5  1  0.082962  0.022644  0.250380  1
  B  B6  1  0.993891  0.002721  0.996755  1
  I  I7  1  0.923823  0.299200  0.774409  1
  I  I8  1  0.701547  0.226092  0.080083  1
  I  I9  1  0.421997  0.131741  0.351436  1
  I  I10  1  0.867119  0.637594  0.575529  1
  I  I11  1  0.228931  0.077011  0.711098  1
  I  I12  1  0.646624  0.567713  0.863910  1
  I  I13  1  0.362977  0.426648  0.136811  1
  I  I14  1  0.788635  0.924716  0.305577  1
  I  I15  1  0.139483  0.352296  0.432841  1
  I  I16  1  0.562924  0.859592  0.637035  1
  I  I17  1  0.300139  0.785510  0.928532  1
  I  I18  1  0.075663  0.701538  0.214180  1
