# generated using pymatgen
data_TbSc2(NiIr2)3
_symmetry_space_group_name_H-M   'P 1'
_cell_length_a   5.22587352
_cell_length_b   5.22587236
_cell_length_c   8.63130892
_cell_angle_alpha   72.37848314
_cell_angle_beta   72.37847171
_cell_angle_gamma   60.00000201
_symmetry_Int_Tables_number   1
_chemical_formula_structural   TbSc2(NiIr2)3
_chemical_formula_sum   'Tb1 Sc2 Ni3 Ir6'
_cell_volume   191.26023951
_cell_formula_units_Z   1
loop_
 _symmetry_equiv_pos_site_id
 _symmetry_equiv_pos_as_xyz
  1  'x, y, z'
loop_
 _atom_site_type_symbol
 _atom_site_label
 _atom_site_symmetry_multiplicity
 _atom_site_fract_x
 _atom_site_fract_y
 _atom_site_fract_z
 _atom_site_occupancy
  Tb  Tb0  1  0.000000  0.000000  0.000000  1
  Sc  Sc1  1  0.141234  0.141234  0.576301  1
  Sc  Sc2  1  0.858766  0.858766  0.423699  1
  Ni  Ni3  1  0.333209  0.333209  0.000371  1
  Ni  Ni4  1  0.666791  0.666791  0.999629  1
  Ni  Ni5  1  0.500000  0.500000  0.500000  1
  Ir  Ir6  1  0.081746  0.585286  0.747681  1
  Ir  Ir7  1  0.585286  0.585286  0.747681  1
  Ir  Ir8  1  0.585286  0.081746  0.747681  1
  Ir  Ir9  1  0.918254  0.414714  0.252319  1
  Ir  Ir10  1  0.414714  0.414714  0.252319  1
  Ir  Ir11  1  0.414714  0.918254  0.252319  1
