# generated using pymatgen
data_Er(ZnAu)3
_symmetry_space_group_name_H-M   'P 1'
_cell_length_a   5.45816772
_cell_length_b   5.45816537
_cell_length_c   5.67247394
_cell_angle_alpha   102.72401662
_cell_angle_beta   102.72400930
_cell_angle_gamma   122.83311257
_symmetry_Int_Tables_number   1
_chemical_formula_structural   Er(ZnAu)3
_chemical_formula_sum   'Er1 Zn3 Au3'
_cell_volume   126.05431516
_cell_formula_units_Z   1
loop_
 _symmetry_equiv_pos_site_id
 _symmetry_equiv_pos_as_xyz
  1  'x, y, z'
loop_
 _atom_site_type_symbol
 _atom_site_label
 _atom_site_symmetry_multiplicity
 _atom_site_fract_x
 _atom_site_fract_y
 _atom_site_fract_z
 _atom_site_occupancy
  Er  Er0  1  0.004308  0.004308  0.008615  1
  Zn  Zn1  1  0.247918  0.747918  0.495837  1
  Zn  Zn2  1  0.747918  0.247918  0.495837  1
  Zn  Zn3  1  0.303609  0.303609  0.607219  1
  Au  Au4  1  0.710152  0.710152  0.420305  1
  Au  Au5  1  0.679596  0.306498  0.986094  1
  Au  Au6  1  0.306498  0.679596  0.986094  1
