# generated using pymatgen
data_LaCdIO6
_symmetry_space_group_name_H-M   'P 1'
_cell_length_a   5.39888600
_cell_length_b   5.39888700
_cell_length_c   5.13016900
_cell_angle_alpha   90.00000000
_cell_angle_beta   90.00000000
_cell_angle_gamma   120.00000616
_symmetry_Int_Tables_number   1
_chemical_formula_structural   LaCdIO6
_chemical_formula_sum   'La1 Cd1 I1 O6'
_cell_volume   129.50026924
_cell_formula_units_Z   1
loop_
 _symmetry_equiv_pos_site_id
 _symmetry_equiv_pos_as_xyz
  1  'x, y, z'
loop_
 _atom_site_type_symbol
 _atom_site_label
 _atom_site_symmetry_multiplicity
 _atom_site_fract_x
 _atom_site_fract_y
 _atom_site_fract_z
 _atom_site_occupancy
  La  La0  1  0.333333  0.666667  0.000000  1
  Cd  Cd1  1  0.666667  0.333333  0.500000  1
  I  I2  1  0.000000  0.000000  0.500000  1
  O  O3  1  0.282291  0.995988  0.717811  1
  O  O4  1  0.004012  0.717709  0.282189  1
  O  O5  1  0.282291  0.286305  0.282189  1
  O  O6  1  0.713695  0.995988  0.282189  1
  O  O7  1  0.004012  0.286305  0.717811  1
  O  O8  1  0.713695  0.717709  0.717811  1
