# generated using pymatgen
data_Ho7Co4Sn23Ir2
_symmetry_space_group_name_H-M   'P 1'
_cell_length_a   9.75344890
_cell_length_b   9.75344933
_cell_length_c   10.02253344
_cell_angle_alpha   90.22911185
_cell_angle_beta   89.77087986
_cell_angle_gamma   120.07199036
_symmetry_Int_Tables_number   1
_chemical_formula_structural   Ho7Co4Sn23Ir2
_chemical_formula_sum   'Ho7 Co4 Sn23 Ir2'
_cell_volume   825.09595829
_cell_formula_units_Z   1
loop_
 _symmetry_equiv_pos_site_id
 _symmetry_equiv_pos_as_xyz
  1  'x, y, z'
loop_
 _atom_site_type_symbol
 _atom_site_label
 _atom_site_symmetry_multiplicity
 _atom_site_fract_x
 _atom_site_fract_y
 _atom_site_fract_z
 _atom_site_occupancy
  Ho  Ho0  1  0.479074  0.520926  0.306813  1
  Ho  Ho1  1  0.520926  0.479074  0.693187  1
  Ho  Ho2  1  0.479652  0.958316  0.306293  1
  Ho  Ho3  1  0.520348  0.041684  0.693707  1
  Ho  Ho4  1  0.041684  0.520348  0.306293  1
  Ho  Ho5  1  0.958316  0.479652  0.693707  1
  Ho  Ho6  1  0.000000  0.000000  0.000000  1
  Co  Co7  1  0.830717  0.663606  0.197702  1
  Co  Co8  1  0.169283  0.336394  0.802298  1
  Co  Co9  1  0.336394  0.169283  0.197702  1
  Co  Co10  1  0.663606  0.830717  0.802298  1
  Sn  Sn11  1  0.117738  0.882262  0.273944  1
  Sn  Sn12  1  0.882262  0.117738  0.726056  1
  Sn  Sn13  1  0.124779  0.238212  0.278341  1
  Sn  Sn14  1  0.875221  0.761788  0.721659  1
  Sn  Sn15  1  0.761788  0.875221  0.278341  1
  Sn  Sn16  1  0.238212  0.124779  0.721659  1
  Sn  Sn17  1  0.779175  0.220825  0.457769  1
  Sn  Sn18  1  0.220825  0.779175  0.542231  1
  Sn  Sn19  1  0.780736  0.561169  0.451430  1
  Sn  Sn20  1  0.219264  0.438831  0.548570  1
  Sn  Sn21  1  0.438831  0.219264  0.451430  1
  Sn  Sn22  1  0.561169  0.780736  0.548570  1
  Sn  Sn23  1  0.351263  0.004706  0.005739  1
  Sn  Sn24  1  0.648737  0.995294  0.994261  1
  Sn  Sn25  1  0.004706  0.351263  0.994261  1
  Sn  Sn26  1  0.995294  0.648737  0.005739  1
  Sn  Sn27  1  0.654107  0.654107  0.000000  1
  Sn  Sn28  1  0.345893  0.345893  0.000000  1
  Sn  Sn29  1  0.333719  0.666281  0.119527  1
  Sn  Sn30  1  0.666281  0.333719  0.880473  1
  Sn  Sn31  1  0.336014  0.663986  0.819796  1
  Sn  Sn32  1  0.663986  0.336014  0.180204  1
  Sn  Sn33  1  0.000000  0.000000  0.500000  1
  Ir  Ir34  1  0.831795  0.168205  0.197133  1
  Ir  Ir35  1  0.168205  0.831795  0.802867  1
