# generated using pymatgen
data_Tb8Ti7Nb4Si16Hg
_symmetry_space_group_name_H-M   'P 1'
_cell_length_a   7.10152891
_cell_length_b   7.09796862
_cell_length_c   12.98850563
_cell_angle_alpha   90.15215408
_cell_angle_beta   89.85121310
_cell_angle_gamma   89.59897923
_symmetry_Int_Tables_number   1
_chemical_formula_structural   Tb8Ti7Nb4Si16Hg
_chemical_formula_sum   'Tb8 Ti7 Nb4 Si16 Hg1'
_cell_volume   654.68360753
_cell_formula_units_Z   1
loop_
 _symmetry_equiv_pos_site_id
 _symmetry_equiv_pos_as_xyz
  1  'x, y, z'
loop_
 _atom_site_type_symbol
 _atom_site_label
 _atom_site_symmetry_multiplicity
 _atom_site_fract_x
 _atom_site_fract_y
 _atom_site_fract_z
 _atom_site_occupancy
  Tb  Tb0  1  0.342263  0.000340  0.466509  1
  Tb  Tb1  1  0.497746  0.839517  0.715876  1
  Tb  Tb2  1  0.501130  0.157829  0.215872  1
  Tb  Tb3  1  0.839496  0.497947  0.284133  1
  Tb  Tb4  1  0.157779  0.500677  0.784251  1
  Tb  Tb5  1  0.655731  0.001293  0.968369  1
  Tb  Tb6  1  0.000384  0.342126  0.533091  1
  Tb  Tb7  1  0.000127  0.658024  0.031911  1
  Ti  Ti8  1  0.495069  0.650751  0.124424  1
  Ti  Ti9  1  0.508284  0.349833  0.624814  1
  Ti  Ti10  1  0.651410  0.494090  0.875471  1
  Ti  Ti11  1  0.350632  0.509097  0.375443  1
  Ti  Ti12  1  0.847298  0.989486  0.374367  1
  Ti  Ti13  1  0.009246  0.147211  0.123189  1
  Ti  Ti14  1  0.988939  0.846774  0.625556  1
  Nb  Nb15  1  0.172761  0.826327  0.250629  1
  Nb  Nb16  1  0.826008  0.173105  0.749049  1
  Nb  Nb17  1  0.674445  0.673999  0.499933  1
  Nb  Nb18  1  0.148046  0.009093  0.876819  1
  Si  Si19  1  0.202623  0.131086  0.683022  1
  Si  Si20  1  0.375889  0.721659  0.928013  1
  Si  Si21  1  0.630718  0.295054  0.434027  1
  Si  Si22  1  0.724658  0.373725  0.072718  1
  Si  Si23  1  0.295311  0.631009  0.565835  1
  Si  Si24  1  0.797974  0.868153  0.183731  1
  Si  Si25  1  0.130393  0.201917  0.315675  1
  Si  Si26  1  0.866325  0.797119  0.816672  1
  Si  Si27  1  0.288452  0.932822  0.066848  1
  Si  Si28  1  0.547344  0.791685  0.313248  1
  Si  Si29  1  0.456017  0.206879  0.805344  1
  Si  Si30  1  0.791930  0.547380  0.686147  1
  Si  Si31  1  0.206036  0.456173  0.194677  1
  Si  Si32  1  0.709498  0.047789  0.562862  1
  Si  Si33  1  0.933418  0.289272  0.933787  1
  Si  Si34  1  0.047573  0.709481  0.436850  1
  Hg  Hg35  1  0.329047  0.331278  0.000837  1
