# generated using pymatgen
data_ScZn2P6BrN12
_symmetry_space_group_name_H-M   'P 1'
_cell_length_a   7.29566413
_cell_length_b   7.27805625
_cell_length_c   7.29566191
_cell_angle_alpha   109.39676531
_cell_angle_beta   109.99777432
_cell_angle_gamma   109.39673987
_symmetry_Int_Tables_number   1
_chemical_formula_structural   ScZn2P6BrN12
_chemical_formula_sum   'Sc1 Zn2 P6 Br1 N12'
_cell_volume   296.80452936
_cell_formula_units_Z   1
loop_
 _symmetry_equiv_pos_site_id
 _symmetry_equiv_pos_as_xyz
  1  'x, y, z'
loop_
 _atom_site_type_symbol
 _atom_site_label
 _atom_site_symmetry_multiplicity
 _atom_site_fract_x
 _atom_site_fract_y
 _atom_site_fract_z
 _atom_site_occupancy
  Sc  Sc0  1  0.026479  0.376362  0.026479  1
  Zn  Zn1  1  0.999354  0.998564  0.392201  1
  Zn  Zn2  1  0.392201  0.998564  0.999354  1
  P  P3  1  0.502075  0.257829  0.748822  1
  P  P4  1  0.246687  0.748963  0.493522  1
  P  P5  1  0.738652  0.498868  0.256416  1
  P  P6  1  0.748822  0.257829  0.502075  1
  P  P7  1  0.493522  0.748963  0.246687  1
  P  P8  1  0.256416  0.498868  0.738652  1
  Br  Br9  1  0.026298  0.010079  0.026298  1
  N  N10  1  0.385570  0.671430  0.385570  1
  N  N11  1  0.711418  0.435372  0.437063  1
  N  N12  1  0.437063  0.435372  0.711418  1
  N  N13  1  0.730303  0.285969  0.730303  1
  N  N14  1  0.987563  0.566917  0.278673  1
  N  N15  1  0.278673  0.566917  0.987563  1
  N  N16  1  0.282577  0.001424  0.556794  1
  N  N17  1  0.998302  0.275825  0.560106  1
  N  N18  1  0.717090  0.724315  0.284030  1
  N  N19  1  0.556794  0.001424  0.282577  1
  N  N20  1  0.284030  0.724315  0.717090  1
  N  N21  1  0.560106  0.275825  0.998302  1
