# generated using pymatgen
data_Sr4TbYb(OsO6)2
_symmetry_space_group_name_H-M   'P 1'
_cell_length_a   5.80866135
_cell_length_b   5.89493175
_cell_length_c   10.07267776
_cell_angle_alpha   90.10750977
_cell_angle_beta   124.89437099
_cell_angle_gamma   89.99743882
_symmetry_Int_Tables_number   1
_chemical_formula_structural   Sr4TbYb(OsO6)2
_chemical_formula_sum   'Sr4 Tb1 Yb1 Os2 O12'
_cell_volume   282.89333639
_cell_formula_units_Z   1
loop_
 _symmetry_equiv_pos_site_id
 _symmetry_equiv_pos_as_xyz
  1  'x, y, z'
loop_
 _atom_site_type_symbol
 _atom_site_label
 _atom_site_symmetry_multiplicity
 _atom_site_fract_x
 _atom_site_fract_y
 _atom_site_fract_z
 _atom_site_occupancy
  Sr  Sr0  1  0.265373  0.036702  0.756298  1
  Sr  Sr1  1  0.253432  0.457937  0.243809  1
  Sr  Sr2  1  0.734627  0.963298  0.243702  1
  Sr  Sr3  1  0.746568  0.542063  0.756191  1
  Tb  Tb4  1  0.000000  0.500000  0.500000  1
  Yb  Yb5  1  0.000000  0.000000  0.000000  1
  Os  Os6  1  0.500000  0.000000  0.500000  1
  Os  Os7  1  0.500000  0.500000  0.000000  1
  O  O8  1  0.189890  0.479082  0.766581  1
  O  O9  1  0.194692  0.021622  0.270518  1
  O  O10  1  0.810110  0.520918  0.233419  1
  O  O11  1  0.805308  0.978378  0.729482  1
  O  O12  1  0.730999  0.197386  0.459739  1
  O  O13  1  0.729235  0.304370  0.962021  1
  O  O14  1  0.269001  0.802614  0.540261  1
  O  O15  1  0.270765  0.695630  0.037979  1
  O  O16  1  0.650224  0.728173  0.456691  1
  O  O17  1  0.650329  0.768002  0.958559  1
  O  O18  1  0.349776  0.271827  0.543309  1
  O  O19  1  0.349671  0.231998  0.041441  1
