# generated using pymatgen
data_LaPr3Al18(PtRh2)2
_symmetry_space_group_name_H-M   'P 1'
_cell_length_a   7.66646437
_cell_length_b   7.66526206
_cell_length_c   9.63529400
_cell_angle_alpha   90.00000000
_cell_angle_beta   90.00000000
_cell_angle_gamma   119.45929708
_symmetry_Int_Tables_number   1
_chemical_formula_structural   LaPr3Al18(PtRh2)2
_chemical_formula_sum   'La1 Pr3 Al18 Pt2 Rh4'
_cell_volume   493.01290203
_cell_formula_units_Z   1
loop_
 _symmetry_equiv_pos_site_id
 _symmetry_equiv_pos_as_xyz
  1  'x, y, z'
loop_
 _atom_site_type_symbol
 _atom_site_label
 _atom_site_symmetry_multiplicity
 _atom_site_fract_x
 _atom_site_fract_y
 _atom_site_fract_z
 _atom_site_occupancy
  La  La0  1  0.995769  0.672491  0.750000  1
  Pr  Pr1  1  0.004238  0.327491  0.250000  1
  Pr  Pr2  1  0.672646  0.995849  0.750000  1
  Pr  Pr3  1  0.327170  0.004101  0.250000  1
  Al  Al4  1  0.137347  0.138191  0.750000  1
  Al  Al5  1  0.863665  0.864055  0.250000  1
  Al  Al6  1  0.002883  0.338264  0.573280  1
  Al  Al7  1  0.997016  0.660737  0.424790  1
  Al  Al8  1  0.997016  0.660737  0.075210  1
  Al  Al9  1  0.340328  0.003890  0.926644  1
  Al  Al10  1  0.002883  0.338264  0.926720  1
  Al  Al11  1  0.660857  0.997301  0.074522  1
  Al  Al12  1  0.660857  0.997301  0.425478  1
  Al  Al13  1  0.340328  0.003890  0.573356  1
  Al  Al14  1  0.338001  0.337992  0.048628  1
  Al  Al15  1  0.661135  0.661951  0.952729  1
  Al  Al16  1  0.661135  0.661951  0.547271  1
  Al  Al17  1  0.338001  0.337992  0.451372  1
  Al  Al18  1  0.340971  0.547848  0.750000  1
  Al  Al19  1  0.659714  0.451208  0.250000  1
  Al  Al20  1  0.546495  0.338762  0.750000  1
  Al  Al21  1  0.451633  0.659975  0.250000  1
  Pt  Pt22  1  0.000002  0.000017  0.500050  1
  Pt  Pt23  1  0.000002  0.000017  0.999950  1
  Rh  Rh24  1  0.670712  0.329118  0.499989  1
  Rh  Rh25  1  0.329241  0.670745  0.499955  1
  Rh  Rh26  1  0.329241  0.670745  0.000045  1
  Rh  Rh27  1  0.670712  0.329118  0.000011  1
