# generated using pymatgen
data_DyTm11InCo4Pd
_symmetry_space_group_name_H-M   'P 1'
_cell_length_a   8.23917935
_cell_length_b   8.23917838
_cell_length_c   8.23190071
_cell_angle_alpha   110.89656973
_cell_angle_beta   110.66841230
_cell_angle_gamma   106.91698997
_symmetry_Int_Tables_number   1
_chemical_formula_structural   DyTm11InCo4Pd
_chemical_formula_sum   'Dy1 Tm11 In1 Co4 Pd1'
_cell_volume   429.32776769
_cell_formula_units_Z   1
loop_
 _symmetry_equiv_pos_site_id
 _symmetry_equiv_pos_as_xyz
  1  'x, y, z'
loop_
 _atom_site_type_symbol
 _atom_site_label
 _atom_site_symmetry_multiplicity
 _atom_site_fract_x
 _atom_site_fract_y
 _atom_site_fract_z
 _atom_site_occupancy
  Dy  Dy0  1  0.189048  0.293818  0.482867  1
  Tm  Tm1  1  0.811766  0.706501  0.518266  1
  Tm  Tm2  1  0.188007  0.706796  0.894803  1
  Tm  Tm3  1  0.810921  0.294344  0.105265  1
  Tm  Tm4  1  0.314530  0.618905  0.304111  1
  Tm  Tm5  1  0.687076  0.381904  0.696500  1
  Tm  Tm6  1  0.314596  0.009423  0.696500  1
  Tm  Tm7  1  0.685205  0.989580  0.304111  1
  Tm  Tm8  1  0.417064  0.215678  0.200219  1
  Tm  Tm9  1  0.587324  0.787128  0.801551  1
  Tm  Tm10  1  0.014422  0.214226  0.801551  1
  Tm  Tm11  1  0.984542  0.783155  0.200219  1
  In  In12  1  0.499337  0.500127  0.999463  1
  Co  Co13  1  0.110104  0.613609  0.498383  1
  Co  Co14  1  0.884773  0.388279  0.498383  1
  Co  Co15  1  0.379426  0.999275  0.378701  1
  Co  Co16  1  0.619984  0.000114  0.620097  1
  Pd  Pd17  1  0.001875  0.997139  0.999014  1
