# generated using pymatgen
data_Pr4IrPtAu2
_symmetry_space_group_name_H-M   'P 1'
_cell_length_a   4.73103900
_cell_length_b   5.84566889
_cell_length_c   7.47525631
_cell_angle_alpha   88.60802056
_cell_angle_beta   90.00000000
_cell_angle_gamma   90.00000000
_symmetry_Int_Tables_number   1
_chemical_formula_structural   Pr4IrPtAu2
_chemical_formula_sum   'Pr4 Ir1 Pt1 Au2'
_cell_volume   206.67533462
_cell_formula_units_Z   1
loop_
 _symmetry_equiv_pos_site_id
 _symmetry_equiv_pos_as_xyz
  1  'x, y, z'
loop_
 _atom_site_type_symbol
 _atom_site_label
 _atom_site_symmetry_multiplicity
 _atom_site_fract_x
 _atom_site_fract_y
 _atom_site_fract_z
 _atom_site_occupancy
  Pr  Pr0  1  0.250000  0.360602  0.669218  1
  Pr  Pr1  1  0.250000  0.135807  0.201207  1
  Pr  Pr2  1  0.750000  0.646869  0.333213  1
  Pr  Pr3  1  0.750000  0.861679  0.797003  1
  Ir  Ir4  1  0.250000  0.836193  0.541967  1
  Pt  Pt5  1  0.750000  0.158924  0.455360  1
  Au  Au6  1  0.250000  0.648201  0.040363  1
  Au  Au7  1  0.750000  0.351727  0.961670  1
