# generated using pymatgen
data_Er8Re(B8Ru)3
_symmetry_space_group_name_H-M   'P 1'
_cell_length_a   3.64191100
_cell_length_b   9.09545037
_cell_length_c   11.47413300
_cell_angle_alpha   90.12206597
_cell_angle_beta   90.00000000
_cell_angle_gamma   90.00000000
_symmetry_Int_Tables_number   1
_chemical_formula_structural   Er8Re(B8Ru)3
_chemical_formula_sum   'Er8 Re1 B24 Ru3'
_cell_volume   380.07773634
_cell_formula_units_Z   1
loop_
 _symmetry_equiv_pos_site_id
 _symmetry_equiv_pos_as_xyz
  1  'x, y, z'
loop_
 _atom_site_type_symbol
 _atom_site_label
 _atom_site_symmetry_multiplicity
 _atom_site_fract_x
 _atom_site_fract_y
 _atom_site_fract_z
 _atom_site_occupancy
  Er  Er0  1  0.000000  0.322497  0.415178  1
  Er  Er1  1  0.000000  0.680474  0.587993  1
  Er  Er2  1  0.000000  0.822372  0.083403  1
  Er  Er3  1  0.000000  0.176452  0.913467  1
  Er  Er4  1  0.000000  0.943120  0.371142  1
  Er  Er5  1  0.000000  0.056454  0.627680  1
  Er  Er6  1  0.000000  0.442645  0.128587  1
  Er  Er7  1  0.000000  0.555927  0.872423  1
  Re  Re8  1  0.000000  0.862363  0.821183  1
  B  B9  1  0.500000  0.554012  0.433511  1
  B  B10  1  0.500000  0.446268  0.566769  1
  B  B11  1  0.500000  0.053786  0.067264  1
  B  B12  1  0.500000  0.947192  0.933554  1
  B  B13  1  0.500000  0.748730  0.419607  1
  B  B14  1  0.500000  0.251572  0.580154  1
  B  B15  1  0.500000  0.248458  0.080600  1
  B  B16  1  0.500000  0.750842  0.919552  1
  B  B17  1  0.500000  0.790666  0.265449  1
  B  B18  1  0.500000  0.209024  0.733544  1
  B  B19  1  0.500000  0.291103  0.234623  1
  B  B20  1  0.500000  0.707968  0.765514  1
  B  B21  1  0.500000  0.630854  0.184941  1
  B  B22  1  0.500000  0.368459  0.814706  1
  B  B23  1  0.500000  0.131614  0.315219  1
  B  B24  1  0.500000  0.868929  0.685001  1
  B  B25  1  0.500000  0.983003  0.212423  1
  B  B26  1  0.500000  0.018395  0.787390  1
  B  B27  1  0.500000  0.482805  0.288088  1
  B  B28  1  0.500000  0.517082  0.712492  1
  B  B29  1  0.500000  0.604611  0.029745  1
  B  B30  1  0.500000  0.393301  0.971092  1
  B  B31  1  0.500000  0.106554  0.470105  1
  B  B32  1  0.500000  0.894299  0.528513  1
  Ru  Ru33  1  0.000000  0.637727  0.321091  1
  Ru  Ru34  1  0.000000  0.362442  0.678467  1
  Ru  Ru35  1  0.000000  0.138002  0.179527  1
