# generated using pymatgen
data_La3Cd5Pt
_symmetry_space_group_name_H-M   'P 1'
_cell_length_a   8.31148300
_cell_length_b   8.31148462
_cell_length_c   4.01658100
_cell_angle_alpha   90.00000000
_cell_angle_beta   90.00000000
_cell_angle_gamma   119.99999754
_symmetry_Int_Tables_number   1
_chemical_formula_structural   La3Cd5Pt
_chemical_formula_sum   'La3 Cd5 Pt1'
_cell_volume   240.29475885
_cell_formula_units_Z   1
loop_
 _symmetry_equiv_pos_site_id
 _symmetry_equiv_pos_as_xyz
  1  'x, y, z'
loop_
 _atom_site_type_symbol
 _atom_site_label
 _atom_site_symmetry_multiplicity
 _atom_site_fract_x
 _atom_site_fract_y
 _atom_site_fract_z
 _atom_site_occupancy
  La  La0  1  0.427655  0.028574  0.000000  1
  La  La1  1  0.600918  0.572345  0.000000  1
  La  La2  1  0.971426  0.399082  0.000000  1
  Cd  Cd3  1  0.733033  0.994289  0.500000  1
  Cd  Cd4  1  0.261256  0.266967  0.500000  1
  Cd  Cd5  1  0.005711  0.738744  0.500000  1
  Cd  Cd6  1  0.333333  0.666667  0.500000  1
  Cd  Cd7  1  0.000000  0.000000  0.000000  1
  Pt  Pt8  1  0.666667  0.333333  0.500000  1
