# generated using pymatgen
data_YHf4Sc3Pt4
_symmetry_space_group_name_H-M   'P 1'
_cell_length_a   4.53589400
_cell_length_b   6.87372417
_cell_length_c   8.00854600
_cell_angle_alpha   90.03347528
_cell_angle_beta   90.00000000
_cell_angle_gamma   90.00000000
_symmetry_Int_Tables_number   1
_chemical_formula_structural   YHf4Sc3Pt4
_chemical_formula_sum   'Y1 Hf4 Sc3 Pt4'
_cell_volume   249.69428259
_cell_formula_units_Z   1
loop_
 _symmetry_equiv_pos_site_id
 _symmetry_equiv_pos_as_xyz
  1  'x, y, z'
loop_
 _atom_site_type_symbol
 _atom_site_label
 _atom_site_symmetry_multiplicity
 _atom_site_fract_x
 _atom_site_fract_y
 _atom_site_fract_z
 _atom_site_occupancy
  Y  Y0  1  0.750000  0.515245  0.820144  1
  Hf  Hf1  1  0.250000  0.346738  0.573059  1
  Hf  Hf2  1  0.250000  0.853705  0.922689  1
  Hf  Hf3  1  0.750000  0.649978  0.419750  1
  Hf  Hf4  1  0.750000  0.148401  0.080938  1
  Sc  Sc5  1  0.250000  0.982415  0.322061  1
  Sc  Sc6  1  0.250000  0.482296  0.179531  1
  Sc  Sc7  1  0.750000  0.017139  0.676305  1
  Pt  Pt8  1  0.250000  0.236541  0.906305  1
  Pt  Pt9  1  0.250000  0.740526  0.593314  1
  Pt  Pt10  1  0.750000  0.766395  0.100318  1
  Pt  Pt11  1  0.750000  0.260622  0.405587  1
