# generated using pymatgen
data_Hf18FeReMo7P
_symmetry_space_group_name_H-M   'P 1'
_cell_length_a   8.57087500
_cell_length_b   8.63077274
_cell_length_c   8.63267501
_cell_angle_alpha   120.00549564
_cell_angle_beta   90.00000000
_cell_angle_gamma   90.00000000
_symmetry_Int_Tables_number   1
_chemical_formula_structural   Hf18FeReMo7P
_chemical_formula_sum   'Hf18 Fe1 Re1 Mo7 P1'
_cell_volume   553.00214105
_cell_formula_units_Z   1
loop_
 _symmetry_equiv_pos_site_id
 _symmetry_equiv_pos_as_xyz
  1  'x, y, z'
loop_
 _atom_site_type_symbol
 _atom_site_label
 _atom_site_symmetry_multiplicity
 _atom_site_fract_x
 _atom_site_fract_y
 _atom_site_fract_z
 _atom_site_occupancy
  Hf  Hf0  1  0.548383  0.802830  0.606042  1
  Hf  Hf1  1  0.548387  0.802809  0.196797  1
  Hf  Hf2  1  0.548014  0.392905  0.196445  1
  Hf  Hf3  1  0.441387  0.202771  0.405262  1
  Hf  Hf4  1  0.441363  0.202788  0.797492  1
  Hf  Hf5  1  0.442654  0.593862  0.796936  1
  Hf  Hf6  1  0.058613  0.202771  0.405262  1
  Hf  Hf7  1  0.058637  0.202788  0.797492  1
  Hf  Hf8  1  0.057346  0.593862  0.796936  1
  Hf  Hf9  1  0.951617  0.802830  0.606042  1
  Hf  Hf10  1  0.951613  0.802809  0.196797  1
  Hf  Hf11  1  0.951986  0.392905  0.196445  1
  Hf  Hf12  1  0.750000  0.459670  0.919789  1
  Hf  Hf13  1  0.750000  0.459690  0.539876  1
  Hf  Hf14  1  0.750000  0.079766  0.539889  1
  Hf  Hf15  1  0.250000  0.539949  0.081894  1
  Hf  Hf16  1  0.250000  0.539929  0.458054  1
  Hf  Hf17  1  0.250000  0.917771  0.458890  1
  Fe  Fe18  1  0.250000  0.333907  0.666914  1
  Re  Re19  1  0.250000  0.226475  0.113224  1
  Mo  Mo20  1  0.750000  0.111323  0.221668  1
  Mo  Mo21  1  0.750000  0.111337  0.889681  1
  Mo  Mo22  1  0.750000  0.777288  0.888658  1
  Mo  Mo23  1  0.250000  0.889944  0.777942  1
  Mo  Mo24  1  0.250000  0.889943  0.111989  1
  Mo  Mo25  1  0.498537  0.000531  0.000271  1
  Mo  Mo26  1  0.001463  0.000531  0.000271  1
  P  P27  1  0.750000  0.666013  0.333042  1
