# generated using pymatgen
data_Dy17ErTm2(CoBi2)4
_symmetry_space_group_name_H-M   'P 1'
_cell_length_a   8.00159104
_cell_length_b   8.88361758
_cell_length_c   12.42803145
_cell_angle_alpha   89.92434777
_cell_angle_beta   90.01447905
_cell_angle_gamma   89.98702769
_symmetry_Int_Tables_number   1
_chemical_formula_structural   Dy17ErTm2(CoBi2)4
_chemical_formula_sum   'Dy17 Er1 Tm2 Co4 Bi8'
_cell_volume   883.42186850
_cell_formula_units_Z   1
loop_
 _symmetry_equiv_pos_site_id
 _symmetry_equiv_pos_as_xyz
  1  'x, y, z'
loop_
 _atom_site_type_symbol
 _atom_site_label
 _atom_site_symmetry_multiplicity
 _atom_site_fract_x
 _atom_site_fract_y
 _atom_site_fract_z
 _atom_site_occupancy
  Dy  Dy0  1  0.848081  0.750130  0.801439  1
  Dy  Dy1  1  0.152042  0.249941  0.198673  1
  Dy  Dy2  1  0.348057  0.249571  0.698569  1
  Dy  Dy3  1  0.651739  0.750450  0.301520  1
  Dy  Dy4  1  0.380972  0.751029  0.688511  1
  Dy  Dy5  1  0.618846  0.248883  0.311812  1
  Dy  Dy6  1  0.882149  0.250024  0.811220  1
  Dy  Dy7  1  0.119838  0.750201  0.188746  1
  Dy  Dy8  1  0.950472  0.751141  0.502542  1
  Dy  Dy9  1  0.049922  0.248824  0.497516  1
  Dy  Dy10  1  0.448561  0.249106  0.997470  1
  Dy  Dy11  1  0.547297  0.750575  0.002331  1
  Dy  Dy12  1  0.323678  0.535340  0.437056  1
  Dy  Dy13  1  0.823988  0.035513  0.062987  1
  Dy  Dy14  1  0.676546  0.464768  0.563090  1
  Dy  Dy15  1  0.823576  0.464982  0.062696  1
  Dy  Dy16  1  0.176499  0.536068  0.936519  1
  Er  Er17  1  0.674206  0.036582  0.563351  1
  Tm  Tm18  1  0.326775  0.963793  0.436892  1
  Tm  Tm19  1  0.173130  0.963557  0.936606  1
  Co  Co20  1  0.560451  0.751252  0.507549  1
  Co  Co21  1  0.438795  0.248788  0.492483  1
  Co  Co22  1  0.062826  0.249361  0.991937  1
  Co  Co23  1  0.940361  0.750859  0.007533  1
  Bi  Bi24  1  0.570996  0.491796  0.826225  1
  Bi  Bi25  1  0.429697  0.507707  0.174016  1
  Bi  Bi26  1  0.071238  0.508304  0.673392  1
  Bi  Bi27  1  0.429337  0.991906  0.174395  1
  Bi  Bi28  1  0.929162  0.491966  0.326253  1
  Bi  Bi29  1  0.570011  0.008008  0.826395  1
  Bi  Bi30  1  0.931069  0.007599  0.326159  1
  Bi  Bi31  1  0.069684  0.991978  0.674118  1
