# generated using pymatgen
data_Y10Zn3Bi2Au
_symmetry_space_group_name_H-M   'P 1'
_cell_length_a   8.70467992
_cell_length_b   8.70468037
_cell_length_c   8.70725287
_cell_angle_alpha   123.90495029
_cell_angle_beta   123.90495237
_cell_angle_gamma   83.34080783
_symmetry_Int_Tables_number   1
_chemical_formula_structural   Y10Zn3Bi2Au
_chemical_formula_sum   'Y10 Zn3 Bi2 Au1'
_cell_volume   435.84182517
_cell_formula_units_Z   1
loop_
 _symmetry_equiv_pos_site_id
 _symmetry_equiv_pos_as_xyz
  1  'x, y, z'
loop_
 _atom_site_type_symbol
 _atom_site_label
 _atom_site_symmetry_multiplicity
 _atom_site_fract_x
 _atom_site_fract_y
 _atom_site_fract_z
 _atom_site_occupancy
  Y  Y0  1  0.499564  0.499821  0.999385  1
  Y  Y1  1  0.000179  0.000436  0.000615  1
  Y  Y2  1  0.509946  0.011344  0.806209  1
  Y  Y3  1  0.203737  0.705135  0.193791  1
  Y  Y4  1  0.011872  0.204479  0.500000  1
  Y  Y5  1  0.704684  0.511336  0.500000  1
  Y  Y6  1  0.488656  0.990054  0.193791  1
  Y  Y7  1  0.794865  0.296263  0.806209  1
  Y  Y8  1  0.988664  0.795316  0.500000  1
  Y  Y9  1  0.295521  0.488128  0.500000  1
  Zn  Zn10  1  0.137449  0.639215  0.776665  1
  Zn  Zn11  1  0.860785  0.362551  0.223335  1
  Zn  Zn12  1  0.639475  0.860525  0.500000  1
  Bi  Bi13  1  0.249197  0.250803  0.000000  1
  Bi  Bi14  1  0.749197  0.750803  0.000000  1
  Au  Au15  1  0.366208  0.133792  0.500000  1
