# generated using pymatgen
data_TbTmPa2(Al3Rh)6
_symmetry_space_group_name_H-M   'P 1'
_cell_length_a   7.59381007
_cell_length_b   7.60077586
_cell_length_c   9.38026500
_cell_angle_alpha   90.00000000
_cell_angle_beta   90.00000000
_cell_angle_gamma   119.61577834
_symmetry_Int_Tables_number   1
_chemical_formula_structural   TbTmPa2(Al3Rh)6
_chemical_formula_sum   'Tb1 Tm1 Pa2 Al18 Rh6'
_cell_volume   470.68662257
_cell_formula_units_Z   1
loop_
 _symmetry_equiv_pos_site_id
 _symmetry_equiv_pos_as_xyz
  1  'x, y, z'
loop_
 _atom_site_type_symbol
 _atom_site_label
 _atom_site_symmetry_multiplicity
 _atom_site_fract_x
 _atom_site_fract_y
 _atom_site_fract_z
 _atom_site_occupancy
  Tb  Tb0  1  0.670177  0.993136  0.250000  1
  Tm  Tm1  1  0.329470  0.006895  0.750000  1
  Pa  Pa2  1  0.997666  0.671161  0.250000  1
  Pa  Pa3  1  0.002348  0.328753  0.750000  1
  Al  Al4  1  0.130800  0.126217  0.250000  1
  Al  Al5  1  0.870068  0.874050  0.750000  1
  Al  Al6  1  0.000562  0.332098  0.077730  1
  Al  Al7  1  0.000329  0.668774  0.921633  1
  Al  Al8  1  0.000329  0.668774  0.578367  1
  Al  Al9  1  0.337924  0.002766  0.425736  1
  Al  Al10  1  0.000562  0.332098  0.422270  1
  Al  Al11  1  0.661161  0.997110  0.575645  1
  Al  Al12  1  0.661161  0.997110  0.924355  1
  Al  Al13  1  0.337924  0.002766  0.074264  1
  Al  Al14  1  0.334616  0.332770  0.553059  1
  Al  Al15  1  0.665421  0.666587  0.447727  1
  Al  Al16  1  0.665421  0.666587  0.052273  1
  Al  Al17  1  0.334616  0.332770  0.946941  1
  Al  Al18  1  0.340253  0.548427  0.250000  1
  Al  Al19  1  0.659093  0.450621  0.750000  1
  Al  Al20  1  0.550395  0.341882  0.250000  1
  Al  Al21  1  0.449246  0.658369  0.750000  1
  Rh  Rh22  1  0.675123  0.329378  0.999352  1
  Rh  Rh23  1  0.324524  0.670752  0.000222  1
  Rh  Rh24  1  0.324524  0.670752  0.499778  1
  Rh  Rh25  1  0.675123  0.329378  0.500648  1
  Rh  Rh26  1  0.000583  0.000010  0.999678  1
  Rh  Rh27  1  0.000583  0.000010  0.500322  1
