# generated using pymatgen
data_Yb5AgAu3
_symmetry_space_group_name_H-M   'P 1'
_cell_length_a   7.79518581
_cell_length_b   7.93392716
_cell_length_c   15.07325154
_cell_angle_alpha   90.05741696
_cell_angle_beta   90.33596073
_cell_angle_gamma   90.02664360
_symmetry_Int_Tables_number   1
_chemical_formula_structural   Yb5AgAu3
_chemical_formula_sum   'Yb20 Ag4 Au12'
_cell_volume   932.21029658
_cell_formula_units_Z   4
loop_
 _symmetry_equiv_pos_site_id
 _symmetry_equiv_pos_as_xyz
  1  'x, y, z'
loop_
 _atom_site_type_symbol
 _atom_site_label
 _atom_site_symmetry_multiplicity
 _atom_site_fract_x
 _atom_site_fract_y
 _atom_site_fract_z
 _atom_site_occupancy
  Yb  Yb0  1  0.003785  0.174350  0.404112  1
  Yb  Yb1  1  0.836844  0.670604  0.377678  1
  Yb  Yb2  1  0.485517  0.323653  0.095849  1
  Yb  Yb3  1  0.169214  0.334638  0.622849  1
  Yb  Yb4  1  0.338228  0.833317  0.379047  1
  Yb  Yb5  1  0.171199  0.333835  0.877732  1
  Yb  Yb6  1  0.331051  0.831202  0.122421  1
  Yb  Yb7  1  0.174536  0.494928  0.251298  1
  Yb  Yb8  1  0.490267  0.320072  0.405269  1
  Yb  Yb9  1  0.831330  0.507665  0.749195  1
  Yb  Yb10  1  0.011519  0.822532  0.902621  1
  Yb  Yb11  1  0.004576  0.824485  0.596909  1
  Yb  Yb12  1  0.497356  0.682210  0.598142  1
  Yb  Yb13  1  0.661781  0.158238  0.622603  1
  Yb  Yb14  1  0.327716  0.991531  0.749910  1
  Yb  Yb15  1  0.664528  0.161556  0.874563  1
  Yb  Yb16  1  0.666705  0.005139  0.251767  1
  Yb  Yb17  1  0.836859  0.666011  0.124070  1
  Yb  Yb18  1  0.499037  0.680363  0.899912  1
  Yb  Yb19  1  0.005190  0.177193  0.097759  1
  Ag  Ag20  1  0.793125  0.360787  0.250131  1
  Ag  Ag21  1  0.824355  0.464662  0.540668  1
  Ag  Ag22  1  0.674894  0.968846  0.041949  1
  Ag  Ag23  1  0.824349  0.466595  0.957867  1
  Au  Au24  1  0.469283  0.383190  0.749209  1
  Au  Au25  1  0.700240  0.859667  0.750178  1
  Au  Au26  1  0.168475  0.532151  0.457543  1
  Au  Au27  1  0.165810  0.530758  0.043866  1
  Au  Au28  1  0.199139  0.639424  0.749980  1
  Au  Au29  1  0.300012  0.141342  0.250014  1
  Au  Au30  1  0.537160  0.617057  0.250257  1
  Au  Au31  1  0.034463  0.885713  0.250101  1
  Au  Au32  1  0.331980  0.030479  0.957051  1
  Au  Au33  1  0.965691  0.120027  0.749422  1
  Au  Au34  1  0.679763  0.974711  0.454161  1
  Au  Au35  1  0.324021  0.031070  0.543896  1
