# generated using pymatgen
data_Sr4Ga8AsP7
_symmetry_space_group_name_H-M   'P 1'
_cell_length_a   3.96330800
_cell_length_b   9.53806149
_cell_length_c   12.37160809
_cell_angle_alpha   83.90580398
_cell_angle_beta   90.00000000
_cell_angle_gamma   90.00000000
_symmetry_Int_Tables_number   1
_chemical_formula_structural   Sr4Ga8AsP7
_chemical_formula_sum   'Sr4 Ga8 As1 P7'
_cell_volume   465.03196667
_cell_formula_units_Z   1
loop_
 _symmetry_equiv_pos_site_id
 _symmetry_equiv_pos_as_xyz
  1  'x, y, z'
loop_
 _atom_site_type_symbol
 _atom_site_label
 _atom_site_symmetry_multiplicity
 _atom_site_fract_x
 _atom_site_fract_y
 _atom_site_fract_z
 _atom_site_occupancy
  Sr  Sr0  1  0.000000  0.499738  0.999942  1
  Sr  Sr1  1  0.000000  0.004779  0.499179  1
  Sr  Sr2  1  0.500000  0.802221  0.779698  1
  Sr  Sr3  1  0.500000  0.199029  0.222524  1
  Ga  Ga4  1  0.500000  0.195674  0.674427  1
  Ga  Ga5  1  0.000000  0.595980  0.557711  1
  Ga  Ga6  1  0.500000  0.806418  0.321718  1
  Ga  Ga7  1  0.500000  0.397476  0.780997  1
  Ga  Ga8  1  0.500000  0.601710  0.219095  1
  Ga  Ga9  1  0.000000  0.111590  0.934208  1
  Ga  Ga10  1  0.000000  0.888838  0.064945  1
  Ga  Ga11  1  0.000000  0.395346  0.444006  1
  As  As12  1  0.500000  0.757955  0.526639  1
  P  P13  1  0.000000  0.055332  0.741605  1
  P  P14  1  0.000000  0.550871  0.756004  1
  P  P15  1  0.000000  0.946669  0.256689  1
  P  P16  1  0.000000  0.448148  0.245218  1
  P  P17  1  0.500000  0.242755  0.475214  1
  P  P18  1  0.500000  0.261005  0.963414  1
  P  P19  1  0.500000  0.738464  0.036768  1
