# generated using pymatgen
data_PuAsPCl13
_symmetry_space_group_name_H-M   'P 1'
_cell_length_a   9.95024287
_cell_length_b   9.95024269
_cell_length_c   12.29371700
_cell_angle_alpha   90.00000000
_cell_angle_beta   90.00000000
_cell_angle_gamma   115.35569698
_symmetry_Int_Tables_number   1
_chemical_formula_structural   PuAsPCl13
_chemical_formula_sum   'Pu2 As2 P2 Cl26'
_cell_volume   1099.91427948
_cell_formula_units_Z   2
loop_
 _symmetry_equiv_pos_site_id
 _symmetry_equiv_pos_as_xyz
  1  'x, y, z'
loop_
 _atom_site_type_symbol
 _atom_site_label
 _atom_site_symmetry_multiplicity
 _atom_site_fract_x
 _atom_site_fract_y
 _atom_site_fract_z
 _atom_site_occupancy
  Pu  Pu0  1  0.793512  0.206488  0.997719  1
  Pu  Pu1  1  0.206488  0.793512  0.497719  1
  As  As2  1  0.450953  0.549047  0.346212  1
  As  As3  1  0.549047  0.450953  0.846212  1
  P  P4  1  0.140436  0.859564  0.035909  1
  P  P5  1  0.859564  0.140436  0.535909  1
  Cl  Cl6  1  0.312738  0.020831  0.616997  1
  Cl  Cl7  1  0.863693  0.136307  0.376857  1
  Cl  Cl8  1  0.623561  0.692821  0.869517  1
  Cl  Cl9  1  0.136307  0.863693  0.876857  1
  Cl  Cl10  1  0.937217  0.762910  0.092267  1
  Cl  Cl11  1  0.692821  0.623561  0.369517  1
  Cl  Cl12  1  0.748383  0.251617  0.582831  1
  Cl  Cl13  1  0.237090  0.062783  0.092267  1
  Cl  Cl14  1  0.687262  0.979169  0.116997  1
  Cl  Cl15  1  0.251617  0.748383  0.082831  1
  Cl  Cl16  1  0.062783  0.237090  0.592267  1
  Cl  Cl17  1  0.099392  0.564869  0.377381  1
  Cl  Cl18  1  0.979169  0.687262  0.616997  1
  Cl  Cl19  1  0.020831  0.312738  0.116997  1
  Cl  Cl20  1  0.083624  0.916376  0.379806  1
  Cl  Cl21  1  0.900608  0.435131  0.877381  1
  Cl  Cl22  1  0.564869  0.099392  0.877381  1
  Cl  Cl23  1  0.435131  0.900608  0.377381  1
  Cl  Cl24  1  0.307179  0.376439  0.869517  1
  Cl  Cl25  1  0.376439  0.307179  0.369517  1
  Cl  Cl26  1  0.916376  0.083624  0.879806  1
  Cl  Cl27  1  0.553430  0.446570  0.665616  1
  Cl  Cl28  1  0.330796  0.669204  0.612025  1
  Cl  Cl29  1  0.669204  0.330796  0.112025  1
  Cl  Cl30  1  0.762910  0.937217  0.592267  1
  Cl  Cl31  1  0.446570  0.553430  0.165616  1
