# generated using pymatgen
data_TbCe2Cd3AgPt2
_symmetry_space_group_name_H-M   'P 1'
_cell_length_a   7.90033782
_cell_length_b   7.90033653
_cell_length_c   3.83831000
_cell_angle_alpha   90.00000000
_cell_angle_beta   90.00000000
_cell_angle_gamma   120.12654524
_symmetry_Int_Tables_number   1
_chemical_formula_structural   TbCe2Cd3AgPt2
_chemical_formula_sum   'Tb1 Ce2 Cd3 Ag1 Pt2'
_cell_volume   207.20809923
_cell_formula_units_Z   1
loop_
 _symmetry_equiv_pos_site_id
 _symmetry_equiv_pos_as_xyz
  1  'x, y, z'
loop_
 _atom_site_type_symbol
 _atom_site_label
 _atom_site_symmetry_multiplicity
 _atom_site_fract_x
 _atom_site_fract_y
 _atom_site_fract_z
 _atom_site_occupancy
  Tb  Tb0  1  0.412570  0.412570  0.000000  1
  Ce  Ce1  1  0.584886  0.001043  0.000000  1
  Ce  Ce2  1  0.001043  0.584886  0.000000  1
  Cd  Cd3  1  0.732696  0.732696  0.500000  1
  Cd  Cd4  1  0.261318  0.006605  0.500000  1
  Cd  Cd5  1  0.006605  0.261318  0.500000  1
  Ag  Ag6  1  0.996864  0.996864  0.000000  1
  Pt  Pt7  1  0.672701  0.331318  0.500000  1
  Pt  Pt8  1  0.331318  0.672701  0.500000  1
