# generated using pymatgen
data_LaCeRe4(SiC)2
_symmetry_space_group_name_H-M   'P 1'
_cell_length_a   5.84721768
_cell_length_b   5.84721743
_cell_length_c   7.38663800
_cell_angle_alpha   90.00000000
_cell_angle_beta   90.00000000
_cell_angle_gamma   139.64445945
_symmetry_Int_Tables_number   1
_chemical_formula_structural   LaCeRe4(SiC)2
_chemical_formula_sum   'La1 Ce1 Re4 Si2 C2'
_cell_volume   163.53262073
_cell_formula_units_Z   1
loop_
 _symmetry_equiv_pos_site_id
 _symmetry_equiv_pos_as_xyz
  1  'x, y, z'
loop_
 _atom_site_type_symbol
 _atom_site_label
 _atom_site_symmetry_multiplicity
 _atom_site_fract_x
 _atom_site_fract_y
 _atom_site_fract_z
 _atom_site_occupancy
  La  La0  1  0.457022  0.542978  0.750000  1
  Ce  Ce1  1  0.543187  0.456813  0.250000  1
  Re  Re2  1  0.825368  0.174632  0.063654  1
  Re  Re3  1  0.174061  0.825939  0.940680  1
  Re  Re4  1  0.174061  0.825939  0.559320  1
  Re  Re5  1  0.825368  0.174632  0.436346  1
  Si  Si6  1  0.264800  0.735200  0.250000  1
  Si  Si7  1  0.735499  0.264501  0.750000  1
  C  C8  1  0.000318  0.999682  0.004935  1
  C  C9  1  0.000318  0.999682  0.495065  1
