# generated using pymatgen
data_Tb2DyHo(ReC2)2
_symmetry_space_group_name_H-M   'P 1'
_cell_length_a   5.12949400
_cell_length_b   6.59416000
_cell_length_c   9.87998900
_cell_angle_alpha   90.00000000
_cell_angle_beta   90.00000000
_cell_angle_gamma   90.00000000
_symmetry_Int_Tables_number   1
_chemical_formula_structural   Tb2DyHo(ReC2)2
_chemical_formula_sum   'Tb4 Dy2 Ho2 Re4 C8'
_cell_volume   334.18770498
_cell_formula_units_Z   2
loop_
 _symmetry_equiv_pos_site_id
 _symmetry_equiv_pos_as_xyz
  1  'x, y, z'
loop_
 _atom_site_type_symbol
 _atom_site_label
 _atom_site_symmetry_multiplicity
 _atom_site_fract_x
 _atom_site_fract_y
 _atom_site_fract_z
 _atom_site_occupancy
  Tb  Tb0  1  0.750000  0.468084  0.784357  1
  Tb  Tb1  1  0.250000  0.031916  0.284357  1
  Tb  Tb2  1  0.750000  0.968490  0.715620  1
  Tb  Tb3  1  0.250000  0.531510  0.215620  1
  Dy  Dy4  1  0.750000  0.820233  0.056260  1
  Dy  Dy5  1  0.250000  0.679767  0.556260  1
  Ho  Ho6  1  0.750000  0.320765  0.443329  1
  Ho  Ho7  1  0.250000  0.179235  0.943329  1
  Re  Re8  1  0.750000  0.277410  0.134492  1
  Re  Re9  1  0.250000  0.222590  0.634492  1
  Re  Re10  1  0.750000  0.777425  0.365577  1
  Re  Re11  1  0.250000  0.722575  0.865577  1
  C  C12  1  0.750000  0.176448  0.951472  1
  C  C13  1  0.250000  0.824101  0.048377  1
  C  C14  1  0.750000  0.675899  0.548377  1
  C  C15  1  0.250000  0.323552  0.451472  1
  C  C16  1  0.750000  0.044773  0.259400  1
  C  C17  1  0.250000  0.455227  0.759400  1
  C  C18  1  0.750000  0.544196  0.241117  1
  C  C19  1  0.250000  0.955804  0.741117  1
