# generated using pymatgen
data_Cs2SmNpSe4
_symmetry_space_group_name_H-M   'P 1'
_cell_length_a   4.35200800
_cell_length_b   4.35200808
_cell_length_c   16.73233100
_cell_angle_alpha   90.00000000
_cell_angle_beta   90.00000000
_cell_angle_gamma   120.00001460
_symmetry_Int_Tables_number   1
_chemical_formula_structural   Cs2SmNpSe4
_chemical_formula_sum   'Cs2 Sm1 Np1 Se4'
_cell_volume   274.45199564
_cell_formula_units_Z   1
loop_
 _symmetry_equiv_pos_site_id
 _symmetry_equiv_pos_as_xyz
  1  'x, y, z'
loop_
 _atom_site_type_symbol
 _atom_site_label
 _atom_site_symmetry_multiplicity
 _atom_site_fract_x
 _atom_site_fract_y
 _atom_site_fract_z
 _atom_site_occupancy
  Cs  Cs0  1  0.666667  0.333334  0.249627  1
  Cs  Cs1  1  0.333334  0.666667  0.750373  1
  Sm  Sm2  1  0.000000  0.000000  0.500000  1
  Np  Np3  1  0.000000  0.000000  0.000000  1
  Se  Se4  1  0.333334  0.666667  0.092536  1
  Se  Se5  1  0.333334  0.666667  0.405382  1
  Se  Se6  1  0.666667  0.333334  0.594618  1
  Se  Se7  1  0.666667  0.333334  0.907464  1
