# generated using pymatgen
data_Nd4TcRu7
_symmetry_space_group_name_H-M   'P 1'
_cell_length_a   5.29900615
_cell_length_b   5.29900664
_cell_length_c   9.17569900
_cell_angle_alpha   90.00000000
_cell_angle_beta   90.00000000
_cell_angle_gamma   117.63329158
_symmetry_Int_Tables_number   1
_chemical_formula_structural   Nd4TcRu7
_chemical_formula_sum   'Nd4 Tc1 Ru7'
_cell_volume   228.25985068
_cell_formula_units_Z   1
loop_
 _symmetry_equiv_pos_site_id
 _symmetry_equiv_pos_as_xyz
  1  'x, y, z'
loop_
 _atom_site_type_symbol
 _atom_site_label
 _atom_site_symmetry_multiplicity
 _atom_site_fract_x
 _atom_site_fract_y
 _atom_site_fract_z
 _atom_site_occupancy
  Nd  Nd0  1  0.326641  0.673359  0.435693  1
  Nd  Nd1  1  0.662458  0.337542  0.567920  1
  Nd  Nd2  1  0.662458  0.337542  0.932080  1
  Nd  Nd3  1  0.326641  0.673359  0.064307  1
  Tc  Tc4  1  0.851666  0.148334  0.250000  1
  Ru  Ru5  1  0.987105  0.012895  0.500784  1
  Ru  Ru6  1  0.987105  0.012895  0.999216  1
  Ru  Ru7  1  0.823773  0.642493  0.250000  1
  Ru  Ru8  1  0.357507  0.176227  0.250000  1
  Ru  Ru9  1  0.178072  0.821928  0.750000  1
  Ru  Ru10  1  0.163850  0.327278  0.750000  1
  Ru  Ru11  1  0.672722  0.836150  0.750000  1
