# generated using pymatgen
data_Re21Tc3W5
_symmetry_space_group_name_H-M   'P 1'
_cell_length_a   8.36467734
_cell_length_b   8.35221400
_cell_length_c   8.35221337
_cell_angle_alpha   109.44096357
_cell_angle_beta   109.50145091
_cell_angle_gamma   109.50146191
_symmetry_Int_Tables_number   1
_chemical_formula_structural   Re21Tc3W5
_chemical_formula_sum   'Re21 Tc3 W5'
_cell_volume   449.02273032
_cell_formula_units_Z   1
loop_
 _symmetry_equiv_pos_site_id
 _symmetry_equiv_pos_as_xyz
  1  'x, y, z'
loop_
 _atom_site_type_symbol
 _atom_site_label
 _atom_site_symmetry_multiplicity
 _atom_site_fract_x
 _atom_site_fract_y
 _atom_site_fract_z
 _atom_site_occupancy
  Re  Re0  1  0.684978  0.400320  0.000000  1
  Re  Re1  1  0.002394  0.404236  0.686003  1
  Re  Re2  1  0.316392  0.718234  0.313997  1
  Re  Re3  1  0.316392  0.313997  0.718234  1
  Re  Re4  1  0.002394  0.686003  0.404236  1
  Re  Re5  1  0.684978  0.000000  0.400320  1
  Re  Re6  1  0.598159  0.595764  0.281766  1
  Re  Re7  1  0.284657  0.599680  0.599680  1
  Re  Re8  1  0.598159  0.281766  0.595764  1
  Re  Re9  1  0.374287  0.194226  0.000000  1
  Re  Re10  1  0.180061  0.805774  0.805774  1
  Re  Re11  1  0.374287  0.000000  0.194226  1
  Re  Re12  1  0.192946  0.377924  0.000000  1
  Re  Re13  1  0.000696  0.376469  0.194404  1
  Re  Re14  1  0.806292  0.182065  0.805596  1
  Re  Re15  1  0.806292  0.805596  0.182065  1
  Re  Re16  1  0.000696  0.194404  0.376469  1
  Re  Re17  1  0.192946  0.000000  0.377924  1
  Re  Re18  1  0.624227  0.623531  0.817935  1
  Re  Re19  1  0.815023  0.622076  0.622076  1
  Re  Re20  1  0.624227  0.817935  0.623531  1
  Tc  Tc21  1  0.402478  0.686464  0.000000  1
  Tc  Tc22  1  0.716017  0.313536  0.313536  1
  Tc  Tc23  1  0.402478  0.000000  0.686464  1
  W  W24  1  0.001264  0.000000  0.000000  1
  W  W25  1  0.641806  0.000000  0.000000  1
  W  W26  1  0.998642  0.640447  0.000000  1
  W  W27  1  0.998642  0.000000  0.640447  1
  W  W28  1  0.358194  0.359553  0.359553  1
