# generated using pymatgen
data_YTm11TcRu3
_symmetry_space_group_name_H-M   'P 1'
_cell_length_a   6.23709688
_cell_length_b   7.29255407
_cell_length_c   9.00280600
_cell_angle_alpha   90.00000000
_cell_angle_beta   90.00000000
_cell_angle_gamma   90.13923259
_symmetry_Int_Tables_number   1
_chemical_formula_structural   YTm11TcRu3
_chemical_formula_sum   'Y1 Tm11 Tc1 Ru3'
_cell_volume   409.48571641
_cell_formula_units_Z   1
loop_
 _symmetry_equiv_pos_site_id
 _symmetry_equiv_pos_as_xyz
  1  'x, y, z'
loop_
 _atom_site_type_symbol
 _atom_site_label
 _atom_site_symmetry_multiplicity
 _atom_site_fract_x
 _atom_site_fract_y
 _atom_site_fract_z
 _atom_site_occupancy
  Y  Y0  1  0.629907  0.039640  0.250000  1
  Tm  Tm1  1  0.367149  0.957699  0.750000  1
  Tm  Tm2  1  0.133067  0.457764  0.750000  1
  Tm  Tm3  1  0.872804  0.541951  0.250000  1
  Tm  Tm4  1  0.166325  0.176575  0.063560  1
  Tm  Tm5  1  0.832605  0.822997  0.935900  1
  Tm  Tm6  1  0.665842  0.325478  0.937131  1
  Tm  Tm7  1  0.832605  0.822997  0.564100  1
  Tm  Tm8  1  0.331829  0.675452  0.063227  1
  Tm  Tm9  1  0.166325  0.176575  0.436440  1
  Tm  Tm10  1  0.331829  0.675452  0.436773  1
  Tm  Tm11  1  0.665842  0.325478  0.562869  1
  Tc  Tc12  1  0.462646  0.386184  0.250000  1
  Ru  Ru13  1  0.537876  0.617296  0.750000  1
  Ru  Ru14  1  0.962834  0.115633  0.750000  1
  Ru  Ru15  1  0.040518  0.882829  0.250000  1
