# generated using pymatgen
data_Dy6Y4Si5Ge
_symmetry_space_group_name_H-M   'P 1'
_cell_length_a   8.46539600
_cell_length_b   8.46765716
_cell_length_c   6.39168000
_cell_angle_alpha   90.00000000
_cell_angle_beta   90.00000000
_cell_angle_gamma   119.99073837
_symmetry_Int_Tables_number   1
_chemical_formula_structural   Dy6Y4Si5Ge
_chemical_formula_sum   'Dy6 Y4 Si5 Ge1'
_cell_volume   396.82289746
_cell_formula_units_Z   1
loop_
 _symmetry_equiv_pos_site_id
 _symmetry_equiv_pos_as_xyz
  1  'x, y, z'
loop_
 _atom_site_type_symbol
 _atom_site_label
 _atom_site_symmetry_multiplicity
 _atom_site_fract_x
 _atom_site_fract_y
 _atom_site_fract_z
 _atom_site_occupancy
  Dy  Dy0  1  0.998966  0.755840  0.750000  1
  Dy  Dy1  1  0.757369  0.999985  0.750000  1
  Dy  Dy2  1  0.333205  0.665898  0.499400  1
  Dy  Dy3  1  0.667329  0.334115  0.000601  1
  Dy  Dy4  1  0.667329  0.334115  0.499399  1
  Dy  Dy5  1  0.333205  0.665898  0.000600  1
  Y  Y6  1  0.999918  0.243390  0.250000  1
  Y  Y7  1  0.756547  0.756606  0.250000  1
  Y  Y8  1  0.243086  0.244120  0.750000  1
  Y  Y9  1  0.243086  0.999976  0.250000  1
  Si  Si10  1  0.394273  0.394228  0.250000  1
  Si  Si11  1  0.000059  0.605800  0.250000  1
  Si  Si12  1  0.999956  0.394271  0.750000  1
  Si  Si13  1  0.605723  0.605761  0.750000  1
  Si  Si14  1  0.605867  0.000013  0.250000  1
  Ge  Ge15  1  0.394080  0.999985  0.750000  1
