# generated using pymatgen
data_Sm8Ho12Si15Hg
_symmetry_space_group_name_H-M   'P 1'
_cell_length_a   7.46380080
_cell_length_b   7.77180385
_cell_length_c   14.77185152
_cell_angle_alpha   89.92983204
_cell_angle_beta   89.38444114
_cell_angle_gamma   90.16193990
_symmetry_Int_Tables_number   1
_chemical_formula_structural   Sm8Ho12Si15Hg
_chemical_formula_sum   'Sm8 Ho12 Si15 Hg1'
_cell_volume   856.82013421
_cell_formula_units_Z   1
loop_
 _symmetry_equiv_pos_site_id
 _symmetry_equiv_pos_as_xyz
  1  'x, y, z'
loop_
 _atom_site_type_symbol
 _atom_site_label
 _atom_site_symmetry_multiplicity
 _atom_site_fract_x
 _atom_site_fract_y
 _atom_site_fract_z
 _atom_site_occupancy
  Sm  Sm0  1  0.019310  0.181515  0.099213  1
  Sm  Sm1  1  0.980217  0.819936  0.902585  1
  Sm  Sm2  1  0.480648  0.681899  0.902303  1
  Sm  Sm3  1  0.983100  0.827532  0.599905  1
  Sm  Sm4  1  0.518006  0.317645  0.097920  1
  Sm  Sm5  1  0.013408  0.175140  0.397733  1
  Sm  Sm6  1  0.516763  0.317677  0.398330  1
  Sm  Sm7  1  0.490768  0.687295  0.601309  1
  Ho  Ho8  1  0.162805  0.509370  0.752929  1
  Ho  Ho9  1  0.837504  0.490771  0.250740  1
  Ho  Ho10  1  0.338007  0.007532  0.249352  1
  Ho  Ho11  1  0.664781  0.989572  0.751228  1
  Ho  Ho12  1  0.337987  0.169841  0.626649  1
  Ho  Ho13  1  0.666625  0.823089  0.375666  1
  Ho  Ho14  1  0.168885  0.678322  0.373357  1
  Ho  Ho15  1  0.672454  0.821561  0.122628  1
  Ho  Ho16  1  0.825373  0.325558  0.623306  1
  Ho  Ho17  1  0.326514  0.177578  0.877570  1
  Ho  Ho18  1  0.826152  0.320234  0.877814  1
  Ho  Ho19  1  0.172397  0.678295  0.122977  1
  Si  Si20  1  0.035771  0.113849  0.751707  1
  Si  Si21  1  0.963958  0.890461  0.248213  1
  Si  Si22  1  0.465156  0.608353  0.247797  1
  Si  Si23  1  0.535094  0.392368  0.752297  1
  Si  Si24  1  0.277769  0.876133  0.751968  1
  Si  Si25  1  0.720092  0.124454  0.247631  1
  Si  Si26  1  0.221317  0.373452  0.248052  1
  Si  Si27  1  0.780953  0.624361  0.752988  1
  Si  Si28  1  0.834502  0.534532  0.458535  1
  Si  Si29  1  0.340186  0.966250  0.460347  1
  Si  Si30  1  0.847978  0.532527  0.038148  1
  Si  Si31  1  0.658350  0.035047  0.537631  1
  Si  Si32  1  0.150360  0.466485  0.962278  1
  Si  Si33  1  0.651132  0.031515  0.961092  1
  Si  Si34  1  0.347638  0.967826  0.039068  1
  Hg  Hg35  1  0.168039  0.462025  0.538733  1
