# generated using pymatgen
data_Ce4NiPd2PtPb2
_symmetry_space_group_name_H-M   'P 1'
_cell_length_a   7.88965647
_cell_length_b   7.88965635
_cell_length_c   3.72153700
_cell_angle_alpha   90.00000000
_cell_angle_beta   90.00000000
_cell_angle_gamma   89.41391625
_symmetry_Int_Tables_number   1
_chemical_formula_structural   Ce4NiPd2PtPb2
_chemical_formula_sum   'Ce4 Ni1 Pd2 Pt1 Pb2'
_cell_volume   231.64119677
_cell_formula_units_Z   1
loop_
 _symmetry_equiv_pos_site_id
 _symmetry_equiv_pos_as_xyz
  1  'x, y, z'
loop_
 _atom_site_type_symbol
 _atom_site_label
 _atom_site_symmetry_multiplicity
 _atom_site_fract_x
 _atom_site_fract_y
 _atom_site_fract_z
 _atom_site_occupancy
  Ce  Ce0  1  0.667879  0.172249  0.500000  1
  Ce  Ce1  1  0.184384  0.315616  0.500000  1
  Ce  Ce2  1  0.823704  0.676296  0.500000  1
  Ce  Ce3  1  0.327751  0.832121  0.500000  1
  Ni  Ni4  1  0.372490  0.127510  0.000000  1
  Pd  Pd5  1  0.127934  0.624562  0.000000  1
  Pd  Pd6  1  0.875438  0.372066  0.000000  1
  Pt  Pt7  1  0.618428  0.881572  0.000000  1
  Pb  Pb8  1  0.003654  0.001662  0.000000  1
  Pb  Pb9  1  0.498338  0.496346  0.000000  1
