# generated using pymatgen
data_Y15Ho5Si15Pt
_symmetry_space_group_name_H-M   'P 1'
_cell_length_a   7.39953808
_cell_length_b   7.72734663
_cell_length_c   14.64388621
_cell_angle_alpha   90.01132019
_cell_angle_beta   89.98430007
_cell_angle_gamma   90.09158884
_symmetry_Int_Tables_number   1
_chemical_formula_structural   Y15Ho5Si15Pt
_chemical_formula_sum   'Y15 Ho5 Si15 Pt1'
_cell_volume   837.31865956
_cell_formula_units_Z   1
loop_
 _symmetry_equiv_pos_site_id
 _symmetry_equiv_pos_as_xyz
  1  'x, y, z'
loop_
 _atom_site_type_symbol
 _atom_site_label
 _atom_site_symmetry_multiplicity
 _atom_site_fract_x
 _atom_site_fract_y
 _atom_site_fract_z
 _atom_site_occupancy
  Y  Y0  1  0.317829  0.820062  0.123387  1
  Y  Y1  1  0.817527  0.678166  0.376356  1
  Y  Y2  1  0.317861  0.820115  0.376608  1
  Y  Y3  1  0.817553  0.678120  0.123643  1
  Y  Y4  1  0.679943  0.178985  0.877327  1
  Y  Y5  1  0.186713  0.323402  0.623130  1
  Y  Y6  1  0.525439  0.681795  0.594222  1
  Y  Y7  1  0.027056  0.817609  0.904216  1
  Y  Y8  1  0.473092  0.316010  0.097678  1
  Y  Y9  1  0.972950  0.183016  0.402300  1
  Y  Y10  1  0.473200  0.316001  0.402327  1
  Y  Y11  1  0.973044  0.183018  0.097691  1
  Y  Y12  1  0.525390  0.681732  0.905792  1
  Y  Y13  1  0.027017  0.817625  0.595789  1
  Y  Y14  1  0.356051  0.984790  0.750004  1
  Ho  Ho15  1  0.679703  0.179256  0.622876  1
  Ho  Ho16  1  0.187035  0.323633  0.876655  1
  Ho  Ho17  1  0.843628  0.508736  0.749959  1
  Ho  Ho18  1  0.148684  0.485803  0.249990  1
  Ho  Ho19  1  0.648930  0.013077  0.250010  1
  Si  Si20  1  0.646497  0.972162  0.458994  1
  Si  Si21  1  0.146144  0.527530  0.040256  1
  Si  Si22  1  0.351546  0.026323  0.960352  1
  Si  Si23  1  0.852064  0.472256  0.539899  1
  Si  Si24  1  0.352132  0.026095  0.539655  1
  Si  Si25  1  0.852558  0.472573  0.960111  1
  Si  Si26  1  0.646397  0.971938  0.041194  1
  Si  Si27  1  0.146045  0.527729  0.459549  1
  Si  Si28  1  0.979721  0.102138  0.750034  1
  Si  Si29  1  0.521424  0.603301  0.250000  1
  Si  Si30  1  0.021422  0.895492  0.250000  1
  Si  Si31  1  0.741714  0.875591  0.749892  1
  Si  Si32  1  0.228915  0.630878  0.750110  1
  Si  Si33  1  0.267000  0.127367  0.250007  1
  Si  Si34  1  0.766369  0.372733  0.249991  1
  Pt  Pt35  1  0.481409  0.404943  0.750000  1
