# generated using pymatgen
data_Nb7Fe3Co5Si14W
_symmetry_space_group_name_H-M   'P 1'
_cell_length_a   9.20683577
_cell_length_b   9.20767639
_cell_length_c   9.21834574
_cell_angle_alpha   94.23509513
_cell_angle_beta   94.25537740
_cell_angle_gamma   148.42116447
_symmetry_Int_Tables_number   1
_chemical_formula_structural   Nb7Fe3Co5Si14W
_chemical_formula_sum   'Nb7 Fe3 Co5 Si14 W1'
_cell_volume   393.79934404
_cell_formula_units_Z   1
loop_
 _symmetry_equiv_pos_site_id
 _symmetry_equiv_pos_as_xyz
  1  'x, y, z'
loop_
 _atom_site_type_symbol
 _atom_site_label
 _atom_site_symmetry_multiplicity
 _atom_site_fract_x
 _atom_site_fract_y
 _atom_site_fract_z
 _atom_site_occupancy
  Nb  Nb0  1  0.866975  0.867923  0.733145  1
  Nb  Nb1  1  0.864482  0.134338  0.998780  1
  Nb  Nb2  1  0.134194  0.865256  0.998913  1
  Nb  Nb3  1  0.499831  0.690470  0.192402  1
  Nb  Nb4  1  0.499289  0.308600  0.809555  1
  Nb  Nb5  1  0.310548  0.500675  0.809381  1
  Nb  Nb6  1  0.692513  0.501063  0.191765  1
  Fe  Fe7  1  0.900439  0.097233  0.498425  1
  Fe  Fe8  1  0.901021  0.401542  0.801877  1
  Fe  Fe9  1  0.600156  0.100709  0.199160  1
  Co  Co10  1  0.397053  0.896914  0.796501  1
  Co  Co11  1  0.103400  0.603380  0.204347  1
  Co  Co12  1  0.101334  0.898112  0.498529  1
  Co  Co13  1  0.396981  0.600650  0.498963  1
  Co  Co14  1  0.598152  0.399235  0.499024  1
  Si  Si15  1  0.292536  0.292012  0.582516  1
  Si  Si16  1  0.706533  0.705852  0.415883  1
  Si  Si17  1  0.708250  0.291461  0.000343  1
  Si  Si18  1  0.292752  0.708870  0.000558  1
  Si  Si19  1  0.996075  0.290484  0.295757  1
  Si  Si20  1  0.995387  0.698400  0.702106  1
  Si  Si21  1  0.707494  0.005226  0.702093  1
  Si  Si22  1  0.298921  0.005194  0.295809  1
  Si  Si23  1  0.512768  0.919799  0.406174  1
  Si  Si24  1  0.507056  0.100977  0.595757  1
  Si  Si25  1  0.081306  0.487152  0.594424  1
  Si  Si26  1  0.898920  0.491828  0.405002  1
  Si  Si27  1  0.752703  0.752746  0.002715  1
  Si  Si28  1  0.249977  0.249999  0.002379  1
  W  W29  1  0.132956  0.133894  0.267720  1
