# generated using pymatgen
data_Tm4Mg3InPt4
_symmetry_space_group_name_H-M   'P 1'
_cell_length_a   4.22577100
_cell_length_b   7.00525686
_cell_length_c   8.55423215
_cell_angle_alpha   90.26682835
_cell_angle_beta   90.00000000
_cell_angle_gamma   90.00000000
_symmetry_Int_Tables_number   1
_chemical_formula_structural   Tm4Mg3InPt4
_chemical_formula_sum   'Tm4 Mg3 In1 Pt4'
_cell_volume   253.22486317
_cell_formula_units_Z   1
loop_
 _symmetry_equiv_pos_site_id
 _symmetry_equiv_pos_as_xyz
  1  'x, y, z'
loop_
 _atom_site_type_symbol
 _atom_site_label
 _atom_site_symmetry_multiplicity
 _atom_site_fract_x
 _atom_site_fract_y
 _atom_site_fract_z
 _atom_site_occupancy
  Tm  Tm0  1  0.250000  0.962014  0.326034  1
  Tm  Tm1  1  0.250000  0.459642  0.174146  1
  Tm  Tm2  1  0.750000  0.040377  0.675629  1
  Tm  Tm3  1  0.750000  0.536643  0.825890  1
  Mg  Mg4  1  0.250000  0.366263  0.560063  1
  Mg  Mg5  1  0.250000  0.863187  0.939990  1
  Mg  Mg6  1  0.750000  0.635661  0.440305  1
  In  In7  1  0.750000  0.134552  0.059167  1
  Pt  Pt8  1  0.250000  0.258775  0.866388  1
  Pt  Pt9  1  0.250000  0.758620  0.626669  1
  Pt  Pt10  1  0.750000  0.739243  0.128393  1
  Pt  Pt11  1  0.750000  0.245022  0.377327  1
