# generated using pymatgen
data_RbSc3Se5
_symmetry_space_group_name_H-M   'P 1'
_cell_length_a   3.93071700
_cell_length_b   11.86247300
_cell_length_c   21.07887100
_cell_angle_alpha   90.00000000
_cell_angle_beta   90.00000000
_cell_angle_gamma   90.00000000
_symmetry_Int_Tables_number   1
_chemical_formula_structural   RbSc3Se5
_chemical_formula_sum   'Rb4 Sc12 Se20'
_cell_volume   982.86610885
_cell_formula_units_Z   4
loop_
 _symmetry_equiv_pos_site_id
 _symmetry_equiv_pos_as_xyz
  1  'x, y, z'
loop_
 _atom_site_type_symbol
 _atom_site_label
 _atom_site_symmetry_multiplicity
 _atom_site_fract_x
 _atom_site_fract_y
 _atom_site_fract_z
 _atom_site_occupancy
  Rb  Rb0  1  0.250000  0.853511  0.092166  1
  Rb  Rb1  1  0.750000  0.146489  0.907834  1
  Rb  Rb2  1  0.750000  0.353511  0.407834  1
  Rb  Rb3  1  0.250000  0.646489  0.592166  1
  Sc  Sc4  1  0.750000  0.796830  0.825199  1
  Sc  Sc5  1  0.250000  0.203170  0.174801  1
  Sc  Sc6  1  0.250000  0.296830  0.674801  1
  Sc  Sc7  1  0.750000  0.703170  0.325199  1
  Sc  Sc8  1  0.250000  0.957051  0.697902  1
  Sc  Sc9  1  0.750000  0.042949  0.302098  1
  Sc  Sc10  1  0.750000  0.457051  0.802098  1
  Sc  Sc11  1  0.250000  0.542949  0.197902  1
  Sc  Sc12  1  0.750000  0.392107  0.054350  1
  Sc  Sc13  1  0.250000  0.607893  0.945650  1
  Sc  Sc14  1  0.250000  0.892107  0.445650  1
  Sc  Sc15  1  0.750000  0.107893  0.554350  1
  Se  Se16  1  0.250000  0.948011  0.568966  1
  Se  Se17  1  0.750000  0.051989  0.431034  1
  Se  Se18  1  0.750000  0.448011  0.931034  1
  Se  Se19  1  0.250000  0.551989  0.068966  1
  Se  Se20  1  0.750000  0.765001  0.952549  1
  Se  Se21  1  0.250000  0.234999  0.047451  1
  Se  Se22  1  0.250000  0.265001  0.547451  1
  Se  Se23  1  0.750000  0.734999  0.452549  1
  Se  Se24  1  0.250000  0.949814  0.825654  1
  Se  Se25  1  0.750000  0.050186  0.174346  1
  Se  Se26  1  0.750000  0.449814  0.674346  1
  Se  Se27  1  0.250000  0.550186  0.325654  1
  Se  Se28  1  0.750000  0.126052  0.684886  1
  Se  Se29  1  0.250000  0.873948  0.315114  1
  Se  Se30  1  0.250000  0.626052  0.815114  1
  Se  Se31  1  0.750000  0.373948  0.184886  1
  Se  Se32  1  0.750000  0.694032  0.197670  1
  Se  Se33  1  0.250000  0.305968  0.802330  1
  Se  Se34  1  0.250000  0.194032  0.302330  1
  Se  Se35  1  0.750000  0.805968  0.697670  1
