# generated using pymatgen
data_Tm2LuZr(Ga3Rh)6
_symmetry_space_group_name_H-M   'P 1'
_cell_length_a   7.53513773
_cell_length_b   7.51064585
_cell_length_c   9.44144300
_cell_angle_alpha   90.00000000
_cell_angle_beta   90.00000000
_cell_angle_gamma   119.70684227
_symmetry_Int_Tables_number   1
_chemical_formula_structural   Tm2LuZr(Ga3Rh)6
_chemical_formula_sum   'Tm2 Lu1 Zr1 Ga18 Rh6'
_cell_volume   464.10136907
_cell_formula_units_Z   1
loop_
 _symmetry_equiv_pos_site_id
 _symmetry_equiv_pos_as_xyz
  1  'x, y, z'
loop_
 _atom_site_type_symbol
 _atom_site_label
 _atom_site_symmetry_multiplicity
 _atom_site_fract_x
 _atom_site_fract_y
 _atom_site_fract_z
 _atom_site_occupancy
  Tm  Tm0  1  0.004099  0.329236  0.750000  1
  Tm  Tm1  1  0.330523  0.003658  0.750000  1
  Lu  Lu2  1  0.670464  0.998417  0.250000  1
  Zr  Zr3  1  0.996894  0.668874  0.250000  1
  Ga  Ga4  1  0.123249  0.122682  0.250000  1
  Ga  Ga5  1  0.872362  0.871695  0.750000  1
  Ga  Ga6  1  0.998997  0.337129  0.083348  1
  Ga  Ga7  1  0.001056  0.665339  0.922260  1
  Ga  Ga8  1  0.001056  0.665339  0.577740  1
  Ga  Ga9  1  0.332113  0.997525  0.416244  1
  Ga  Ga10  1  0.998997  0.337129  0.416652  1
  Ga  Ga11  1  0.665440  0.000119  0.579559  1
  Ga  Ga12  1  0.665440  0.000119  0.920441  1
  Ga  Ga13  1  0.332113  0.997525  0.083756  1
  Ga  Ga14  1  0.332735  0.332577  0.564778  1
  Ga  Ga15  1  0.669491  0.668079  0.429380  1
  Ga  Ga16  1  0.669491  0.668079  0.070620  1
  Ga  Ga17  1  0.332735  0.332577  0.935222  1
  Ga  Ga18  1  0.337315  0.550368  0.250000  1
  Ga  Ga19  1  0.662137  0.452303  0.750000  1
  Ga  Ga20  1  0.553093  0.340006  0.250000  1
  Ga  Ga21  1  0.450591  0.660299  0.750000  1
  Rh  Rh22  1  0.672458  0.328548  0.000895  1
  Rh  Rh23  1  0.328141  0.672766  0.001800  1
  Rh  Rh24  1  0.328141  0.672766  0.498200  1
  Rh  Rh25  1  0.672458  0.328548  0.499105  1
  Rh  Rh26  1  0.999204  0.999148  0.001146  1
  Rh  Rh27  1  0.999204  0.999148  0.498854  1
