# generated using pymatgen
data_TbEu4W3O14
_symmetry_space_group_name_H-M   'P 1'
_cell_length_a   7.63208879
_cell_length_b   7.56389366
_cell_length_c   7.63209100
_cell_angle_alpha   59.70130984
_cell_angle_beta   60.00000341
_cell_angle_gamma   59.70131122
_symmetry_Int_Tables_number   1
_chemical_formula_structural   TbEu4W3O14
_chemical_formula_sum   'Tb1 Eu4 W3 O14'
_cell_volume   310.12862402
_cell_formula_units_Z   1
loop_
 _symmetry_equiv_pos_site_id
 _symmetry_equiv_pos_as_xyz
  1  'x, y, z'
loop_
 _atom_site_type_symbol
 _atom_site_label
 _atom_site_symmetry_multiplicity
 _atom_site_fract_x
 _atom_site_fract_y
 _atom_site_fract_z
 _atom_site_occupancy
  Tb  Tb0  1  0.625000  0.125000  0.625000  1
  Eu  Eu1  1  0.125000  0.625000  0.125000  1
  Eu  Eu2  1  0.125000  0.125000  0.625000  1
  Eu  Eu3  1  0.625000  0.125000  0.125000  1
  Eu  Eu4  1  0.125000  0.125000  0.125000  1
  W  W5  1  0.625000  0.625000  0.625000  1
  W  W6  1  0.125000  0.625000  0.625000  1
  W  W7  1  0.625000  0.625000  0.125000  1
  O  O8  1  0.306385  0.677586  0.709643  1
  O  O9  1  0.538827  0.940614  0.981732  1
  O  O10  1  0.709643  0.677586  0.306385  1
  O  O11  1  0.268268  0.309386  0.711173  1
  O  O12  1  0.000346  0.998963  0.000346  1
  O  O13  1  0.306385  0.677586  0.306385  1
  O  O14  1  0.711173  0.309386  0.711173  1
  O  O15  1  0.943615  0.572414  0.943615  1
  O  O16  1  0.540357  0.572414  0.943615  1
  O  O17  1  0.981732  0.940614  0.538827  1
  O  O18  1  0.249654  0.251037  0.249654  1
  O  O19  1  0.538827  0.940614  0.538827  1
  O  O20  1  0.711173  0.309386  0.268268  1
  O  O21  1  0.943615  0.572414  0.540357  1
