# generated using pymatgen
data_Sr20RhAu15
_symmetry_space_group_name_H-M   'P 1'
_cell_length_a   8.34879400
_cell_length_b   8.43233154
_cell_length_c   16.24553000
_cell_angle_alpha   90.00000000
_cell_angle_beta   90.00000000
_cell_angle_gamma   89.71606565
_symmetry_Int_Tables_number   1
_chemical_formula_structural   Sr20RhAu15
_chemical_formula_sum   'Sr20 Rh1 Au15'
_cell_volume   1143.66800292
_cell_formula_units_Z   1
loop_
 _symmetry_equiv_pos_site_id
 _symmetry_equiv_pos_as_xyz
  1  'x, y, z'
loop_
 _atom_site_type_symbol
 _atom_site_label
 _atom_site_symmetry_multiplicity
 _atom_site_fract_x
 _atom_site_fract_y
 _atom_site_fract_z
 _atom_site_occupancy
  Sr  Sr0  1  0.335703  0.831272  0.880116  1
  Sr  Sr1  1  0.834648  0.670923  0.619203  1
  Sr  Sr2  1  0.664378  0.166658  0.379079  1
  Sr  Sr3  1  0.166631  0.339788  0.123608  1
  Sr  Sr4  1  0.664378  0.166658  0.120921  1
  Sr  Sr5  1  0.166631  0.339788  0.376392  1
  Sr  Sr6  1  0.335703  0.831272  0.619884  1
  Sr  Sr7  1  0.834648  0.670923  0.880797  1
  Sr  Sr8  1  0.491174  0.322567  0.901506  1
  Sr  Sr9  1  0.991426  0.178852  0.596612  1
  Sr  Sr10  1  0.502173  0.676335  0.396117  1
  Sr  Sr11  1  0.016120  0.811877  0.104573  1
  Sr  Sr12  1  0.502173  0.676335  0.103883  1
  Sr  Sr13  1  0.016120  0.811877  0.395427  1
  Sr  Sr14  1  0.491174  0.322567  0.598494  1
  Sr  Sr15  1  0.991426  0.178852  0.903388  1
  Sr  Sr16  1  0.170157  0.490521  0.750000  1
  Sr  Sr17  1  0.670365  0.012723  0.750000  1
  Sr  Sr18  1  0.837066  0.507948  0.250000  1
  Sr  Sr19  1  0.326709  0.979525  0.250000  1
  Rh  Rh20  1  0.212394  0.625577  0.250000  1
  Au  Au21  1  0.329780  0.024506  0.047347  1
  Au  Au22  1  0.828688  0.476085  0.453031  1
  Au  Au23  1  0.665897  0.982471  0.548329  1
  Au  Au24  1  0.167379  0.520549  0.952551  1
  Au  Au25  1  0.665897  0.982471  0.951671  1
  Au  Au26  1  0.167379  0.520549  0.547449  1
  Au  Au27  1  0.329780  0.024506  0.452653  1
  Au  Au28  1  0.828688  0.476085  0.046969  1
  Au  Au29  1  0.540584  0.612865  0.750000  1
  Au  Au30  1  0.040389  0.887489  0.750000  1
  Au  Au31  1  0.460926  0.395247  0.250000  1
  Au  Au32  1  0.961229  0.112525  0.250000  1
  Au  Au33  1  0.290063  0.128990  0.750000  1
  Au  Au34  1  0.791260  0.373304  0.750000  1
  Au  Au35  1  0.710864  0.869519  0.250000  1
