# generated using pymatgen
data_Sc3U5(P3Ir4)4
_symmetry_space_group_name_H-M   'P 1'
_cell_length_a   12.87341500
_cell_length_b   12.87341575
_cell_length_c   3.95178300
_cell_angle_alpha   90.00000000
_cell_angle_beta   90.00000000
_cell_angle_gamma   120.00000064
_symmetry_Int_Tables_number   1
_chemical_formula_structural   Sc3U5(P3Ir4)4
_chemical_formula_sum   'Sc3 U5 P12 Ir16'
_cell_volume   567.16742896
_cell_formula_units_Z   1
loop_
 _symmetry_equiv_pos_site_id
 _symmetry_equiv_pos_as_xyz
  1  'x, y, z'
loop_
 _atom_site_type_symbol
 _atom_site_label
 _atom_site_symmetry_multiplicity
 _atom_site_fract_x
 _atom_site_fract_y
 _atom_site_fract_z
 _atom_site_occupancy
  Sc  Sc0  1  0.000000  0.446265  0.500000  1
  Sc  Sc1  1  0.553735  0.553735  0.500000  1
  Sc  Sc2  1  0.446265  0.000000  0.500000  1
  U  U3  1  0.333333  0.666667  0.500000  1
  U  U4  1  0.666667  0.333333  0.500000  1
  U  U5  1  0.000000  0.816921  0.000000  1
  U  U6  1  0.183079  0.183079  0.000000  1
  U  U7  1  0.816921  0.000000  0.000000  1
  P  P8  1  0.000000  0.645495  0.500000  1
  P  P9  1  0.354505  0.354505  0.500000  1
  P  P10  1  0.645495  0.000000  0.500000  1
  P  P11  1  0.514879  0.683020  0.000000  1
  P  P12  1  0.316980  0.831860  0.000000  1
  P  P13  1  0.168140  0.485121  0.000000  1
  P  P14  1  0.485121  0.168140  0.000000  1
  P  P15  1  0.683020  0.514879  0.000000  1
  P  P16  1  0.831860  0.316980  0.000000  1
  P  P17  1  0.000000  0.177278  0.500000  1
  P  P18  1  0.822722  0.822722  0.500000  1
  P  P19  1  0.177278  0.000000  0.500000  1
  Ir  Ir20  1  0.514662  0.868905  0.000000  1
  Ir  Ir21  1  0.131095  0.645758  0.000000  1
  Ir  Ir22  1  0.354242  0.485338  0.000000  1
  Ir  Ir23  1  0.485338  0.354242  0.000000  1
  Ir  Ir24  1  0.868905  0.514662  0.000000  1
  Ir  Ir25  1  0.645758  0.131095  0.000000  1
  Ir  Ir26  1  0.000000  0.280860  0.000000  1
  Ir  Ir27  1  0.719140  0.719140  0.000000  1
  Ir  Ir28  1  0.280860  0.000000  0.000000  1
  Ir  Ir29  1  0.629393  0.807048  0.500000  1
  Ir  Ir30  1  0.192952  0.822345  0.500000  1
  Ir  Ir31  1  0.177655  0.370607  0.500000  1
  Ir  Ir32  1  0.370607  0.177655  0.500000  1
  Ir  Ir33  1  0.807048  0.629393  0.500000  1
  Ir  Ir34  1  0.822345  0.192952  0.500000  1
  Ir  Ir35  1  0.000000  0.000000  0.500000  1
