# generated using pymatgen
data_Ca6Al23VOs8
_symmetry_space_group_name_H-M   'P 1'
_cell_length_a   8.87257900
_cell_length_b   8.87257941
_cell_length_c   9.66743100
_cell_angle_alpha   90.00000000
_cell_angle_beta   90.00000000
_cell_angle_gamma   120.00000219
_symmetry_Int_Tables_number   1
_chemical_formula_structural   Ca6Al23VOs8
_chemical_formula_sum   'Ca6 Al23 V1 Os8'
_cell_volume   659.08506911
_cell_formula_units_Z   1
loop_
 _symmetry_equiv_pos_site_id
 _symmetry_equiv_pos_as_xyz
  1  'x, y, z'
loop_
 _atom_site_type_symbol
 _atom_site_label
 _atom_site_symmetry_multiplicity
 _atom_site_fract_x
 _atom_site_fract_y
 _atom_site_fract_z
 _atom_site_occupancy
  Ca  Ca0  1  0.194662  0.389324  0.248063  1
  Ca  Ca1  1  0.806999  0.613995  0.749502  1
  Ca  Ca2  1  0.610676  0.805338  0.248063  1
  Ca  Ca3  1  0.386005  0.193001  0.749502  1
  Ca  Ca4  1  0.194662  0.805338  0.248063  1
  Ca  Ca5  1  0.806999  0.193001  0.749502  1
  Al  Al6  1  0.666667  0.333333  0.001882  1
  Al  Al7  1  0.666667  0.333333  0.506615  1
  Al  Al8  1  0.333333  0.666667  0.490714  1
  Al  Al9  1  0.162414  0.324829  0.569479  1
  Al  Al10  1  0.837250  0.674499  0.426948  1
  Al  Al11  1  0.675171  0.837586  0.569479  1
  Al  Al12  1  0.837127  0.674254  0.075507  1
  Al  Al13  1  0.325501  0.162750  0.426948  1
  Al  Al14  1  0.160183  0.320367  0.931790  1
  Al  Al15  1  0.162414  0.837586  0.569479  1
  Al  Al16  1  0.325746  0.162873  0.075507  1
  Al  Al17  1  0.837250  0.162750  0.426948  1
  Al  Al18  1  0.679633  0.839817  0.931790  1
  Al  Al19  1  0.837127  0.162873  0.075507  1
  Al  Al20  1  0.160183  0.839817  0.931790  1
  Al  Al21  1  0.561768  0.123537  0.251454  1
  Al  Al22  1  0.441563  0.883126  0.749257  1
  Al  Al23  1  0.876463  0.438232  0.251454  1
  Al  Al24  1  0.116874  0.558437  0.749257  1
  Al  Al25  1  0.561768  0.438232  0.251454  1
  Al  Al26  1  0.441563  0.558437  0.749257  1
  Al  Al27  1  0.000000  0.000000  0.252587  1
  Al  Al28  1  0.000000  0.000000  0.751800  1
  V  V29  1  0.333333  0.666667  0.976039  1
  Os  Os30  1  0.494913  0.989825  0.000811  1
  Os  Os31  1  0.010175  0.505087  0.000811  1
  Os  Os32  1  0.499645  0.999289  0.502509  1
  Os  Os33  1  0.494913  0.505087  0.000811  1
  Os  Os34  1  0.000711  0.500355  0.502509  1
  Os  Os35  1  0.499645  0.500355  0.502509  1
  Os  Os36  1  0.000000  0.000000  0.002658  1
  Os  Os37  1  0.000000  0.000000  0.501747  1
