# generated using pymatgen
data_PrNd3CdHgPd4
_symmetry_space_group_name_H-M   'P 1'
_cell_length_a   7.82817872
_cell_length_b   7.82383772
_cell_length_c   3.94465200
_cell_angle_alpha   90.00000000
_cell_angle_beta   90.00000000
_cell_angle_gamma   89.84982747
_symmetry_Int_Tables_number   1
_chemical_formula_structural   PrNd3CdHgPd4
_chemical_formula_sum   'Pr1 Nd3 Cd1 Hg1 Pd4'
_cell_volume   241.59490422
_cell_formula_units_Z   1
loop_
 _symmetry_equiv_pos_site_id
 _symmetry_equiv_pos_as_xyz
  1  'x, y, z'
loop_
 _atom_site_type_symbol
 _atom_site_label
 _atom_site_symmetry_multiplicity
 _atom_site_fract_x
 _atom_site_fract_y
 _atom_site_fract_z
 _atom_site_occupancy
  Pr  Pr0  1  0.682113  0.164563  0.500000  1
  Nd  Nd1  1  0.317397  0.835434  0.500000  1
  Nd  Nd2  1  0.164396  0.318097  0.500000  1
  Nd  Nd3  1  0.836070  0.682225  0.500000  1
  Cd  Cd4  1  0.499513  0.500654  0.000000  1
  Hg  Hg5  1  0.001172  0.999226  0.000000  1
  Pd  Pd6  1  0.137292  0.618867  0.000000  1
  Pd  Pd7  1  0.864237  0.382805  0.000000  1
  Pd  Pd8  1  0.618120  0.861484  0.000000  1
  Pd  Pd9  1  0.379690  0.136647  0.000000  1
