# generated using pymatgen
data_Cs2Pu(TeO4)3
_symmetry_space_group_name_H-M   'P 1'
_cell_length_a   7.68848056
_cell_length_b   7.68848068
_cell_length_c   7.68848085
_cell_angle_alpha   57.66431583
_cell_angle_beta   57.66431625
_cell_angle_gamma   57.66431678
_symmetry_Int_Tables_number   1
_chemical_formula_structural   Cs2Pu(TeO4)3
_chemical_formula_sum   'Cs2 Pu1 Te3 O12'
_cell_volume   304.12180151
_cell_formula_units_Z   1
loop_
 _symmetry_equiv_pos_site_id
 _symmetry_equiv_pos_as_xyz
  1  'x, y, z'
loop_
 _atom_site_type_symbol
 _atom_site_label
 _atom_site_symmetry_multiplicity
 _atom_site_fract_x
 _atom_site_fract_y
 _atom_site_fract_z
 _atom_site_occupancy
  Cs  Cs0  1  0.375130  0.375130  0.375130  1
  Cs  Cs1  1  0.624870  0.624870  0.624870  1
  Pu  Pu2  1  0.000000  0.000000  0.000000  1
  Te  Te3  1  0.500000  0.000000  0.000000  1
  Te  Te4  1  0.000000  0.000000  0.500000  1
  Te  Te5  1  0.000000  0.500000  0.000000  1
  O  O6  1  0.923985  0.317693  0.317693  1
  O  O7  1  0.337860  0.932486  0.932486  1
  O  O8  1  0.317693  0.317693  0.923985  1
  O  O9  1  0.932486  0.932486  0.337860  1
  O  O10  1  0.932486  0.337860  0.932486  1
  O  O11  1  0.317693  0.923985  0.317693  1
  O  O12  1  0.076015  0.682307  0.682307  1
  O  O13  1  0.662140  0.067514  0.067514  1
  O  O14  1  0.682307  0.682307  0.076015  1
  O  O15  1  0.067514  0.067514  0.662140  1
  O  O16  1  0.067514  0.662140  0.067514  1
  O  O17  1  0.682307  0.076015  0.682307  1
