# generated using pymatgen
data_Er2Zr3Si12Ir19
_symmetry_space_group_name_H-M   'P 1'
_cell_length_a   12.77781801
_cell_length_b   12.77781881
_cell_length_c   3.93808600
_cell_angle_alpha   90.00000000
_cell_angle_beta   90.00000000
_cell_angle_gamma   119.99509166
_symmetry_Int_Tables_number   1
_chemical_formula_structural   Er2Zr3Si12Ir19
_chemical_formula_sum   'Er2 Zr3 Si12 Ir19'
_cell_volume   556.86603479
_cell_formula_units_Z   1
loop_
 _symmetry_equiv_pos_site_id
 _symmetry_equiv_pos_as_xyz
  1  'x, y, z'
loop_
 _atom_site_type_symbol
 _atom_site_label
 _atom_site_symmetry_multiplicity
 _atom_site_fract_x
 _atom_site_fract_y
 _atom_site_fract_z
 _atom_site_occupancy
  Er  Er0  1  0.185516  0.000297  0.500000  1
  Er  Er1  1  0.000297  0.185516  0.500000  1
  Zr  Zr2  1  0.666748  0.333825  0.000000  1
  Zr  Zr3  1  0.333825  0.666748  0.000000  1
  Zr  Zr4  1  0.812708  0.812708  0.500000  1
  Si  Si5  1  0.688836  0.170133  0.500000  1
  Si  Si6  1  0.829330  0.517543  0.500000  1
  Si  Si7  1  0.482605  0.312016  0.500000  1
  Si  Si8  1  0.170133  0.688836  0.500000  1
  Si  Si9  1  0.517543  0.829330  0.500000  1
  Si  Si10  1  0.312016  0.482605  0.500000  1
  Si  Si11  1  0.634846  0.634846  0.000000  1
  Si  Si12  1  0.366798  0.000131  0.000000  1
  Si  Si13  1  0.000131  0.366798  0.000000  1
  Si  Si14  1  0.179159  0.179159  0.000000  1
  Si  Si15  1  0.819905  0.999119  0.000000  1
  Si  Si16  1  0.999119  0.819905  0.000000  1
  Ir  Ir17  1  0.804497  0.182407  0.000000  1
  Ir  Ir18  1  0.817235  0.624453  0.000000  1
  Ir  Ir19  1  0.378501  0.195555  0.000000  1
  Ir  Ir20  1  0.182407  0.804497  0.000000  1
  Ir  Ir21  1  0.624453  0.817235  0.000000  1
  Ir  Ir22  1  0.195555  0.378501  0.000000  1
  Ir  Ir23  1  0.448852  0.448852  0.000000  1
  Ir  Ir24  1  0.551872  0.998183  0.000000  1
  Ir  Ir25  1  0.998183  0.551872  0.000000  1
  Ir  Ir26  1  0.283066  0.283066  0.500000  1
  Ir  Ir27  1  0.717451  0.998232  0.500000  1
  Ir  Ir28  1  0.998232  0.717451  0.500000  1
  Ir  Ir29  1  0.871762  0.362065  0.500000  1
  Ir  Ir30  1  0.638624  0.510226  0.500000  1
  Ir  Ir31  1  0.491193  0.128322  0.500000  1
  Ir  Ir32  1  0.362065  0.871762  0.500000  1
  Ir  Ir33  1  0.510226  0.638624  0.500000  1
  Ir  Ir34  1  0.128322  0.491193  0.500000  1
  Ir  Ir35  1  0.997988  0.997988  0.000000  1
