# generated using pymatgen
data_K2DyHoB24
_symmetry_space_group_name_H-M   'P 1'
_cell_length_a   4.15509400
_cell_length_b   4.15509400
_cell_length_c   16.66969700
_cell_angle_alpha   90.00000000
_cell_angle_beta   90.00000000
_cell_angle_gamma   90.00000000
_symmetry_Int_Tables_number   1
_chemical_formula_structural   K2DyHoB24
_chemical_formula_sum   'K2 Dy1 Ho1 B24'
_cell_volume   287.79908726
_cell_formula_units_Z   1
loop_
 _symmetry_equiv_pos_site_id
 _symmetry_equiv_pos_as_xyz
  1  'x, y, z'
loop_
 _atom_site_type_symbol
 _atom_site_label
 _atom_site_symmetry_multiplicity
 _atom_site_fract_x
 _atom_site_fract_y
 _atom_site_fract_z
 _atom_site_occupancy
  K  K0  1  0.000000  0.000000  0.249120  1
  K  K1  1  0.000000  0.000000  0.750880  1
  Dy  Dy2  1  0.000000  0.000000  0.500000  1
  Ho  Ho3  1  0.000000  0.000000  0.000000  1
  B  B4  1  0.201496  0.500000  0.121749  1
  B  B5  1  0.201428  0.500000  0.377455  1
  B  B6  1  0.201428  0.500000  0.622545  1
  B  B7  1  0.201496  0.500000  0.878251  1
  B  B8  1  0.500000  0.500000  0.197645  1
  B  B9  1  0.500000  0.500000  0.450801  1
  B  B10  1  0.500000  0.500000  0.698403  1
  B  B11  1  0.500000  0.500000  0.951117  1
  B  B12  1  0.500000  0.201496  0.121749  1
  B  B13  1  0.500000  0.201428  0.377455  1
  B  B14  1  0.500000  0.201428  0.622545  1
  B  B15  1  0.500000  0.201496  0.878251  1
  B  B16  1  0.500000  0.500000  0.048883  1
  B  B17  1  0.500000  0.500000  0.301597  1
  B  B18  1  0.500000  0.500000  0.549199  1
  B  B19  1  0.500000  0.500000  0.802355  1
  B  B20  1  0.500000  0.798504  0.121749  1
  B  B21  1  0.500000  0.798572  0.377455  1
  B  B22  1  0.500000  0.798572  0.622545  1
  B  B23  1  0.500000  0.798504  0.878251  1
  B  B24  1  0.798504  0.500000  0.121749  1
  B  B25  1  0.798572  0.500000  0.377455  1
  B  B26  1  0.798572  0.500000  0.622545  1
  B  B27  1  0.798504  0.500000  0.878251  1
