# generated using pymatgen
data_Y6Mn3Co2P12Ir13
_symmetry_space_group_name_H-M   'P 1'
_cell_length_a   3.90619400
_cell_length_b   11.15436983
_cell_length_c   12.72991851
_cell_angle_alpha   89.84686773
_cell_angle_beta   90.00000000
_cell_angle_gamma   90.00000000
_symmetry_Int_Tables_number   1
_chemical_formula_structural   Y6Mn3Co2P12Ir13
_chemical_formula_sum   'Y6 Mn3 Co2 P12 Ir13'
_cell_volume   554.65498540
_cell_formula_units_Z   1
loop_
 _symmetry_equiv_pos_site_id
 _symmetry_equiv_pos_as_xyz
  1  'x, y, z'
loop_
 _atom_site_type_symbol
 _atom_site_label
 _atom_site_symmetry_multiplicity
 _atom_site_fract_x
 _atom_site_fract_y
 _atom_site_fract_z
 _atom_site_occupancy
  Y  Y0  1  0.000000  0.500371  0.517928  1
  Y  Y1  1  0.500000  0.000772  0.481747  1
  Y  Y2  1  0.500000  0.818193  0.199886  1
  Y  Y3  1  0.500000  0.183591  0.199593  1
  Y  Y4  1  0.000000  0.678648  0.799709  1
  Y  Y5  1  0.000000  0.320500  0.799670  1
  Mn  Mn6  1  0.500000  0.492893  0.162556  1
  Mn  Mn7  1  0.000000  0.001213  0.835177  1
  Mn  Mn8  1  0.500000  0.335469  0.998278  1
  Co  Co9  1  0.000000  0.499135  0.984705  1
  Co  Co10  1  0.500000  0.000275  0.014523  1
  P  P11  1  0.500000  0.490133  0.889365  1
  P  P12  1  0.000000  0.000531  0.115736  1
  P  P13  1  0.500000  0.500677  0.346332  1
  P  P14  1  0.000000  0.000736  0.654155  1
  P  P15  1  0.500000  0.314337  0.620879  1
  P  P16  1  0.500000  0.685819  0.620936  1
  P  P17  1  0.000000  0.186895  0.379741  1
  P  P18  1  0.000000  0.814865  0.379793  1
  P  P19  1  0.500000  0.851289  0.895182  1
  P  P20  1  0.500000  0.159452  0.899202  1
  P  P21  1  0.000000  0.647734  0.104010  1
  P  P22  1  0.000000  0.348736  0.097083  1
  Ir  Ir23  1  0.500000  0.500234  0.703970  1
  Ir  Ir24  1  0.000000  0.000667  0.297051  1
  Ir  Ir25  1  0.500000  0.662108  0.997157  1
  Ir  Ir26  1  0.000000  0.164398  0.003143  1
  Ir  Ir27  1  0.000000  0.837109  0.002655  1
  Ir  Ir28  1  0.500000  0.295346  0.429981  1
  Ir  Ir29  1  0.500000  0.709417  0.429212  1
  Ir  Ir30  1  0.000000  0.206972  0.570542  1
  Ir  Ir31  1  0.000000  0.791183  0.571084  1
  Ir  Ir32  1  0.500000  0.874783  0.715186  1
  Ir  Ir33  1  0.500000  0.128084  0.717743  1
  Ir  Ir34  1  0.000000  0.625240  0.284607  1
  Ir  Ir35  1  0.000000  0.372192  0.281482  1
