# generated using pymatgen
data_NaHo6NiBr12
_symmetry_space_group_name_H-M   'P 1'
_cell_length_a   9.09708098
_cell_length_b   9.20903308
_cell_length_c   9.21727183
_cell_angle_alpha   106.90285310
_cell_angle_beta   106.91894147
_cell_angle_gamma   106.68180326
_symmetry_Int_Tables_number   1
_chemical_formula_structural   NaHo6NiBr12
_chemical_formula_sum   'Na1 Ho6 Ni1 Br12'
_cell_volume   645.95685337
_cell_formula_units_Z   1
loop_
 _symmetry_equiv_pos_site_id
 _symmetry_equiv_pos_as_xyz
  1  'x, y, z'
loop_
 _atom_site_type_symbol
 _atom_site_label
 _atom_site_symmetry_multiplicity
 _atom_site_fract_x
 _atom_site_fract_y
 _atom_site_fract_z
 _atom_site_occupancy
  Na  Na0  1  0.500000  0.500000  0.500000  1
  Ho  Ho1  1  0.301528  0.101245  0.025653  1
  Ho  Ho2  1  0.025768  0.314134  0.108375  1
  Ho  Ho3  1  0.107110  0.028010  0.314140  1
  Ho  Ho4  1  0.892889  0.971990  0.685860  1
  Ho  Ho5  1  0.974232  0.685866  0.891624  1
  Ho  Ho6  1  0.698472  0.898755  0.974346  1
  Ni  Ni7  1  0.000000  0.000000  0.000000  1
  Br  Br8  1  0.677635  0.215349  0.071990  1
  Br  Br9  1  0.365398  0.444830  0.144336  1
  Br  Br10  1  0.074304  0.679860  0.216110  1
  Br  Br11  1  0.781271  0.925111  0.317872  1
  Br  Br12  1  0.448725  0.145142  0.365277  1
  Br  Br13  1  0.143530  0.366097  0.449237  1
  Br  Br14  1  0.856471  0.633903  0.550764  1
  Br  Br15  1  0.551275  0.854859  0.634723  1
  Br  Br16  1  0.218728  0.074889  0.682128  1
  Br  Br17  1  0.925696  0.320140  0.783889  1
  Br  Br18  1  0.634603  0.555171  0.855664  1
  Br  Br19  1  0.322365  0.784650  0.928010  1
