# generated using pymatgen
data_Ho12Th8Si15P
_symmetry_space_group_name_H-M   'P 1'
_cell_length_a   7.73976821
_cell_length_b   7.73154458
_cell_length_c   14.28915700
_cell_angle_alpha   90.00176373
_cell_angle_beta   89.77969281
_cell_angle_gamma   89.93116974
_symmetry_Int_Tables_number   1
_chemical_formula_structural   Ho12Th8Si15P
_chemical_formula_sum   'Ho12 Th8 Si15 P1'
_cell_volume   855.06140368
_cell_formula_units_Z   1
loop_
 _symmetry_equiv_pos_site_id
 _symmetry_equiv_pos_as_xyz
  1  'x, y, z'
loop_
 _atom_site_type_symbol
 _atom_site_label
 _atom_site_symmetry_multiplicity
 _atom_site_fract_x
 _atom_site_fract_y
 _atom_site_fract_z
 _atom_site_occupancy
  Ho  Ho0  1  0.326884  0.325823  0.000133  1
  Ho  Ho1  1  0.173657  0.825491  0.249748  1
  Ho  Ho2  1  0.826428  0.175814  0.749478  1
  Ho  Ho3  1  0.671192  0.673236  0.500899  1
  Ho  Ho4  1  0.160334  0.002464  0.866650  1
  Ho  Ho5  1  0.502349  0.652614  0.122509  1
  Ho  Ho6  1  0.488540  0.340598  0.626694  1
  Ho  Ho7  1  0.658611  0.507744  0.879796  1
  Ho  Ho8  1  0.345840  0.496897  0.378283  1
  Ho  Ho9  1  0.845394  0.003790  0.372221  1
  Ho  Ho10  1  0.997290  0.152595  0.127326  1
  Ho  Ho11  1  0.000308  0.846466  0.626170  1
  Th  Th12  1  0.349667  0.999632  0.462230  1
  Th  Th13  1  0.498239  0.856985  0.712513  1
  Th  Th14  1  0.500121  0.147067  0.212153  1
  Th  Th15  1  0.849940  0.498159  0.288355  1
  Th  Th16  1  0.149953  0.499436  0.786301  1
  Th  Th17  1  0.653080  0.996081  0.964010  1
  Th  Th18  1  0.998061  0.352234  0.536967  1
  Th  Th19  1  0.001048  0.647714  0.037408  1
  Si  Si20  1  0.359611  0.708562  0.929008  1
  Si  Si21  1  0.637550  0.292952  0.432481  1
  Si  Si22  1  0.707611  0.360450  0.072160  1
  Si  Si23  1  0.292871  0.638145  0.571776  1
  Si  Si24  1  0.792713  0.859443  0.180404  1
  Si  Si25  1  0.139938  0.206060  0.320055  1
  Si  Si26  1  0.865307  0.795326  0.819070  1
  Si  Si27  1  0.293699  0.950620  0.061217  1
  Si  Si28  1  0.547824  0.793282  0.313119  1
  Si  Si29  1  0.470964  0.209375  0.821786  1
  Si  Si30  1  0.791411  0.548248  0.687181  1
  Si  Si31  1  0.205425  0.450930  0.187762  1
  Si  Si32  1  0.704022  0.050104  0.562239  1
  Si  Si33  1  0.956842  0.293683  0.936152  1
  Si  Si34  1  0.045482  0.706099  0.436142  1
  P  P35  1  0.191793  0.135882  0.669602  1
