# generated using pymatgen
data_CaTh2Cr6CdO24
_symmetry_space_group_name_H-M   'P 1'
_cell_length_a   9.26792300
_cell_length_b   9.26789398
_cell_length_c   6.17453000
_cell_angle_alpha   89.99998764
_cell_angle_beta   89.99999382
_cell_angle_gamma   120.00005719
_symmetry_Int_Tables_number   1
_chemical_formula_structural   CaTh2Cr6CdO24
_chemical_formula_sum   'Ca1 Th2 Cr6 Cd1 O24'
_cell_volume   459.30139068
_cell_formula_units_Z   1
loop_
 _symmetry_equiv_pos_site_id
 _symmetry_equiv_pos_as_xyz
  1  'x, y, z'
loop_
 _atom_site_type_symbol
 _atom_site_label
 _atom_site_symmetry_multiplicity
 _atom_site_fract_x
 _atom_site_fract_y
 _atom_site_fract_z
 _atom_site_occupancy
  Ca  Ca0  1  0.000000  0.000000  0.000000  1
  Th  Th1  1  0.333333  0.666665  0.246306  1
  Th  Th2  1  0.666667  0.333335  0.753693  1
  Cr  Cr3  1  0.709183  0.100448  0.252635  1
  Cr  Cr4  1  0.391265  0.290816  0.252635  1
  Cr  Cr5  1  0.899553  0.608735  0.252634  1
  Cr  Cr6  1  0.100447  0.391266  0.747365  1
  Cr  Cr7  1  0.608734  0.709184  0.747364  1
  Cr  Cr8  1  0.290817  0.899552  0.747364  1
  Cd  Cd9  1  0.000000  0.000000  0.500001  1
  O  O10  1  0.781261  0.542268  0.033505  1
  O  O11  1  0.761008  0.218741  0.033504  1
  O  O12  1  0.457730  0.238990  0.033503  1
  O  O13  1  0.817160  0.998708  0.254315  1
  O  O14  1  0.181547  0.182841  0.254315  1
  O  O15  1  0.461867  0.492800  0.250497  1
  O  O16  1  0.030933  0.538134  0.250497  1
  O  O17  1  0.001292  0.818452  0.254315  1
  O  O18  1  0.507199  0.969065  0.250497  1
  O  O19  1  0.460779  0.241036  0.469805  1
  O  O20  1  0.758963  0.219744  0.469803  1
  O  O21  1  0.780258  0.539219  0.469803  1
  O  O22  1  0.219743  0.460780  0.530198  1
  O  O23  1  0.241037  0.780256  0.530197  1
  O  O24  1  0.539220  0.758963  0.530195  1
  O  O25  1  0.492801  0.030935  0.749502  1
  O  O26  1  0.998709  0.181547  0.745684  1
  O  O27  1  0.969067  0.461867  0.749502  1
  O  O28  1  0.538133  0.507200  0.749502  1
  O  O29  1  0.818453  0.817159  0.745684  1
  O  O30  1  0.182839  0.001291  0.745684  1
  O  O31  1  0.542269  0.761009  0.966497  1
  O  O32  1  0.238992  0.781259  0.966495  1
  O  O33  1  0.218740  0.457731  0.966495  1
