# generated using pymatgen
data_Eu2Ni3Rh
_symmetry_space_group_name_H-M   'P 1'
_cell_length_a   5.17228644
_cell_length_b   5.17228735
_cell_length_c   5.28910354
_cell_angle_alpha   60.72795243
_cell_angle_beta   60.72794648
_cell_angle_gamma   60.00001119
_symmetry_Int_Tables_number   1
_chemical_formula_structural   Eu2Ni3Rh
_chemical_formula_sum   'Eu2 Ni3 Rh1'
_cell_volume   101.14029654
_cell_formula_units_Z   1
loop_
 _symmetry_equiv_pos_site_id
 _symmetry_equiv_pos_as_xyz
  1  'x, y, z'
loop_
 _atom_site_type_symbol
 _atom_site_label
 _atom_site_symmetry_multiplicity
 _atom_site_fract_x
 _atom_site_fract_y
 _atom_site_fract_z
 _atom_site_occupancy
  Eu  Eu0  1  0.249725  0.249725  0.250825  1
  Eu  Eu1  1  0.000275  0.000275  0.999175  1
  Ni  Ni2  1  0.125000  0.625000  0.625000  1
  Ni  Ni3  1  0.625000  0.625000  0.625000  1
  Ni  Ni4  1  0.625000  0.125000  0.625000  1
  Rh  Rh5  1  0.625000  0.625000  0.125000  1
