# generated using pymatgen
data_TbPrSiPd14
_symmetry_space_group_name_H-M   'P 1'
_cell_length_a   8.95782700
_cell_length_b   8.95782700
_cell_length_c   7.13190100
_cell_angle_alpha   90.00000000
_cell_angle_beta   90.00000000
_cell_angle_gamma   90.00000000
_symmetry_Int_Tables_number   1
_chemical_formula_structural   TbPrSiPd14
_chemical_formula_sum   'Tb2 Pr2 Si2 Pd28'
_cell_volume   572.28273963
_cell_formula_units_Z   2
loop_
 _symmetry_equiv_pos_site_id
 _symmetry_equiv_pos_as_xyz
  1  'x, y, z'
loop_
 _atom_site_type_symbol
 _atom_site_label
 _atom_site_symmetry_multiplicity
 _atom_site_fract_x
 _atom_site_fract_y
 _atom_site_fract_z
 _atom_site_occupancy
  Tb  Tb0  1  0.000000  0.000000  0.500000  1
  Tb  Tb1  1  0.500000  0.500000  0.500000  1
  Pr  Pr2  1  0.500000  0.000000  0.936368  1
  Pr  Pr3  1  0.000000  0.500000  0.063632  1
  Si  Si4  1  0.500000  0.000000  0.448795  1
  Si  Si5  1  0.000000  0.500000  0.551205  1
  Pd  Pd6  1  0.333885  0.833885  0.614434  1
  Pd  Pd7  1  0.333885  0.166115  0.614434  1
  Pd  Pd8  1  0.666115  0.833885  0.614434  1
  Pd  Pd9  1  0.666115  0.166115  0.614434  1
  Pd  Pd10  1  0.166115  0.666115  0.385566  1
  Pd  Pd11  1  0.166115  0.333885  0.385566  1
  Pd  Pd12  1  0.833885  0.666115  0.385566  1
  Pd  Pd13  1  0.833885  0.333885  0.385566  1
  Pd  Pd14  1  0.500000  0.768647  0.259384  1
  Pd  Pd15  1  0.500000  0.231353  0.259384  1
  Pd  Pd16  1  0.268647  0.000000  0.259384  1
  Pd  Pd17  1  0.731353  0.000000  0.259384  1
  Pd  Pd18  1  0.000000  0.731353  0.740616  1
  Pd  Pd19  1  0.000000  0.268647  0.740616  1
  Pd  Pd20  1  0.231353  0.500000  0.740616  1
  Pd  Pd21  1  0.768647  0.500000  0.740616  1
  Pd  Pd22  1  0.500000  0.349828  0.852939  1
  Pd  Pd23  1  0.500000  0.650172  0.852939  1
  Pd  Pd24  1  0.849828  0.000000  0.852939  1
  Pd  Pd25  1  0.150172  0.000000  0.852939  1
  Pd  Pd26  1  0.000000  0.150172  0.147061  1
  Pd  Pd27  1  0.000000  0.849828  0.147061  1
  Pd  Pd28  1  0.650172  0.500000  0.147061  1
  Pd  Pd29  1  0.349828  0.500000  0.147061  1
  Pd  Pd30  1  0.250000  0.750000  0.000000  1
  Pd  Pd31  1  0.250000  0.250000  0.000000  1
  Pd  Pd32  1  0.750000  0.750000  0.000000  1
  Pd  Pd33  1  0.750000  0.250000  0.000000  1
