# generated using pymatgen
data_Tb6YIrI12
_symmetry_space_group_name_H-M   'P 1'
_cell_length_a   9.84889645
_cell_length_b   9.84889572
_cell_length_c   9.84889719
_cell_angle_alpha   106.95449818
_cell_angle_beta   106.95450007
_cell_angle_gamma   106.95450416
_symmetry_Int_Tables_number   1
_chemical_formula_structural   Tb6YIrI12
_chemical_formula_sum   'Tb6 Y1 Ir1 I12'
_cell_volume   796.61044287
_cell_formula_units_Z   1
loop_
 _symmetry_equiv_pos_site_id
 _symmetry_equiv_pos_as_xyz
  1  'x, y, z'
loop_
 _atom_site_type_symbol
 _atom_site_label
 _atom_site_symmetry_multiplicity
 _atom_site_fract_x
 _atom_site_fract_y
 _atom_site_fract_z
 _atom_site_occupancy
  Tb  Tb0  1  0.904892  0.976780  0.703311  1
  Tb  Tb1  1  0.976780  0.703311  0.904892  1
  Tb  Tb2  1  0.703311  0.904892  0.976780  1
  Tb  Tb3  1  0.095108  0.023220  0.296689  1
  Tb  Tb4  1  0.023220  0.296689  0.095108  1
  Tb  Tb5  1  0.296689  0.095108  0.023220  1
  Y  Y6  1  0.500000  0.500000  0.500000  1
  Ir  Ir7  1  0.000000  0.000000  0.000000  1
  I  I8  1  0.535481  0.836903  0.612548  1
  I  I9  1  0.836903  0.612548  0.535481  1
  I  I10  1  0.612548  0.535481  0.836903  1
  I  I11  1  0.464519  0.163097  0.387452  1
  I  I12  1  0.163097  0.387452  0.464519  1
  I  I13  1  0.387452  0.464519  0.163097  1
  I  I14  1  0.676708  0.224420  0.070684  1
  I  I15  1  0.224420  0.070684  0.676708  1
  I  I16  1  0.070684  0.676708  0.224420  1
  I  I17  1  0.323292  0.775580  0.929316  1
  I  I18  1  0.775580  0.929316  0.323292  1
  I  I19  1  0.929316  0.323292  0.775580  1
