# generated using pymatgen
data_Tm3Sn3Rh10
_symmetry_space_group_name_H-M   'P 1'
_cell_length_a   4.30035000
_cell_length_b   5.65412090
_cell_length_c   11.15510975
_cell_angle_alpha   91.23094761
_cell_angle_beta   90.00000000
_cell_angle_gamma   90.00000000
_symmetry_Int_Tables_number   1
_chemical_formula_structural   Tm3Sn3Rh10
_chemical_formula_sum   'Tm3 Sn3 Rh10'
_cell_volume   271.17054042
_cell_formula_units_Z   1
loop_
 _symmetry_equiv_pos_site_id
 _symmetry_equiv_pos_as_xyz
  1  'x, y, z'
loop_
 _atom_site_type_symbol
 _atom_site_label
 _atom_site_symmetry_multiplicity
 _atom_site_fract_x
 _atom_site_fract_y
 _atom_site_fract_z
 _atom_site_occupancy
  Tm  Tm0  1  0.500000  0.829140  0.359537  1
  Tm  Tm1  1  0.500000  0.668322  0.860308  1
  Tm  Tm2  1  0.500000  0.320188  0.141365  1
  Sn  Sn3  1  0.500000  0.165482  0.644230  1
  Sn  Sn4  1  0.000000  0.523516  0.495092  1
  Sn  Sn5  1  0.000000  0.999137  0.000140  1
  Rh  Rh6  1  0.500000  0.183151  0.884397  1
  Rh  Rh7  1  0.500000  0.809163  0.111786  1
  Rh  Rh8  1  0.500000  0.690363  0.611250  1
  Rh  Rh9  1  0.500000  0.316849  0.395796  1
  Rh  Rh10  1  0.000000  0.413083  0.734496  1
  Rh  Rh11  1  0.000000  0.570759  0.248423  1
  Rh  Rh12  1  0.000000  0.030263  0.507672  1
  Rh  Rh13  1  0.000000  0.497268  0.996774  1
  Rh  Rh14  1  0.000000  0.068608  0.254308  1
  Rh  Rh15  1  0.000000  0.914711  0.754428  1
