# generated using pymatgen
data_Tb5Pr6Dy5(CdIr)4
_symmetry_space_group_name_H-M   'P 1'
_cell_length_a   9.78691884
_cell_length_b   9.78203920
_cell_length_c   9.78203944
_cell_angle_alpha   59.97982431
_cell_angle_beta   59.98349047
_cell_angle_gamma   59.98349409
_symmetry_Int_Tables_number   1
_chemical_formula_structural   Tb5Pr6Dy5(CdIr)4
_chemical_formula_sum   'Tb5 Pr6 Dy5 Cd4 Ir4'
_cell_volume   661.93471598
_cell_formula_units_Z   1
loop_
 _symmetry_equiv_pos_site_id
 _symmetry_equiv_pos_as_xyz
  1  'x, y, z'
loop_
 _atom_site_type_symbol
 _atom_site_label
 _atom_site_symmetry_multiplicity
 _atom_site_fract_x
 _atom_site_fract_y
 _atom_site_fract_z
 _atom_site_occupancy
  Tb  Tb0  1  0.346822  0.347791  0.347791  1
  Tb  Tb1  1  0.347506  0.348175  0.956811  1
  Tb  Tb2  1  0.347506  0.956811  0.348175  1
  Tb  Tb3  1  0.957596  0.347791  0.347791  1
  Tb  Tb4  1  0.812678  0.187322  0.187322  1
  Pr  Pr5  1  0.940855  0.559145  0.559145  1
  Pr  Pr6  1  0.558443  0.941557  0.941557  1
  Pr  Pr7  1  0.558914  0.941134  0.558605  1
  Pr  Pr8  1  0.941347  0.558605  0.941134  1
  Pr  Pr9  1  0.558914  0.558605  0.941134  1
  Pr  Pr10  1  0.941347  0.941134  0.558605  1
  Dy  Dy11  1  0.187270  0.812730  0.812730  1
  Dy  Dy12  1  0.188138  0.812196  0.186691  1
  Dy  Dy13  1  0.812974  0.186691  0.812196  1
  Dy  Dy14  1  0.188138  0.186691  0.812196  1
  Dy  Dy15  1  0.812974  0.812196  0.186691  1
  Cd  Cd16  1  0.579197  0.579220  0.579220  1
  Cd  Cd17  1  0.579279  0.579480  0.261961  1
  Cd  Cd18  1  0.579279  0.261961  0.579480  1
  Cd  Cd19  1  0.262362  0.579220  0.579220  1
  Ir  Ir20  1  0.140847  0.141419  0.141419  1
  Ir  Ir21  1  0.140647  0.141773  0.576932  1
  Ir  Ir22  1  0.140647  0.576932  0.141773  1
  Ir  Ir23  1  0.576316  0.141419  0.141419  1
