# generated using pymatgen
data_TbNd2Sm(Ni5Sn)4
_symmetry_space_group_name_H-M   'P 1'
_cell_length_a   4.89606100
_cell_length_b   4.89606021
_cell_length_c   19.69165500
_cell_angle_alpha   90.00000000
_cell_angle_beta   90.00000000
_cell_angle_gamma   120.00001211
_symmetry_Int_Tables_number   1
_chemical_formula_structural   TbNd2Sm(Ni5Sn)4
_chemical_formula_sum   'Tb1 Nd2 Sm1 Ni20 Sn4'
_cell_volume   408.79574495
_cell_formula_units_Z   1
loop_
 _symmetry_equiv_pos_site_id
 _symmetry_equiv_pos_as_xyz
  1  'x, y, z'
loop_
 _atom_site_type_symbol
 _atom_site_label
 _atom_site_symmetry_multiplicity
 _atom_site_fract_x
 _atom_site_fract_y
 _atom_site_fract_z
 _atom_site_occupancy
  Tb  Tb0  1  0.666667  0.333333  0.750000  1
  Nd  Nd1  1  0.000000  0.000000  0.500054  1
  Nd  Nd2  1  0.000000  0.000000  0.999946  1
  Sm  Sm3  1  0.333333  0.666667  0.250000  1
  Ni  Ni4  1  0.000000  0.000000  0.250000  1
  Ni  Ni5  1  0.000000  0.000000  0.750000  1
  Ni  Ni6  1  0.333333  0.666667  0.750000  1
  Ni  Ni7  1  0.666667  0.333333  0.250000  1
  Ni  Ni8  1  0.333333  0.666667  0.956568  1
  Ni  Ni9  1  0.666667  0.333333  0.043290  1
  Ni  Ni10  1  0.666667  0.333333  0.456710  1
  Ni  Ni11  1  0.333333  0.666667  0.543432  1
  Ni  Ni12  1  0.833802  0.166198  0.353237  1
  Ni  Ni13  1  0.833802  0.667602  0.353237  1
  Ni  Ni14  1  0.332398  0.166198  0.353237  1
  Ni  Ni15  1  0.166252  0.833748  0.647127  1
  Ni  Ni16  1  0.166252  0.332505  0.647127  1
  Ni  Ni17  1  0.667495  0.833748  0.647127  1
  Ni  Ni18  1  0.166252  0.833748  0.852873  1
  Ni  Ni19  1  0.166252  0.332505  0.852873  1
  Ni  Ni20  1  0.667495  0.833748  0.852873  1
  Ni  Ni21  1  0.833802  0.166198  0.146763  1
  Ni  Ni22  1  0.833802  0.667602  0.146763  1
  Ni  Ni23  1  0.332398  0.166198  0.146763  1
  Sn  Sn24  1  0.333333  0.666667  0.412120  1
  Sn  Sn25  1  0.666667  0.333333  0.588295  1
  Sn  Sn26  1  0.666667  0.333333  0.911705  1
  Sn  Sn27  1  0.333333  0.666667  0.087880  1
