# generated using pymatgen
data_La4Pr7Nd(PtBr3)4
_symmetry_space_group_name_H-M   'P 1'
_cell_length_a   10.67204230
_cell_length_b   10.66762001
_cell_length_c   10.67105940
_cell_angle_alpha   109.27111769
_cell_angle_beta   109.45714269
_cell_angle_gamma   109.65045566
_symmetry_Int_Tables_number   1
_chemical_formula_structural   La4Pr7Nd(PtBr3)4
_chemical_formula_sum   'La4 Pr7 Nd1 Pt4 Br12'
_cell_volume   935.58728770
_cell_formula_units_Z   1
loop_
 _symmetry_equiv_pos_site_id
 _symmetry_equiv_pos_as_xyz
  1  'x, y, z'
loop_
 _atom_site_type_symbol
 _atom_site_label
 _atom_site_symmetry_multiplicity
 _atom_site_fract_x
 _atom_site_fract_y
 _atom_site_fract_z
 _atom_site_occupancy
  La  La0  1  0.468466  0.485216  0.233092  1
  La  La1  1  0.749946  0.235588  0.263557  1
  La  La2  1  0.753429  0.016242  0.489000  1
  La  La3  1  0.234048  0.468904  0.486090  1
  Pr  Pr4  1  0.027351  0.263765  0.013955  1
  Pr  Pr5  1  0.015393  0.027206  0.262722  1
  Pr  Pr6  1  0.485192  0.751703  0.016381  1
  Pr  Pr7  1  0.483397  0.232046  0.467161  1
  Pr  Pr8  1  0.017891  0.487188  0.754896  1
  Pr  Pr9  1  0.263433  0.014628  0.029610  1
  Pr  Pr10  1  0.234550  0.265052  0.749430  1
  Nd  Nd11  1  0.265608  0.751215  0.233131  1
  Pt  Pt12  1  0.248744  0.250397  0.249124  1
  Pt  Pt13  1  0.502390  0.000830  0.250946  1
  Pt  Pt14  1  0.998042  0.248470  0.498273  1
  Pt  Pt15  1  0.250178  0.499738  0.001404  1
  Br  Br16  1  0.250717  0.754890  0.749348  1
  Br  Br17  1  0.506112  0.501748  0.753417  1
  Br  Br18  1  0.995192  0.746444  0.999109  1
  Br  Br19  1  0.747341  0.251989  0.753848  1
  Br  Br20  1  0.998690  0.994199  0.749382  1
  Br  Br21  1  0.249886  0.995350  0.500914  1
  Br  Br22  1  0.753841  0.505721  0.505264  1
  Br  Br23  1  0.500560  0.249248  0.994573  1
  Br  Br24  1  0.754127  0.748044  0.248902  1
  Br  Br25  1  0.747174  0.995623  0.993769  1
  Br  Br26  1  0.999023  0.505082  0.248444  1
  Br  Br27  1  0.499280  0.753476  0.504260  1
