# generated using pymatgen
data_Tb4ScIr2Ru
_symmetry_space_group_name_H-M   'P 1'
_cell_length_a   10.76403300
_cell_length_b   10.76403300
_cell_length_c   6.33109700
_cell_angle_alpha   90.00000000
_cell_angle_beta   90.00000000
_cell_angle_gamma   90.00000000
_symmetry_Int_Tables_number   1
_chemical_formula_structural   Tb4ScIr2Ru
_chemical_formula_sum   'Tb16 Sc4 Ir8 Ru4'
_cell_volume   733.54879592
_cell_formula_units_Z   4
loop_
 _symmetry_equiv_pos_site_id
 _symmetry_equiv_pos_as_xyz
  1  'x, y, z'
loop_
 _atom_site_type_symbol
 _atom_site_label
 _atom_site_symmetry_multiplicity
 _atom_site_fract_x
 _atom_site_fract_y
 _atom_site_fract_z
 _atom_site_occupancy
  Tb  Tb0  1  0.289839  0.085123  0.377740  1
  Tb  Tb1  1  0.289839  0.914877  0.877740  1
  Tb  Tb2  1  0.710161  0.085123  0.877740  1
  Tb  Tb3  1  0.710161  0.914877  0.377740  1
  Tb  Tb4  1  0.585123  0.789839  0.877740  1
  Tb  Tb5  1  0.585123  0.210161  0.377740  1
  Tb  Tb6  1  0.414877  0.789839  0.377740  1
  Tb  Tb7  1  0.414877  0.210161  0.877740  1
  Tb  Tb8  1  0.210161  0.414877  0.622260  1
  Tb  Tb9  1  0.210161  0.585123  0.122260  1
  Tb  Tb10  1  0.789839  0.414877  0.122260  1
  Tb  Tb11  1  0.789839  0.585123  0.622260  1
  Tb  Tb12  1  0.914877  0.710161  0.122260  1
  Tb  Tb13  1  0.914877  0.289839  0.622260  1
  Tb  Tb14  1  0.085123  0.710161  0.622260  1
  Tb  Tb15  1  0.085123  0.289839  0.122260  1
  Sc  Sc16  1  0.000000  0.000000  0.500000  1
  Sc  Sc17  1  0.000000  0.000000  0.000000  1
  Sc  Sc18  1  0.500000  0.500000  0.000000  1
  Sc  Sc19  1  0.500000  0.500000  0.500000  1
  Ir  Ir20  1  0.854179  0.145821  0.250000  1
  Ir  Ir21  1  0.854179  0.854179  0.750000  1
  Ir  Ir22  1  0.145821  0.145821  0.750000  1
  Ir  Ir23  1  0.145821  0.854179  0.250000  1
  Ir  Ir24  1  0.645821  0.354179  0.750000  1
  Ir  Ir25  1  0.645821  0.645821  0.250000  1
  Ir  Ir26  1  0.354179  0.354179  0.250000  1
  Ir  Ir27  1  0.354179  0.645821  0.750000  1
  Ru  Ru28  1  0.500000  0.000000  0.122498  1
  Ru  Ru29  1  0.500000  0.000000  0.622498  1
  Ru  Ru30  1  0.000000  0.500000  0.877502  1
  Ru  Ru31  1  0.000000  0.500000  0.377502  1
