# generated using pymatgen
data_SrAc2Ag11
_symmetry_space_group_name_H-M   'P 1'
_cell_length_a   8.98529574
_cell_length_b   8.98529520
_cell_length_c   8.98529574
_cell_angle_alpha   149.56067906
_cell_angle_beta   111.99279099
_cell_angle_gamma   76.31073285
_symmetry_Int_Tables_number   1
_chemical_formula_structural   SrAc2Ag11
_chemical_formula_sum   'Sr1 Ac2 Ag11'
_cell_volume   334.98982822
_cell_formula_units_Z   1
loop_
 _symmetry_equiv_pos_site_id
 _symmetry_equiv_pos_as_xyz
  1  'x, y, z'
loop_
 _atom_site_type_symbol
 _atom_site_label
 _atom_site_symmetry_multiplicity
 _atom_site_fract_x
 _atom_site_fract_y
 _atom_site_fract_z
 _atom_site_occupancy
  Sr  Sr0  1  0.000000  0.000000  0.000000  1
  Ac  Ac1  1  0.302258  0.302258  0.000000  1
  Ac  Ac2  1  0.697742  0.697742  0.000000  1
  Ag  Ag3  1  0.698093  0.500000  0.198093  1
  Ag  Ag4  1  0.409241  0.126077  0.283163  1
  Ag  Ag5  1  0.157085  0.873923  0.283164  1
  Ag  Ag6  1  0.689664  0.330552  0.359112  1
  Ag  Ag7  1  0.028559  0.669449  0.359112  1
  Ag  Ag8  1  0.500000  0.000000  0.500000  1
  Ag  Ag9  1  0.971441  0.330552  0.640889  1
  Ag  Ag10  1  0.310336  0.669449  0.640889  1
  Ag  Ag11  1  0.842915  0.126077  0.716837  1
  Ag  Ag12  1  0.590759  0.873923  0.716838  1
  Ag  Ag13  1  0.301907  0.500001  0.801908  1
