# generated using pymatgen
data_Ti8Al14SiPt7
_symmetry_space_group_name_H-M   'P 1'
_cell_length_a   8.71035824
_cell_length_b   8.71035876
_cell_length_c   8.71035826
_cell_angle_alpha   120.18702371
_cell_angle_beta   119.80590734
_cell_angle_gamma   90.00643858
_symmetry_Int_Tables_number   1
_chemical_formula_structural   Ti8Al14SiPt7
_chemical_formula_sum   'Ti8 Al14 Si1 Pt7'
_cell_volume   467.31559563
_cell_formula_units_Z   1
loop_
 _symmetry_equiv_pos_site_id
 _symmetry_equiv_pos_as_xyz
  1  'x, y, z'
loop_
 _atom_site_type_symbol
 _atom_site_label
 _atom_site_symmetry_multiplicity
 _atom_site_fract_x
 _atom_site_fract_y
 _atom_site_fract_z
 _atom_site_occupancy
  Ti  Ti0  1  0.791643  0.297047  0.093933  1
  Ti  Ti1  1  0.203116  0.297047  0.505404  1
  Ti  Ti2  1  0.207573  0.707573  0.500000  1
  Ti  Ti3  1  0.203116  0.697711  0.906067  1
  Ti  Ti4  1  0.791643  0.697711  0.494596  1
  Ti  Ti5  1  0.800250  0.300250  0.500000  1
  Ti  Ti6  1  0.380321  0.121063  0.740742  1
  Ti  Ti7  1  0.380321  0.639579  0.259258  1
  Al  Al8  1  0.159132  0.345329  0.186196  1
  Al  Al9  1  0.159132  0.972935  0.813804  1
  Al  Al10  1  0.163141  0.338373  0.824767  1
  Al  Al11  1  0.513606  0.338373  0.175233  1
  Al  Al12  1  0.840668  0.661274  0.820607  1
  Al  Al13  1  0.840668  0.020062  0.179393  1
  Al  Al14  1  0.841539  0.659215  0.182324  1
  Al  Al15  1  0.476890  0.659215  0.817676  1
  Al  Al16  1  0.379549  0.119902  0.259647  1
  Al  Al17  1  0.860256  0.119902  0.740353  1
  Al  Al18  1  0.620938  0.878115  0.257177  1
  Al  Al19  1  0.620938  0.363761  0.742823  1
  Al  Al20  1  0.621174  0.879470  0.741704  1
  Al  Al21  1  0.137766  0.879470  0.258296  1
  Si  Si22  1  0.003892  0.503892  0.500000  1
  Pt  Pt23  1  0.995657  0.000397  0.498887  1
  Pt  Pt24  1  0.501510  0.000397  0.004740  1
  Pt  Pt25  1  0.502381  0.502381  0.000000  1
  Pt  Pt26  1  0.501510  0.496770  0.501113  1
  Pt  Pt27  1  0.995657  0.496770  0.995260  1
  Pt  Pt28  1  0.002899  0.002899  0.000000  1
  Pt  Pt29  1  0.503108  0.003108  0.500000  1
