# generated using pymatgen
data_LaCe2Se5
_symmetry_space_group_name_H-M   'P 1'
_cell_length_a   7.84980700
_cell_length_b   8.44591600
_cell_length_c   12.41287700
_cell_angle_alpha   90.00000000
_cell_angle_beta   90.00000000
_cell_angle_gamma   90.00000000
_symmetry_Int_Tables_number   1
_chemical_formula_structural   LaCe2Se5
_chemical_formula_sum   'La4 Ce8 Se20'
_cell_volume   822.95898046
_cell_formula_units_Z   4
loop_
 _symmetry_equiv_pos_site_id
 _symmetry_equiv_pos_as_xyz
  1  'x, y, z'
loop_
 _atom_site_type_symbol
 _atom_site_label
 _atom_site_symmetry_multiplicity
 _atom_site_fract_x
 _atom_site_fract_y
 _atom_site_fract_z
 _atom_site_occupancy
  La  La0  1  0.026833  0.498876  0.822809  1
  La  La1  1  0.973167  0.998876  0.177191  1
  La  La2  1  0.526833  0.998876  0.677191  1
  La  La3  1  0.473167  0.498876  0.322809  1
  Ce  Ce4  1  0.575665  0.250801  0.990346  1
  Ce  Ce5  1  0.924335  0.250801  0.490346  1
  Ce  Ce6  1  0.424335  0.750801  0.009654  1
  Ce  Ce7  1  0.075665  0.750801  0.509654  1
  Ce  Ce8  1  0.477176  0.999398  0.321242  1
  Ce  Ce9  1  0.522824  0.499398  0.678758  1
  Ce  Ce10  1  0.977176  0.499398  0.178758  1
  Ce  Ce11  1  0.022824  0.999398  0.821242  1
  Se  Se12  1  0.337812  0.046040  0.098257  1
  Se  Se13  1  0.170195  0.453948  0.593827  1
  Se  Se14  1  0.662188  0.546040  0.901743  1
  Se  Se15  1  0.829805  0.953948  0.406173  1
  Se  Se16  1  0.670195  0.953948  0.906173  1
  Se  Se17  1  0.837812  0.546040  0.401743  1
  Se  Se18  1  0.329805  0.453948  0.093827  1
  Se  Se19  1  0.162188  0.046040  0.598257  1
  Se  Se20  1  0.960566  0.250838  0.998860  1
  Se  Se21  1  0.539434  0.250838  0.498860  1
  Se  Se22  1  0.039434  0.750838  0.001140  1
  Se  Se23  1  0.460566  0.750838  0.501140  1
  Se  Se24  1  0.697965  0.251109  0.216694  1
  Se  Se25  1  0.802035  0.251109  0.716694  1
  Se  Se26  1  0.302035  0.751109  0.783306  1
  Se  Se27  1  0.197965  0.751109  0.283306  1
  Se  Se28  1  0.329399  0.248989  0.812808  1
  Se  Se29  1  0.170601  0.248989  0.312808  1
  Se  Se30  1  0.670601  0.748989  0.187192  1
  Se  Se31  1  0.829399  0.748989  0.687192  1
