# generated using pymatgen
data_Tb4CdHgPd4
_symmetry_space_group_name_H-M   'P 1'
_cell_length_a   3.77336000
_cell_length_b   7.70763200
_cell_length_c   7.70763200
_cell_angle_alpha   90.00000000
_cell_angle_beta   90.00000000
_cell_angle_gamma   90.00000000
_symmetry_Int_Tables_number   1
_chemical_formula_structural   Tb4CdHgPd4
_chemical_formula_sum   'Tb4 Cd1 Hg1 Pd4'
_cell_volume   224.16622775
_cell_formula_units_Z   1
loop_
 _symmetry_equiv_pos_site_id
 _symmetry_equiv_pos_as_xyz
  1  'x, y, z'
loop_
 _atom_site_type_symbol
 _atom_site_label
 _atom_site_symmetry_multiplicity
 _atom_site_fract_x
 _atom_site_fract_y
 _atom_site_fract_z
 _atom_site_occupancy
  Tb  Tb0  1  0.500000  0.159297  0.684073  1
  Tb  Tb1  1  0.500000  0.840703  0.315927  1
  Tb  Tb2  1  0.500000  0.315927  0.159297  1
  Tb  Tb3  1  0.500000  0.684073  0.840703  1
  Cd  Cd4  1  0.000000  0.500000  0.500000  1
  Hg  Hg5  1  0.000000  0.000000  0.000000  1
  Pd  Pd6  1  0.000000  0.618474  0.139308  1
  Pd  Pd7  1  0.000000  0.381526  0.860692  1
  Pd  Pd8  1  0.000000  0.860692  0.618474  1
  Pd  Pd9  1  0.000000  0.139308  0.381526  1
