# generated using pymatgen
data_Sm5Dy2Y(Si3Rh)4
_symmetry_space_group_name_H-M   'P 1'
_cell_length_a   8.22049119
_cell_length_b   8.22049249
_cell_length_c   8.08552700
_cell_angle_alpha   90.00000000
_cell_angle_beta   90.00000000
_cell_angle_gamma   120.06163178
_symmetry_Int_Tables_number   1
_chemical_formula_structural   Sm5Dy2Y(Si3Rh)4
_chemical_formula_sum   'Sm5 Dy2 Y1 Si12 Rh4'
_cell_volume   472.89477764
_cell_formula_units_Z   1
loop_
 _symmetry_equiv_pos_site_id
 _symmetry_equiv_pos_as_xyz
  1  'x, y, z'
loop_
 _atom_site_type_symbol
 _atom_site_label
 _atom_site_symmetry_multiplicity
 _atom_site_fract_x
 _atom_site_fract_y
 _atom_site_fract_z
 _atom_site_occupancy
  Sm  Sm0  1  0.000032  0.999968  0.250000  1
  Sm  Sm1  1  0.999988  0.000012  0.750000  1
  Sm  Sm2  1  0.506533  0.493467  0.250000  1
  Sm  Sm3  1  0.506529  0.013118  0.250000  1
  Sm  Sm4  1  0.986882  0.493471  0.250000  1
  Dy  Dy5  1  0.492001  0.984070  0.750000  1
  Dy  Dy6  1  0.015930  0.507999  0.750000  1
  Y  Y7  1  0.491861  0.508139  0.750000  1
  Si  Si8  1  0.166940  0.833060  0.504249  1
  Si  Si9  1  0.166842  0.333885  0.504077  1
  Si  Si10  1  0.666115  0.833158  0.504077  1
  Si  Si11  1  0.832245  0.167755  0.501882  1
  Si  Si12  1  0.832408  0.664585  0.501680  1
  Si  Si13  1  0.335415  0.167592  0.501680  1
  Si  Si14  1  0.832245  0.167755  0.998118  1
  Si  Si15  1  0.832408  0.664585  0.998320  1
  Si  Si16  1  0.335415  0.167592  0.998320  1
  Si  Si17  1  0.166940  0.833060  0.995751  1
  Si  Si18  1  0.166842  0.333885  0.995923  1
  Si  Si19  1  0.666115  0.833158  0.995923  1
  Rh  Rh20  1  0.333165  0.666835  0.478375  1
  Rh  Rh21  1  0.666992  0.333008  0.538694  1
  Rh  Rh22  1  0.666992  0.333008  0.961306  1
  Rh  Rh23  1  0.333165  0.666835  0.021625  1
