# generated using pymatgen
data_Li8ErTh7Sn8
_symmetry_space_group_name_H-M   'P 1'
_cell_length_a   9.66542600
_cell_length_b   9.66542474
_cell_length_c   7.33477200
_cell_angle_alpha   90.00000000
_cell_angle_beta   90.00000000
_cell_angle_gamma   120.00000431
_symmetry_Int_Tables_number   1
_chemical_formula_structural   Li8ErTh7Sn8
_chemical_formula_sum   'Li8 Er1 Th7 Sn8'
_cell_volume   593.41589499
_cell_formula_units_Z   1
loop_
 _symmetry_equiv_pos_site_id
 _symmetry_equiv_pos_as_xyz
  1  'x, y, z'
loop_
 _atom_site_type_symbol
 _atom_site_label
 _atom_site_symmetry_multiplicity
 _atom_site_fract_x
 _atom_site_fract_y
 _atom_site_fract_z
 _atom_site_occupancy
  Li  Li0  1  0.165800  0.331602  0.263220  1
  Li  Li1  1  0.165800  0.834200  0.263220  1
  Li  Li2  1  0.668398  0.834200  0.263220  1
  Li  Li3  1  0.835187  0.670373  0.783267  1
  Li  Li4  1  0.835187  0.164813  0.783267  1
  Li  Li5  1  0.329627  0.164813  0.783267  1
  Li  Li6  1  0.333333  0.666667  0.696779  1
  Li  Li7  1  0.666667  0.333333  0.193818  1
  Er  Er8  1  0.000000  0.000000  0.000014  1
  Th  Th9  1  0.507736  0.015471  0.494785  1
  Th  Th10  1  0.507736  0.492264  0.494785  1
  Th  Th11  1  0.984529  0.492264  0.494785  1
  Th  Th12  1  0.492345  0.984690  0.994604  1
  Th  Th13  1  0.492345  0.507655  0.994604  1
  Th  Th14  1  0.015310  0.507655  0.994604  1
  Th  Th15  1  0.000000  0.000000  0.499086  1
  Sn  Sn16  1  0.165362  0.330724  0.739899  1
  Sn  Sn17  1  0.165362  0.834638  0.739899  1
  Sn  Sn18  1  0.669276  0.834638  0.739899  1
  Sn  Sn19  1  0.835220  0.670439  0.232468  1
  Sn  Sn20  1  0.835220  0.164780  0.232468  1
  Sn  Sn21  1  0.329561  0.164780  0.232468  1
  Sn  Sn22  1  0.333333  0.666667  0.264991  1
  Sn  Sn23  1  0.666667  0.333333  0.762578  1
