# generated using pymatgen
data_Ho3P6Pd17Rh3
_symmetry_space_group_name_H-M   'P 1'
_cell_length_a   8.65546620
_cell_length_b   8.65546607
_cell_length_c   8.68282900
_cell_angle_alpha   59.77603990
_cell_angle_beta   59.77604038
_cell_angle_gamma   59.68270578
_symmetry_Int_Tables_number   1
_chemical_formula_structural   Ho3P6Pd17Rh3
_chemical_formula_sum   'Ho3 P6 Pd17 Rh3'
_cell_volume   457.30243742
_cell_formula_units_Z   1
loop_
 _symmetry_equiv_pos_site_id
 _symmetry_equiv_pos_as_xyz
  1  'x, y, z'
loop_
 _atom_site_type_symbol
 _atom_site_label
 _atom_site_symmetry_multiplicity
 _atom_site_fract_x
 _atom_site_fract_y
 _atom_site_fract_z
 _atom_site_occupancy
  Ho  Ho0  1  0.259047  0.259047  0.244541  1
  Ho  Ho1  1  0.742673  0.742673  0.748327  1
  Ho  Ho2  1  0.999647  0.999647  0.000911  1
  P  P3  1  0.729021  0.267576  0.265451  1
  P  P4  1  0.274367  0.726497  0.732244  1
  P  P5  1  0.267576  0.729021  0.265451  1
  P  P6  1  0.726497  0.274367  0.732244  1
  P  P7  1  0.271115  0.271115  0.728643  1
  P  P8  1  0.733338  0.733338  0.270031  1
  Pd  Pd9  1  0.377981  0.854825  0.380073  1
  Pd  Pd10  1  0.619496  0.619496  0.150415  1
  Pd  Pd11  1  0.623417  0.144496  0.617354  1
  Pd  Pd12  1  0.854825  0.377981  0.380073  1
  Pd  Pd13  1  0.144496  0.623417  0.617354  1
  Pd  Pd14  1  0.342331  0.001077  0.001811  1
  Pd  Pd15  1  0.654904  0.000336  0.002245  1
  Pd  Pd16  1  0.999664  0.343599  0.658838  1
  Pd  Pd17  1  0.998224  0.654434  0.348805  1
  Pd  Pd18  1  0.001077  0.342331  0.001811  1
  Pd  Pd19  1  0.654434  0.998224  0.348805  1
  Pd  Pd20  1  0.000336  0.654904  0.002245  1
  Pd  Pd21  1  0.343599  0.999664  0.658838  1
  Pd  Pd22  1  0.998671  0.998671  0.346171  1
  Pd  Pd23  1  0.999135  0.999135  0.659022  1
  Pd  Pd24  1  0.654189  0.344317  0.000244  1
  Pd  Pd25  1  0.344317  0.654189  0.000244  1
  Rh  Rh26  1  0.388434  0.388434  0.389523  1
  Rh  Rh27  1  0.613463  0.613463  0.606909  1
  Rh  Rh28  1  0.383724  0.383724  0.841379  1
