# generated using pymatgen
data_Lu3Cu6Ni7B2
_symmetry_space_group_name_H-M   'P 1'
_cell_length_a   4.97006010
_cell_length_b   4.96816343
_cell_length_c   10.90235900
_cell_angle_alpha   90.00000000
_cell_angle_beta   90.00000000
_cell_angle_gamma   119.98735861
_symmetry_Int_Tables_number   1
_chemical_formula_structural   Lu3Cu6Ni7B2
_chemical_formula_sum   'Lu3 Cu6 Ni7 B2'
_cell_volume   233.16530719
_cell_formula_units_Z   1
loop_
 _symmetry_equiv_pos_site_id
 _symmetry_equiv_pos_as_xyz
  1  'x, y, z'
loop_
 _atom_site_type_symbol
 _atom_site_label
 _atom_site_symmetry_multiplicity
 _atom_site_fract_x
 _atom_site_fract_y
 _atom_site_fract_z
 _atom_site_occupancy
  Lu  Lu0  1  0.000000  0.000000  0.000000  1
  Lu  Lu1  1  0.000000  0.000000  0.678272  1
  Lu  Lu2  1  0.000000  0.000000  0.321728  1
  Cu  Cu3  1  0.500000  0.500000  0.500000  1
  Cu  Cu4  1  0.500000  0.000000  0.500000  1
  Cu  Cu5  1  0.669466  0.334733  0.684572  1
  Cu  Cu6  1  0.330534  0.665267  0.684572  1
  Cu  Cu7  1  0.330534  0.665267  0.315428  1
  Cu  Cu8  1  0.669466  0.334733  0.315428  1
  Ni  Ni9  1  0.000000  0.500000  0.500000  1
  Ni  Ni10  1  0.500000  0.500000  0.870272  1
  Ni  Ni11  1  0.500000  0.000000  0.870272  1
  Ni  Ni12  1  0.000000  0.500000  0.870262  1
  Ni  Ni13  1  0.500000  0.500000  0.129728  1
  Ni  Ni14  1  0.500000  0.000000  0.129728  1
  Ni  Ni15  1  0.000000  0.500000  0.129738  1
  B  B16  1  0.666758  0.333379  0.000000  1
  B  B17  1  0.333242  0.666621  0.000000  1
