# generated using pymatgen
data_Y4Al4PtRh3
_symmetry_space_group_name_H-M   'P 1'
_cell_length_a   4.32550400
_cell_length_b   6.88119273
_cell_length_c   7.86690430
_cell_angle_alpha   89.81092373
_cell_angle_beta   90.00000000
_cell_angle_gamma   90.00000000
_symmetry_Int_Tables_number   1
_chemical_formula_structural   Y4Al4PtRh3
_chemical_formula_sum   'Y4 Al4 Pt1 Rh3'
_cell_volume   234.15419468
_cell_formula_units_Z   1
loop_
 _symmetry_equiv_pos_site_id
 _symmetry_equiv_pos_as_xyz
  1  'x, y, z'
loop_
 _atom_site_type_symbol
 _atom_site_label
 _atom_site_symmetry_multiplicity
 _atom_site_fract_x
 _atom_site_fract_y
 _atom_site_fract_z
 _atom_site_occupancy
  Y  Y0  1  0.250000  0.028247  0.679682  1
  Y  Y1  1  0.250000  0.532165  0.817949  1
  Y  Y2  1  0.750000  0.970560  0.318244  1
  Y  Y3  1  0.750000  0.472033  0.184770  1
  Al  Al4  1  0.250000  0.141075  0.065299  1
  Al  Al5  1  0.250000  0.641390  0.436637  1
  Al  Al6  1  0.750000  0.856162  0.935492  1
  Al  Al7  1  0.750000  0.359258  0.563684  1
  Pt  Pt8  1  0.750000  0.229476  0.883494  1
  Rh  Rh9  1  0.250000  0.269276  0.385244  1
  Rh  Rh10  1  0.250000  0.769020  0.114430  1
  Rh  Rh11  1  0.750000  0.731339  0.615075  1
