# generated using pymatgen
data_Sr3InHg2Pt3
_symmetry_space_group_name_H-M   'P 1'
_cell_length_a   7.80692283
_cell_length_b   7.80692345
_cell_length_c   4.35563900
_cell_angle_alpha   90.00000000
_cell_angle_beta   90.00000000
_cell_angle_gamma   120.85868873
_symmetry_Int_Tables_number   1
_chemical_formula_structural   Sr3InHg2Pt3
_chemical_formula_sum   'Sr3 In1 Hg2 Pt3'
_cell_volume   227.88675187
_cell_formula_units_Z   1
loop_
 _symmetry_equiv_pos_site_id
 _symmetry_equiv_pos_as_xyz
  1  'x, y, z'
loop_
 _atom_site_type_symbol
 _atom_site_label
 _atom_site_symmetry_multiplicity
 _atom_site_fract_x
 _atom_site_fract_y
 _atom_site_fract_z
 _atom_site_occupancy
  Sr  Sr0  1  0.405554  0.993263  0.000000  1
  Sr  Sr1  1  0.993263  0.405554  0.000000  1
  Sr  Sr2  1  0.603545  0.603545  0.000000  1
  In  In3  1  0.249463  0.249463  0.500000  1
  Hg  Hg4  1  0.743441  0.999585  0.500000  1
  Hg  Hg5  1  0.999585  0.743441  0.500000  1
  Pt  Pt6  1  0.331532  0.647726  0.500000  1
  Pt  Pt7  1  0.647726  0.331532  0.500000  1
  Pt  Pt8  1  0.025890  0.025890  0.000000  1
