# generated using pymatgen
data_Tm4MnV2ReB16
_symmetry_space_group_name_H-M   'P 1'
_cell_length_a   3.47097900
_cell_length_b   5.92210354
_cell_length_c   11.43952500
_cell_angle_alpha   89.92276918
_cell_angle_beta   90.00000000
_cell_angle_gamma   90.00000000
_symmetry_Int_Tables_number   1
_chemical_formula_structural   Tm4MnV2ReB16
_chemical_formula_sum   'Tm4 Mn1 V2 Re1 B16'
_cell_volume   235.14490832
_cell_formula_units_Z   1
loop_
 _symmetry_equiv_pos_site_id
 _symmetry_equiv_pos_as_xyz
  1  'x, y, z'
loop_
 _atom_site_type_symbol
 _atom_site_label
 _atom_site_symmetry_multiplicity
 _atom_site_fract_x
 _atom_site_fract_y
 _atom_site_fract_z
 _atom_site_occupancy
  Tm  Tm0  1  0.500000  0.376042  0.148353  1
  Tm  Tm1  1  0.500000  0.625878  0.850822  1
  Tm  Tm2  1  0.500000  0.125647  0.651863  1
  Tm  Tm3  1  0.500000  0.873595  0.347705  1
  Mn  Mn4  1  0.500000  0.875323  0.081853  1
  V  V5  1  0.500000  0.628906  0.582527  1
  V  V6  1  0.500000  0.125432  0.920899  1
  Re  Re7  1  0.500000  0.371863  0.414488  1
  B  B8  1  0.000000  0.110384  0.049283  1
  B  B9  1  0.000000  0.883309  0.955126  1
  B  B10  1  0.000000  0.384791  0.547438  1
  B  B11  1  0.000000  0.615223  0.451786  1
  B  B12  1  0.000000  0.133359  0.467601  1
  B  B13  1  0.000000  0.866044  0.532326  1
  B  B14  1  0.000000  0.365368  0.969368  1
  B  B15  1  0.000000  0.637475  0.033161  1
  B  B16  1  0.000000  0.021151  0.191229  1
  B  B17  1  0.000000  0.975237  0.808470  1
  B  B18  1  0.000000  0.475423  0.693782  1
  B  B19  1  0.000000  0.527069  0.305031  1
  B  B20  1  0.000000  0.213175  0.312210  1
  B  B21  1  0.000000  0.785291  0.686667  1
  B  B22  1  0.000000  0.284552  0.815614  1
  B  B23  1  0.000000  0.719462  0.182395  1
