# generated using pymatgen
data_Dy11Sc(Si3Ir)4
_symmetry_space_group_name_H-M   'P 1'
_cell_length_a   4.21188700
_cell_length_b   10.64699503
_cell_length_c   12.24803760
_cell_angle_alpha   89.79501775
_cell_angle_beta   90.00000000
_cell_angle_gamma   90.00000000
_symmetry_Int_Tables_number   1
_chemical_formula_structural   Dy11Sc(Si3Ir)4
_chemical_formula_sum   'Dy11 Sc1 Si12 Ir4'
_cell_volume   549.24674773
_cell_formula_units_Z   1
loop_
 _symmetry_equiv_pos_site_id
 _symmetry_equiv_pos_as_xyz
  1  'x, y, z'
loop_
 _atom_site_type_symbol
 _atom_site_label
 _atom_site_symmetry_multiplicity
 _atom_site_fract_x
 _atom_site_fract_y
 _atom_site_fract_z
 _atom_site_occupancy
  Dy  Dy0  1  0.250000  0.881045  0.018724  1
  Dy  Dy1  1  0.250000  0.619155  0.519739  1
  Dy  Dy2  1  0.750000  0.119912  0.977460  1
  Dy  Dy3  1  0.750000  0.377519  0.482039  1
  Dy  Dy4  1  0.250000  0.920969  0.604184  1
  Dy  Dy5  1  0.250000  0.581326  0.103489  1
  Dy  Dy6  1  0.750000  0.081137  0.398196  1
  Dy  Dy7  1  0.750000  0.417506  0.895073  1
  Dy  Dy8  1  0.250000  0.658633  0.800843  1
  Dy  Dy9  1  0.250000  0.842308  0.301239  1
  Dy  Dy10  1  0.750000  0.340435  0.198781  1
  Sc  Sc11  1  0.750000  0.160755  0.701978  1
  Si  Si12  1  0.250000  0.013391  0.819258  1
  Si  Si13  1  0.250000  0.488972  0.321547  1
  Si  Si14  1  0.750000  0.990981  0.178679  1
  Si  Si15  1  0.750000  0.510836  0.678330  1
  Si  Si16  1  0.250000  0.244355  0.836059  1
  Si  Si17  1  0.250000  0.252517  0.342563  1
  Si  Si18  1  0.750000  0.754161  0.159157  1
  Si  Si19  1  0.750000  0.746412  0.658780  1
  Si  Si20  1  0.250000  0.198597  0.552057  1
  Si  Si21  1  0.250000  0.297719  0.041640  1
  Si  Si22  1  0.750000  0.798075  0.457181  1
  Si  Si23  1  0.750000  0.702057  0.955851  1
  Ir  Ir24  1  0.250000  0.388105  0.680384  1
  Ir  Ir25  1  0.250000  0.110552  0.180736  1
  Ir  Ir26  1  0.750000  0.610450  0.319461  1
  Ir  Ir27  1  0.750000  0.892121  0.816573  1
