# generated using pymatgen
data_Tb2Y2Co5
_symmetry_space_group_name_H-M   'P 1'
_cell_length_a   5.53685457
_cell_length_b   5.53685313
_cell_length_c   8.70990581
_cell_angle_alpha   72.54858490
_cell_angle_beta   72.54859005
_cell_angle_gamma   42.53602916
_symmetry_Int_Tables_number   1
_chemical_formula_structural   Tb2Y2Co5
_chemical_formula_sum   'Tb2 Y2 Co5'
_cell_volume   170.91503950
_cell_formula_units_Z   1
loop_
 _symmetry_equiv_pos_site_id
 _symmetry_equiv_pos_as_xyz
  1  'x, y, z'
loop_
 _atom_site_type_symbol
 _atom_site_label
 _atom_site_symmetry_multiplicity
 _atom_site_fract_x
 _atom_site_fract_y
 _atom_site_fract_z
 _atom_site_occupancy
  Tb  Tb0  1  0.737829  0.737829  0.661456  1
  Tb  Tb1  1  0.262171  0.262171  0.338544  1
  Y  Y2  1  0.390343  0.390343  0.880548  1
  Y  Y3  1  0.609657  0.609657  0.119452  1
  Co  Co4  1  0.500000  0.500000  0.500000  1
  Co  Co5  1  0.033575  0.033575  0.632668  1
  Co  Co6  1  0.966425  0.966425  0.367332  1
  Co  Co7  1  0.085985  0.085985  0.875826  1
  Co  Co8  1  0.914015  0.914015  0.124174  1
