# generated using pymatgen
data_Pr2AlGaPd4
_symmetry_space_group_name_H-M   'P 1'
_cell_length_a   5.88994100
_cell_length_b   7.08392000
_cell_length_c   7.64651900
_cell_angle_alpha   90.00000000
_cell_angle_beta   90.00000000
_cell_angle_gamma   90.00000000
_symmetry_Int_Tables_number   1
_chemical_formula_structural   Pr2AlGaPd4
_chemical_formula_sum   'Pr4 Al2 Ga2 Pd8'
_cell_volume   319.04237120
_cell_formula_units_Z   2
loop_
 _symmetry_equiv_pos_site_id
 _symmetry_equiv_pos_as_xyz
  1  'x, y, z'
loop_
 _atom_site_type_symbol
 _atom_site_label
 _atom_site_symmetry_multiplicity
 _atom_site_fract_x
 _atom_site_fract_y
 _atom_site_fract_z
 _atom_site_occupancy
  Pr  Pr0  1  0.349051  0.750000  0.031837  1
  Pr  Pr1  1  0.150949  0.750000  0.531837  1
  Pr  Pr2  1  0.653548  0.250000  0.965902  1
  Pr  Pr3  1  0.846452  0.250000  0.465902  1
  Al  Al4  1  0.345733  0.250000  0.618287  1
  Al  Al5  1  0.154267  0.250000  0.118287  1
  Ga  Ga6  1  0.652124  0.750000  0.380834  1
  Ga  Ga7  1  0.847876  0.750000  0.880834  1
  Pd  Pd8  1  0.915654  0.551182  0.177849  1
  Pd  Pd9  1  0.584346  0.948818  0.677849  1
  Pd  Pd10  1  0.091989  0.054399  0.823721  1
  Pd  Pd11  1  0.408011  0.445601  0.323721  1
  Pd  Pd12  1  0.091989  0.445601  0.823721  1
  Pd  Pd13  1  0.408011  0.054399  0.323721  1
  Pd  Pd14  1  0.915654  0.948818  0.177849  1
  Pd  Pd15  1  0.584346  0.551182  0.677849  1
