# generated using pymatgen
data_YbEr3S4
_symmetry_space_group_name_H-M   'P 1'
_cell_length_a   12.82379110
_cell_length_b   12.82379111
_cell_length_c   12.82379090
_cell_angle_alpha   17.48090724
_cell_angle_beta   17.48090444
_cell_angle_gamma   17.48090574
_symmetry_Int_Tables_number   1
_chemical_formula_structural   YbEr3S4
_chemical_formula_sum   'Yb1 Er3 S4'
_cell_volume   166.07348153
_cell_formula_units_Z   1
loop_
 _symmetry_equiv_pos_site_id
 _symmetry_equiv_pos_as_xyz
  1  'x, y, z'
loop_
 _atom_site_type_symbol
 _atom_site_label
 _atom_site_symmetry_multiplicity
 _atom_site_fract_x
 _atom_site_fract_y
 _atom_site_fract_z
 _atom_site_occupancy
  Yb  Yb0  1  0.000000  0.000000  0.000000  1
  Er  Er1  1  0.248949  0.248949  0.248949  1
  Er  Er2  1  0.500000  0.500000  0.500000  1
  Er  Er3  1  0.751051  0.751051  0.751051  1
  S  S4  1  0.376166  0.376166  0.376166  1
  S  S5  1  0.125178  0.125178  0.125178  1
  S  S6  1  0.623834  0.623834  0.623834  1
  S  S7  1  0.874822  0.874822  0.874822  1
