# generated using pymatgen
data_SrCuClO2
_symmetry_space_group_name_H-M   'P 1'
_cell_length_a   6.87007212
_cell_length_b   6.87007240
_cell_length_c   5.35111600
_cell_angle_alpha   90.00000000
_cell_angle_beta   90.00000000
_cell_angle_gamma   132.83602550
_symmetry_Int_Tables_number   1
_chemical_formula_structural   SrCuClO2
_chemical_formula_sum   'Sr2 Cu2 Cl2 O4'
_cell_volume   185.20390853
_cell_formula_units_Z   2
loop_
 _symmetry_equiv_pos_site_id
 _symmetry_equiv_pos_as_xyz
  1  'x, y, z'
loop_
 _atom_site_type_symbol
 _atom_site_label
 _atom_site_symmetry_multiplicity
 _atom_site_fract_x
 _atom_site_fract_y
 _atom_site_fract_z
 _atom_site_occupancy
  Sr  Sr0  1  0.370284  0.629715  0.249999  1
  Sr  Sr1  1  0.629715  0.370284  0.749999  1
  Cu  Cu2  1  0.008954  0.991045  0.249999  1
  Cu  Cu3  1  0.991045  0.008954  0.749999  1
  Cl  Cl4  1  0.750729  0.249270  0.249999  1
  Cl  Cl5  1  0.249270  0.750729  0.749999  1
  O  O6  1  0.228069  0.228069  0.000000  1
  O  O7  1  0.771930  0.771930  0.000000  1
  O  O8  1  0.228069  0.228069  0.500000  1
  O  O9  1  0.771930  0.771930  0.500000  1
