# generated using pymatgen
data_Er5Tm(Sc2Si3)2
_symmetry_space_group_name_H-M   'P 1'
_cell_length_a   8.22099700
_cell_length_b   8.21974726
_cell_length_c   5.98985200
_cell_angle_alpha   90.00000000
_cell_angle_beta   90.00000000
_cell_angle_gamma   120.00501754
_symmetry_Int_Tables_number   1
_chemical_formula_structural   Er5Tm(Sc2Si3)2
_chemical_formula_sum   'Er5 Tm1 Sc4 Si6'
_cell_volume   350.51589517
_cell_formula_units_Z   1
loop_
 _symmetry_equiv_pos_site_id
 _symmetry_equiv_pos_as_xyz
  1  'x, y, z'
loop_
 _atom_site_type_symbol
 _atom_site_label
 _atom_site_symmetry_multiplicity
 _atom_site_fract_x
 _atom_site_fract_y
 _atom_site_fract_z
 _atom_site_occupancy
  Er  Er0  1  0.000064  0.755477  0.750000  1
  Er  Er1  1  0.000017  0.244561  0.250000  1
  Er  Er2  1  0.755455  0.755439  0.250000  1
  Er  Er3  1  0.755365  0.000000  0.750000  1
  Er  Er4  1  0.244587  0.244523  0.750000  1
  Tm  Tm5  1  0.244625  0.000000  0.250000  1
  Sc  Sc6  1  0.333327  0.666693  0.499984  1
  Sc  Sc7  1  0.666635  0.333307  0.000016  1
  Sc  Sc8  1  0.666635  0.333307  0.499984  1
  Sc  Sc9  1  0.333327  0.666693  0.000016  1
  Si  Si10  1  0.398277  0.000000  0.750000  1
  Si  Si11  1  0.398246  0.398171  0.250000  1
  Si  Si12  1  0.000074  0.601829  0.250000  1
  Si  Si13  1  0.000011  0.398285  0.750000  1
  Si  Si14  1  0.601726  0.601715  0.750000  1
  Si  Si15  1  0.601629  0.000000  0.250000  1
