# generated using pymatgen
data_Tb3Ni2PtRh6
_symmetry_space_group_name_H-M   'P 1'
_cell_length_a   5.29067384
_cell_length_b   5.29067295
_cell_length_c   8.99394658
_cell_angle_alpha   72.89497822
_cell_angle_beta   72.89497929
_cell_angle_gamma   60.00000784
_symmetry_Int_Tables_number   1
_chemical_formula_structural   Tb3Ni2PtRh6
_chemical_formula_sum   'Tb3 Ni2 Pt1 Rh6'
_cell_volume   205.06416108
_cell_formula_units_Z   1
loop_
 _symmetry_equiv_pos_site_id
 _symmetry_equiv_pos_as_xyz
  1  'x, y, z'
loop_
 _atom_site_type_symbol
 _atom_site_label
 _atom_site_symmetry_multiplicity
 _atom_site_fract_x
 _atom_site_fract_y
 _atom_site_fract_z
 _atom_site_occupancy
  Tb  Tb0  1  0.138769  0.138769  0.583693  1
  Tb  Tb1  1  0.861231  0.861231  0.416307  1
  Tb  Tb2  1  0.000000  0.000000  0.000000  1
  Ni  Ni3  1  0.333315  0.333315  0.000053  1
  Ni  Ni4  1  0.666685  0.666685  0.999947  1
  Pt  Pt5  1  0.500000  0.500000  0.500000  1
  Rh  Rh6  1  0.076501  0.580941  0.761616  1
  Rh  Rh7  1  0.580941  0.580941  0.761616  1
  Rh  Rh8  1  0.580941  0.076501  0.761616  1
  Rh  Rh9  1  0.923499  0.419059  0.238384  1
  Rh  Rh10  1  0.419059  0.419059  0.238384  1
  Rh  Rh11  1  0.419059  0.923499  0.238384  1
