# generated using pymatgen
data_Ce2Nb3Si4
_symmetry_space_group_name_H-M   'P 1'
_cell_length_a   7.12478700
_cell_length_b   7.12478700
_cell_length_c   13.25068100
_cell_angle_alpha   90.00000000
_cell_angle_beta   90.00000000
_cell_angle_gamma   90.00000000
_symmetry_Int_Tables_number   1
_chemical_formula_structural   Ce2Nb3Si4
_chemical_formula_sum   'Ce8 Nb12 Si16'
_cell_volume   672.63888411
_cell_formula_units_Z   4
loop_
 _symmetry_equiv_pos_site_id
 _symmetry_equiv_pos_as_xyz
  1  'x, y, z'
loop_
 _atom_site_type_symbol
 _atom_site_label
 _atom_site_symmetry_multiplicity
 _atom_site_fract_x
 _atom_site_fract_y
 _atom_site_fract_z
 _atom_site_occupancy
  Ce  Ce0  1  0.996005  0.334537  0.217288  1
  Ce  Ce1  1  0.003995  0.665463  0.717288  1
  Ce  Ce2  1  0.165463  0.496005  0.467288  1
  Ce  Ce3  1  0.503995  0.834537  0.032712  1
  Ce  Ce4  1  0.834537  0.503995  0.967288  1
  Ce  Ce5  1  0.496005  0.165463  0.532712  1
  Ce  Ce6  1  0.334537  0.996005  0.782712  1
  Ce  Ce7  1  0.665463  0.003995  0.282712  1
  Nb  Nb8  1  0.168783  0.168783  0.000000  1
  Nb  Nb9  1  0.831217  0.831217  0.500000  1
  Nb  Nb10  1  0.331217  0.668783  0.250000  1
  Nb  Nb11  1  0.668783  0.331217  0.750000  1
  Nb  Nb12  1  0.157190  0.994375  0.374100  1
  Nb  Nb13  1  0.842810  0.005625  0.874100  1
  Nb  Nb14  1  0.505625  0.657190  0.624100  1
  Nb  Nb15  1  0.342810  0.494375  0.875900  1
  Nb  Nb16  1  0.494375  0.342810  0.124100  1
  Nb  Nb17  1  0.657190  0.505625  0.375900  1
  Nb  Nb18  1  0.994375  0.157190  0.625900  1
  Nb  Nb19  1  0.005625  0.842810  0.125900  1
  Si  Si20  1  0.293247  0.040929  0.185772  1
  Si  Si21  1  0.706753  0.959071  0.685772  1
  Si  Si22  1  0.459071  0.793247  0.435772  1
  Si  Si23  1  0.206753  0.540929  0.064228  1
  Si  Si24  1  0.540929  0.206753  0.935772  1
  Si  Si25  1  0.793247  0.459071  0.564228  1
  Si  Si26  1  0.040929  0.293247  0.814228  1
  Si  Si27  1  0.959071  0.706753  0.314228  1
  Si  Si28  1  0.372005  0.295764  0.313899  1
  Si  Si29  1  0.627995  0.704236  0.813899  1
  Si  Si30  1  0.204236  0.872005  0.563899  1
  Si  Si31  1  0.127995  0.795764  0.936101  1
  Si  Si32  1  0.795764  0.127995  0.063899  1
  Si  Si33  1  0.872005  0.204236  0.436101  1
  Si  Si34  1  0.295764  0.372005  0.686101  1
  Si  Si35  1  0.704236  0.627995  0.186101  1
