# generated using pymatgen
data_Tb7Y2Ho(In2Pd)4
_symmetry_space_group_name_H-M   'P 1'
_cell_length_a   3.63337200
_cell_length_b   8.18515003
_cell_length_c   18.34504408
_cell_angle_alpha   89.98949600
_cell_angle_beta   90.00000000
_cell_angle_gamma   90.00000000
_symmetry_Int_Tables_number   1
_chemical_formula_structural   Tb7Y2Ho(In2Pd)4
_chemical_formula_sum   'Tb7 Y2 Ho1 In8 Pd4'
_cell_volume   545.57600554
_cell_formula_units_Z   1
loop_
 _symmetry_equiv_pos_site_id
 _symmetry_equiv_pos_as_xyz
  1  'x, y, z'
loop_
 _atom_site_type_symbol
 _atom_site_label
 _atom_site_symmetry_multiplicity
 _atom_site_fract_x
 _atom_site_fract_y
 _atom_site_fract_z
 _atom_site_occupancy
  Tb  Tb0  1  0.000000  0.739367  0.280920  1
  Tb  Tb1  1  0.000000  0.260786  0.719220  1
  Tb  Tb2  1  0.000000  0.760805  0.780813  1
  Tb  Tb3  1  0.000000  0.238990  0.219308  1
  Tb  Tb4  1  0.000000  0.617276  0.083107  1
  Tb  Tb5  1  0.000000  0.382701  0.916936  1
  Tb  Tb6  1  0.000000  0.882747  0.582992  1
  Y  Y7  1  0.000000  0.499887  0.499979  1
  Y  Y8  1  0.000000  0.999962  0.000021  1
  Ho  Ho9  1  0.000000  0.116875  0.416220  1
  In  In10  1  0.500000  0.708711  0.932172  1
  In  In11  1  0.500000  0.291253  0.067832  1
  In  In12  1  0.500000  0.792485  0.432159  1
  In  In13  1  0.500000  0.208465  0.567435  1
  In  In14  1  0.500000  0.580425  0.650154  1
  In  In15  1  0.500000  0.418731  0.350025  1
  In  In16  1  0.500000  0.919644  0.150231  1
  In  In17  1  0.500000  0.080356  0.849837  1
  Pd  Pd18  1  0.500000  0.522570  0.196068  1
  Pd  Pd19  1  0.500000  0.477351  0.803925  1
  Pd  Pd20  1  0.500000  0.977417  0.696033  1
  Pd  Pd21  1  0.500000  0.023195  0.304614  1
