# generated using pymatgen
data_U3Ga2Co3Ge
_symmetry_space_group_name_H-M   'P 1'
_cell_length_a   3.94992900
_cell_length_b   6.64511387
_cell_length_c   6.60748804
_cell_angle_alpha   120.18854957
_cell_angle_beta   90.00000000
_cell_angle_gamma   90.00000000
_symmetry_Int_Tables_number   1
_chemical_formula_structural   U3Ga2Co3Ge
_chemical_formula_sum   'U3 Ga2 Co3 Ge1'
_cell_volume   149.90994902
_cell_formula_units_Z   1
loop_
 _symmetry_equiv_pos_site_id
 _symmetry_equiv_pos_as_xyz
  1  'x, y, z'
loop_
 _atom_site_type_symbol
 _atom_site_label
 _atom_site_symmetry_multiplicity
 _atom_site_fract_x
 _atom_site_fract_y
 _atom_site_fract_z
 _atom_site_occupancy
  U  U0  1  0.500000  0.575849  0.000000  1
  U  U1  1  0.500000  0.421853  0.422851  1
  U  U2  1  0.500000  0.999002  0.577149  1
  Ga  Ga3  1  0.000000  0.758395  0.760776  1
  Ga  Ga4  1  0.000000  0.997620  0.239224  1
  Co  Co5  1  0.000000  0.332462  0.669393  1
  Co  Co6  1  0.000000  0.663069  0.330607  1
  Co  Co7  1  0.500000  0.011109  0.000000  1
  Ge  Ge8  1  0.000000  0.240542  0.000000  1
