# generated using pymatgen
data_Nd16Cd4Os3Au
_symmetry_space_group_name_H-M   'P 1'
_cell_length_a   9.94473054
_cell_length_b   10.03522704
_cell_length_c   10.03522700
_cell_angle_alpha   60.00000342
_cell_angle_beta   59.69852039
_cell_angle_gamma   59.69852460
_symmetry_Int_Tables_number   1
_chemical_formula_structural   Nd16Cd4Os3Au
_chemical_formula_sum   'Nd16 Cd4 Os3 Au1'
_cell_volume   704.91755569
_cell_formula_units_Z   1
loop_
 _symmetry_equiv_pos_site_id
 _symmetry_equiv_pos_as_xyz
  1  'x, y, z'
loop_
 _atom_site_type_symbol
 _atom_site_label
 _atom_site_symmetry_multiplicity
 _atom_site_fract_x
 _atom_site_fract_y
 _atom_site_fract_z
 _atom_site_occupancy
  Nd  Nd0  1  0.340997  0.353828  0.353828  1
  Nd  Nd1  1  0.340997  0.353828  0.951346  1
  Nd  Nd2  1  0.340997  0.951346  0.353828  1
  Nd  Nd3  1  0.968075  0.343975  0.343975  1
  Nd  Nd4  1  0.819105  0.191434  0.191434  1
  Nd  Nd5  1  0.189735  0.810556  0.810556  1
  Nd  Nd6  1  0.189735  0.810556  0.189154  1
  Nd  Nd7  1  0.819105  0.191434  0.798026  1
  Nd  Nd8  1  0.189735  0.189154  0.810556  1
  Nd  Nd9  1  0.819105  0.798026  0.191434  1
  Nd  Nd10  1  0.935439  0.562574  0.562574  1
  Nd  Nd11  1  0.553610  0.939755  0.939755  1
  Nd  Nd12  1  0.553610  0.939755  0.566881  1
  Nd  Nd13  1  0.935439  0.562574  0.939413  1
  Nd  Nd14  1  0.553610  0.566881  0.939755  1
  Nd  Nd15  1  0.935439  0.939413  0.562574  1
  Cd  Cd16  1  0.580588  0.579206  0.579206  1
  Cd  Cd17  1  0.580588  0.579206  0.261003  1
  Cd  Cd18  1  0.580588  0.261003  0.579206  1
  Cd  Cd19  1  0.260429  0.579858  0.579858  1
  Os  Os20  1  0.145978  0.137845  0.137845  1
  Os  Os21  1  0.145978  0.137845  0.578332  1
  Os  Os22  1  0.145978  0.578332  0.137845  1
  Au  Au23  1  0.575143  0.141619  0.141619  1
