# generated using pymatgen
data_Li2Th2PdRh3
_symmetry_space_group_name_H-M   'P 1'
_cell_length_a   4.24838600
_cell_length_b   4.43003200
_cell_length_c   7.70931300
_cell_angle_alpha   90.00000000
_cell_angle_beta   90.00000000
_cell_angle_gamma   90.00000000
_symmetry_Int_Tables_number   1
_chemical_formula_structural   Li2Th2PdRh3
_chemical_formula_sum   'Li2 Th2 Pd1 Rh3'
_cell_volume   145.09301683
_cell_formula_units_Z   1
loop_
 _symmetry_equiv_pos_site_id
 _symmetry_equiv_pos_as_xyz
  1  'x, y, z'
loop_
 _atom_site_type_symbol
 _atom_site_label
 _atom_site_symmetry_multiplicity
 _atom_site_fract_x
 _atom_site_fract_y
 _atom_site_fract_z
 _atom_site_occupancy
  Li  Li0  1  0.500000  0.500000  0.249284  1
  Li  Li1  1  0.500000  0.500000  0.750716  1
  Th  Th2  1  0.000000  0.000000  0.243628  1
  Th  Th3  1  0.000000  0.000000  0.756372  1
  Pd  Pd4  1  0.000000  0.500000  0.500000  1
  Rh  Rh5  1  0.000000  0.500000  0.000000  1
  Rh  Rh6  1  0.500000  0.000000  0.500000  1
  Rh  Rh7  1  0.500000  0.000000  0.000000  1
