# generated using pymatgen
data_La7Nd2YIn6
_symmetry_space_group_name_H-M   'P 1'
_cell_length_a   6.24760401
_cell_length_b   9.55080787
_cell_length_c   9.58161500
_cell_angle_alpha   83.94034093
_cell_angle_beta   71.11201714
_cell_angle_gamma   71.16072007
_symmetry_Int_Tables_number   1
_chemical_formula_structural   La7Nd2YIn6
_chemical_formula_sum   'La7 Nd2 Y1 In6'
_cell_volume   511.96604458
_cell_formula_units_Z   1
loop_
 _symmetry_equiv_pos_site_id
 _symmetry_equiv_pos_as_xyz
  1  'x, y, z'
loop_
 _atom_site_type_symbol
 _atom_site_label
 _atom_site_symmetry_multiplicity
 _atom_site_fract_x
 _atom_site_fract_y
 _atom_site_fract_z
 _atom_site_occupancy
  La  La0  1  0.725105  0.862803  0.691140  1
  La  La1  1  0.279608  0.136200  0.309792  1
  La  La2  1  0.774107  0.309706  0.137623  1
  La  La3  1  0.220309  0.690198  0.863526  1
  La  La4  1  0.585279  0.690328  0.138037  1
  La  La5  1  0.410482  0.309232  0.862903  1
  La  La6  1  0.089430  0.137361  0.691057  1
  Nd  Nd7  1  0.915388  0.864784  0.306145  1
  Nd  Nd8  1  0.749538  0.501338  0.498715  1
  Y  Y9  1  0.250455  0.499885  0.499921  1
  In  In10  1  0.160639  0.501351  0.183472  1
  In  In11  1  0.844678  0.500045  0.816850  1
  In  In12  1  0.338743  0.817086  0.498706  1
  In  In13  1  0.657229  0.181300  0.498502  1
  In  In14  1  0.248572  0.999465  0.001669  1
  In  In15  1  0.750437  0.998918  0.001942  1
