# generated using pymatgen
data_Sc4Nb2Al7
_symmetry_space_group_name_H-M   'P 1'
_cell_length_a   5.33372314
_cell_length_b   5.33372657
_cell_length_c   10.10962278
_cell_angle_alpha   74.70469285
_cell_angle_beta   74.70468058
_cell_angle_gamma   60.00000860
_symmetry_Int_Tables_number   1
_chemical_formula_structural   Sc4Nb2Al7
_chemical_formula_sum   'Sc4 Nb2 Al7'
_cell_volume   237.23698316
_cell_formula_units_Z   1
loop_
 _symmetry_equiv_pos_site_id
 _symmetry_equiv_pos_as_xyz
  1  'x, y, z'
loop_
 _atom_site_type_symbol
 _atom_site_label
 _atom_site_symmetry_multiplicity
 _atom_site_fract_x
 _atom_site_fract_y
 _atom_site_fract_z
 _atom_site_occupancy
  Sc  Sc0  1  0.834320  0.834320  0.497039  1
  Sc  Sc1  1  0.165680  0.165680  0.502961  1
  Sc  Sc2  1  0.647781  0.647781  0.056656  1
  Sc  Sc3  1  0.352219  0.352219  0.943344  1
  Nb  Nb4  1  0.543830  0.543830  0.368508  1
  Nb  Nb5  1  0.456170  0.456170  0.631492  1
  Al  Al6  1  0.000000  0.000000  0.000000  1
  Al  Al7  1  0.908471  0.908471  0.767739  1
  Al  Al8  1  0.415317  0.908471  0.767739  1
  Al  Al9  1  0.908471  0.415317  0.767739  1
  Al  Al10  1  0.091529  0.091529  0.232261  1
  Al  Al11  1  0.584683  0.091529  0.232261  1
  Al  Al12  1  0.091529  0.584683  0.232261  1
