# generated using pymatgen
data_SmFeCo4P3
_symmetry_space_group_name_H-M   'P 1'
_cell_length_a   3.68260700
_cell_length_b   10.32309300
_cell_length_c   11.82288700
_cell_angle_alpha   90.00000000
_cell_angle_beta   90.00000000
_cell_angle_gamma   90.00000000
_symmetry_Int_Tables_number   1
_chemical_formula_structural   SmFeCo4P3
_chemical_formula_sum   'Sm4 Fe4 Co16 P12'
_cell_volume   449.45762539
_cell_formula_units_Z   4
loop_
 _symmetry_equiv_pos_site_id
 _symmetry_equiv_pos_as_xyz
  1  'x, y, z'
loop_
 _atom_site_type_symbol
 _atom_site_label
 _atom_site_symmetry_multiplicity
 _atom_site_fract_x
 _atom_site_fract_y
 _atom_site_fract_z
 _atom_site_occupancy
  Sm  Sm0  1  0.250000  0.581555  0.702464  1
  Sm  Sm1  1  0.250000  0.918445  0.202464  1
  Sm  Sm2  1  0.750000  0.418445  0.297536  1
  Sm  Sm3  1  0.750000  0.081555  0.797536  1
  Fe  Fe4  1  0.250000  0.708536  0.987112  1
  Fe  Fe5  1  0.250000  0.791464  0.487112  1
  Fe  Fe6  1  0.750000  0.291464  0.012888  1
  Fe  Fe7  1  0.750000  0.208536  0.512888  1
  Co  Co8  1  0.250000  0.405095  0.488470  1
  Co  Co9  1  0.250000  0.094905  0.988470  1
  Co  Co10  1  0.750000  0.594905  0.511530  1
  Co  Co11  1  0.750000  0.905095  0.011530  1
  Co  Co12  1  0.250000  0.221382  0.175930  1
  Co  Co13  1  0.250000  0.278618  0.675930  1
  Co  Co14  1  0.750000  0.778618  0.824070  1
  Co  Co15  1  0.750000  0.721382  0.324070  1
  Co  Co16  1  0.250000  0.881956  0.697485  1
  Co  Co17  1  0.250000  0.618044  0.197485  1
  Co  Co18  1  0.750000  0.118044  0.302515  1
  Co  Co19  1  0.750000  0.381956  0.802515  1
  Co  Co20  1  0.250000  0.467243  0.933357  1
  Co  Co21  1  0.250000  0.032757  0.433357  1
  Co  Co22  1  0.750000  0.532757  0.066643  1
  Co  Co23  1  0.750000  0.967243  0.566643  1
  P  P24  1  0.250000  0.418818  0.111754  1
  P  P25  1  0.250000  0.081182  0.611754  1
  P  P26  1  0.750000  0.581182  0.888246  1
  P  P27  1  0.750000  0.918818  0.388246  1
  P  P28  1  0.250000  0.272378  0.868229  1
  P  P29  1  0.250000  0.227622  0.368229  1
  P  P30  1  0.750000  0.727622  0.131771  1
  P  P31  1  0.750000  0.772378  0.631771  1
  P  P32  1  0.250000  0.604243  0.393562  1
  P  P33  1  0.250000  0.895757  0.893562  1
  P  P34  1  0.750000  0.395757  0.606438  1
  P  P35  1  0.750000  0.104243  0.106438  1
