# generated using pymatgen
data_CeIn2NiIr8
_symmetry_space_group_name_H-M   'P 1'
_cell_length_a   8.76446800
_cell_length_b   8.76446800
_cell_length_c   5.24160700
_cell_angle_alpha   90.00000000
_cell_angle_beta   90.00000000
_cell_angle_gamma   90.00000000
_symmetry_Int_Tables_number   1
_chemical_formula_structural   CeIn2NiIr8
_chemical_formula_sum   'Ce2 In4 Ni2 Ir16'
_cell_volume   402.63875560
_cell_formula_units_Z   2
loop_
 _symmetry_equiv_pos_site_id
 _symmetry_equiv_pos_as_xyz
  1  'x, y, z'
loop_
 _atom_site_type_symbol
 _atom_site_label
 _atom_site_symmetry_multiplicity
 _atom_site_fract_x
 _atom_site_fract_y
 _atom_site_fract_z
 _atom_site_occupancy
  Ce  Ce0  1  0.000000  0.000000  0.000000  1
  Ce  Ce1  1  0.500000  0.500000  0.000000  1
  In  In2  1  0.122476  0.622477  0.000000  1
  In  In3  1  0.877523  0.377522  0.000000  1
  In  In4  1  0.622477  0.877523  0.000000  1
  In  In5  1  0.377522  0.122476  0.000000  1
  Ni  Ni6  1  0.000000  0.500000  0.500000  1
  Ni  Ni7  1  0.500000  0.000000  0.500000  1
  Ir  Ir8  1  0.204677  0.064152  0.500000  1
  Ir  Ir9  1  0.795323  0.935849  0.500000  1
  Ir  Ir10  1  0.704677  0.435849  0.500000  1
  Ir  Ir11  1  0.295324  0.564150  0.500000  1
  Ir  Ir12  1  0.435849  0.295324  0.500000  1
  Ir  Ir13  1  0.564150  0.704677  0.500000  1
  Ir  Ir14  1  0.064152  0.795323  0.500000  1
  Ir  Ir15  1  0.935849  0.204677  0.500000  1
  Ir  Ir16  1  0.325316  0.825316  0.240915  1
  Ir  Ir17  1  0.674684  0.174685  0.240915  1
  Ir  Ir18  1  0.825316  0.674684  0.759085  1
  Ir  Ir19  1  0.174685  0.325316  0.759085  1
  Ir  Ir20  1  0.674684  0.174685  0.759085  1
  Ir  Ir21  1  0.325316  0.825316  0.759085  1
  Ir  Ir22  1  0.825316  0.674684  0.240915  1
  Ir  Ir23  1  0.174685  0.325316  0.240915  1
