# generated using pymatgen
data_Tb2Be25Ni
_symmetry_space_group_name_H-M   'P 1'
_cell_length_a   7.22780034
_cell_length_b   7.24704193
_cell_length_c   7.26644133
_cell_angle_alpha   59.73613906
_cell_angle_beta   59.99857705
_cell_angle_gamma   59.87836900
_symmetry_Int_Tables_number   1
_chemical_formula_structural   Tb2Be25Ni
_chemical_formula_sum   'Tb2 Be25 Ni1'
_cell_volume   268.34672373
_cell_formula_units_Z   1
loop_
 _symmetry_equiv_pos_site_id
 _symmetry_equiv_pos_as_xyz
  1  'x, y, z'
loop_
 _atom_site_type_symbol
 _atom_site_label
 _atom_site_symmetry_multiplicity
 _atom_site_fract_x
 _atom_site_fract_y
 _atom_site_fract_z
 _atom_site_occupancy
  Tb  Tb0  1  0.250493  0.249429  0.251846  1
  Tb  Tb1  1  0.750571  0.749507  0.751768  1
  Be  Be2  1  0.499027  0.500973  0.500509  1
  Be  Be3  1  0.000339  0.999661  0.001616  1
  Be  Be4  1  0.064300  0.288160  0.711596  1
  Be  Be5  1  0.711840  0.935700  0.064055  1
  Be  Be6  1  0.064998  0.935002  0.288865  1
  Be  Be7  1  0.933741  0.066259  0.713778  1
  Be  Be8  1  0.935315  0.289885  0.063940  1
  Be  Be9  1  0.710115  0.064685  0.289140  1
  Be  Be10  1  0.563747  0.791275  0.435762  1
  Be  Be11  1  0.438607  0.791796  0.205919  1
  Be  Be12  1  0.792463  0.438398  0.563657  1
  Be  Be13  1  0.438611  0.208180  0.562417  1
  Be  Be14  1  0.791820  0.561389  0.209207  1
  Be  Be15  1  0.561602  0.207537  0.794517  1
  Be  Be16  1  0.208725  0.436253  0.790785  1
  Be  Be17  1  0.208204  0.561393  0.436323  1
  Be  Be18  1  0.709160  0.290840  0.935745  1
  Be  Be19  1  0.288976  0.064239  0.933114  1
  Be  Be20  1  0.289140  0.937169  0.710706  1
  Be  Be21  1  0.062831  0.710860  0.937015  1
  Be  Be22  1  0.935761  0.711024  0.286329  1
  Be  Be23  1  0.291543  0.708457  0.063959  1
  Be  Be24  1  0.564809  0.435191  0.207611  1
  Be  Be25  1  0.795374  0.204626  0.439602  1
  Be  Be26  1  0.434615  0.565385  0.789844  1
  Ni  Ni27  1  0.203274  0.796726  0.560378  1
