# generated using pymatgen
data_YHoGa2(Cu2Si)2
_symmetry_space_group_name_H-M   'P 1'
_cell_length_a   4.01532800
_cell_length_b   4.01532800
_cell_length_c   10.13128400
_cell_angle_alpha   90.00000000
_cell_angle_beta   90.00000000
_cell_angle_gamma   90.00000000
_symmetry_Int_Tables_number   1
_chemical_formula_structural   YHoGa2(Cu2Si)2
_chemical_formula_sum   'Y1 Ho1 Ga2 Cu4 Si2'
_cell_volume   163.34526289
_cell_formula_units_Z   1
loop_
 _symmetry_equiv_pos_site_id
 _symmetry_equiv_pos_as_xyz
  1  'x, y, z'
loop_
 _atom_site_type_symbol
 _atom_site_label
 _atom_site_symmetry_multiplicity
 _atom_site_fract_x
 _atom_site_fract_y
 _atom_site_fract_z
 _atom_site_occupancy
  Y  Y0  1  0.000000  0.500000  0.761381  1
  Ho  Ho1  1  0.500000  0.000000  0.238482  1
  Ga  Ga2  1  0.500000  0.500000  0.499855  1
  Ga  Ga3  1  0.000000  0.000000  0.499855  1
  Cu  Cu4  1  0.500000  0.000000  0.644465  1
  Cu  Cu5  1  0.000000  0.000000  0.000231  1
  Cu  Cu6  1  0.500000  0.500000  0.000231  1
  Cu  Cu7  1  0.000000  0.500000  0.355248  1
  Si  Si8  1  0.000000  0.500000  0.129499  1
  Si  Si9  1  0.500000  0.000000  0.870755  1
