# generated using pymatgen
data_PaTi2(GaPd)2
_symmetry_space_group_name_H-M   'P 1'
_cell_length_a   5.52777373
_cell_length_b   5.52777291
_cell_length_c   5.52777474
_cell_angle_alpha   100.94752693
_cell_angle_beta   102.60112863
_cell_angle_gamma   126.29391707
_symmetry_Int_Tables_number   1
_chemical_formula_structural   PaTi2(GaPd)2
_chemical_formula_sum   'Pa1 Ti2 Ga2 Pd2'
_cell_volume   121.43931460
_cell_formula_units_Z   1
loop_
 _symmetry_equiv_pos_site_id
 _symmetry_equiv_pos_as_xyz
  1  'x, y, z'
loop_
 _atom_site_type_symbol
 _atom_site_label
 _atom_site_symmetry_multiplicity
 _atom_site_fract_x
 _atom_site_fract_y
 _atom_site_fract_z
 _atom_site_occupancy
  Pa  Pa0  1  0.003746  0.000000  0.003746  1
  Ti  Ti1  1  0.250292  0.751775  0.498519  1
  Ti  Ti2  1  0.746744  0.248225  0.498519  1
  Ga  Ga3  1  0.307003  0.301409  0.608409  1
  Ga  Ga4  1  0.307003  0.698591  0.005594  1
  Pd  Pd5  1  0.692607  0.299766  0.992373  1
  Pd  Pd6  1  0.692607  0.700234  0.392841  1
