# generated using pymatgen
data_Tb2DyPa(CdNi2)2
_symmetry_space_group_name_H-M   'P 1'
_cell_length_a   7.50132152
_cell_length_b   7.50935166
_cell_length_c   3.53887500
_cell_angle_alpha   90.00000000
_cell_angle_beta   90.00000000
_cell_angle_gamma   92.28109047
_symmetry_Int_Tables_number   1
_chemical_formula_structural   Tb2DyPa(CdNi2)2
_chemical_formula_sum   'Tb2 Dy1 Pa1 Cd2 Ni4'
_cell_volume   199.18708159
_cell_formula_units_Z   1
loop_
 _symmetry_equiv_pos_site_id
 _symmetry_equiv_pos_as_xyz
  1  'x, y, z'
loop_
 _atom_site_type_symbol
 _atom_site_label
 _atom_site_symmetry_multiplicity
 _atom_site_fract_x
 _atom_site_fract_y
 _atom_site_fract_z
 _atom_site_occupancy
  Tb  Tb0  1  0.325898  0.826003  0.500000  1
  Tb  Tb1  1  0.830171  0.671829  0.500000  1
  Dy  Dy2  1  0.171874  0.330051  0.500000  1
  Pa  Pa3  1  0.670568  0.170841  0.500000  1
  Cd  Cd4  1  0.005423  0.998796  0.000000  1
  Cd  Cd5  1  0.498048  0.504977  0.000000  1
  Ni  Ni6  1  0.111427  0.610576  0.000000  1
  Ni  Ni7  1  0.859927  0.359381  0.000000  1
  Ni  Ni8  1  0.629991  0.897303  0.000000  1
  Ni  Ni9  1  0.396674  0.130243  0.000000  1
