# generated using pymatgen
data_Dy3Tm(GaAu)4
_symmetry_space_group_name_H-M   'P 1'
_cell_length_a   7.11219916
_cell_length_b   4.52112800
_cell_length_c   7.76159517
_cell_angle_alpha   90.00000000
_cell_angle_beta   89.97592104
_cell_angle_gamma   90.00000000
_symmetry_Int_Tables_number   1
_chemical_formula_structural   Dy3Tm(GaAu)4
_chemical_formula_sum   'Dy3 Tm1 Ga4 Au4'
_cell_volume   249.57533390
_cell_formula_units_Z   1
loop_
 _symmetry_equiv_pos_site_id
 _symmetry_equiv_pos_as_xyz
  1  'x, y, z'
loop_
 _atom_site_type_symbol
 _atom_site_label
 _atom_site_symmetry_multiplicity
 _atom_site_fract_x
 _atom_site_fract_y
 _atom_site_fract_z
 _atom_site_occupancy
  Dy  Dy0  1  0.002614  0.750000  0.214263  1
  Dy  Dy1  1  0.502513  0.750000  0.285018  1
  Dy  Dy2  1  0.497476  0.249999  0.715090  1
  Tm  Tm3  1  0.997372  0.249999  0.784834  1
  Ga  Ga4  1  0.302617  0.249999  0.084988  1
  Ga  Ga5  1  0.803072  0.249999  0.415293  1
  Ga  Ga6  1  0.196421  0.750000  0.585916  1
  Ga  Ga7  1  0.697556  0.750000  0.914552  1
  Au  Au8  1  0.715648  0.249999  0.082642  1
  Au  Au9  1  0.213503  0.249999  0.416903  1
  Au  Au10  1  0.787399  0.750000  0.584895  1
  Au  Au11  1  0.283811  0.750000  0.915605  1
