# generated using pymatgen
data_Pr4Ho6Si7Ge
_symmetry_space_group_name_H-M   'P 1'
_cell_length_a   7.54773200
_cell_length_b   7.81903425
_cell_length_c   14.85084448
_cell_angle_alpha   90.02901144
_cell_angle_beta   90.00000000
_cell_angle_gamma   90.00000000
_symmetry_Int_Tables_number   1
_chemical_formula_structural   Pr4Ho6Si7Ge
_chemical_formula_sum   'Pr8 Ho12 Si14 Ge2'
_cell_volume   876.43695430
_cell_formula_units_Z   2
loop_
 _symmetry_equiv_pos_site_id
 _symmetry_equiv_pos_as_xyz
  1  'x, y, z'
loop_
 _atom_site_type_symbol
 _atom_site_label
 _atom_site_symmetry_multiplicity
 _atom_site_fract_x
 _atom_site_fract_y
 _atom_site_fract_z
 _atom_site_occupancy
  Pr  Pr0  1  0.976381  0.821720  0.098538  1
  Pr  Pr1  1  0.476381  0.678280  0.401462  1
  Pr  Pr2  1  0.522712  0.320132  0.901673  1
  Pr  Pr3  1  0.022712  0.179868  0.598327  1
  Pr  Pr4  1  0.024935  0.178038  0.901760  1
  Pr  Pr5  1  0.524935  0.321962  0.598240  1
  Pr  Pr6  1  0.475427  0.679420  0.098362  1
  Pr  Pr7  1  0.975427  0.820580  0.401638  1
  Ho  Ho8  1  0.649756  0.989717  0.250062  1
  Ho  Ho9  1  0.149756  0.510283  0.249938  1
  Ho  Ho10  1  0.850285  0.489617  0.749239  1
  Ho  Ho11  1  0.350285  0.010383  0.750761  1
  Ho  Ho12  1  0.680060  0.823364  0.876314  1
  Ho  Ho13  1  0.180060  0.676636  0.623686  1
  Ho  Ho14  1  0.819551  0.321245  0.123599  1
  Ho  Ho15  1  0.319551  0.178755  0.376401  1
  Ho  Ho16  1  0.319319  0.177838  0.123364  1
  Ho  Ho17  1  0.819319  0.322162  0.376636  1
  Ho  Ho18  1  0.181960  0.678244  0.876719  1
  Ho  Ho19  1  0.681960  0.821756  0.623281  1
  Si  Si20  1  0.768978  0.620408  0.249945  1
  Si  Si21  1  0.268978  0.879592  0.250055  1
  Si  Si22  1  0.730896  0.120652  0.749926  1
  Si  Si23  1  0.230896  0.379348  0.750074  1
  Si  Si24  1  0.024355  0.112883  0.250083  1
  Si  Si25  1  0.524355  0.387117  0.249917  1
  Si  Si26  1  0.476062  0.613121  0.749986  1
  Si  Si27  1  0.976062  0.886879  0.750014  1
  Si  Si28  1  0.643950  0.031095  0.040084  1
  Si  Si29  1  0.143950  0.468905  0.459916  1
  Si  Si30  1  0.147503  0.468223  0.040995  1
  Si  Si31  1  0.647503  0.031777  0.459005  1
  Si  Si32  1  0.356247  0.968823  0.959901  1
  Si  Si33  1  0.856247  0.531177  0.540099  1
  Ge  Ge34  1  0.851622  0.532378  0.959293  1
  Ge  Ge35  1  0.351622  0.967622  0.540707  1
