# generated using pymatgen
data_Gd(MoC)4
_symmetry_space_group_name_H-M   'P 1'
_cell_length_a   6.20092863
_cell_length_b   6.20092747
_cell_length_c   6.20092737
_cell_angle_alpha   93.91794005
_cell_angle_beta   93.91794559
_cell_angle_gamma   149.69420308
_symmetry_Int_Tables_number   1
_chemical_formula_structural   Gd(MoC)4
_chemical_formula_sum   'Gd1 Mo4 C4'
_cell_volume   116.13463416
_cell_formula_units_Z   1
loop_
 _symmetry_equiv_pos_site_id
 _symmetry_equiv_pos_as_xyz
  1  'x, y, z'
loop_
 _atom_site_type_symbol
 _atom_site_label
 _atom_site_symmetry_multiplicity
 _atom_site_fract_x
 _atom_site_fract_y
 _atom_site_fract_z
 _atom_site_occupancy
  Gd  Gd0  1  0.000000  0.000000  0.000000  1
  Mo  Mo1  1  0.819772  0.371265  0.191039  1
  Mo  Mo2  1  0.628734  0.819772  0.448506  1
  Mo  Mo3  1  0.371266  0.180227  0.551494  1
  Mo  Mo4  1  0.180227  0.628734  0.808961  1
  C  C5  1  0.400444  0.730160  0.130604  1
  C  C6  1  0.730160  0.599556  0.329717  1
  C  C7  1  0.269840  0.400444  0.670284  1
  C  C8  1  0.599556  0.269840  0.869396  1
