# generated using pymatgen
data_Tb5Tm15(InGa2)4
_symmetry_space_group_name_H-M   'P 1'
_cell_length_a   7.65658342
_cell_length_b   7.65748989
_cell_length_c   14.14906900
_cell_angle_alpha   90.08559028
_cell_angle_beta   90.07974854
_cell_angle_gamma   90.03385805
_symmetry_Int_Tables_number   1
_chemical_formula_structural   Tb5Tm15(InGa2)4
_chemical_formula_sum   'Tb5 Tm15 In4 Ga8'
_cell_volume   829.56101327
_cell_formula_units_Z   1
loop_
 _symmetry_equiv_pos_site_id
 _symmetry_equiv_pos_as_xyz
  1  'x, y, z'
loop_
 _atom_site_type_symbol
 _atom_site_label
 _atom_site_symmetry_multiplicity
 _atom_site_fract_x
 _atom_site_fract_y
 _atom_site_fract_z
 _atom_site_occupancy
  Tb  Tb0  1  0.837630  0.832237  0.105654  1
  Tb  Tb1  1  0.337869  0.667604  0.394844  1
  Tb  Tb2  1  0.662217  0.667826  0.894203  1
  Tb  Tb3  1  0.837964  0.167666  0.605361  1
  Tb  Tb4  1  0.162425  0.168310  0.105502  1
  Tm  Tm5  1  0.000535  0.500143  0.753694  1
  Tm  Tm6  1  0.999591  0.499714  0.254447  1
  Tm  Tm7  1  0.500116  0.000222  0.246507  1
  Tm  Tm8  1  0.499422  0.000113  0.745827  1
  Tm  Tm9  1  0.667538  0.661869  0.606132  1
  Tm  Tm10  1  0.667165  0.337240  0.106232  1
  Tm  Tm11  1  0.832782  0.837686  0.394134  1
  Tm  Tm12  1  0.168038  0.837518  0.893472  1
  Tm  Tm13  1  0.332503  0.337247  0.606115  1
  Tm  Tm14  1  0.332621  0.661601  0.106326  1
  Tm  Tm15  1  0.167931  0.162366  0.394196  1
  Tm  Tm16  1  0.832360  0.162567  0.893323  1
  Tm  Tm17  1  0.661534  0.332671  0.393819  1
  Tm  Tm18  1  0.338199  0.332330  0.893350  1
  Tm  Tm19  1  0.161576  0.832816  0.606389  1
  In  In20  1  0.999916  0.500003  0.498131  1
  In  In21  1  0.000967  0.499179  0.997700  1
  In  In22  1  0.500129  0.999939  0.501955  1
  In  In23  1  0.499265  0.000774  0.001531  1
  Ga  Ga24  1  0.874208  0.873617  0.750403  1
  Ga  Ga25  1  0.872733  0.127031  0.251424  1
  Ga  Ga26  1  0.627014  0.625868  0.249509  1
  Ga  Ga27  1  0.372436  0.626389  0.749008  1
  Ga  Ga28  1  0.127532  0.126500  0.750603  1
  Ga  Ga29  1  0.126209  0.874005  0.251276  1
  Ga  Ga30  1  0.373957  0.373278  0.249644  1
  Ga  Ga31  1  0.625617  0.373675  0.749288  1
