# generated using pymatgen
data_SmDy(CoB)8
_symmetry_space_group_name_H-M   'P 1'
_cell_length_a   6.98642800
_cell_length_b   6.98642800
_cell_length_c   3.80604100
_cell_angle_alpha   90.00000000
_cell_angle_beta   90.00000000
_cell_angle_gamma   90.00000000
_symmetry_Int_Tables_number   1
_chemical_formula_structural   SmDy(CoB)8
_chemical_formula_sum   'Sm1 Dy1 Co8 B8'
_cell_volume   185.77353183
_cell_formula_units_Z   1
loop_
 _symmetry_equiv_pos_site_id
 _symmetry_equiv_pos_as_xyz
  1  'x, y, z'
loop_
 _atom_site_type_symbol
 _atom_site_label
 _atom_site_symmetry_multiplicity
 _atom_site_fract_x
 _atom_site_fract_y
 _atom_site_fract_z
 _atom_site_occupancy
  Sm  Sm0  1  0.500000  0.500000  0.500000  1
  Dy  Dy1  1  0.000000  0.000000  0.000000  1
  Co  Co2  1  0.381831  0.140393  0.891368  1
  Co  Co3  1  0.618169  0.859607  0.891368  1
  Co  Co4  1  0.356766  0.883636  0.391730  1
  Co  Co5  1  0.643234  0.116364  0.391730  1
  Co  Co6  1  0.116364  0.356766  0.608270  1
  Co  Co7  1  0.883636  0.643234  0.608270  1
  Co  Co8  1  0.140393  0.618169  0.108632  1
  Co  Co9  1  0.859607  0.381831  0.108632  1
  B  B10  1  0.800342  0.663216  0.104176  1
  B  B11  1  0.199658  0.336784  0.104176  1
  B  B12  1  0.838645  0.295755  0.605787  1
  B  B13  1  0.161355  0.704245  0.605787  1
  B  B14  1  0.704245  0.838645  0.394213  1
  B  B15  1  0.295755  0.161355  0.394213  1
  B  B16  1  0.663216  0.199658  0.895824  1
  B  B17  1  0.336784  0.800342  0.895824  1
