# generated using pymatgen
data_ErF37
_symmetry_space_group_name_H-M   'P 1'
_cell_length_a   6.50033948
_cell_length_b   8.52106611
_cell_length_c   13.84329647
_cell_angle_alpha   106.30412119
_cell_angle_beta   84.32609155
_cell_angle_gamma   111.47904472
_symmetry_Int_Tables_number   1
_chemical_formula_structural   ErF37
_chemical_formula_sum   'Er1 F37'
_cell_volume   684.82520141
_cell_formula_units_Z   1
loop_
 _symmetry_equiv_pos_site_id
 _symmetry_equiv_pos_as_xyz
  1  'x, y, z'
loop_
 _atom_site_type_symbol
 _atom_site_label
 _atom_site_symmetry_multiplicity
 _atom_site_fract_x
 _atom_site_fract_y
 _atom_site_fract_z
 _atom_site_occupancy
  Er  Er0  1  0.108171  0.900196  0.225350  1
  F  F1  1  0.970391  0.122927  0.773227  1
  F  F2  1  0.676644  0.596748  0.383063  1
  F  F3  1  0.299167  0.373924  0.620420  1
  F  F4  1  0.030026  0.334193  0.360257  1
  F  F5  1  0.950248  0.677413  0.621780  1
  F  F6  1  0.102060  0.892546  0.917924  1
  F  F7  1  0.798496  0.089912  0.027474  1
  F  F8  1  0.833531  0.868077  0.329073  1
  F  F9  1  0.094196  0.055815  0.642571  1
  F  F10  1  0.159415  0.665032  0.196229  1
  F  F11  1  0.869779  0.303290  0.764171  1
  F  F12  1  0.559094  0.424265  0.393647  1
  F  F13  1  0.449761  0.544205  0.619064  1
  F  F14  1  0.053635  0.082851  0.156567  1
  F  F15  1  0.980515  0.859580  0.829367  1
  F  F16  1  0.132580  0.048304  0.381222  1
  F  F17  1  0.841879  0.899297  0.568667  1
  F  F18  1  0.073782  0.458730  0.302472  1
  F  F19  1  0.948043  0.542488  0.664189  1
  F  F20  1  0.765201  0.723370  0.103965  1
  F  F21  1  0.267867  0.303211  0.945028  1
  F  F22  1  0.824568  0.599934  0.023755  1
  F  F23  1  0.190715  0.432728  0.009669  1
  F  F24  1  0.517466  0.598373  0.848433  1
  F  F25  1  0.462550  0.417169  0.166773  1
  F  F26  1  0.618014  0.071312  0.282937  1
  F  F27  1  0.466426  0.975969  0.723294  1
  F  F28  1  0.259538  0.857038  0.464583  1
  F  F29  1  0.708206  0.106532  0.552253  1
  F  F30  1  0.261872  0.962473  0.086751  1
  F  F31  1  0.676582  0.099414  0.950245  1
  F  F32  1  0.448665  0.885906  0.247882  1
  F  F33  1  0.559613  0.205211  0.799120  1
  F  F34  1  0.625538  0.338347  0.158330  1
  F  F35  1  0.392356  0.709435  0.861393  1
  F  F36  1  0.353043  0.745222  0.488930  1
  F  F37  1  0.670368  0.228562  0.509927  1
