# generated using pymatgen
data_DyLu9(Bi3C)2
_symmetry_space_group_name_H-M   'P 1'
_cell_length_a   9.02598600
_cell_length_b   9.02598585
_cell_length_c   6.36367500
_cell_angle_alpha   90.00000000
_cell_angle_beta   90.00000000
_cell_angle_gamma   120.00000054
_symmetry_Int_Tables_number   1
_chemical_formula_structural   DyLu9(Bi3C)2
_chemical_formula_sum   'Dy1 Lu9 Bi6 C2'
_cell_volume   448.98096082
_cell_formula_units_Z   1
loop_
 _symmetry_equiv_pos_site_id
 _symmetry_equiv_pos_as_xyz
  1  'x, y, z'
loop_
 _atom_site_type_symbol
 _atom_site_label
 _atom_site_symmetry_multiplicity
 _atom_site_fract_x
 _atom_site_fract_y
 _atom_site_fract_z
 _atom_site_occupancy
  Dy  Dy0  1  0.666667  0.333333  0.500000  1
  Lu  Lu1  1  0.333333  0.666667  0.500000  1
  Lu  Lu2  1  0.333333  0.666667  0.000000  1
  Lu  Lu3  1  0.666667  0.333333  0.000000  1
  Lu  Lu4  1  0.795985  0.795866  0.249898  1
  Lu  Lu5  1  0.204134  0.000118  0.249898  1
  Lu  Lu6  1  0.999882  0.204015  0.249898  1
  Lu  Lu7  1  0.204134  0.204015  0.750102  1
  Lu  Lu8  1  0.795985  0.000118  0.750102  1
  Lu  Lu9  1  0.999882  0.795866  0.750102  1
  Bi  Bi10  1  0.399008  0.400310  0.248724  1
  Bi  Bi11  1  0.599690  0.998698  0.248724  1
  Bi  Bi12  1  0.001302  0.600992  0.248724  1
  Bi  Bi13  1  0.599690  0.600992  0.751276  1
  Bi  Bi14  1  0.399008  0.998698  0.751276  1
  Bi  Bi15  1  0.001302  0.400310  0.751276  1
  C  C16  1  0.000000  0.000000  0.500000  1
  C  C17  1  0.000000  0.000000  0.000000  1
