# generated using pymatgen
data_SrLaBi4(RuO7)2
_symmetry_space_group_name_H-M   'P 1'
_cell_length_a   6.62804181
_cell_length_b   6.62804125
_cell_length_c   7.63669196
_cell_angle_alpha   89.95243307
_cell_angle_beta   89.95243133
_cell_angle_gamma   108.38635683
_symmetry_Int_Tables_number   1
_chemical_formula_structural   SrLaBi4(RuO7)2
_chemical_formula_sum   'Sr1 La1 Bi4 Ru2 O14'
_cell_volume   318.36046666
_cell_formula_units_Z   1
loop_
 _symmetry_equiv_pos_site_id
 _symmetry_equiv_pos_as_xyz
  1  'x, y, z'
loop_
 _atom_site_type_symbol
 _atom_site_label
 _atom_site_symmetry_multiplicity
 _atom_site_fract_x
 _atom_site_fract_y
 _atom_site_fract_z
 _atom_site_occupancy
  Sr  Sr0  1  0.000000  0.000000  0.500000  1
  La  La1  1  0.000000  0.000000  0.000000  1
  Bi  Bi2  1  0.494462  0.958719  0.748814  1
  Bi  Bi3  1  0.505538  0.041281  0.251186  1
  Bi  Bi4  1  0.958719  0.494462  0.748814  1
  Bi  Bi5  1  0.041281  0.505538  0.251186  1
  Ru  Ru6  1  0.500000  0.500000  0.500000  1
  Ru  Ru7  1  0.500000  0.500000  0.000000  1
  O  O8  1  0.564805  0.564805  0.749695  1
  O  O9  1  0.435195  0.435195  0.250305  1
  O  O10  1  0.846069  0.129880  0.758754  1
  O  O11  1  0.153931  0.870120  0.241246  1
  O  O12  1  0.129880  0.846069  0.758754  1
  O  O13  1  0.870120  0.153931  0.241246  1
  O  O14  1  0.441926  0.187701  0.970264  1
  O  O15  1  0.551092  0.809944  0.469347  1
  O  O16  1  0.187701  0.441926  0.970264  1
  O  O17  1  0.809944  0.551092  0.469347  1
  O  O18  1  0.448908  0.190056  0.530653  1
  O  O19  1  0.558074  0.812299  0.029736  1
  O  O20  1  0.812299  0.558074  0.029736  1
  O  O21  1  0.190056  0.448908  0.530653  1
