# generated using pymatgen
data_NaCr2(Sb6Os)2
_symmetry_space_group_name_H-M   'P 1'
_cell_length_a   8.26313407
_cell_length_b   8.26313303
_cell_length_c   8.19446982
_cell_angle_alpha   109.42284751
_cell_angle_beta   109.11164974
_cell_angle_gamma   110.21456855
_symmetry_Int_Tables_number   1
_chemical_formula_structural   NaCr2(Sb6Os)2
_chemical_formula_sum   'Na1 Cr2 Sb12 Os2'
_cell_volume   428.88969965
_cell_formula_units_Z   1
loop_
 _symmetry_equiv_pos_site_id
 _symmetry_equiv_pos_as_xyz
  1  'x, y, z'
loop_
 _atom_site_type_symbol
 _atom_site_label
 _atom_site_symmetry_multiplicity
 _atom_site_fract_x
 _atom_site_fract_y
 _atom_site_fract_z
 _atom_site_occupancy
  Na  Na0  1  0.000000  0.000000  0.000000  1
  Cr  Cr1  1  0.500000  0.500000  0.500000  1
  Cr  Cr2  1  0.000000  0.000000  0.500000  1
  Sb  Sb3  1  0.847997  0.653275  0.501273  1
  Sb  Sb4  1  0.152003  0.346725  0.498727  1
  Sb  Sb5  1  0.155502  0.662529  0.818032  1
  Sb  Sb6  1  0.844498  0.337471  0.181968  1
  Sb  Sb7  1  0.663422  0.502633  0.850382  1
  Sb  Sb8  1  0.336578  0.497367  0.149618  1
  Sb  Sb9  1  0.652251  0.813041  0.149618  1
  Sb  Sb10  1  0.347749  0.186959  0.850382  1
  Sb  Sb11  1  0.502055  0.849017  0.660900  1
  Sb  Sb12  1  0.497945  0.150983  0.339100  1
  Sb  Sb13  1  0.188117  0.841155  0.339100  1
  Sb  Sb14  1  0.811883  0.158845  0.660900  1
  Os  Os15  1  0.500000  0.000000  0.000000  1
  Os  Os16  1  0.000000  0.500000  0.000000  1
