# generated using pymatgen
data_Hf2Mn2Co10As7
_symmetry_space_group_name_H-M   'P 1'
_cell_length_a   3.66784400
_cell_length_b   9.29881550
_cell_length_c   9.33426597
_cell_angle_alpha   119.75713806
_cell_angle_beta   90.00000000
_cell_angle_gamma   90.00000000
_symmetry_Int_Tables_number   1
_chemical_formula_structural   Hf2Mn2Co10As7
_chemical_formula_sum   'Hf2 Mn2 Co10 As7'
_cell_volume   276.38019479
_cell_formula_units_Z   1
loop_
 _symmetry_equiv_pos_site_id
 _symmetry_equiv_pos_as_xyz
  1  'x, y, z'
loop_
 _atom_site_type_symbol
 _atom_site_label
 _atom_site_symmetry_multiplicity
 _atom_site_fract_x
 _atom_site_fract_y
 _atom_site_fract_z
 _atom_site_occupancy
  Hf  Hf0  1  0.000000  0.669868  0.334977  1
  Hf  Hf1  1  0.500000  0.332905  0.667320  1
  Mn  Mn2  1  0.500000  0.779450  0.897655  1
  Mn  Mn3  1  0.500000  0.121272  0.220756  1
  Co  Co4  1  0.000000  0.562181  0.934841  1
  Co  Co5  1  0.000000  0.371269  0.436310  1
  Co  Co6  1  0.000000  0.062752  0.629267  1
  Co  Co7  1  0.500000  0.092118  0.873425  1
  Co  Co8  1  0.000000  0.881523  0.160269  1
  Co  Co9  1  0.000000  0.283489  0.123352  1
  Co  Co10  1  0.000000  0.840249  0.719265  1
  Co  Co11  1  0.500000  0.946503  0.386222  1
  Co  Co12  1  0.500000  0.437703  0.051563  1
  Co  Co13  1  0.500000  0.615068  0.562157  1
  As  As14  1  0.000000  0.003123  0.997820  1
  As  As15  1  0.500000  0.709307  0.121486  1
  As  As16  1  0.500000  0.416922  0.291742  1
  As  As17  1  0.500000  0.879614  0.590028  1
  As  As18  1  0.000000  0.582969  0.702393  1
  As  As19  1  0.000000  0.118672  0.417052  1
  As  As20  1  0.000000  0.293040  0.882102  1
