# generated using pymatgen
data_NaHf3As4
_symmetry_space_group_name_H-M   'P 1'
_cell_length_a   3.86507500
_cell_length_b   3.86507426
_cell_length_c   13.55883400
_cell_angle_alpha   90.00000000
_cell_angle_beta   90.00000000
_cell_angle_gamma   120.00001485
_symmetry_Int_Tables_number   1
_chemical_formula_structural   NaHf3As4
_chemical_formula_sum   'Na1 Hf3 As4'
_cell_volume   175.41578814
_cell_formula_units_Z   1
loop_
 _symmetry_equiv_pos_site_id
 _symmetry_equiv_pos_as_xyz
  1  'x, y, z'
loop_
 _atom_site_type_symbol
 _atom_site_label
 _atom_site_symmetry_multiplicity
 _atom_site_fract_x
 _atom_site_fract_y
 _atom_site_fract_z
 _atom_site_occupancy
  Na  Na0  1  0.333333  0.666667  0.376608  1
  Hf  Hf1  1  0.666667  0.333333  0.878265  1
  Hf  Hf2  1  0.666667  0.333333  0.631419  1
  Hf  Hf3  1  0.333333  0.666667  0.111883  1
  As  As4  1  0.666667  0.333333  0.222580  1
  As  As5  1  0.333333  0.666667  0.758905  1
  As  As6  1  0.000000  0.000000  0.527500  1
  As  As7  1  0.000000  0.000000  0.992842  1
