# generated using pymatgen
data_Li3Ca3ErSi8Ag
_symmetry_space_group_name_H-M   'P 1'
_cell_length_a   3.80398500
_cell_length_b   7.85826766
_cell_length_c   10.47152997
_cell_angle_alpha   90.07542252
_cell_angle_beta   90.00000000
_cell_angle_gamma   90.00000000
_symmetry_Int_Tables_number   1
_chemical_formula_structural   Li3Ca3ErSi8Ag
_chemical_formula_sum   'Li3 Ca3 Er1 Si8 Ag1'
_cell_volume   313.02237118
_cell_formula_units_Z   1
loop_
 _symmetry_equiv_pos_site_id
 _symmetry_equiv_pos_as_xyz
  1  'x, y, z'
loop_
 _atom_site_type_symbol
 _atom_site_label
 _atom_site_symmetry_multiplicity
 _atom_site_fract_x
 _atom_site_fract_y
 _atom_site_fract_z
 _atom_site_occupancy
  Li  Li0  1  0.250000  0.998428  0.389073  1
  Li  Li1  1  0.250000  0.497446  0.108110  1
  Li  Li2  1  0.750000  0.509683  0.890309  1
  Ca  Ca3  1  0.750000  0.868831  0.135306  1
  Ca  Ca4  1  0.250000  0.633090  0.637494  1
  Ca  Ca5  1  0.750000  0.361299  0.365624  1
  Er  Er6  1  0.250000  0.128369  0.866431  1
  Si  Si7  1  0.750000  0.269600  0.060988  1
  Si  Si8  1  0.250000  0.738711  0.931348  1
  Si  Si9  1  0.750000  0.766480  0.431473  1
  Si  Si10  1  0.250000  0.232566  0.571014  1
  Si  Si11  1  0.750000  0.846459  0.826161  1
  Si  Si12  1  0.250000  0.162662  0.169033  1
  Si  Si13  1  0.750000  0.330554  0.685815  1
  Si  Si14  1  0.250000  0.665090  0.324774  1
  Ag  Ag15  1  0.750000  0.990735  0.607048  1
