# generated using pymatgen
data_TbHo9(Co2Rh)2
_symmetry_space_group_name_H-M   'P 1'
_cell_length_a   7.08407757
_cell_length_b   7.08407737
_cell_length_c   8.70998692
_cell_angle_alpha   113.98978973
_cell_angle_beta   113.97653247
_cell_angle_gamma   90.02185448
_symmetry_Int_Tables_number   1
_chemical_formula_structural   TbHo9(Co2Rh)2
_chemical_formula_sum   'Tb1 Ho9 Co4 Rh2'
_cell_volume   357.63522962
_cell_formula_units_Z   1
loop_
 _symmetry_equiv_pos_site_id
 _symmetry_equiv_pos_as_xyz
  1  'x, y, z'
loop_
 _atom_site_type_symbol
 _atom_site_label
 _atom_site_symmetry_multiplicity
 _atom_site_fract_x
 _atom_site_fract_y
 _atom_site_fract_z
 _atom_site_occupancy
  Tb  Tb0  1  0.464351  0.318927  0.283276  1
  Ho  Ho1  1  0.999528  0.999603  0.999674  1
  Ho  Ho2  1  0.500042  0.500181  0.999669  1
  Ho  Ho3  1  0.963879  0.464167  0.282693  1
  Ho  Ho4  1  0.318523  0.818816  0.282671  1
  Ho  Ho5  1  0.819033  0.963483  0.282533  1
  Ho  Ho6  1  0.181221  0.035894  0.717123  1
  Ho  Ho7  1  0.681258  0.181050  0.717496  1
  Ho  Ho8  1  0.036456  0.536251  0.717515  1
  Ho  Ho9  1  0.536050  0.681746  0.717800  1
  Co  Co10  1  0.612745  0.112061  0.999440  1
  Co  Co11  1  0.112063  0.387869  0.999943  1
  Co  Co12  1  0.887356  0.612495  0.999866  1
  Co  Co13  1  0.387365  0.886682  0.999407  1
  Rh  Rh14  1  0.249447  0.249772  0.500437  1
  Rh  Rh15  1  0.750682  0.751001  0.500454  1
