# generated using pymatgen
data_Ba2Ni(SeO3)3
_symmetry_space_group_name_H-M   'P 1'
_cell_length_a   7.58097998
_cell_length_b   7.97243147
_cell_length_c   9.21233624
_cell_angle_alpha   102.45761085
_cell_angle_beta   105.25541856
_cell_angle_gamma   94.32460699
_symmetry_Int_Tables_number   1
_chemical_formula_structural   Ba2Ni(SeO3)3
_chemical_formula_sum   'Ba4 Ni2 Se6 O18'
_cell_volume   519.32844513
_cell_formula_units_Z   2
loop_
 _symmetry_equiv_pos_site_id
 _symmetry_equiv_pos_as_xyz
  1  'x, y, z'
loop_
 _atom_site_type_symbol
 _atom_site_label
 _atom_site_symmetry_multiplicity
 _atom_site_fract_x
 _atom_site_fract_y
 _atom_site_fract_z
 _atom_site_occupancy
  Ba  Ba0  1  0.627109  0.481177  0.805371  1
  Ba  Ba1  1  0.372888  0.518814  0.194646  1
  Ba  Ba2  1  0.758619  0.921589  0.615107  1
  Ba  Ba3  1  0.241409  0.078391  0.384932  1
  Ni  Ni4  1  0.093424  0.345339  0.750289  1
  Ni  Ni5  1  0.906546  0.654729  0.249672  1
  Se  Se6  1  0.226071  0.637911  0.586547  1
  Se  Se7  1  0.903274  0.218702  0.039701  1
  Se  Se8  1  0.344438  0.088279  0.793373  1
  Se  Se9  1  0.655541  0.911756  0.206677  1
  Se  Se10  1  0.096745  0.781277  0.960280  1
  Se  Se11  1  0.773910  0.362087  0.413409  1
  O  O12  1  0.165515  0.636513  0.390537  1
  O  O13  1  0.834470  0.363528  0.609442  1
  O  O14  1  0.226377  0.419418  0.592588  1
  O  O15  1  0.773601  0.580556  0.407347  1
  O  O16  1  0.459002  0.705724  0.639135  1
  O  O17  1  0.540986  0.294276  0.360850  1
  O  O18  1  0.075224  0.778307  0.142110  1
  O  O19  1  0.924868  0.221657  0.857896  1
  O  O20  1  0.167444  0.580855  0.908850  1
  O  O21  1  0.832509  0.419097  0.091133  1
  O  O22  1  0.876331  0.761680  0.842706  1
  O  O23  1  0.123664  0.238328  0.157326  1
  O  O24  1  0.505961  0.881879  0.314080  1
  O  O25  1  0.494096  0.118107  0.686018  1
  O  O26  1  0.867970  0.926240  0.343794  1
  O  O27  1  0.350481  0.299461  0.895733  1
  O  O28  1  0.649483  0.700575  0.104254  1
  O  O29  1  0.132042  0.073746  0.656196  1
