# generated using pymatgen
data_YbMgZn3Ir
_symmetry_space_group_name_H-M   'P 1'
_cell_length_a   5.25644849
_cell_length_b   5.25644831
_cell_length_c   5.25644895
_cell_angle_alpha   60.27692069
_cell_angle_beta   60.27692024
_cell_angle_gamma   60.27692944
_symmetry_Int_Tables_number   1
_chemical_formula_structural   YbMgZn3Ir
_chemical_formula_sum   'Yb1 Mg1 Zn3 Ir1'
_cell_volume   103.34172519
_cell_formula_units_Z   1
loop_
 _symmetry_equiv_pos_site_id
 _symmetry_equiv_pos_as_xyz
  1  'x, y, z'
loop_
 _atom_site_type_symbol
 _atom_site_label
 _atom_site_symmetry_multiplicity
 _atom_site_fract_x
 _atom_site_fract_y
 _atom_site_fract_z
 _atom_site_occupancy
  Yb  Yb0  1  0.252694  0.252694  0.252694  1
  Mg  Mg1  1  0.993618  0.993618  0.993618  1
  Zn  Zn2  1  0.627232  0.627232  0.123444  1
  Zn  Zn3  1  0.627232  0.123444  0.627232  1
  Zn  Zn4  1  0.123444  0.627232  0.627232  1
  Ir  Ir5  1  0.625779  0.625779  0.625779  1
