# generated using pymatgen
data_Hf3Zr(PN3)4
_symmetry_space_group_name_H-M   'P 1'
_cell_length_a   6.76906098
_cell_length_b   6.76905988
_cell_length_c   5.51277986
_cell_angle_alpha   74.76205350
_cell_angle_beta   74.76206656
_cell_angle_gamma   82.07271339
_symmetry_Int_Tables_number   1
_chemical_formula_structural   Hf3Zr(PN3)4
_chemical_formula_sum   'Hf3 Zr1 P4 N12'
_cell_volume   234.50376645
_cell_formula_units_Z   1
loop_
 _symmetry_equiv_pos_site_id
 _symmetry_equiv_pos_as_xyz
  1  'x, y, z'
loop_
 _atom_site_type_symbol
 _atom_site_label
 _atom_site_symmetry_multiplicity
 _atom_site_fract_x
 _atom_site_fract_y
 _atom_site_fract_z
 _atom_site_occupancy
  Hf  Hf0  1  0.894902  0.105098  0.250000  1
  Hf  Hf1  1  0.293023  0.706977  0.250000  1
  Hf  Hf2  1  0.105601  0.894399  0.750000  1
  Zr  Zr3  1  0.705163  0.294837  0.750000  1
  P  P4  1  0.202939  0.376409  0.715544  1
  P  P5  1  0.375619  0.202728  0.216546  1
  P  P6  1  0.797272  0.624381  0.283454  1
  P  P7  1  0.623591  0.797061  0.784456  1
  N  N8  1  0.365387  0.325243  0.911558  1
  N  N9  1  0.019702  0.218645  0.838887  1
  N  N10  1  0.983732  0.778819  0.162050  1
  N  N11  1  0.323791  0.368403  0.408497  1
  N  N12  1  0.617798  0.132909  0.162618  1
  N  N13  1  0.381351  0.865851  0.841713  1
  N  N14  1  0.867091  0.382202  0.337382  1
  N  N15  1  0.631597  0.676209  0.091503  1
  N  N16  1  0.781355  0.980298  0.661113  1
  N  N17  1  0.134149  0.618649  0.658287  1
  N  N18  1  0.221181  0.016268  0.337950  1
  N  N19  1  0.674757  0.634613  0.588442  1
