# generated using pymatgen
data_Zr3Al2GaNi3
_symmetry_space_group_name_H-M   'P 1'
_cell_length_a   6.88157301
_cell_length_b   6.92115111
_cell_length_c   3.51513800
_cell_angle_alpha   90.00000000
_cell_angle_beta   90.00000000
_cell_angle_gamma   120.19043501
_symmetry_Int_Tables_number   1
_chemical_formula_structural   Zr3Al2GaNi3
_chemical_formula_sum   'Zr3 Al2 Ga1 Ni3'
_cell_volume   144.71130922
_cell_formula_units_Z   1
loop_
 _symmetry_equiv_pos_site_id
 _symmetry_equiv_pos_as_xyz
  1  'x, y, z'
loop_
 _atom_site_type_symbol
 _atom_site_label
 _atom_site_symmetry_multiplicity
 _atom_site_fract_x
 _atom_site_fract_y
 _atom_site_fract_z
 _atom_site_occupancy
  Zr  Zr0  1  0.000000  0.409213  0.500000  1
  Zr  Zr1  1  0.594530  0.594306  0.500000  1
  Zr  Zr2  1  0.405470  0.999777  0.500000  1
  Al  Al3  1  0.249014  0.251312  0.000000  1
  Al  Al4  1  0.750986  0.002298  0.000000  1
  Ga  Ga5  1  0.000000  0.745038  0.000000  1
  Ni  Ni6  1  0.000000  0.001737  0.500000  1
  Ni  Ni7  1  0.336278  0.666298  0.000000  1
  Ni  Ni8  1  0.663722  0.330019  0.000000  1
