# generated using pymatgen
data_Tb3FeCo3
_symmetry_space_group_name_H-M   'P 1'
_cell_length_a   5.51380935
_cell_length_b   5.51380985
_cell_length_c   12.80320600
_cell_angle_alpha   90.00000000
_cell_angle_beta   90.00000000
_cell_angle_gamma   137.99015671
_symmetry_Int_Tables_number   1
_chemical_formula_structural   Tb3FeCo3
_chemical_formula_sum   'Tb6 Fe2 Co6'
_cell_volume   260.50496702
_cell_formula_units_Z   2
loop_
 _symmetry_equiv_pos_site_id
 _symmetry_equiv_pos_as_xyz
  1  'x, y, z'
loop_
 _atom_site_type_symbol
 _atom_site_label
 _atom_site_symmetry_multiplicity
 _atom_site_fract_x
 _atom_site_fract_y
 _atom_site_fract_z
 _atom_site_occupancy
  Tb  Tb0  1  0.789195  0.210805  0.395448  1
  Tb  Tb1  1  0.210805  0.789195  0.604552  1
  Tb  Tb2  1  0.789195  0.210805  0.104552  1
  Tb  Tb3  1  0.210805  0.789195  0.895448  1
  Tb  Tb4  1  0.503611  0.496389  0.250000  1
  Tb  Tb5  1  0.496389  0.503611  0.750000  1
  Fe  Fe6  1  0.500000  0.500000  0.500000  1
  Fe  Fe7  1  0.500000  0.500000  0.000000  1
  Co  Co8  1  0.073562  0.926438  0.410698  1
  Co  Co9  1  0.926438  0.073562  0.589302  1
  Co  Co10  1  0.073562  0.926438  0.089302  1
  Co  Co11  1  0.926438  0.073562  0.910698  1
  Co  Co12  1  0.197053  0.802947  0.250000  1
  Co  Co13  1  0.802947  0.197053  0.750000  1
