# generated using pymatgen
data_Ca4Cd4Pd3Rh
_symmetry_space_group_name_H-M   'P 1'
_cell_length_a   4.36595400
_cell_length_b   7.26638015
_cell_length_c   8.65128812
_cell_angle_alpha   89.86368127
_cell_angle_beta   90.00000000
_cell_angle_gamma   90.00000000
_symmetry_Int_Tables_number   1
_chemical_formula_structural   Ca4Cd4Pd3Rh
_chemical_formula_sum   'Ca4 Cd4 Pd3 Rh1'
_cell_volume   274.45858293
_cell_formula_units_Z   1
loop_
 _symmetry_equiv_pos_site_id
 _symmetry_equiv_pos_as_xyz
  1  'x, y, z'
loop_
 _atom_site_type_symbol
 _atom_site_label
 _atom_site_symmetry_multiplicity
 _atom_site_fract_x
 _atom_site_fract_y
 _atom_site_fract_z
 _atom_site_occupancy
  Ca  Ca0  1  0.250000  0.036505  0.325322  1
  Ca  Ca1  1  0.250000  0.534247  0.180406  1
  Ca  Ca2  1  0.750000  0.973407  0.677208  1
  Ca  Ca3  1  0.750000  0.461331  0.816014  1
  Cd  Cd4  1  0.250000  0.146089  0.933622  1
  Cd  Cd5  1  0.250000  0.641190  0.563869  1
  Cd  Cd6  1  0.750000  0.854305  0.062458  1
  Cd  Cd7  1  0.750000  0.351584  0.441024  1
  Pd  Pd8  1  0.250000  0.760392  0.870483  1
  Pd  Pd9  1  0.750000  0.738019  0.369618  1
  Pd  Pd10  1  0.750000  0.240156  0.130425  1
  Rh  Rh11  1  0.250000  0.262774  0.629551  1
