# generated using pymatgen
data_Ce3Sn2Bi2Au3
_symmetry_space_group_name_H-M   'P 1'
_cell_length_a   8.81846344
_cell_length_b   8.81846352
_cell_length_c   8.81846300
_cell_angle_alpha   109.47122174
_cell_angle_beta   109.47122192
_cell_angle_gamma   109.47122242
_symmetry_Int_Tables_number   1
_chemical_formula_structural   Ce3Sn2Bi2Au3
_chemical_formula_sum   'Ce6 Sn4 Bi4 Au6'
_cell_volume   527.90627642
_cell_formula_units_Z   2
loop_
 _symmetry_equiv_pos_site_id
 _symmetry_equiv_pos_as_xyz
  1  'x, y, z'
loop_
 _atom_site_type_symbol
 _atom_site_label
 _atom_site_symmetry_multiplicity
 _atom_site_fract_x
 _atom_site_fract_y
 _atom_site_fract_z
 _atom_site_occupancy
  Ce  Ce0  1  0.869542  0.250000  0.119542  1
  Ce  Ce1  1  0.630458  0.750000  0.380458  1
  Ce  Ce2  1  0.250000  0.119542  0.869542  1
  Ce  Ce3  1  0.750000  0.380458  0.630458  1
  Ce  Ce4  1  0.119542  0.869542  0.250000  1
  Ce  Ce5  1  0.380458  0.630458  0.750000  1
  Sn  Sn6  1  0.682161  0.500000  0.000000  1
  Sn  Sn7  1  0.500000  0.000000  0.682161  1
  Sn  Sn8  1  0.000000  0.682161  0.500000  1
  Sn  Sn9  1  0.817839  0.817839  0.817839  1
  Bi  Bi10  1  0.500000  0.000000  0.181071  1
  Bi  Bi11  1  0.181071  0.500000  0.000000  1
  Bi  Bi12  1  0.000000  0.181071  0.500000  1
  Bi  Bi13  1  0.318929  0.318929  0.318929  1
  Au  Au14  1  0.382747  0.250000  0.632747  1
  Au  Au15  1  0.117253  0.750000  0.867253  1
  Au  Au16  1  0.250000  0.632747  0.382747  1
  Au  Au17  1  0.750000  0.867253  0.117253  1
  Au  Au18  1  0.632747  0.382747  0.250000  1
  Au  Au19  1  0.867253  0.117253  0.750000  1
