# generated using pymatgen
data_Ho12Tc2OsPd
_symmetry_space_group_name_H-M   'P 1'
_cell_length_a   6.31865001
_cell_length_b   7.34641156
_cell_length_c   9.13978500
_cell_angle_alpha   90.00000000
_cell_angle_beta   90.00000000
_cell_angle_gamma   90.26237132
_symmetry_Int_Tables_number   1
_chemical_formula_structural   Ho12Tc2OsPd
_chemical_formula_sum   'Ho12 Tc2 Os1 Pd1'
_cell_volume   424.25891921
_cell_formula_units_Z   1
loop_
 _symmetry_equiv_pos_site_id
 _symmetry_equiv_pos_as_xyz
  1  'x, y, z'
loop_
 _atom_site_type_symbol
 _atom_site_label
 _atom_site_symmetry_multiplicity
 _atom_site_fract_x
 _atom_site_fract_y
 _atom_site_fract_z
 _atom_site_occupancy
  Ho  Ho0  1  0.338117  0.670983  0.058021  1
  Ho  Ho1  1  0.169067  0.183841  0.442213  1
  Ho  Ho2  1  0.669764  0.322452  0.563106  1
  Ho  Ho3  1  0.824390  0.822830  0.931863  1
  Ho  Ho4  1  0.669764  0.322452  0.936894  1
  Ho  Ho5  1  0.824390  0.822830  0.568137  1
  Ho  Ho6  1  0.338117  0.670983  0.441979  1
  Ho  Ho7  1  0.169067  0.183841  0.057787  1
  Ho  Ho8  1  0.871102  0.532477  0.250000  1
  Ho  Ho9  1  0.624358  0.040811  0.250000  1
  Ho  Ho10  1  0.126723  0.463667  0.750000  1
  Ho  Ho11  1  0.369022  0.961354  0.750000  1
  Tc  Tc12  1  0.461148  0.385500  0.250000  1
  Tc  Tc13  1  0.963682  0.113101  0.750000  1
  Os  Os14  1  0.535848  0.615994  0.750000  1
  Pd  Pd15  1  0.045444  0.886885  0.250000  1
