# generated using pymatgen
data_Nd8Cd2OsPt
_symmetry_space_group_name_H-M   'P 1'
_cell_length_a   9.97353548
_cell_length_b   9.97353520
_cell_length_c   10.04158300
_cell_angle_alpha   59.77404124
_cell_angle_beta   59.77404217
_cell_angle_gamma   59.76342149
_symmetry_Int_Tables_number   1
_chemical_formula_structural   Nd8Cd2OsPt
_chemical_formula_sum   'Nd16 Cd4 Os2 Pt2'
_cell_volume   702.61353934
_cell_formula_units_Z   2
loop_
 _symmetry_equiv_pos_site_id
 _symmetry_equiv_pos_as_xyz
  1  'x, y, z'
loop_
 _atom_site_type_symbol
 _atom_site_label
 _atom_site_symmetry_multiplicity
 _atom_site_fract_x
 _atom_site_fract_y
 _atom_site_fract_z
 _atom_site_occupancy
  Nd  Nd0  1  0.348326  0.348326  0.353431  1
  Nd  Nd1  1  0.348326  0.348326  0.949917  1
  Nd  Nd2  1  0.344884  0.955655  0.349731  1
  Nd  Nd3  1  0.955655  0.344884  0.349731  1
  Nd  Nd4  1  0.814327  0.189458  0.191561  1
  Nd  Nd5  1  0.189458  0.814327  0.804655  1
  Nd  Nd6  1  0.189458  0.814327  0.191561  1
  Nd  Nd7  1  0.814327  0.189458  0.804655  1
  Nd  Nd8  1  0.189465  0.189465  0.810535  1
  Nd  Nd9  1  0.806358  0.806358  0.193642  1
  Nd  Nd10  1  0.939066  0.556622  0.564785  1
  Nd  Nd11  1  0.556622  0.939066  0.939527  1
  Nd  Nd12  1  0.556622  0.939066  0.564785  1
  Nd  Nd13  1  0.939066  0.556622  0.939527  1
  Nd  Nd14  1  0.562403  0.562403  0.937597  1
  Nd  Nd15  1  0.940067  0.940067  0.559933  1
  Cd  Cd16  1  0.579900  0.579900  0.580368  1
  Cd  Cd17  1  0.579900  0.579900  0.259833  1
  Cd  Cd18  1  0.580417  0.258339  0.580623  1
  Cd  Cd19  1  0.258339  0.580417  0.580623  1
  Os  Os20  1  0.143584  0.143584  0.137223  1
  Os  Os21  1  0.143584  0.143584  0.575608  1
  Pt  Pt22  1  0.145455  0.574393  0.140076  1
  Pt  Pt23  1  0.574393  0.145455  0.140076  1
