# generated using pymatgen
data_Sc8Nb11Si16Au
_symmetry_space_group_name_H-M   'P 1'
_cell_length_a   6.68818601
_cell_length_b   6.92453097
_cell_length_c   13.18675100
_cell_angle_alpha   90.00000000
_cell_angle_beta   90.00000000
_cell_angle_gamma   90.57752287
_symmetry_Int_Tables_number   1
_chemical_formula_structural   Sc8Nb11Si16Au
_chemical_formula_sum   'Sc8 Nb11 Si16 Au1'
_cell_volume   610.68105682
_cell_formula_units_Z   1
loop_
 _symmetry_equiv_pos_site_id
 _symmetry_equiv_pos_as_xyz
  1  'x, y, z'
loop_
 _atom_site_type_symbol
 _atom_site_label
 _atom_site_symmetry_multiplicity
 _atom_site_fract_x
 _atom_site_fract_y
 _atom_site_fract_z
 _atom_site_occupancy
  Sc  Sc0  1  0.498007  0.675442  0.591683  1
  Sc  Sc1  1  0.003824  0.827475  0.907902  1
  Sc  Sc2  1  0.496313  0.327136  0.095359  1
  Sc  Sc3  1  0.999613  0.172966  0.401762  1
  Sc  Sc4  1  0.496313  0.327136  0.404641  1
  Sc  Sc5  1  0.999613  0.172966  0.098238  1
  Sc  Sc6  1  0.498007  0.675442  0.908317  1
  Sc  Sc7  1  0.003824  0.827475  0.592098  1
  Nb  Nb8  1  0.670959  0.172462  0.626445  1
  Nb  Nb9  1  0.157733  0.323279  0.873903  1
  Nb  Nb10  1  0.336709  0.826807  0.124864  1
  Nb  Nb11  1  0.835714  0.674571  0.376068  1
  Nb  Nb12  1  0.336709  0.826807  0.375136  1
  Nb  Nb13  1  0.835714  0.674571  0.123932  1
  Nb  Nb14  1  0.670959  0.172462  0.873555  1
  Nb  Nb15  1  0.157733  0.323279  0.626097  1
  Nb  Nb16  1  0.339100  0.998173  0.750000  1
  Nb  Nb17  1  0.161083  0.505873  0.250000  1
  Nb  Nb18  1  0.662104  0.995950  0.250000  1
  Si  Si19  1  0.669521  0.968237  0.460266  1
  Si  Si20  1  0.167791  0.533221  0.038665  1
  Si  Si21  1  0.334842  0.035147  0.959850  1
  Si  Si22  1  0.830773  0.458531  0.531961  1
  Si  Si23  1  0.334842  0.035147  0.540150  1
  Si  Si24  1  0.830773  0.458531  0.968039  1
  Si  Si25  1  0.669521  0.968237  0.039734  1
  Si  Si26  1  0.167791  0.533221  0.461335  1
  Si  Si27  1  0.460231  0.378737  0.750000  1
  Si  Si28  1  0.965842  0.102240  0.750000  1
  Si  Si29  1  0.538127  0.613671  0.250000  1
  Si  Si30  1  0.039789  0.886115  0.250000  1
  Si  Si31  1  0.702314  0.868372  0.750000  1
  Si  Si32  1  0.213187  0.632279  0.750000  1
  Si  Si33  1  0.295683  0.138474  0.250000  1
  Si  Si34  1  0.791590  0.363821  0.250000  1
  Au  Au35  1  0.827353  0.525743  0.750000  1
