# generated using pymatgen
data_HoTm3(CuP)6
_symmetry_space_group_name_H-M   'P 1'
_cell_length_a   3.81947200
_cell_length_b   10.63357600
_cell_length_c   12.91656900
_cell_angle_alpha   90.00000000
_cell_angle_beta   90.00000000
_cell_angle_gamma   90.00000000
_symmetry_Int_Tables_number   1
_chemical_formula_structural   HoTm3(CuP)6
_chemical_formula_sum   'Ho2 Tm6 Cu12 P12'
_cell_volume   524.60187478
_cell_formula_units_Z   2
loop_
 _symmetry_equiv_pos_site_id
 _symmetry_equiv_pos_as_xyz
  1  'x, y, z'
loop_
 _atom_site_type_symbol
 _atom_site_label
 _atom_site_symmetry_multiplicity
 _atom_site_fract_x
 _atom_site_fract_y
 _atom_site_fract_z
 _atom_site_occupancy
  Ho  Ho0  1  0.250000  0.931558  0.792055  1
  Ho  Ho1  1  0.750000  0.431558  0.707945  1
  Tm  Tm2  1  0.250000  0.568680  0.292030  1
  Tm  Tm3  1  0.750000  0.068680  0.207970  1
  Tm  Tm4  1  0.250000  0.840683  0.503152  1
  Tm  Tm5  1  0.750000  0.340683  0.996848  1
  Tm  Tm6  1  0.250000  0.659147  0.003965  1
  Tm  Tm7  1  0.750000  0.159147  0.496035  1
  Cu  Cu8  1  0.250000  0.404994  0.511659  1
  Cu  Cu9  1  0.750000  0.904994  0.988341  1
  Cu  Cu10  1  0.250000  0.094642  0.012644  1
  Cu  Cu11  1  0.750000  0.594642  0.487356  1
  Cu  Cu12  1  0.250000  0.271105  0.330831  1
  Cu  Cu13  1  0.750000  0.771105  0.169169  1
  Cu  Cu14  1  0.250000  0.229198  0.831878  1
  Cu  Cu15  1  0.750000  0.729198  0.668122  1
  Cu  Cu16  1  0.250000  0.859195  0.281761  1
  Cu  Cu17  1  0.750000  0.359195  0.218239  1
  Cu  Cu18  1  0.250000  0.641057  0.782122  1
  Cu  Cu19  1  0.750000  0.141057  0.717878  1
  P  P20  1  0.250000  0.243187  0.641046  1
  P  P21  1  0.750000  0.743187  0.858954  1
  P  P22  1  0.250000  0.255853  0.141519  1
  P  P23  1  0.750000  0.755853  0.358481  1
  P  P24  1  0.250000  0.605742  0.602468  1
  P  P25  1  0.750000  0.105742  0.897532  1
  P  P26  1  0.250000  0.894801  0.102785  1
  P  P27  1  0.750000  0.394801  0.397215  1
  P  P28  1  0.250000  0.056024  0.369687  1
  P  P29  1  0.750000  0.556024  0.130313  1
  P  P30  1  0.250000  0.444133  0.871188  1
  P  P31  1  0.750000  0.944133  0.628812  1
