# generated using pymatgen
data_Sc(Nb3N4)3
_symmetry_space_group_name_H-M   'P 1'
_cell_length_a   5.27727500
_cell_length_b   5.27727643
_cell_length_c   10.44387200
_cell_angle_alpha   90.00000000
_cell_angle_beta   90.00000000
_cell_angle_gamma   120.00000983
_symmetry_Int_Tables_number   1
_chemical_formula_structural   Sc(Nb3N4)3
_chemical_formula_sum   'Sc1 Nb9 N12'
_cell_volume   251.89044803
_cell_formula_units_Z   1
loop_
 _symmetry_equiv_pos_site_id
 _symmetry_equiv_pos_as_xyz
  1  'x, y, z'
loop_
 _atom_site_type_symbol
 _atom_site_label
 _atom_site_symmetry_multiplicity
 _atom_site_fract_x
 _atom_site_fract_y
 _atom_site_fract_z
 _atom_site_occupancy
  Sc  Sc0  1  0.333333  0.666667  0.500000  1
  Nb  Nb1  1  0.666667  0.333333  0.000000  1
  Nb  Nb2  1  0.666667  0.333333  0.500000  1
  Nb  Nb3  1  0.333333  0.666667  0.000000  1
  Nb  Nb4  1  0.675433  0.998820  0.751277  1
  Nb  Nb5  1  0.675433  0.676613  0.248723  1
  Nb  Nb6  1  0.001180  0.324567  0.248723  1
  Nb  Nb7  1  0.001180  0.676613  0.751277  1
  Nb  Nb8  1  0.323387  0.324567  0.751277  1
  Nb  Nb9  1  0.323387  0.998820  0.248723  1
  N  N10  1  0.347392  0.341513  0.375125  1
  N  N11  1  0.658487  0.005880  0.375125  1
  N  N12  1  0.994120  0.652608  0.375125  1
  N  N13  1  0.999906  0.339454  0.879090  1
  N  N14  1  0.660546  0.000094  0.120910  1
  N  N15  1  0.660546  0.660452  0.879090  1
  N  N16  1  0.339548  0.000094  0.879090  1
  N  N17  1  0.658487  0.652608  0.624875  1
  N  N18  1  0.994120  0.341513  0.624875  1
  N  N19  1  0.999906  0.660452  0.120910  1
  N  N20  1  0.347392  0.005880  0.624875  1
  N  N21  1  0.339548  0.339454  0.120910  1
