# generated using pymatgen
data_Eu3Ho(Si5Pt3)2
_symmetry_space_group_name_H-M   'P 1'
_cell_length_a   8.22772271
_cell_length_b   8.21874463
_cell_length_c   8.21874534
_cell_angle_alpha   137.05759824
_cell_angle_beta   104.48886317
_cell_angle_gamma   91.00140330
_symmetry_Int_Tables_number   1
_chemical_formula_structural   Eu3Ho(Si5Pt3)2
_chemical_formula_sum   'Eu3 Ho1 Si10 Pt6'
_cell_volume   349.21101475
_cell_formula_units_Z   1
loop_
 _symmetry_equiv_pos_site_id
 _symmetry_equiv_pos_as_xyz
  1  'x, y, z'
loop_
 _atom_site_type_symbol
 _atom_site_label
 _atom_site_symmetry_multiplicity
 _atom_site_fract_x
 _atom_site_fract_y
 _atom_site_fract_z
 _atom_site_occupancy
  Eu  Eu0  1  0.896139  0.128735  0.767404  1
  Eu  Eu1  1  0.638126  0.371075  0.267050  1
  Eu  Eu2  1  0.362383  0.629330  0.733053  1
  Ho  Ho3  1  0.101765  0.871072  0.230694  1
  Si  Si4  1  0.999773  0.747010  0.746910  1
  Si  Si5  1  0.999773  0.252863  0.252763  1
  Si  Si6  1  0.271781  0.020382  0.750608  1
  Si  Si7  1  0.730168  0.478802  0.749276  1
  Si  Si8  1  0.730168  0.980892  0.251366  1
  Si  Si9  1  0.271781  0.521174  0.251399  1
  Si  Si10  1  0.762552  0.612944  0.149606  1
  Si  Si11  1  0.238614  0.388303  0.850312  1
  Si  Si12  1  0.457615  0.109245  0.348370  1
  Si  Si13  1  0.539895  0.888301  0.651593  1
  Pt  Pt14  1  0.497508  0.750054  0.249156  1
  Pt  Pt15  1  0.497508  0.248353  0.747454  1
  Pt  Pt16  1  0.025009  0.639446  0.385563  1
  Pt  Pt17  1  0.979008  0.363717  0.615291  1
  Pt  Pt18  1  0.246331  0.133773  0.112558  1
  Pt  Pt19  1  0.754101  0.864529  0.889572  1
