# generated using pymatgen
data_Gd3Ho(B4Ir)4
_symmetry_space_group_name_H-M   'P 1'
_cell_length_a   7.10212181
_cell_length_b   7.10212181
_cell_length_c   7.10212100
_cell_angle_alpha   111.76566077
_cell_angle_beta   111.76566076
_cell_angle_gamma   104.97380565
_symmetry_Int_Tables_number   1
_chemical_formula_structural   Gd3Ho(B4Ir)4
_chemical_formula_sum   'Gd3 Ho1 B16 Ir4'
_cell_volume   274.50590274
_cell_formula_units_Z   1
loop_
 _symmetry_equiv_pos_site_id
 _symmetry_equiv_pos_as_xyz
  1  'x, y, z'
loop_
 _atom_site_type_symbol
 _atom_site_label
 _atom_site_symmetry_multiplicity
 _atom_site_fract_x
 _atom_site_fract_y
 _atom_site_fract_z
 _atom_site_occupancy
  Gd  Gd0  1  0.784215  0.784215  0.000000  1
  Gd  Gd1  1  0.215785  0.215785  0.000000  1
  Gd  Gd2  1  0.750000  0.250000  0.500000  1
  Ho  Ho3  1  0.250000  0.750000  0.500000  1
  B  B4  1  0.265355  0.108547  0.372458  1
  B  B5  1  0.736091  0.892898  0.627542  1
  B  B6  1  0.265355  0.892898  0.156808  1
  B  B7  1  0.736091  0.108547  0.843192  1
  B  B8  1  0.107102  0.734645  0.843192  1
  B  B9  1  0.891453  0.263909  0.156808  1
  B  B10  1  0.107102  0.263909  0.372458  1
  B  B11  1  0.891453  0.734645  0.627542  1
  B  B12  1  0.112912  0.111851  0.526799  1
  B  B13  1  0.585051  0.586112  0.473201  1
  B  B14  1  0.112912  0.586112  0.001060  1
  B  B15  1  0.585051  0.111851  0.998940  1
  B  B16  1  0.888149  0.887088  0.473201  1
  B  B17  1  0.413888  0.414949  0.526799  1
  B  B18  1  0.888149  0.414949  0.001060  1
  B  B19  1  0.413888  0.887088  0.998940  1
  Ir  Ir20  1  0.261148  0.501747  0.759401  1
  Ir  Ir21  1  0.742347  0.501747  0.240599  1
  Ir  Ir22  1  0.498253  0.738852  0.240599  1
  Ir  Ir23  1  0.498253  0.257653  0.759401  1
