# generated using pymatgen
data_Rb8MgCd3H16
_symmetry_space_group_name_H-M   'P 1'
_cell_length_a   6.38471600
_cell_length_b   8.33304679
_cell_length_c   11.23378971
_cell_angle_alpha   90.18492898
_cell_angle_beta   90.00000000
_cell_angle_gamma   90.00000000
_symmetry_Int_Tables_number   1
_chemical_formula_structural   Rb8MgCd3H16
_chemical_formula_sum   'Rb8 Mg1 Cd3 H16'
_cell_volume   597.68097553
_cell_formula_units_Z   1
loop_
 _symmetry_equiv_pos_site_id
 _symmetry_equiv_pos_as_xyz
  1  'x, y, z'
loop_
 _atom_site_type_symbol
 _atom_site_label
 _atom_site_symmetry_multiplicity
 _atom_site_fract_x
 _atom_site_fract_y
 _atom_site_fract_z
 _atom_site_occupancy
  Rb  Rb0  1  0.250000  0.658369  0.084600  1
  Rb  Rb1  1  0.250000  0.162343  0.415322  1
  Rb  Rb2  1  0.750000  0.336744  0.914459  1
  Rb  Rb3  1  0.750000  0.837607  0.584065  1
  Rb  Rb4  1  0.250000  0.991163  0.805423  1
  Rb  Rb5  1  0.250000  0.494316  0.695281  1
  Rb  Rb6  1  0.750000  0.008200  0.193641  1
  Rb  Rb7  1  0.750000  0.508833  0.305541  1
  Mg  Mg8  1  0.750000  0.773290  0.919326  1
  Cd  Cd9  1  0.250000  0.728575  0.417919  1
  Cd  Cd10  1  0.250000  0.227173  0.081725  1
  Cd  Cd11  1  0.750000  0.271516  0.581876  1
  H  H12  1  0.012677  0.805947  0.344033  1
  H  H13  1  0.487133  0.304596  0.156115  1
  H  H14  1  0.512836  0.194053  0.655924  1
  H  H15  1  0.988099  0.695554  0.844470  1
  H  H16  1  0.987164  0.194053  0.655924  1
  H  H17  1  0.511901  0.695554  0.844470  1
  H  H18  1  0.487323  0.805947  0.344033  1
  H  H19  1  0.012867  0.304596  0.156115  1
  H  H20  1  0.250000  0.509090  0.419782  1
  H  H21  1  0.250000  0.007074  0.078493  1
  H  H22  1  0.750000  0.491142  0.580326  1
  H  H23  1  0.750000  0.994215  0.920282  1
  H  H24  1  0.250000  0.312310  0.928430  1
  H  H25  1  0.250000  0.813505  0.571706  1
  H  H26  1  0.750000  0.687225  0.072877  1
  H  H27  1  0.750000  0.187013  0.427842  1
