# generated using pymatgen
data_NaPrPt4
_symmetry_space_group_name_H-M   'P 1'
_cell_length_a   5.45293814
_cell_length_b   5.45293845
_cell_length_c   5.45293900
_cell_angle_alpha   60.00000273
_cell_angle_beta   60.00000088
_cell_angle_gamma   60.00000944
_symmetry_Int_Tables_number   1
_chemical_formula_structural   NaPrPt4
_chemical_formula_sum   'Na1 Pr1 Pt4'
_cell_volume   114.65073713
_cell_formula_units_Z   1
loop_
 _symmetry_equiv_pos_site_id
 _symmetry_equiv_pos_as_xyz
  1  'x, y, z'
loop_
 _atom_site_type_symbol
 _atom_site_label
 _atom_site_symmetry_multiplicity
 _atom_site_fract_x
 _atom_site_fract_y
 _atom_site_fract_z
 _atom_site_occupancy
  Na  Na0  1  0.250000  0.250000  0.250000  1
  Pr  Pr1  1  0.000000  0.000000  0.000000  1
  Pt  Pt2  1  0.624649  0.624649  0.126052  1
  Pt  Pt3  1  0.624649  0.126052  0.624649  1
  Pt  Pt4  1  0.126052  0.624649  0.624649  1
  Pt  Pt5  1  0.624649  0.624649  0.624649  1
