# generated using pymatgen
data_Pr3Nd2TmTa2O14
_symmetry_space_group_name_H-M   'P 1'
_cell_length_a   6.67396314
_cell_length_b   6.64036927
_cell_length_c   7.70849100
_cell_angle_alpha   90.00000000
_cell_angle_beta   90.00000000
_cell_angle_gamma   108.89319620
_symmetry_Int_Tables_number   1
_chemical_formula_structural   Pr3Nd2TmTa2O14
_chemical_formula_sum   'Pr3 Nd2 Tm1 Ta2 O14'
_cell_volume   323.21639355
_cell_formula_units_Z   1
loop_
 _symmetry_equiv_pos_site_id
 _symmetry_equiv_pos_as_xyz
  1  'x, y, z'
loop_
 _atom_site_type_symbol
 _atom_site_label
 _atom_site_symmetry_multiplicity
 _atom_site_fract_x
 _atom_site_fract_y
 _atom_site_fract_z
 _atom_site_occupancy
  Pr  Pr0  1  0.530281  0.523439  0.498668  1
  Pr  Pr1  1  0.530281  0.523439  0.001332  1
  Pr  Pr2  1  0.462596  0.003135  0.250000  1
  Nd  Nd3  1  0.006095  0.463688  0.750000  1
  Nd  Nd4  1  0.533214  0.002934  0.750000  1
  Tm  Tm5  1  0.002747  0.528549  0.250000  1
  Ta  Ta6  1  0.001201  0.001591  0.497555  1
  Ta  Ta7  1  0.001201  0.001591  0.002445  1
  O  O8  1  0.946398  0.057985  0.750000  1
  O  O9  1  0.058709  0.936254  0.250000  1
  O  O10  1  0.348313  0.631380  0.250000  1
  O  O11  1  0.643275  0.368575  0.750000  1
  O  O12  1  0.370430  0.632032  0.750000  1
  O  O13  1  0.649970  0.379759  0.250000  1
  O  O14  1  0.309746  0.074118  0.968575  1
  O  O15  1  0.679085  0.917792  0.474384  1
  O  O16  1  0.309746  0.074118  0.531425  1
  O  O17  1  0.679085  0.917792  0.025616  1
  O  O18  1  0.034882  0.300430  0.455494  1
  O  O19  1  0.933933  0.680484  0.978525  1
  O  O20  1  0.933933  0.680484  0.521475  1
  O  O21  1  0.034882  0.300430  0.044506  1
