# generated using pymatgen
data_Nd20Si15Sn
_symmetry_space_group_name_H-M   'P 1'
_cell_length_a   7.90565068
_cell_length_b   7.92464165
_cell_length_c   15.28703977
_cell_angle_alpha   89.94333036
_cell_angle_beta   90.05832923
_cell_angle_gamma   90.04653086
_symmetry_Int_Tables_number   1
_chemical_formula_structural   Nd20Si15Sn
_chemical_formula_sum   'Nd20 Si15 Sn1'
_cell_volume   957.72333421
_cell_formula_units_Z   1
loop_
 _symmetry_equiv_pos_site_id
 _symmetry_equiv_pos_as_xyz
  1  'x, y, z'
loop_
 _atom_site_type_symbol
 _atom_site_label
 _atom_site_symmetry_multiplicity
 _atom_site_fract_x
 _atom_site_fract_y
 _atom_site_fract_z
 _atom_site_occupancy
  Nd  Nd0  1  0.481398  0.372432  0.126035  1
  Nd  Nd1  1  0.971044  0.136046  0.628150  1
  Nd  Nd2  1  0.872589  0.019381  0.876711  1
  Nd  Nd3  1  0.125934  0.982368  0.372700  1
  Nd  Nd4  1  0.522136  0.620312  0.628047  1
  Nd  Nd5  1  0.373023  0.480428  0.874583  1
  Nd  Nd6  1  0.630184  0.516225  0.371384  1
  Nd  Nd7  1  0.018377  0.873122  0.123104  1
  Nd  Nd8  1  0.628590  0.990209  0.443892  1
  Nd  Nd9  1  0.379240  0.011661  0.948259  1
  Nd  Nd10  1  0.986167  0.617682  0.552818  1
  Nd  Nd11  1  0.488681  0.878343  0.197024  1
  Nd  Nd12  1  0.517500  0.129772  0.704189  1
  Nd  Nd13  1  0.878389  0.488115  0.803580  1
  Nd  Nd14  1  0.120184  0.508976  0.300957  1
  Nd  Nd15  1  0.011292  0.377513  0.052476  1
  Nd  Nd16  1  0.307890  0.318627  0.498350  1
  Nd  Nd17  1  0.189606  0.806198  0.756718  1
  Nd  Nd18  1  0.808972  0.190443  0.248973  1
  Nd  Nd19  1  0.691116  0.691698  0.000022  1
  Si  Si20  1  0.711575  0.078164  0.060011  1
  Si  Si21  1  0.922525  0.286250  0.439616  1
  Si  Si22  1  0.422050  0.210808  0.309462  1
  Si  Si23  1  0.577742  0.786988  0.809832  1
  Si  Si24  1  0.212145  0.422038  0.690360  1
  Si  Si25  1  0.787201  0.578472  0.188805  1
  Si  Si26  1  0.077376  0.711489  0.941993  1
  Si  Si27  1  0.805487  0.830041  0.702846  1
  Si  Si28  1  0.195031  0.168960  0.201006  1
  Si  Si29  1  0.831048  0.805042  0.296532  1
  Si  Si30  1  0.332557  0.686778  0.443528  1
  Si  Si31  1  0.668185  0.304312  0.951932  1
  Si  Si32  1  0.692506  0.330381  0.545500  1
  Si  Si33  1  0.305622  0.668865  0.048417  1
  Si  Si34  1  0.169425  0.194415  0.798564  1
  Sn  Sn35  1  0.287210  0.927445  0.563622  1
