# generated using pymatgen
data_SmTh(WN3)2
_symmetry_space_group_name_H-M   'P 1'
_cell_length_a   5.58223700
_cell_length_b   5.66367100
_cell_length_c   7.94463600
_cell_angle_alpha   90.00000000
_cell_angle_beta   90.00000000
_cell_angle_gamma   90.00000000
_symmetry_Int_Tables_number   1
_chemical_formula_structural   SmTh(WN3)2
_chemical_formula_sum   'Sm2 Th2 W4 N12'
_cell_volume   251.17724483
_cell_formula_units_Z   2
loop_
 _symmetry_equiv_pos_site_id
 _symmetry_equiv_pos_as_xyz
  1  'x, y, z'
loop_
 _atom_site_type_symbol
 _atom_site_label
 _atom_site_symmetry_multiplicity
 _atom_site_fract_x
 _atom_site_fract_y
 _atom_site_fract_z
 _atom_site_occupancy
  Sm  Sm0  1  0.504068  0.545937  0.250000  1
  Sm  Sm1  1  0.995932  0.045937  0.250000  1
  Th  Th2  1  0.495239  0.457491  0.750000  1
  Th  Th3  1  0.004761  0.957491  0.750000  1
  W  W4  1  0.997717  0.498686  0.004077  1
  W  W5  1  0.502283  0.998686  0.495923  1
  W  W6  1  0.997717  0.498686  0.495923  1
  W  W7  1  0.502283  0.998686  0.004077  1
  N  N8  1  0.428269  0.985192  0.250000  1
  N  N9  1  0.071731  0.485192  0.250000  1
  N  N10  1  0.574267  0.016664  0.750000  1
  N  N11  1  0.925733  0.516664  0.750000  1
  N  N12  1  0.795132  0.794636  0.035888  1
  N  N13  1  0.704868  0.294636  0.464112  1
  N  N14  1  0.204591  0.204036  0.540423  1
  N  N15  1  0.295409  0.704036  0.959577  1
  N  N16  1  0.204591  0.204036  0.959577  1
  N  N17  1  0.295409  0.704036  0.540423  1
  N  N18  1  0.795132  0.794636  0.464112  1
  N  N19  1  0.704868  0.294636  0.035888  1
