# generated using pymatgen
data_Th3Cu4Si3Ge
_symmetry_space_group_name_H-M   'P 1'
_cell_length_a   4.14035845
_cell_length_b   4.11101092
_cell_length_c   12.40391604
_cell_angle_alpha   99.53871198
_cell_angle_beta   99.60746504
_cell_angle_gamma   90.00001290
_symmetry_Int_Tables_number   1
_chemical_formula_structural   Th3Cu4Si3Ge
_chemical_formula_sum   'Th3 Cu4 Si3 Ge1'
_cell_volume   205.20536649
_cell_formula_units_Z   1
loop_
 _symmetry_equiv_pos_site_id
 _symmetry_equiv_pos_as_xyz
  1  'x, y, z'
loop_
 _atom_site_type_symbol
 _atom_site_label
 _atom_site_symmetry_multiplicity
 _atom_site_fract_x
 _atom_site_fract_y
 _atom_site_fract_z
 _atom_site_occupancy
  Th  Th0  1  0.850830  0.350830  0.701662  1
  Th  Th1  1  0.148289  0.648289  0.296575  1
  Th  Th2  1  0.001278  0.001278  0.002556  1
  Cu  Cu3  1  0.249297  0.249297  0.498594  1
  Cu  Cu4  1  0.750355  0.750355  0.500711  1
  Cu  Cu5  1  0.597737  0.097737  0.195474  1
  Cu  Cu6  1  0.400763  0.900763  0.801527  1
  Si  Si7  1  0.551551  0.551551  0.103101  1
  Si  Si8  1  0.695154  0.195154  0.390308  1
  Si  Si9  1  0.304200  0.804200  0.608400  1
  Ge  Ge10  1  0.450546  0.450546  0.901094  1
