# generated using pymatgen
data_Dy4Lu4Fe(B8W)3
_symmetry_space_group_name_H-M   'P 1'
_cell_length_a   3.55308000
_cell_length_b   9.20037909
_cell_length_c   11.60693519
_cell_angle_alpha   90.15188843
_cell_angle_beta   90.00000000
_cell_angle_gamma   90.00000000
_symmetry_Int_Tables_number   1
_chemical_formula_structural   Dy4Lu4Fe(B8W)3
_chemical_formula_sum   'Dy4 Lu4 Fe1 B24 W3'
_cell_volume   379.42569788
_cell_formula_units_Z   1
loop_
 _symmetry_equiv_pos_site_id
 _symmetry_equiv_pos_as_xyz
  1  'x, y, z'
loop_
 _atom_site_type_symbol
 _atom_site_label
 _atom_site_symmetry_multiplicity
 _atom_site_fract_x
 _atom_site_fract_y
 _atom_site_fract_z
 _atom_site_occupancy
  Dy  Dy0  1  0.000000  0.820650  0.086130  1
  Dy  Dy1  1  0.000000  0.178779  0.913875  1
  Dy  Dy2  1  0.000000  0.321492  0.416460  1
  Dy  Dy3  1  0.000000  0.676682  0.586648  1
  Lu  Lu4  1  0.000000  0.444241  0.126645  1
  Lu  Lu5  1  0.000000  0.552448  0.867715  1
  Lu  Lu6  1  0.000000  0.945650  0.373780  1
  Lu  Lu7  1  0.000000  0.061808  0.629782  1
  Fe  Fe8  1  0.000000  0.360440  0.680442  1
  B  B9  1  0.500000  0.051456  0.065071  1
  B  B10  1  0.500000  0.947885  0.933752  1
  B  B11  1  0.500000  0.550224  0.436900  1
  B  B12  1  0.500000  0.443062  0.570123  1
  B  B13  1  0.500000  0.252790  0.077925  1
  B  B14  1  0.500000  0.745458  0.919571  1
  B  B15  1  0.500000  0.754217  0.422436  1
  B  B16  1  0.500000  0.252855  0.584400  1
  B  B17  1  0.500000  0.296124  0.235563  1
  B  B18  1  0.500000  0.702707  0.761862  1
  B  B19  1  0.500000  0.795456  0.264723  1
  B  B20  1  0.500000  0.211261  0.733966  1
  B  B21  1  0.500000  0.131757  0.318347  1
  B  B22  1  0.500000  0.870355  0.681128  1
  B  B23  1  0.500000  0.629804  0.182787  1
  B  B24  1  0.500000  0.368961  0.812731  1
  B  B25  1  0.500000  0.477924  0.286831  1
  B  B26  1  0.500000  0.512389  0.711505  1
  B  B27  1  0.500000  0.978364  0.214435  1
  B  B28  1  0.500000  0.023095  0.786371  1
  B  B29  1  0.500000  0.102325  0.474476  1
  B  B30  1  0.500000  0.903435  0.528326  1
  B  B31  1  0.500000  0.598286  0.025575  1
  B  B32  1  0.500000  0.399472  0.969920  1
  W  W33  1  0.000000  0.139503  0.180248  1
  W  W34  1  0.000000  0.859658  0.818171  1
  W  W35  1  0.000000  0.638986  0.321378  1
