# generated using pymatgen
data_Ca2CuSiI
_symmetry_space_group_name_H-M   'P 1'
_cell_length_a   4.12679300
_cell_length_b   4.12679412
_cell_length_c   17.28870600
_cell_angle_alpha   90.00000000
_cell_angle_beta   90.00000000
_cell_angle_gamma   120.00001508
_symmetry_Int_Tables_number   1
_chemical_formula_structural   Ca2CuSiI
_chemical_formula_sum   'Ca4 Cu2 Si2 I2'
_cell_volume   254.98729564
_cell_formula_units_Z   2
loop_
 _symmetry_equiv_pos_site_id
 _symmetry_equiv_pos_as_xyz
  1  'x, y, z'
loop_
 _atom_site_type_symbol
 _atom_site_label
 _atom_site_symmetry_multiplicity
 _atom_site_fract_x
 _atom_site_fract_y
 _atom_site_fract_z
 _atom_site_occupancy
  Ca  Ca0  1  0.000000  0.000000  0.392316  1
  Ca  Ca1  1  0.000000  0.000000  0.892316  1
  Ca  Ca2  1  0.000000  0.000000  0.608332  1
  Ca  Ca3  1  0.000000  0.000000  0.108332  1
  Cu  Cu4  1  0.666667  0.333333  0.498408  1
  Cu  Cu5  1  0.333333  0.666667  0.998408  1
  Si  Si6  1  0.333333  0.666667  0.501663  1
  Si  Si7  1  0.666667  0.333333  0.001663  1
  I  I8  1  0.333333  0.666667  0.249281  1
  I  I9  1  0.666667  0.333333  0.749281  1
