# generated using pymatgen
data_Sr3Ce(Bi2O7)2
_symmetry_space_group_name_H-M   'P 1'
_cell_length_a   7.95352191
_cell_length_b   7.87604869
_cell_length_c   7.95352100
_cell_angle_alpha   59.67407189
_cell_angle_beta   59.99999963
_cell_angle_gamma   59.67407201
_symmetry_Int_Tables_number   1
_chemical_formula_structural   Sr3Ce(Bi2O7)2
_chemical_formula_sum   'Sr3 Ce1 Bi4 O14'
_cell_volume   350.55417094
_cell_formula_units_Z   1
loop_
 _symmetry_equiv_pos_site_id
 _symmetry_equiv_pos_as_xyz
  1  'x, y, z'
loop_
 _atom_site_type_symbol
 _atom_site_label
 _atom_site_symmetry_multiplicity
 _atom_site_fract_x
 _atom_site_fract_y
 _atom_site_fract_z
 _atom_site_occupancy
  Sr  Sr0  1  0.625000  0.125000  0.125000  1
  Sr  Sr1  1  0.125000  0.125000  0.125000  1
  Sr  Sr2  1  0.125000  0.125000  0.625000  1
  Ce  Ce3  1  0.125000  0.625000  0.125000  1
  Bi  Bi4  1  0.625000  0.625000  0.125000  1
  Bi  Bi5  1  0.625000  0.625000  0.625000  1
  Bi  Bi6  1  0.625000  0.125000  0.625000  1
  Bi  Bi7  1  0.125000  0.625000  0.625000  1
  O  O8  1  0.713945  0.298380  0.273730  1
  O  O9  1  0.720405  0.684928  0.297333  1
  O  O10  1  0.297333  0.684928  0.297333  1
  O  O11  1  0.017674  0.946976  0.017674  1
  O  O12  1  0.713945  0.298380  0.713945  1
  O  O13  1  0.952667  0.565072  0.529595  1
  O  O14  1  0.297333  0.684928  0.720405  1
  O  O15  1  0.536055  0.951620  0.536055  1
  O  O16  1  0.232326  0.303024  0.232326  1
  O  O17  1  0.952667  0.565072  0.952667  1
  O  O18  1  0.529595  0.565072  0.952667  1
  O  O19  1  0.976270  0.951620  0.536055  1
  O  O20  1  0.536055  0.951620  0.976270  1
  O  O21  1  0.273730  0.298380  0.713945  1
