# generated using pymatgen
data_Hf3CrSi3IrRu
_symmetry_space_group_name_H-M   'P 1'
_cell_length_a   7.59753088
_cell_length_b   7.59550686
_cell_length_c   7.59550673
_cell_angle_alpha   127.45392688
_cell_angle_beta   123.29995235
_cell_angle_gamma   80.95270026
_symmetry_Int_Tables_number   1
_chemical_formula_structural   Hf3CrSi3IrRu
_chemical_formula_sum   'Hf6 Cr2 Si6 Ir2 Ru2'
_cell_volume   280.32826407
_cell_formula_units_Z   2
loop_
 _symmetry_equiv_pos_site_id
 _symmetry_equiv_pos_as_xyz
  1  'x, y, z'
loop_
 _atom_site_type_symbol
 _atom_site_label
 _atom_site_symmetry_multiplicity
 _atom_site_fract_x
 _atom_site_fract_y
 _atom_site_fract_z
 _atom_site_occupancy
  Hf  Hf0  1  0.465168  0.691374  0.726087  1
  Hf  Hf1  1  0.534832  0.260919  0.226206  1
  Hf  Hf2  1  0.745689  0.829088  0.581807  1
  Hf  Hf3  1  0.254311  0.836117  0.083398  1
  Hf  Hf4  1  0.057392  0.261980  0.706294  1
  Hf  Hf5  1  0.942608  0.648902  0.204587  1
  Cr  Cr6  1  0.500000  0.503150  0.003150  1
  Cr  Cr7  1  0.000000  0.500771  0.500771  1
  Si  Si8  1  0.278465  0.269781  0.499471  1
  Si  Si9  1  0.721535  0.221005  0.991315  1
  Si  Si10  1  0.327747  0.589327  0.249382  1
  Si  Si11  1  0.672253  0.921635  0.261580  1
  Si  Si12  1  0.159790  0.918703  0.745465  1
  Si  Si13  1  0.840210  0.585674  0.758912  1
  Ir  Ir14  1  0.094178  0.254231  0.099816  1
  Ir  Ir15  1  0.905822  0.005638  0.160054  1
  Ru  Ru16  1  0.345573  0.005084  0.601794  1
  Ru  Ru17  1  0.654427  0.256222  0.659512  1
