# generated using pymatgen
data_Pa4TcSn2Rh3
_symmetry_space_group_name_H-M   'P 1'
_cell_length_a   7.67511078
_cell_length_b   7.67511078
_cell_length_c   3.62703700
_cell_angle_alpha   90.00000000
_cell_angle_beta   90.00000000
_cell_angle_gamma   90.09747982
_symmetry_Int_Tables_number   1
_chemical_formula_structural   Pa4TcSn2Rh3
_chemical_formula_sum   'Pa4 Tc1 Sn2 Rh3'
_cell_volume   213.65873971
_cell_formula_units_Z   1
loop_
 _symmetry_equiv_pos_site_id
 _symmetry_equiv_pos_as_xyz
  1  'x, y, z'
loop_
 _atom_site_type_symbol
 _atom_site_label
 _atom_site_symmetry_multiplicity
 _atom_site_fract_x
 _atom_site_fract_y
 _atom_site_fract_z
 _atom_site_occupancy
  Pa  Pa0  1  0.334328  0.171485  0.500000  1
  Pa  Pa1  1  0.671485  0.834328  0.500000  1
  Pa  Pa2  1  0.169581  0.669581  0.500000  1
  Pa  Pa3  1  0.823883  0.323883  0.500000  1
  Tc  Tc4  1  0.636571  0.136571  0.000000  1
  Sn  Sn5  1  0.999758  0.999895  0.000000  1
  Sn  Sn6  1  0.499895  0.499758  0.000000  1
  Rh  Rh7  1  0.867755  0.632806  0.000000  1
  Rh  Rh8  1  0.363939  0.863939  0.000000  1
  Rh  Rh9  1  0.132806  0.367755  0.000000  1
