# generated using pymatgen
data_Ti3Re3SiBAs
_symmetry_space_group_name_H-M   'P 1'
_cell_length_a   6.71923300
_cell_length_b   6.71923371
_cell_length_c   3.17851500
_cell_angle_alpha   90.00000000
_cell_angle_beta   90.00000000
_cell_angle_gamma   120.00000144
_symmetry_Int_Tables_number   1
_chemical_formula_structural   Ti3Re3SiBAs
_chemical_formula_sum   'Ti3 Re3 Si1 B1 As1'
_cell_volume   124.27802382
_cell_formula_units_Z   1
loop_
 _symmetry_equiv_pos_site_id
 _symmetry_equiv_pos_as_xyz
  1  'x, y, z'
loop_
 _atom_site_type_symbol
 _atom_site_label
 _atom_site_symmetry_multiplicity
 _atom_site_fract_x
 _atom_site_fract_y
 _atom_site_fract_z
 _atom_site_occupancy
  Ti  Ti0  1  0.614342  0.006493  0.000000  1
  Ti  Ti1  1  0.392151  0.385658  0.000000  1
  Ti  Ti2  1  0.993507  0.607849  0.000000  1
  Re  Re3  1  0.244928  0.003103  0.500000  1
  Re  Re4  1  0.758175  0.755072  0.500000  1
  Re  Re5  1  0.996897  0.241825  0.500000  1
  Si  Si6  1  0.666667  0.333333  0.500000  1
  B  B7  1  0.000000  0.000000  0.000000  1
  As  As8  1  0.333333  0.666667  0.500000  1
