# generated using pymatgen
data_PrNd3PI5
_symmetry_space_group_name_H-M   'P 1'
_cell_length_a   4.26811900
_cell_length_b   9.07520000
_cell_length_c   19.08585700
_cell_angle_alpha   90.00000000
_cell_angle_beta   90.00000000
_cell_angle_gamma   90.00000000
_symmetry_Int_Tables_number   1
_chemical_formula_structural   PrNd3PI5
_chemical_formula_sum   'Pr2 Nd6 P2 I10'
_cell_volume   739.27222535
_cell_formula_units_Z   2
loop_
 _symmetry_equiv_pos_site_id
 _symmetry_equiv_pos_as_xyz
  1  'x, y, z'
loop_
 _atom_site_type_symbol
 _atom_site_label
 _atom_site_symmetry_multiplicity
 _atom_site_fract_x
 _atom_site_fract_y
 _atom_site_fract_z
 _atom_site_occupancy
  Pr  Pr0  1  0.000000  0.419865  0.500000  1
  Pr  Pr1  1  0.500000  0.163399  0.000000  1
  Nd  Nd2  1  0.000000  0.372955  0.856029  1
  Nd  Nd3  1  0.500000  0.580590  0.000000  1
  Nd  Nd4  1  0.000000  0.372955  0.143971  1
  Nd  Nd5  1  0.000000  0.835210  0.500000  1
  Nd  Nd6  1  0.500000  0.626998  0.356323  1
  Nd  Nd7  1  0.500000  0.626998  0.643677  1
  P  P8  1  0.500000  0.629466  0.500000  1
  P  P9  1  0.000000  0.373611  0.000000  1
  I  I10  1  0.500000  0.117466  0.167831  1
  I  I11  1  0.000000  0.366594  0.670069  1
  I  I12  1  0.000000  0.868747  0.000000  1
  I  I13  1  0.000000  0.883208  0.333318  1
  I  I14  1  0.500000  0.117466  0.832169  1
  I  I15  1  0.500000  0.633879  0.831011  1
  I  I16  1  0.000000  0.883208  0.666682  1
  I  I17  1  0.000000  0.366594  0.329931  1
  I  I18  1  0.500000  0.633879  0.168989  1
  I  I19  1  0.500000  0.126912  0.500000  1
