# generated using pymatgen
data_LuPa2(TcSn)3
_symmetry_space_group_name_H-M   'P 1'
_cell_length_a   7.34707900
_cell_length_b   7.69076613
_cell_length_c   3.86421400
_cell_angle_alpha   90.00000000
_cell_angle_beta   90.00000000
_cell_angle_gamma   118.53240981
_symmetry_Int_Tables_number   1
_chemical_formula_structural   LuPa2(TcSn)3
_chemical_formula_sum   'Lu1 Pa2 Tc3 Sn3'
_cell_volume   191.82734493
_cell_formula_units_Z   1
loop_
 _symmetry_equiv_pos_site_id
 _symmetry_equiv_pos_as_xyz
  1  'x, y, z'
loop_
 _atom_site_type_symbol
 _atom_site_label
 _atom_site_symmetry_multiplicity
 _atom_site_fract_x
 _atom_site_fract_y
 _atom_site_fract_z
 _atom_site_occupancy
  Lu  Lu0  1  0.404103  0.000000  0.500000  1
  Pa  Pa1  1  0.997077  0.411560  0.500000  1
  Pa  Pa2  1  0.585516  0.588440  0.500000  1
  Tc  Tc3  1  0.329784  0.628942  0.000000  1
  Tc  Tc4  1  0.700842  0.371058  0.000000  1
  Tc  Tc5  1  0.982273  0.000000  0.500000  1
  Sn  Sn6  1  0.019914  0.758834  0.000000  1
  Sn  Sn7  1  0.261081  0.241166  0.000000  1
  Sn  Sn8  1  0.719410  0.000000  0.000000  1
