# generated using pymatgen
data_Tb2YIn5
_symmetry_space_group_name_H-M   'P 1'
_cell_length_a   6.43588819
_cell_length_b   6.43588731
_cell_length_c   10.41818400
_cell_angle_alpha   90.00000000
_cell_angle_beta   90.00000000
_cell_angle_gamma   102.01979463
_symmetry_Int_Tables_number   1
_chemical_formula_structural   Tb2YIn5
_chemical_formula_sum   'Tb4 Y2 In10'
_cell_volume   422.06702149
_cell_formula_units_Z   2
loop_
 _symmetry_equiv_pos_site_id
 _symmetry_equiv_pos_as_xyz
  1  'x, y, z'
loop_
 _atom_site_type_symbol
 _atom_site_label
 _atom_site_symmetry_multiplicity
 _atom_site_fract_x
 _atom_site_fract_y
 _atom_site_fract_z
 _atom_site_occupancy
  Tb  Tb0  1  0.203948  0.796052  0.500000  1
  Tb  Tb1  1  0.203948  0.796052  0.000000  1
  Tb  Tb2  1  0.796052  0.203948  0.500000  1
  Tb  Tb3  1  0.796052  0.203948  0.000000  1
  Y  Y4  1  0.623734  0.623734  0.250000  1
  Y  Y5  1  0.376266  0.376266  0.750000  1
  In  In6  1  0.008976  0.008976  0.250000  1
  In  In7  1  0.991024  0.991024  0.750000  1
  In  In8  1  0.308113  0.308113  0.045423  1
  In  In9  1  0.691887  0.691887  0.954577  1
  In  In10  1  0.308113  0.308113  0.454577  1
  In  In11  1  0.691887  0.691887  0.545423  1
  In  In12  1  0.509297  0.074438  0.250000  1
  In  In13  1  0.925562  0.490703  0.750000  1
  In  In14  1  0.490703  0.925562  0.750000  1
  In  In15  1  0.074438  0.509297  0.250000  1
