# generated using pymatgen
data_YbMg(Si7Ir3)2
_symmetry_space_group_name_H-M   'P 1'
_cell_length_a   7.99220440
_cell_length_b   7.99220489
_cell_length_c   7.99220435
_cell_angle_alpha   56.83125232
_cell_angle_beta   56.83125051
_cell_angle_gamma   56.83125289
_symmetry_Int_Tables_number   1
_chemical_formula_structural   YbMg(Si7Ir3)2
_chemical_formula_sum   'Yb1 Mg1 Si14 Ir6'
_cell_volume   334.58472591
_cell_formula_units_Z   1
loop_
 _symmetry_equiv_pos_site_id
 _symmetry_equiv_pos_as_xyz
  1  'x, y, z'
loop_
 _atom_site_type_symbol
 _atom_site_label
 _atom_site_symmetry_multiplicity
 _atom_site_fract_x
 _atom_site_fract_y
 _atom_site_fract_z
 _atom_site_occupancy
  Yb  Yb0  1  0.500000  0.500000  0.500000  1
  Mg  Mg1  1  0.000000  0.000000  0.000000  1
  Si  Si2  1  0.850279  0.065083  0.673780  1
  Si  Si3  1  0.673780  0.850279  0.065083  1
  Si  Si4  1  0.065083  0.673780  0.850279  1
  Si  Si5  1  0.650201  0.827596  0.434180  1
  Si  Si6  1  0.250114  0.250114  0.250114  1
  Si  Si7  1  0.749886  0.749886  0.749886  1
  Si  Si8  1  0.172404  0.565820  0.349799  1
  Si  Si9  1  0.565820  0.349799  0.172404  1
  Si  Si10  1  0.349799  0.172404  0.565820  1
  Si  Si11  1  0.934917  0.326220  0.149721  1
  Si  Si12  1  0.326220  0.149721  0.934917  1
  Si  Si13  1  0.149721  0.934917  0.326220  1
  Si  Si14  1  0.827596  0.434180  0.650201  1
  Si  Si15  1  0.434180  0.650201  0.827596  1
  Ir  Ir16  1  0.751624  0.071226  0.425920  1
  Ir  Ir17  1  0.425920  0.751624  0.071226  1
  Ir  Ir18  1  0.071226  0.425920  0.751624  1
  Ir  Ir19  1  0.248376  0.928774  0.574080  1
  Ir  Ir20  1  0.574080  0.248376  0.928774  1
  Ir  Ir21  1  0.928774  0.574080  0.248376  1
