# generated using pymatgen
data_Ho17Lu3(SnPb3)4
_symmetry_space_group_name_H-M   'P 1'
_cell_length_a   8.11196125
_cell_length_b   15.54022400
_cell_length_c   8.19257001
_cell_angle_alpha   90.00000000
_cell_angle_beta   89.95411446
_cell_angle_gamma   90.00000000
_symmetry_Int_Tables_number   1
_chemical_formula_structural   Ho17Lu3(SnPb3)4
_chemical_formula_sum   'Ho17 Lu3 Sn4 Pb12'
_cell_volume   1032.76893035
_cell_formula_units_Z   1
loop_
 _symmetry_equiv_pos_site_id
 _symmetry_equiv_pos_as_xyz
  1  'x, y, z'
loop_
 _atom_site_type_symbol
 _atom_site_label
 _atom_site_symmetry_multiplicity
 _atom_site_fract_x
 _atom_site_fract_y
 _atom_site_fract_z
 _atom_site_occupancy
  Ho  Ho0  1  0.622881  0.622608  0.160447  1
  Ho  Ho1  1  0.122974  0.877653  0.339574  1
  Ho  Ho2  1  0.376678  0.122213  0.839137  1
  Ho  Ho3  1  0.877454  0.377781  0.660316  1
  Ho  Ho4  1  0.376678  0.377787  0.839137  1
  Ho  Ho5  1  0.877454  0.122219  0.660316  1
  Ho  Ho6  1  0.622881  0.877392  0.160447  1
  Ho  Ho7  1  0.122974  0.622347  0.339574  1
  Ho  Ho8  1  0.465510  0.600284  0.675083  1
  Ho  Ho9  1  0.965518  0.899506  0.824900  1
  Ho  Ho10  1  0.534223  0.100256  0.325185  1
  Ho  Ho11  1  0.034641  0.399768  0.175374  1
  Ho  Ho12  1  0.534223  0.399744  0.325185  1
  Ho  Ho13  1  0.034641  0.100232  0.175374  1
  Ho  Ho14  1  0.465510  0.899716  0.675083  1
  Ho  Ho15  1  0.965518  0.600494  0.824900  1
  Ho  Ho16  1  0.709742  0.250000  0.993187  1
  Lu  Lu17  1  0.790066  0.750000  0.492676  1
  Lu  Lu18  1  0.290034  0.750000  0.007383  1
  Lu  Lu19  1  0.210136  0.250000  0.507462  1
  Sn  Sn20  1  0.427549  0.750000  0.374621  1
  Sn  Sn21  1  0.927715  0.750000  0.125667  1
  Sn  Sn22  1  0.572146  0.250000  0.624695  1
  Sn  Sn23  1  0.073770  0.250000  0.873864  1
  Pb  Pb24  1  0.717821  0.457662  0.966598  1
  Pb  Pb25  1  0.217764  0.042953  0.533108  1
  Pb  Pb26  1  0.282231  0.956863  0.033013  1
  Pb  Pb27  1  0.782082  0.543116  0.466760  1
  Pb  Pb28  1  0.282231  0.543137  0.033013  1
  Pb  Pb29  1  0.782082  0.956884  0.466760  1
  Pb  Pb30  1  0.717821  0.042338  0.966598  1
  Pb  Pb31  1  0.217764  0.457047  0.533108  1
  Pb  Pb32  1  0.655309  0.750000  0.847000  1
  Pb  Pb33  1  0.155569  0.750000  0.652538  1
  Pb  Pb34  1  0.343654  0.250000  0.152897  1
  Pb  Pb35  1  0.844753  0.250000  0.349022  1
