# generated using pymatgen
data_Li6InGe5Pt12
_symmetry_space_group_name_H-M   'P 1'
_cell_length_a   4.01793800
_cell_length_b   7.16564800
_cell_length_c   12.03771800
_cell_angle_alpha   89.99996973
_cell_angle_beta   90.00002858
_cell_angle_gamma   90.00003025
_symmetry_Int_Tables_number   1
_chemical_formula_structural   Li6InGe5Pt12
_chemical_formula_sum   'Li6 In1 Ge5 Pt12'
_cell_volume   346.57949654
_cell_formula_units_Z   1
loop_
 _symmetry_equiv_pos_site_id
 _symmetry_equiv_pos_as_xyz
  1  'x, y, z'
loop_
 _atom_site_type_symbol
 _atom_site_label
 _atom_site_symmetry_multiplicity
 _atom_site_fract_x
 _atom_site_fract_y
 _atom_site_fract_z
 _atom_site_occupancy
  Li  Li0  1  0.000000  0.500014  0.001884  1
  Li  Li1  1  0.500000  0.999984  0.171945  1
  Li  Li2  1  0.000000  0.500017  0.333337  1
  Li  Li3  1  0.500000  0.999984  0.494731  1
  Li  Li4  1  0.000000  0.500014  0.664775  1
  Li  Li5  1  0.500001  0.999984  0.833322  1
  In  In6  1  0.499999  0.500001  0.833347  1
  Ge  Ge7  1  0.000000  0.000003  0.005099  1
  Ge  Ge8  1  0.500000  0.499996  0.165693  1
  Ge  Ge9  1  0.000000  0.000004  0.333329  1
  Ge  Ge10  1  0.500000  0.499996  0.500915  1
  Ge  Ge11  1  0.000000  0.000003  0.661637  1
  Pt  Pt12  1  0.500000  0.237320  0.004337  1
  Pt  Pt13  1  0.500000  0.762680  0.004336  1
  Pt  Pt14  1  0.000000  0.250852  0.168709  1
  Pt  Pt15  1  0.000000  0.749146  0.168709  1
  Pt  Pt16  1  0.500000  0.253906  0.333326  1
  Pt  Pt17  1  0.500000  0.746095  0.333326  1
  Pt  Pt18  1  0.000000  0.250833  0.497956  1
  Pt  Pt19  1  0.000000  0.749166  0.497956  1
  Pt  Pt20  1  0.500001  0.237344  0.662324  1
  Pt  Pt21  1  0.500001  0.762657  0.662325  1
  Pt  Pt22  1  0.000000  0.227140  0.833341  1
  Pt  Pt23  1  0.000000  0.772860  0.833341  1
