# generated using pymatgen
data_Tb2Co9TcAs6
_symmetry_space_group_name_H-M   'P 1'
_cell_length_a   3.83255000
_cell_length_b   10.74559600
_cell_length_c   12.25871000
_cell_angle_alpha   90.00000000
_cell_angle_beta   90.00000000
_cell_angle_gamma   90.00000000
_symmetry_Int_Tables_number   1
_chemical_formula_structural   Tb2Co9TcAs6
_chemical_formula_sum   'Tb4 Co18 Tc2 As12'
_cell_volume   504.85087011
_cell_formula_units_Z   2
loop_
 _symmetry_equiv_pos_site_id
 _symmetry_equiv_pos_as_xyz
  1  'x, y, z'
loop_
 _atom_site_type_symbol
 _atom_site_label
 _atom_site_symmetry_multiplicity
 _atom_site_fract_x
 _atom_site_fract_y
 _atom_site_fract_z
 _atom_site_occupancy
  Tb  Tb0  1  0.250000  0.581217  0.701476  1
  Tb  Tb1  1  0.250000  0.918783  0.201476  1
  Tb  Tb2  1  0.750000  0.416922  0.295823  1
  Tb  Tb3  1  0.750000  0.083078  0.795823  1
  Co  Co4  1  0.750000  0.289395  0.009658  1
  Co  Co5  1  0.750000  0.210605  0.509658  1
  Co  Co6  1  0.250000  0.406327  0.488795  1
  Co  Co7  1  0.250000  0.093673  0.988795  1
  Co  Co8  1  0.750000  0.593975  0.511157  1
  Co  Co9  1  0.750000  0.906025  0.011157  1
  Co  Co10  1  0.250000  0.215625  0.177009  1
  Co  Co11  1  0.250000  0.284375  0.677009  1
  Co  Co12  1  0.750000  0.783254  0.824096  1
  Co  Co13  1  0.750000  0.716746  0.324096  1
  Co  Co14  1  0.250000  0.886557  0.699088  1
  Co  Co15  1  0.250000  0.613443  0.199088  1
  Co  Co16  1  0.750000  0.116468  0.302724  1
  Co  Co17  1  0.750000  0.383532  0.802724  1
  Co  Co18  1  0.250000  0.467212  0.932515  1
  Co  Co19  1  0.250000  0.032788  0.432515  1
  Co  Co20  1  0.750000  0.532117  0.068003  1
  Co  Co21  1  0.750000  0.967883  0.568003  1
  Tc  Tc22  1  0.250000  0.707443  0.989957  1
  Tc  Tc23  1  0.250000  0.792557  0.489957  1
  As  As24  1  0.250000  0.414701  0.113418  1
  As  As25  1  0.250000  0.085299  0.613418  1
  As  As26  1  0.750000  0.581631  0.884714  1
  As  As27  1  0.750000  0.918369  0.384714  1
  As  As28  1  0.250000  0.268788  0.868966  1
  As  As29  1  0.250000  0.231212  0.368966  1
  As  As30  1  0.750000  0.730678  0.133336  1
  As  As31  1  0.750000  0.769322  0.633336  1
  As  As32  1  0.250000  0.595906  0.390594  1
  As  As33  1  0.250000  0.904094  0.890594  1
  As  As34  1  0.750000  0.398524  0.608674  1
  As  As35  1  0.750000  0.101476  0.108674  1
