# generated using pymatgen
data_Dy2Th(MgPt)3
_symmetry_space_group_name_H-M   'P 1'
_cell_length_a   7.50661382
_cell_length_b   7.61062519
_cell_length_c   4.00609300
_cell_angle_alpha   90.00000000
_cell_angle_beta   90.00000000
_cell_angle_gamma   120.45942285
_symmetry_Int_Tables_number   1
_chemical_formula_structural   Dy2Th(MgPt)3
_chemical_formula_sum   'Dy2 Th1 Mg3 Pt3'
_cell_volume   197.28172151
_cell_formula_units_Z   1
loop_
 _symmetry_equiv_pos_site_id
 _symmetry_equiv_pos_as_xyz
  1  'x, y, z'
loop_
 _atom_site_type_symbol
 _atom_site_label
 _atom_site_symmetry_multiplicity
 _atom_site_fract_x
 _atom_site_fract_y
 _atom_site_fract_z
 _atom_site_occupancy
  Dy  Dy0  1  0.407306  0.409566  0.500000  1
  Dy  Dy1  1  0.592694  0.002259  0.500000  1
  Th  Th2  1  0.000000  0.586807  0.500000  1
  Mg  Mg3  1  0.744719  0.754136  0.000000  1
  Mg  Mg4  1  0.255281  0.009418  0.000000  1
  Mg  Mg5  1  0.000000  0.236148  0.000000  1
  Pt  Pt6  1  0.674114  0.340300  0.000000  1
  Pt  Pt7  1  0.325886  0.666187  0.000000  1
  Pt  Pt8  1  0.000000  0.995179  0.500000  1
