# generated using pymatgen
data_Dy6Zn21Rh2C
_symmetry_space_group_name_H-M   'P 1'
_cell_length_a   8.94343354
_cell_length_b   8.92557589
_cell_length_c   8.94343300
_cell_angle_alpha   60.06602907
_cell_angle_beta   59.47424535
_cell_angle_gamma   60.06602641
_symmetry_Int_Tables_number   1
_chemical_formula_structural   Dy6Zn21Rh2C
_chemical_formula_sum   'Dy6 Zn21 Rh2 C1'
_cell_volume   503.27310160
_cell_formula_units_Z   1
loop_
 _symmetry_equiv_pos_site_id
 _symmetry_equiv_pos_as_xyz
  1  'x, y, z'
loop_
 _atom_site_type_symbol
 _atom_site_label
 _atom_site_symmetry_multiplicity
 _atom_site_fract_x
 _atom_site_fract_y
 _atom_site_fract_z
 _atom_site_occupancy
  Dy  Dy0  1  0.693814  0.300815  0.306186  1
  Dy  Dy1  1  0.306186  0.699185  0.693814  1
  Dy  Dy2  1  0.301690  0.698310  0.301690  1
  Dy  Dy3  1  0.698310  0.301690  0.698310  1
  Dy  Dy4  1  0.306186  0.300815  0.693814  1
  Dy  Dy5  1  0.693814  0.699185  0.306186  1
  Zn  Zn6  1  0.118477  0.118373  0.118477  1
  Zn  Zn7  1  0.881523  0.881627  0.881523  1
  Zn  Zn8  1  0.124208  0.117074  0.641647  1
  Zn  Zn9  1  0.118477  0.644674  0.118477  1
  Zn  Zn10  1  0.875792  0.882926  0.358353  1
  Zn  Zn11  1  0.881523  0.355326  0.881523  1
  Zn  Zn12  1  0.641647  0.117074  0.124208  1
  Zn  Zn13  1  0.358353  0.882926  0.875792  1
  Zn  Zn14  1  0.500000  0.000000  0.000000  1
  Zn  Zn15  1  0.000000  0.500000  0.500000  1
  Zn  Zn16  1  0.000000  0.500000  0.000000  1
  Zn  Zn17  1  0.000000  0.000000  0.500000  1
  Zn  Zn18  1  0.500000  0.500000  0.000000  1
  Zn  Zn19  1  0.326247  0.326499  0.326247  1
  Zn  Zn20  1  0.673753  0.673501  0.673753  1
  Zn  Zn21  1  0.325302  0.329553  0.015595  1
  Zn  Zn22  1  0.326247  0.021008  0.326247  1
  Zn  Zn23  1  0.674698  0.670447  0.984405  1
  Zn  Zn24  1  0.673753  0.978992  0.673753  1
  Zn  Zn25  1  0.015595  0.329553  0.325302  1
  Zn  Zn26  1  0.984405  0.670447  0.674698  1
  Rh  Rh27  1  0.500000  0.000000  0.500000  1
  Rh  Rh28  1  0.000000  0.000000  0.000000  1
  C  C29  1  0.500000  0.500000  0.500000  1
