# generated using pymatgen
data_Y9Tm(GaSb2)2
_symmetry_space_group_name_H-M   'P 1'
_cell_length_a   8.85764757
_cell_length_b   8.85898552
_cell_length_c   6.42548042
_cell_angle_alpha   90.02058380
_cell_angle_beta   89.95883265
_cell_angle_gamma   119.99500042
_symmetry_Int_Tables_number   1
_chemical_formula_structural   Y9Tm(GaSb2)2
_chemical_formula_sum   'Y9 Tm1 Ga2 Sb4'
_cell_volume   436.67707188
_cell_formula_units_Z   1
loop_
 _symmetry_equiv_pos_site_id
 _symmetry_equiv_pos_as_xyz
  1  'x, y, z'
loop_
 _atom_site_type_symbol
 _atom_site_label
 _atom_site_symmetry_multiplicity
 _atom_site_fract_x
 _atom_site_fract_y
 _atom_site_fract_z
 _atom_site_occupancy
  Y  Y0  1  0.341732  0.683466  0.000000  1
  Y  Y1  1  0.658622  0.317243  0.500000  1
  Y  Y2  1  0.658078  0.316154  0.000000  1
  Y  Y3  1  0.244114  0.999699  0.250465  1
  Y  Y4  1  0.755585  0.999699  0.749535  1
  Y  Y5  1  0.988522  0.234813  0.250191  1
  Y  Y6  1  0.753468  0.765013  0.250372  1
  Y  Y7  1  0.246290  0.234813  0.749809  1
  Y  Y8  1  0.011546  0.765013  0.749628  1
  Tm  Tm9  1  0.342785  0.685573  0.500000  1
  Ga  Ga10  1  0.601115  0.998543  0.251493  1
  Ga  Ga11  1  0.397429  0.998543  0.748507  1
  Sb  Sb12  1  0.995018  0.604751  0.251100  1
  Sb  Sb13  1  0.388951  0.395963  0.250993  1
  Sb  Sb14  1  0.609732  0.604751  0.748900  1
  Sb  Sb15  1  0.007012  0.395963  0.749007  1
