# generated using pymatgen
data_Yb2FeSbO6
_symmetry_space_group_name_H-M   'P 1'
_cell_length_a   7.73847200
_cell_length_b   5.41812153
_cell_length_c   5.61371150
_cell_angle_alpha   89.99172248
_cell_angle_beta   90.00000000
_cell_angle_gamma   90.00000000
_symmetry_Int_Tables_number   1
_chemical_formula_structural   Yb2FeSbO6
_chemical_formula_sum   'Yb4 Fe2 Sb2 O12'
_cell_volume   235.37159094
_cell_formula_units_Z   2
loop_
 _symmetry_equiv_pos_site_id
 _symmetry_equiv_pos_as_xyz
  1  'x, y, z'
loop_
 _atom_site_type_symbol
 _atom_site_label
 _atom_site_symmetry_multiplicity
 _atom_site_fract_x
 _atom_site_fract_y
 _atom_site_fract_z
 _atom_site_occupancy
  Yb  Yb0  1  0.750000  0.480374  0.570705  1
  Yb  Yb1  1  0.250000  0.519626  0.429295  1
  Yb  Yb2  1  0.750000  0.006115  0.046900  1
  Yb  Yb3  1  0.250000  0.993885  0.953100  1
  Fe  Fe4  1  0.500000  0.500000  0.000000  1
  Fe  Fe5  1  0.000000  0.500000  0.000000  1
  Sb  Sb6  1  0.500000  0.000000  0.500000  1
  Sb  Sb7  1  0.000000  0.000000  0.500000  1
  O  O8  1  0.448291  0.704204  0.694954  1
  O  O9  1  0.052726  0.808027  0.206715  1
  O  O10  1  0.948291  0.295796  0.305046  1
  O  O11  1  0.552726  0.191973  0.793285  1
  O  O12  1  0.447274  0.808027  0.206715  1
  O  O13  1  0.947274  0.191973  0.793285  1
  O  O14  1  0.250000  0.108774  0.536475  1
  O  O15  1  0.051709  0.704204  0.694954  1
  O  O16  1  0.750000  0.590132  0.969496  1
  O  O17  1  0.551709  0.295796  0.305046  1
  O  O18  1  0.750000  0.891226  0.463525  1
  O  O19  1  0.250000  0.409868  0.030504  1
