# generated using pymatgen
data_Ac2Sm(AgSn)3
_symmetry_space_group_name_H-M   'P 1'
_cell_length_a   4.86967800
_cell_length_b   4.86967676
_cell_length_c   12.28288000
_cell_angle_alpha   90.00000000
_cell_angle_beta   90.00000000
_cell_angle_gamma   119.99999485
_symmetry_Int_Tables_number   1
_chemical_formula_structural   Ac2Sm(AgSn)3
_chemical_formula_sum   'Ac2 Sm1 Ag3 Sn3'
_cell_volume   252.25003936
_cell_formula_units_Z   1
loop_
 _symmetry_equiv_pos_site_id
 _symmetry_equiv_pos_as_xyz
  1  'x, y, z'
loop_
 _atom_site_type_symbol
 _atom_site_label
 _atom_site_symmetry_multiplicity
 _atom_site_fract_x
 _atom_site_fract_y
 _atom_site_fract_z
 _atom_site_occupancy
  Ac  Ac0  1  0.000000  0.000000  0.836367  1
  Ac  Ac1  1  0.000000  0.000000  0.486842  1
  Sm  Sm2  1  0.000000  0.000000  0.160309  1
  Ag  Ag3  1  0.666667  0.333333  0.043931  1
  Ag  Ag4  1  0.333333  0.666667  0.671703  1
  Ag  Ag5  1  0.333333  0.666667  0.298559  1
  Sn  Sn6  1  0.666667  0.333333  0.654939  1
  Sn  Sn7  1  0.666667  0.333333  0.301204  1
  Sn  Sn8  1  0.333333  0.666667  0.002144  1
