# generated using pymatgen
data_Er3Tm5(LuRu2)2
_symmetry_space_group_name_H-M   'P 1'
_cell_length_a   6.25431097
_cell_length_b   7.21047579
_cell_length_c   8.34667715
_cell_angle_alpha   96.84384013
_cell_angle_beta   112.03611167
_cell_angle_gamma   89.95058087
_symmetry_Int_Tables_number   1
_chemical_formula_structural   Er3Tm5(LuRu2)2
_chemical_formula_sum   'Er3 Tm5 Lu2 Ru4'
_cell_volume   346.02953054
_cell_formula_units_Z   1
loop_
 _symmetry_equiv_pos_site_id
 _symmetry_equiv_pos_as_xyz
  1  'x, y, z'
loop_
 _atom_site_type_symbol
 _atom_site_label
 _atom_site_symmetry_multiplicity
 _atom_site_fract_x
 _atom_site_fract_y
 _atom_site_fract_z
 _atom_site_occupancy
  Er  Er0  1  0.523554  0.083350  0.814122  1
  Er  Er1  1  0.475833  0.916550  0.185639  1
  Er  Er2  1  0.708793  0.416719  0.186000  1
  Tm  Tm3  1  0.291816  0.583772  0.814003  1
  Tm  Tm4  1  0.295310  0.314807  0.434350  1
  Tm  Tm5  1  0.705294  0.685323  0.566086  1
  Tm  Tm6  1  0.860449  0.184961  0.565508  1
  Tm  Tm7  1  0.139883  0.814872  0.434571  1
  Lu  Lu8  1  0.079036  0.250688  0.000118  1
  Lu  Lu9  1  0.920996  0.749359  0.999600  1
  Ru  Ru10  1  0.321035  0.575729  0.219436  1
  Ru  Ru11  1  0.678154  0.423959  0.780580  1
  Ru  Ru12  1  0.101887  0.924433  0.780226  1
  Ru  Ru13  1  0.897961  0.075478  0.219758  1
