# generated using pymatgen
data_Sm8Gd12Si15Os
_symmetry_space_group_name_H-M   'P 1'
_cell_length_a   7.43532700
_cell_length_b   7.83209880
_cell_length_c   14.74214700
_cell_angle_alpha   90.00000000
_cell_angle_beta   90.00000000
_cell_angle_gamma   90.11137868
_symmetry_Int_Tables_number   1
_chemical_formula_structural   Sm8Gd12Si15Os
_chemical_formula_sum   'Sm8 Gd12 Si15 Os1'
_cell_volume   858.49574563
_cell_formula_units_Z   1
loop_
 _symmetry_equiv_pos_site_id
 _symmetry_equiv_pos_as_xyz
  1  'x, y, z'
loop_
 _atom_site_type_symbol
 _atom_site_label
 _atom_site_symmetry_multiplicity
 _atom_site_fract_x
 _atom_site_fract_y
 _atom_site_fract_z
 _atom_site_occupancy
  Sm  Sm0  1  0.021315  0.184031  0.096741  1
  Sm  Sm1  1  0.982870  0.822635  0.903238  1
  Sm  Sm2  1  0.479818  0.681250  0.904073  1
  Sm  Sm3  1  0.982870  0.822635  0.596762  1
  Sm  Sm4  1  0.521191  0.317520  0.096320  1
  Sm  Sm5  1  0.021315  0.184031  0.403259  1
  Sm  Sm6  1  0.521191  0.317520  0.403680  1
  Sm  Sm7  1  0.479818  0.681250  0.595927  1
  Gd  Gd8  1  0.147867  0.513404  0.750000  1
  Gd  Gd9  1  0.847224  0.487498  0.250000  1
  Gd  Gd10  1  0.349277  0.014593  0.250000  1
  Gd  Gd11  1  0.665637  0.987156  0.750000  1
  Gd  Gd12  1  0.310815  0.175227  0.627398  1
  Gd  Gd13  1  0.679049  0.821548  0.376948  1
  Gd  Gd14  1  0.177960  0.681958  0.376387  1
  Gd  Gd15  1  0.679049  0.821548  0.123052  1
  Gd  Gd16  1  0.828166  0.315510  0.625213  1
  Gd  Gd17  1  0.310815  0.175227  0.872602  1
  Gd  Gd18  1  0.828166  0.315510  0.874787  1
  Gd  Gd19  1  0.177960  0.681958  0.123613  1
  Si  Si20  1  0.972440  0.901226  0.250000  1
  Si  Si21  1  0.470992  0.600228  0.250000  1
  Si  Si22  1  0.525742  0.398380  0.750000  1
  Si  Si23  1  0.271696  0.868552  0.750000  1
  Si  Si24  1  0.732814  0.125364  0.250000  1
  Si  Si25  1  0.231679  0.378457  0.250000  1
  Si  Si26  1  0.762428  0.620832  0.750000  1
  Si  Si27  1  0.151060  0.473231  0.538194  1
  Si  Si28  1  0.852645  0.530627  0.461506  1
  Si  Si29  1  0.351020  0.970655  0.461703  1
  Si  Si30  1  0.852645  0.530627  0.038494  1
  Si  Si31  1  0.643544  0.030385  0.538022  1
  Si  Si32  1  0.151060  0.473231  0.961806  1
  Si  Si33  1  0.643544  0.030385  0.961978  1
  Si  Si34  1  0.351020  0.970655  0.038297  1
  Os  Os35  1  0.023298  0.095160  0.750000  1
