# generated using pymatgen
data_Dy2Tm2Cd2Si3Ge
_symmetry_space_group_name_H-M   'P 1'
_cell_length_a   7.16947383
_cell_length_b   7.16947362
_cell_length_c   4.17589600
_cell_angle_alpha   90.00000000
_cell_angle_beta   90.00000000
_cell_angle_gamma   89.75762948
_symmetry_Int_Tables_number   1
_chemical_formula_structural   Dy2Tm2Cd2Si3Ge
_chemical_formula_sum   'Dy2 Tm2 Cd2 Si3 Ge1'
_cell_volume   214.64478595
_cell_formula_units_Z   1
loop_
 _symmetry_equiv_pos_site_id
 _symmetry_equiv_pos_as_xyz
  1  'x, y, z'
loop_
 _atom_site_type_symbol
 _atom_site_label
 _atom_site_symmetry_multiplicity
 _atom_site_fract_x
 _atom_site_fract_y
 _atom_site_fract_z
 _atom_site_occupancy
  Dy  Dy0  1  0.680098  0.177659  0.500000  1
  Dy  Dy1  1  0.322341  0.819902  0.500000  1
  Tm  Tm2  1  0.175098  0.324902  0.500000  1
  Tm  Tm3  1  0.823484  0.676516  0.500000  1
  Cd  Cd4  1  0.501207  0.502868  0.000000  1
  Cd  Cd5  1  0.997132  0.998793  0.000000  1
  Si  Si6  1  0.116960  0.617090  0.000000  1
  Si  Si7  1  0.882910  0.383040  0.000000  1
  Si  Si8  1  0.621172  0.878828  0.000000  1
  Ge  Ge9  1  0.379597  0.120403  0.000000  1
