# generated using pymatgen
data_TbEr7ReTcBr8
_symmetry_space_group_name_H-M   'P 1'
_cell_length_a   9.00164031
_cell_length_b   8.97019039
_cell_length_c   6.54658756
_cell_angle_alpha   89.49015872
_cell_angle_beta   89.32607516
_cell_angle_gamma   89.12003861
_symmetry_Int_Tables_number   1
_chemical_formula_structural   TbEr7ReTcBr8
_chemical_formula_sum   'Tb1 Er7 Re1 Tc1 Br8'
_cell_volume   528.49456228
_cell_formula_units_Z   1
loop_
 _symmetry_equiv_pos_site_id
 _symmetry_equiv_pos_as_xyz
  1  'x, y, z'
loop_
 _atom_site_type_symbol
 _atom_site_label
 _atom_site_symmetry_multiplicity
 _atom_site_fract_x
 _atom_site_fract_y
 _atom_site_fract_z
 _atom_site_occupancy
  Tb  Tb0  1  0.250264  0.899985  0.009007  1
  Er  Er1  1  0.753966  0.098584  0.988181  1
  Er  Er2  1  0.097895  0.753767  0.487367  1
  Er  Er3  1  0.900876  0.246723  0.511637  1
  Er  Er4  1  0.754969  0.904338  0.508366  1
  Er  Er5  1  0.244134  0.097180  0.490429  1
  Er  Er6  1  0.094810  0.245825  0.990363  1
  Er  Er7  1  0.904270  0.754747  0.007739  1
  Re  Re8  1  0.004723  0.995201  0.748863  1
  Tc  Tc9  1  0.994203  0.006088  0.249399  1
  Br  Br10  1  0.417228  0.816925  0.419328  1
  Br  Br11  1  0.581774  0.181506  0.588498  1
  Br  Br12  1  0.181092  0.580316  0.086835  1
  Br  Br13  1  0.817432  0.418539  0.911536  1
  Br  Br14  1  0.412360  0.189097  0.089343  1
  Br  Br15  1  0.590389  0.810409  0.912854  1
  Br  Br16  1  0.812948  0.587585  0.410337  1
  Br  Br17  1  0.186667  0.413181  0.589916  1
