# generated using pymatgen
data_RbNp2Cl11
_symmetry_space_group_name_H-M   'P 1'
_cell_length_a   7.56376138
_cell_length_b   7.67598822
_cell_length_c   18.06077902
_cell_angle_alpha   79.30482153
_cell_angle_beta   79.51768908
_cell_angle_gamma   87.63007414
_symmetry_Int_Tables_number   1
_chemical_formula_structural   RbNp2Cl11
_chemical_formula_sum   'Rb2 Np4 Cl22'
_cell_volume   1013.15403516
_cell_formula_units_Z   2
loop_
 _symmetry_equiv_pos_site_id
 _symmetry_equiv_pos_as_xyz
  1  'x, y, z'
loop_
 _atom_site_type_symbol
 _atom_site_label
 _atom_site_symmetry_multiplicity
 _atom_site_fract_x
 _atom_site_fract_y
 _atom_site_fract_z
 _atom_site_occupancy
  Rb  Rb0  1  0.746929  0.747147  0.504785  1
  Rb  Rb1  1  0.253071  0.252853  0.495215  1
  Np  Np2  1  0.319007  0.816038  0.350119  1
  Np  Np3  1  0.680993  0.183962  0.649881  1
  Np  Np4  1  0.837969  0.334636  0.084783  1
  Np  Np5  1  0.162031  0.665364  0.915217  1
  Cl  Cl6  1  0.251062  0.773306  0.496640  1
  Cl  Cl7  1  0.748938  0.226694  0.503360  1
  Cl  Cl8  1  0.568518  0.022156  0.355788  1
  Cl  Cl9  1  0.431482  0.977844  0.644212  1
  Cl  Cl10  1  0.534177  0.554479  0.361269  1
  Cl  Cl11  1  0.465823  0.445521  0.638731  1
  Cl  Cl12  1  0.384209  0.854140  0.209520  1
  Cl  Cl13  1  0.615791  0.145860  0.790480  1
  Cl  Cl14  1  0.061197  0.602372  0.361935  1
  Cl  Cl15  1  0.938803  0.397628  0.638065  1
  Cl  Cl16  1  0.103087  0.074668  0.347995  1
  Cl  Cl17  1  0.896913  0.925332  0.652005  1
  Cl  Cl18  1  0.894515  0.033173  0.152093  1
  Cl  Cl19  1  0.105485  0.966827  0.847907  1
  Cl  Cl20  1  0.529036  0.375903  0.151908  1
  Cl  Cl21  1  0.470964  0.624097  0.848092  1
  Cl  Cl22  1  0.717187  0.212650  0.987289  1
  Cl  Cl23  1  0.282813  0.787350  0.012711  1
  Cl  Cl24  1  0.963665  0.462608  0.178932  1
  Cl  Cl25  1  0.036335  0.537392  0.821068  1
  Cl  Cl26  1  0.167998  0.339498  0.999652  1
  Cl  Cl27  1  0.832002  0.660502  0.000348  1
