# generated using pymatgen
data_Er10Cd3Re
_symmetry_space_group_name_H-M   'P 1'
_cell_length_a   9.43517600
_cell_length_b   9.43517627
_cell_length_c   9.92939900
_cell_angle_alpha   90.00000000
_cell_angle_beta   90.00000000
_cell_angle_gamma   119.99999202
_symmetry_Int_Tables_number   1
_chemical_formula_structural   Er10Cd3Re
_chemical_formula_sum   'Er20 Cd6 Re2'
_cell_volume   765.51490897
_cell_formula_units_Z   2
loop_
 _symmetry_equiv_pos_site_id
 _symmetry_equiv_pos_as_xyz
  1  'x, y, z'
loop_
 _atom_site_type_symbol
 _atom_site_label
 _atom_site_symmetry_multiplicity
 _atom_site_fract_x
 _atom_site_fract_y
 _atom_site_fract_z
 _atom_site_occupancy
  Er  Er0  1  0.000000  0.000000  0.500000  1
  Er  Er1  1  0.000000  0.000000  0.000000  1
  Er  Er2  1  0.537705  0.462295  0.250000  1
  Er  Er3  1  0.537705  0.075412  0.250000  1
  Er  Er4  1  0.924588  0.462295  0.250000  1
  Er  Er5  1  0.462295  0.537705  0.750000  1
  Er  Er6  1  0.462295  0.924588  0.750000  1
  Er  Er7  1  0.075412  0.537705  0.750000  1
  Er  Er8  1  0.209825  0.790175  0.443249  1
  Er  Er9  1  0.209825  0.419651  0.443249  1
  Er  Er10  1  0.580349  0.790175  0.443249  1
  Er  Er11  1  0.790175  0.209825  0.556751  1
  Er  Er12  1  0.790175  0.580349  0.556751  1
  Er  Er13  1  0.419651  0.209825  0.556751  1
  Er  Er14  1  0.790175  0.209825  0.943249  1
  Er  Er15  1  0.790175  0.580349  0.943249  1
  Er  Er16  1  0.419651  0.209825  0.943249  1
  Er  Er17  1  0.209825  0.790175  0.056751  1
  Er  Er18  1  0.209825  0.419651  0.056751  1
  Er  Er19  1  0.580349  0.790175  0.056751  1
  Cd  Cd20  1  0.886119  0.113881  0.250000  1
  Cd  Cd21  1  0.886119  0.772239  0.250000  1
  Cd  Cd22  1  0.227761  0.113881  0.250000  1
  Cd  Cd23  1  0.113881  0.886119  0.750000  1
  Cd  Cd24  1  0.113881  0.227761  0.750000  1
  Cd  Cd25  1  0.772239  0.886119  0.750000  1
  Re  Re26  1  0.333333  0.666667  0.250000  1
  Re  Re27  1  0.666667  0.333333  0.750000  1
