# generated using pymatgen
data_RbLaGeSe4
_symmetry_space_group_name_H-M   'P 1'
_cell_length_a   7.21678100
_cell_length_b   7.00762088
_cell_length_c   19.16376423
_cell_angle_alpha   72.05399134
_cell_angle_beta   90.00000000
_cell_angle_gamma   90.00000000
_symmetry_Int_Tables_number   1
_chemical_formula_structural   RbLaGeSe4
_chemical_formula_sum   'Rb4 La4 Ge4 Se16'
_cell_volume   922.00659773
_cell_formula_units_Z   4
loop_
 _symmetry_equiv_pos_site_id
 _symmetry_equiv_pos_as_xyz
  1  'x, y, z'
loop_
 _atom_site_type_symbol
 _atom_site_label
 _atom_site_symmetry_multiplicity
 _atom_site_fract_x
 _atom_site_fract_y
 _atom_site_fract_z
 _atom_site_occupancy
  Rb  Rb0  1  0.753128  0.263953  0.466814  1
  Rb  Rb1  1  0.253128  0.736047  0.033186  1
  Rb  Rb2  1  0.246872  0.736047  0.533186  1
  Rb  Rb3  1  0.746872  0.263953  0.966814  1
  La  La4  1  0.773185  0.230444  0.224433  1
  La  La5  1  0.726815  0.230444  0.724433  1
  La  La6  1  0.273185  0.769556  0.275567  1
  La  La7  1  0.226815  0.769556  0.775567  1
  Ge  Ge8  1  0.238185  0.216785  0.337541  1
  Ge  Ge9  1  0.738185  0.783215  0.162459  1
  Ge  Ge10  1  0.761815  0.783215  0.662459  1
  Ge  Ge11  1  0.261815  0.216785  0.837541  1
  Se  Se12  1  0.501589  0.969217  0.860961  1
  Se  Se13  1  0.741190  0.582792  0.083798  1
  Se  Se14  1  0.989266  0.014700  0.852633  1
  Se  Se15  1  0.510734  0.014700  0.352633  1
  Se  Se16  1  0.010734  0.985300  0.147367  1
  Se  Se17  1  0.323125  0.421821  0.714987  1
  Se  Se18  1  0.258810  0.417208  0.916202  1
  Se  Se19  1  0.998411  0.969217  0.360961  1
  Se  Se20  1  0.241190  0.417208  0.416202  1
  Se  Se21  1  0.001589  0.030783  0.639039  1
  Se  Se22  1  0.758810  0.582792  0.583798  1
  Se  Se23  1  0.676875  0.578179  0.285013  1
  Se  Se24  1  0.489266  0.985300  0.647367  1
  Se  Se25  1  0.823125  0.578179  0.785013  1
  Se  Se26  1  0.176875  0.421821  0.214987  1
  Se  Se27  1  0.498411  0.030783  0.139039  1
