# generated using pymatgen
data_Sc22Tc3Ir5
_symmetry_space_group_name_H-M   'P 1'
_cell_length_a   9.50193740
_cell_length_b   9.49258676
_cell_length_c   9.49258761
_cell_angle_alpha   60.06517454
_cell_angle_beta   59.96740903
_cell_angle_gamma   59.96741489
_symmetry_Int_Tables_number   1
_chemical_formula_structural   Sc22Tc3Ir5
_chemical_formula_sum   'Sc22 Tc3 Ir5'
_cell_volume   605.43218956
_cell_formula_units_Z   1
loop_
 _symmetry_equiv_pos_site_id
 _symmetry_equiv_pos_as_xyz
  1  'x, y, z'
loop_
 _atom_site_type_symbol
 _atom_site_label
 _atom_site_symmetry_multiplicity
 _atom_site_fract_x
 _atom_site_fract_y
 _atom_site_fract_z
 _atom_site_occupancy
  Sc  Sc0  1  0.803003  0.803003  0.196997  1
  Sc  Sc1  1  0.196997  0.803003  0.196997  1
  Sc  Sc2  1  0.803152  0.196848  0.196848  1
  Sc  Sc3  1  0.196997  0.196997  0.803003  1
  Sc  Sc4  1  0.803003  0.196997  0.803003  1
  Sc  Sc5  1  0.196848  0.803152  0.803152  1
  Sc  Sc6  1  0.616483  0.618131  0.148903  1
  Sc  Sc7  1  0.616483  0.148903  0.618131  1
  Sc  Sc8  1  0.148903  0.616483  0.616483  1
  Sc  Sc9  1  0.618131  0.616483  0.616483  1
  Sc  Sc10  1  0.383517  0.381869  0.851097  1
  Sc  Sc11  1  0.383517  0.851097  0.381869  1
  Sc  Sc12  1  0.851097  0.383517  0.383517  1
  Sc  Sc13  1  0.381869  0.383517  0.383517  1
  Sc  Sc14  1  0.843531  0.843854  0.469082  1
  Sc  Sc15  1  0.843531  0.469082  0.843854  1
  Sc  Sc16  1  0.469082  0.843531  0.843531  1
  Sc  Sc17  1  0.843854  0.843531  0.843531  1
  Sc  Sc18  1  0.156469  0.156146  0.530918  1
  Sc  Sc19  1  0.156469  0.530918  0.156146  1
  Sc  Sc20  1  0.530918  0.156469  0.156469  1
  Sc  Sc21  1  0.156146  0.156469  0.156469  1
  Tc  Tc22  1  0.000000  0.000000  0.000000  1
  Tc  Tc23  1  0.000000  0.500000  0.500000  1
  Tc  Tc24  1  0.500000  0.000000  0.000000  1
  Ir  Ir25  1  0.500000  0.500000  0.500000  1
  Ir  Ir26  1  0.000000  0.000000  0.500000  1
  Ir  Ir27  1  0.500000  0.000000  0.500000  1
  Ir  Ir28  1  0.500000  0.500000  0.000000  1
  Ir  Ir29  1  0.000000  0.500000  0.000000  1
