# generated using pymatgen
data_LaPa5(Ni3Bi4)2
_symmetry_space_group_name_H-M   'P 1'
_cell_length_a   8.40068659
_cell_length_b   8.40068716
_cell_length_c   8.40068700
_cell_angle_alpha   109.46897718
_cell_angle_beta   109.47234475
_cell_angle_gamma   109.47234497
_symmetry_Int_Tables_number   1
_chemical_formula_structural   LaPa5(Ni3Bi4)2
_chemical_formula_sum   'La1 Pa5 Ni6 Bi8'
_cell_volume   456.37566671
_cell_formula_units_Z   1
loop_
 _symmetry_equiv_pos_site_id
 _symmetry_equiv_pos_as_xyz
  1  'x, y, z'
loop_
 _atom_site_type_symbol
 _atom_site_label
 _atom_site_symmetry_multiplicity
 _atom_site_fract_x
 _atom_site_fract_y
 _atom_site_fract_z
 _atom_site_occupancy
  La  La0  1  0.750000  0.375000  0.625000  1
  Pa  Pa1  1  0.127749  0.875634  0.251357  1
  Pa  Pa2  1  0.372251  0.623607  0.747885  1
  Pa  Pa3  1  0.875722  0.252115  0.124366  1
  Pa  Pa4  1  0.624278  0.748643  0.376393  1
  Pa  Pa5  1  0.250000  0.125000  0.875000  1
  Ni  Ni6  1  0.614847  0.370811  0.232366  1
  Ni  Ni7  1  0.885153  0.117519  0.755964  1
  Ni  Ni8  1  0.361555  0.244036  0.629189  1
  Ni  Ni9  1  0.138445  0.767634  0.882481  1
  Ni  Ni10  1  0.250000  0.625000  0.375000  1
  Ni  Ni11  1  0.750000  0.875000  0.125000  1
  Bi  Bi12  1  0.330175  0.330263  0.331658  1
  Bi  Bi13  1  0.169825  0.501484  0.000089  1
  Bi  Bi14  1  0.996808  0.164999  0.497814  1
  Bi  Bi15  1  0.832815  0.831809  0.835001  1
  Bi  Bi16  1  0.503192  0.001006  0.168191  1
  Bi  Bi17  1  0.667185  0.502186  0.998994  1
  Bi  Bi18  1  0.501395  0.999911  0.669737  1
  Bi  Bi19  1  0.998605  0.668342  0.498516  1
