# generated using pymatgen
data_BaSbSeSF
_symmetry_space_group_name_H-M   'P 1'
_cell_length_a   6.21665728
_cell_length_b   6.22701196
_cell_length_c   14.25673502
_cell_angle_alpha   86.05457182
_cell_angle_beta   87.51975730
_cell_angle_gamma   90.00311013
_symmetry_Int_Tables_number   1
_chemical_formula_structural   BaSbSeSF
_chemical_formula_sum   'Ba4 Sb4 Se4 S4 F4'
_cell_volume   550.06900591
_cell_formula_units_Z   4
loop_
 _symmetry_equiv_pos_site_id
 _symmetry_equiv_pos_as_xyz
  1  'x, y, z'
loop_
 _atom_site_type_symbol
 _atom_site_label
 _atom_site_symmetry_multiplicity
 _atom_site_fract_x
 _atom_site_fract_y
 _atom_site_fract_z
 _atom_site_occupancy
  Ba  Ba0  1  0.763305  0.015665  0.390858  1
  Ba  Ba1  1  0.236695  0.984335  0.609142  1
  Ba  Ba2  1  0.263034  0.519677  0.390439  1
  Ba  Ba3  1  0.736967  0.480322  0.609561  1
  Sb  Sb4  1  0.256439  0.026319  0.139430  1
  Sb  Sb5  1  0.743561  0.973683  0.860570  1
  Sb  Sb6  1  0.757917  0.589568  0.142040  1
  Sb  Sb7  1  0.242083  0.410431  0.857959  1
  Se  Se8  1  0.329619  0.607386  0.121662  1
  Se  Se9  1  0.670381  0.392616  0.878338  1
  Se  Se10  1  0.824911  0.015497  0.125389  1
  Se  Se11  1  0.175089  0.984503  0.874611  1
  S  S12  1  0.270223  0.031056  0.307337  1
  S  S13  1  0.729777  0.968944  0.692664  1
  S  S14  1  0.768855  0.530375  0.309470  1
  S  S15  1  0.231145  0.469623  0.690530  1
  F  F16  1  0.999657  0.747812  0.501208  1
  F  F17  1  0.000345  0.252187  0.498792  1
  F  F18  1  0.499815  0.751238  0.501191  1
  F  F19  1  0.500185  0.248762  0.498810  1
