# generated using pymatgen
data_Ca4Sn2Pd3Rh
_symmetry_space_group_name_H-M   'P 1'
_cell_length_a   5.80962884
_cell_length_b   5.82388941
_cell_length_c   8.22534578
_cell_angle_alpha   77.55238228
_cell_angle_beta   78.01850691
_cell_angle_gamma   59.44191560
_symmetry_Int_Tables_number   1
_chemical_formula_structural   Ca4Sn2Pd3Rh
_chemical_formula_sum   'Ca4 Sn2 Pd3 Rh1'
_cell_volume   232.42107576
_cell_formula_units_Z   1
loop_
 _symmetry_equiv_pos_site_id
 _symmetry_equiv_pos_as_xyz
  1  'x, y, z'
loop_
 _atom_site_type_symbol
 _atom_site_label
 _atom_site_symmetry_multiplicity
 _atom_site_fract_x
 _atom_site_fract_y
 _atom_site_fract_z
 _atom_site_occupancy
  Ca  Ca0  1  0.790647  0.512874  0.346530  1
  Ca  Ca1  1  0.494111  0.206692  0.145176  1
  Ca  Ca2  1  0.209559  0.491814  0.654190  1
  Ca  Ca3  1  0.506460  0.788233  0.854280  1
  Sn  Sn4  1  0.143174  0.849343  0.247887  1
  Sn  Sn5  1  0.856890  0.139970  0.753474  1
  Pd  Pd6  1  0.266565  0.995016  0.497055  1
  Pd  Pd7  1  0.997046  0.275689  0.000038  1
  Pd  Pd8  1  0.729098  0.007186  0.500394  1
  Rh  Rh9  1  0.006447  0.733185  0.000975  1
