# generated using pymatgen
data_Ti6Be2Tc3Ge4Rh3
_symmetry_space_group_name_H-M   'P 1'
_cell_length_a   7.47355536
_cell_length_b   7.47140445
_cell_length_c   7.47183030
_cell_angle_alpha   126.37662318
_cell_angle_beta   128.13894102
_cell_angle_gamma   77.76575179
_symmetry_Int_Tables_number   1
_chemical_formula_structural   Ti6Be2Tc3Ge4Rh3
_chemical_formula_sum   'Ti6 Be2 Tc3 Ge4 Rh3'
_cell_volume   256.23013662
_cell_formula_units_Z   1
loop_
 _symmetry_equiv_pos_site_id
 _symmetry_equiv_pos_as_xyz
  1  'x, y, z'
loop_
 _atom_site_type_symbol
 _atom_site_label
 _atom_site_symmetry_multiplicity
 _atom_site_fract_x
 _atom_site_fract_y
 _atom_site_fract_z
 _atom_site_occupancy
  Ti  Ti0  1  0.944617  0.739343  0.302321  1
  Ti  Ti1  1  0.058287  0.346872  0.792964  1
  Ti  Ti2  1  0.248419  0.150255  0.395958  1
  Ti  Ti3  1  0.759705  0.154652  0.903562  1
  Ti  Ti4  1  0.558722  0.351633  0.290701  1
  Ti  Ti5  1  0.431595  0.740388  0.801401  1
  Be  Be6  1  0.749652  0.751629  0.499879  1
  Be  Be7  1  0.241057  0.748170  0.005702  1
  Tc  Tc8  1  0.498868  0.500579  0.999842  1
  Tc  Tc9  1  0.999967  0.499568  0.499613  1
  Tc  Tc10  1  0.125583  0.994800  0.871991  1
  Ge  Ge11  1  0.336856  0.072976  0.741789  1
  Ge  Ge12  1  0.667825  0.416171  0.742929  1
  Ge  Ge13  1  0.175770  0.416941  0.249575  1
  Ge  Ge14  1  0.829624  0.070236  0.237678  1
  Rh  Rh15  1  0.868068  0.746291  0.859575  1
  Rh  Rh16  1  0.386488  0.748125  0.377714  1
  Rh  Rh17  1  0.618895  0.991775  0.367207  1
