# generated using pymatgen
data_Cs6GdS4Cl
_symmetry_space_group_name_H-M   'P 1'
_cell_length_a   11.19298600
_cell_length_b   11.19298681
_cell_length_c   8.35208700
_cell_angle_alpha   90.00000000
_cell_angle_beta   90.00000000
_cell_angle_gamma   120.00000943
_symmetry_Int_Tables_number   1
_chemical_formula_structural   Cs6GdS4Cl
_chemical_formula_sum   'Cs12 Gd2 S8 Cl2'
_cell_volume   906.18642597
_cell_formula_units_Z   2
loop_
 _symmetry_equiv_pos_site_id
 _symmetry_equiv_pos_as_xyz
  1  'x, y, z'
loop_
 _atom_site_type_symbol
 _atom_site_label
 _atom_site_symmetry_multiplicity
 _atom_site_fract_x
 _atom_site_fract_y
 _atom_site_fract_z
 _atom_site_occupancy
  Cs  Cs0  1  0.134912  0.865088  0.511832  1
  Cs  Cs1  1  0.730174  0.865088  0.511832  1
  Cs  Cs2  1  0.937014  0.468506  0.317442  1
  Cs  Cs3  1  0.531494  0.468506  0.317442  1
  Cs  Cs4  1  0.865088  0.730174  0.011832  1
  Cs  Cs5  1  0.269826  0.134912  0.011832  1
  Cs  Cs6  1  0.531494  0.062986  0.317442  1
  Cs  Cs7  1  0.134912  0.269826  0.511832  1
  Cs  Cs8  1  0.865088  0.134912  0.011832  1
  Cs  Cs9  1  0.062986  0.531494  0.817442  1
  Cs  Cs10  1  0.468506  0.937014  0.817442  1
  Cs  Cs11  1  0.468506  0.531494  0.817442  1
  Gd  Gd12  1  0.666667  0.333333  0.717924  1
  Gd  Gd13  1  0.333333  0.666667  0.217924  1
  S  S14  1  0.412867  0.206435  0.610181  1
  S  S15  1  0.587133  0.793565  0.110181  1
  S  S16  1  0.666667  0.333333  0.034050  1
  S  S17  1  0.793565  0.587133  0.610181  1
  S  S18  1  0.206435  0.412867  0.110181  1
  S  S19  1  0.333333  0.666667  0.534050  1
  S  S20  1  0.206435  0.793565  0.110181  1
  S  S21  1  0.793565  0.206435  0.610181  1
  Cl  Cl22  1  0.000000  0.000000  0.270262  1
  Cl  Cl23  1  0.000000  0.000000  0.770262  1
