# generated using pymatgen
data_MgNb3B4(Ru5W)2
_symmetry_space_group_name_H-M   'P 1'
_cell_length_a   9.46169764
_cell_length_b   9.46169764
_cell_length_c   2.99596200
_cell_angle_alpha   90.00000000
_cell_angle_beta   90.00000000
_cell_angle_gamma   89.73324069
_symmetry_Int_Tables_number   1
_chemical_formula_structural   MgNb3B4(Ru5W)2
_chemical_formula_sum   'Mg1 Nb3 B4 Ru10 W2'
_cell_volume   268.20676280
_cell_formula_units_Z   1
loop_
 _symmetry_equiv_pos_site_id
 _symmetry_equiv_pos_as_xyz
  1  'x, y, z'
loop_
 _atom_site_type_symbol
 _atom_site_label
 _atom_site_symmetry_multiplicity
 _atom_site_fract_x
 _atom_site_fract_y
 _atom_site_fract_z
 _atom_site_occupancy
  Mg  Mg0  1  0.822713  0.677287  0.000000  1
  Nb  Nb1  1  0.174372  0.325628  0.000000  1
  Nb  Nb2  1  0.324187  0.821774  0.000000  1
  Nb  Nb3  1  0.678226  0.175813  0.000000  1
  B  B4  1  0.622636  0.877364  0.000000  1
  B  B5  1  0.378170  0.121830  0.000000  1
  B  B6  1  0.119223  0.619625  0.000000  1
  B  B7  1  0.880375  0.380777  0.000000  1
  Ru  Ru8  1  0.563210  0.719189  0.500000  1
  Ru  Ru9  1  0.427553  0.284009  0.500000  1
  Ru  Ru10  1  0.078896  0.785324  0.500000  1
  Ru  Ru11  1  0.932093  0.215667  0.500000  1
  Ru  Ru12  1  0.284333  0.567907  0.500000  1
  Ru  Ru13  1  0.714676  0.421104  0.500000  1
  Ru  Ru14  1  0.215991  0.072447  0.500000  1
  Ru  Ru15  1  0.780811  0.936790  0.500000  1
  Ru  Ru16  1  0.498305  0.001695  0.500000  1
  Ru  Ru17  1  0.002199  0.497801  0.500000  1
  W  W18  1  0.504201  0.502171  0.000000  1
  W  W19  1  0.997829  0.995799  0.000000  1
