# generated using pymatgen
data_Tb2Ho2GaRu7
_symmetry_space_group_name_H-M   'P 1'
_cell_length_a   5.36155005
_cell_length_b   5.36154861
_cell_length_c   8.64651900
_cell_angle_alpha   89.99234856
_cell_angle_beta   90.00765297
_cell_angle_gamma   119.96206562
_symmetry_Int_Tables_number   1
_chemical_formula_structural   Tb2Ho2GaRu7
_chemical_formula_sum   'Tb2 Ho2 Ga1 Ru7'
_cell_volume   215.33688319
_cell_formula_units_Z   1
loop_
 _symmetry_equiv_pos_site_id
 _symmetry_equiv_pos_as_xyz
  1  'x, y, z'
loop_
 _atom_site_type_symbol
 _atom_site_label
 _atom_site_symmetry_multiplicity
 _atom_site_fract_x
 _atom_site_fract_y
 _atom_site_fract_z
 _atom_site_occupancy
  Tb  Tb0  1  0.666700  0.333300  0.570792  1
  Tb  Tb1  1  0.333300  0.666700  0.429208  1
  Ho  Ho2  1  0.333295  0.666705  0.064474  1
  Ho  Ho3  1  0.666705  0.333295  0.935526  1
  Ga  Ga4  1  0.000000  0.000000  0.500000  1
  Ru  Ru5  1  0.000000  0.000000  0.000000  1
  Ru  Ru6  1  0.171482  0.342830  0.749650  1
  Ru  Ru7  1  0.171393  0.828607  0.749662  1
  Ru  Ru8  1  0.657170  0.828518  0.749650  1
  Ru  Ru9  1  0.828518  0.657170  0.250350  1
  Ru  Ru10  1  0.828607  0.171393  0.250338  1
  Ru  Ru11  1  0.342830  0.171482  0.250350  1
