# generated using pymatgen
data_Pr2TcP4Rh5
_symmetry_space_group_name_H-M   'P 1'
_cell_length_a   3.98594000
_cell_length_b   11.34843756
_cell_length_c   12.95211333
_cell_angle_alpha   89.53781862
_cell_angle_beta   90.00000000
_cell_angle_gamma   90.00000000
_symmetry_Int_Tables_number   1
_chemical_formula_structural   Pr2TcP4Rh5
_chemical_formula_sum   'Pr6 Tc3 P12 Rh15'
_cell_volume   585.85930954
_cell_formula_units_Z   3
loop_
 _symmetry_equiv_pos_site_id
 _symmetry_equiv_pos_as_xyz
  1  'x, y, z'
loop_
 _atom_site_type_symbol
 _atom_site_label
 _atom_site_symmetry_multiplicity
 _atom_site_fract_x
 _atom_site_fract_y
 _atom_site_fract_z
 _atom_site_occupancy
  Pr  Pr0  1  0.000000  0.498329  0.518631  1
  Pr  Pr1  1  0.500000  0.003507  0.480588  1
  Pr  Pr2  1  0.500000  0.814932  0.204185  1
  Pr  Pr3  1  0.500000  0.182279  0.205183  1
  Pr  Pr4  1  0.000000  0.682643  0.796047  1
  Pr  Pr5  1  0.000000  0.316931  0.795959  1
  Tc  Tc6  1  0.500000  0.515028  0.156587  1
  Tc  Tc7  1  0.000000  0.988761  0.842259  1
  Tc  Tc8  1  0.500000  0.333833  0.997893  1
  P  P9  1  0.500000  0.497183  0.884630  1
  P  P10  1  0.000000  0.997569  0.118582  1
  P  P11  1  0.500000  0.497882  0.338287  1
  P  P12  1  0.000000  0.001612  0.660320  1
  P  P13  1  0.500000  0.311135  0.617496  1
  P  P14  1  0.500000  0.688414  0.616916  1
  P  P15  1  0.000000  0.190298  0.383103  1
  P  P16  1  0.000000  0.812283  0.383876  1
  P  P17  1  0.500000  0.851821  0.887299  1
  P  P18  1  0.500000  0.156489  0.895831  1
  P  P19  1  0.000000  0.648788  0.112271  1
  P  P20  1  0.000000  0.342474  0.100493  1
  Rh  Rh21  1  0.500000  0.500067  0.701435  1
  Rh  Rh22  1  0.000000  0.000165  0.298677  1
  Rh  Rh23  1  0.000000  0.505524  0.989618  1
  Rh  Rh24  1  0.500000  0.995623  0.011194  1
  Rh  Rh25  1  0.500000  0.672810  0.982767  1
  Rh  Rh26  1  0.000000  0.159322  0.004747  1
  Rh  Rh27  1  0.000000  0.829175  0.016325  1
  Rh  Rh28  1  0.500000  0.294750  0.430004  1
  Rh  Rh29  1  0.500000  0.711070  0.431520  1
  Rh  Rh30  1  0.000000  0.207664  0.569503  1
  Rh  Rh31  1  0.000000  0.792208  0.569468  1
  Rh  Rh32  1  0.500000  0.877543  0.707320  1
  Rh  Rh33  1  0.500000  0.121546  0.713949  1
  Rh  Rh34  1  0.000000  0.622485  0.293699  1
  Rh  Rh35  1  0.000000  0.377858  0.283341  1
