# generated using pymatgen
data_Dy20RuPt11
_symmetry_space_group_name_H-M   'P 1'
_cell_length_a   11.04612600
_cell_length_b   11.04612600
_cell_length_c   6.42872700
_cell_angle_alpha   90.00000000
_cell_angle_beta   90.00000000
_cell_angle_gamma   90.00000000
_symmetry_Int_Tables_number   1
_chemical_formula_structural   Dy20RuPt11
_chemical_formula_sum   'Dy20 Ru1 Pt11'
_cell_volume   784.41333697
_cell_formula_units_Z   1
loop_
 _symmetry_equiv_pos_site_id
 _symmetry_equiv_pos_as_xyz
  1  'x, y, z'
loop_
 _atom_site_type_symbol
 _atom_site_label
 _atom_site_symmetry_multiplicity
 _atom_site_fract_x
 _atom_site_fract_y
 _atom_site_fract_z
 _atom_site_occupancy
  Dy  Dy0  1  0.293478  0.088345  0.372023  1
  Dy  Dy1  1  0.294578  0.911160  0.880782  1
  Dy  Dy2  1  0.705422  0.088840  0.880782  1
  Dy  Dy3  1  0.706522  0.911655  0.372023  1
  Dy  Dy4  1  0.588840  0.794578  0.880782  1
  Dy  Dy5  1  0.588345  0.206522  0.372023  1
  Dy  Dy6  1  0.411655  0.793478  0.372023  1
  Dy  Dy7  1  0.411160  0.205422  0.880782  1
  Dy  Dy8  1  0.207401  0.410913  0.623371  1
  Dy  Dy9  1  0.207219  0.588465  0.122675  1
  Dy  Dy10  1  0.792781  0.411535  0.122675  1
  Dy  Dy11  1  0.792599  0.589087  0.623371  1
  Dy  Dy12  1  0.911535  0.707219  0.122675  1
  Dy  Dy13  1  0.910913  0.292599  0.623371  1
  Dy  Dy14  1  0.089087  0.707401  0.623371  1
  Dy  Dy15  1  0.088465  0.292781  0.122675  1
  Dy  Dy16  1  0.000000  0.000000  0.499196  1
  Dy  Dy17  1  0.000000  0.000000  0.998778  1
  Dy  Dy18  1  0.500000  0.500000  0.998778  1
  Dy  Dy19  1  0.500000  0.500000  0.499196  1
  Ru  Ru20  1  0.500000  0.000000  0.124036  1
  Pt  Pt21  1  0.847170  0.154419  0.249829  1
  Pt  Pt22  1  0.846580  0.846313  0.749601  1
  Pt  Pt23  1  0.153420  0.153687  0.749601  1
  Pt  Pt24  1  0.152830  0.845581  0.249829  1
  Pt  Pt25  1  0.653687  0.346580  0.749601  1
  Pt  Pt26  1  0.654419  0.652830  0.249829  1
  Pt  Pt27  1  0.345581  0.347170  0.249829  1
  Pt  Pt28  1  0.346313  0.653420  0.749601  1
  Pt  Pt29  1  0.500000  0.000000  0.621952  1
  Pt  Pt30  1  0.000000  0.500000  0.882126  1
  Pt  Pt31  1  0.000000  0.500000  0.382816  1
