# generated using pymatgen
data_Zr3U(NbN2)6
_symmetry_space_group_name_H-M   'P 1'
_cell_length_a   5.36899300
_cell_length_b   5.36899296
_cell_length_c   10.75427300
_cell_angle_alpha   90.00002134
_cell_angle_beta   89.99995731
_cell_angle_gamma   120.00000639
_symmetry_Int_Tables_number   1
_chemical_formula_structural   Zr3U(NbN2)6
_chemical_formula_sum   'Zr3 U1 Nb6 N12'
_cell_volume   268.47097081
_cell_formula_units_Z   1
loop_
 _symmetry_equiv_pos_site_id
 _symmetry_equiv_pos_as_xyz
  1  'x, y, z'
loop_
 _atom_site_type_symbol
 _atom_site_label
 _atom_site_symmetry_multiplicity
 _atom_site_fract_x
 _atom_site_fract_y
 _atom_site_fract_z
 _atom_site_occupancy
  Zr  Zr0  1  0.333333  0.666667  0.500001  1
  Zr  Zr1  1  0.666667  0.333333  0.000002  1
  Zr  Zr2  1  0.666667  0.333334  0.499998  1
  U  U3  1  0.333333  0.666666  0.999999  1
  Nb  Nb4  1  0.677403  0.001951  0.748944  1
  Nb  Nb5  1  0.677403  0.675453  0.251057  1
  Nb  Nb6  1  0.998051  0.322597  0.251057  1
  Nb  Nb7  1  0.998049  0.675452  0.748945  1
  Nb  Nb8  1  0.324549  0.322597  0.748945  1
  Nb  Nb9  1  0.324547  0.001950  0.251057  1
  N  N10  1  0.345412  0.345847  0.372857  1
  N  N11  1  0.654153  0.999565  0.372858  1
  N  N12  1  0.000435  0.654587  0.372857  1
  N  N13  1  0.001478  0.344892  0.871570  1
  N  N14  1  0.655106  0.998519  0.128431  1
  N  N15  1  0.655108  0.656586  0.871569  1
  N  N16  1  0.343413  0.998521  0.871569  1
  N  N17  1  0.654150  0.654587  0.627142  1
  N  N18  1  0.000437  0.345851  0.627142  1
  N  N19  1  0.001481  0.656586  0.128430  1
  N  N20  1  0.345414  0.999564  0.627142  1
  N  N21  1  0.343413  0.344893  0.128431  1
