# generated using pymatgen
data_TmCdIr2O7
_symmetry_space_group_name_H-M   'P 1'
_cell_length_a   7.22402250
_cell_length_b   7.15532064
_cell_length_c   7.22402150
_cell_angle_alpha   60.31408528
_cell_angle_beta   60.89568219
_cell_angle_gamma   60.31408786
_symmetry_Int_Tables_number   1
_chemical_formula_structural   TmCdIr2O7
_chemical_formula_sum   'Tm2 Cd2 Ir4 O14'
_cell_volume   267.05432855
_cell_formula_units_Z   2
loop_
 _symmetry_equiv_pos_site_id
 _symmetry_equiv_pos_as_xyz
  1  'x, y, z'
loop_
 _atom_site_type_symbol
 _atom_site_label
 _atom_site_symmetry_multiplicity
 _atom_site_fract_x
 _atom_site_fract_y
 _atom_site_fract_z
 _atom_site_occupancy
  Tm  Tm0  1  0.125000  0.125000  0.625000  1
  Tm  Tm1  1  0.625000  0.125000  0.125000  1
  Cd  Cd2  1  0.125000  0.125000  0.125000  1
  Cd  Cd3  1  0.125000  0.625000  0.125000  1
  Ir  Ir4  1  0.625000  0.625000  0.625000  1
  Ir  Ir5  1  0.125000  0.625000  0.625000  1
  Ir  Ir6  1  0.625000  0.125000  0.625000  1
  Ir  Ir7  1  0.625000  0.625000  0.125000  1
  O  O8  1  0.953001  0.533008  0.557294  1
  O  O9  1  0.296999  0.293304  0.692706  1
  O  O10  1  0.951440  0.548560  0.951440  1
  O  O11  1  0.692706  0.293304  0.296999  1
  O  O12  1  0.557294  0.533008  0.953001  1
  O  O13  1  0.539052  0.960948  0.539052  1
  O  O14  1  0.557294  0.956696  0.953001  1
  O  O15  1  0.253979  0.246021  0.253979  1
  O  O16  1  0.296999  0.716992  0.692706  1
  O  O17  1  0.710948  0.289052  0.710948  1
  O  O18  1  0.996021  0.003979  0.996021  1
  O  O19  1  0.953001  0.956696  0.557294  1
  O  O20  1  0.298560  0.701440  0.298560  1
  O  O21  1  0.692706  0.716992  0.296999  1
