# generated using pymatgen
data_LaCoSi2Tc
_symmetry_space_group_name_H-M   'P 1'
_cell_length_a   5.79687361
_cell_length_b   5.79687385
_cell_length_c   5.79687385
_cell_angle_alpha   137.76155510
_cell_angle_beta   137.76156093
_cell_angle_gamma   61.26838353
_symmetry_Int_Tables_number   1
_chemical_formula_structural   LaCoSi2Tc
_chemical_formula_sum   'La1 Co1 Si2 Tc1'
_cell_volume   87.03886505
_cell_formula_units_Z   1
loop_
 _symmetry_equiv_pos_site_id
 _symmetry_equiv_pos_as_xyz
  1  'x, y, z'
loop_
 _atom_site_type_symbol
 _atom_site_label
 _atom_site_symmetry_multiplicity
 _atom_site_fract_x
 _atom_site_fract_y
 _atom_site_fract_z
 _atom_site_occupancy
  La  La0  1  0.000000  0.000000  0.000000  1
  Co  Co1  1  0.250000  0.750000  0.500000  1
  Si  Si2  1  0.637391  0.637391  0.000000  1
  Si  Si3  1  0.362609  0.362609  0.000000  1
  Tc  Tc4  1  0.750000  0.250000  0.500000  1
