# generated using pymatgen
data_DyHo3(Tc3Ge4)2
_symmetry_space_group_name_H-M   'P 1'
_cell_length_a   8.32455457
_cell_length_b   5.67780310
_cell_length_c   7.01140284
_cell_angle_alpha   76.13846553
_cell_angle_beta   90.06902111
_cell_angle_gamma   90.00308859
_symmetry_Int_Tables_number   1
_chemical_formula_structural   DyHo3(Tc3Ge4)2
_chemical_formula_sum   'Dy1 Ho3 Tc6 Ge8'
_cell_volume   321.74394242
_cell_formula_units_Z   1
loop_
 _symmetry_equiv_pos_site_id
 _symmetry_equiv_pos_as_xyz
  1  'x, y, z'
loop_
 _atom_site_type_symbol
 _atom_site_label
 _atom_site_symmetry_multiplicity
 _atom_site_fract_x
 _atom_site_fract_y
 _atom_site_fract_z
 _atom_site_occupancy
  Dy  Dy0  1  0.553173  0.077002  0.245209  1
  Ho  Ho1  1  0.053020  0.422726  0.755137  1
  Ho  Ho2  1  0.446931  0.922716  0.755164  1
  Ho  Ho3  1  0.946970  0.577291  0.244850  1
  Tc  Tc4  1  0.204544  0.114360  0.113523  1
  Tc  Tc5  1  0.704800  0.386060  0.886266  1
  Tc  Tc6  1  0.795327  0.885737  0.886360  1
  Tc  Tc7  1  0.295358  0.614099  0.113472  1
  Tc  Tc8  1  0.999937  0.000001  0.499979  1
  Tc  Tc9  1  0.499944  0.499892  0.500238  1
  Ge  Ge10  1  0.900707  0.119979  0.128737  1
  Ge  Ge11  1  0.400517  0.380296  0.870790  1
  Ge  Ge12  1  0.099416  0.880032  0.871100  1
  Ge  Ge13  1  0.599483  0.619941  0.128738  1
  Ge  Ge14  1  0.748591  0.223652  0.578175  1
  Ge  Ge15  1  0.248475  0.276774  0.422105  1
  Ge  Ge16  1  0.251347  0.776268  0.422044  1
  Ge  Ge17  1  0.751461  0.723172  0.578112  1
