# generated using pymatgen
data_Ho7LuTi12Si15Ir
_symmetry_space_group_name_H-M   'P 1'
_cell_length_a   7.04747931
_cell_length_b   7.03274919
_cell_length_c   12.95808942
_cell_angle_alpha   89.87299153
_cell_angle_beta   89.84928206
_cell_angle_gamma   90.04606258
_symmetry_Int_Tables_number   1
_chemical_formula_structural   Ho7LuTi12Si15Ir
_chemical_formula_sum   'Ho7 Lu1 Ti12 Si15 Ir1'
_cell_volume   642.23977610
_cell_formula_units_Z   1
loop_
 _symmetry_equiv_pos_site_id
 _symmetry_equiv_pos_as_xyz
  1  'x, y, z'
loop_
 _atom_site_type_symbol
 _atom_site_label
 _atom_site_symmetry_multiplicity
 _atom_site_fract_x
 _atom_site_fract_y
 _atom_site_fract_z
 _atom_site_occupancy
  Ho  Ho0  1  0.498852  0.841753  0.716882  1
  Ho  Ho1  1  0.501385  0.159708  0.217006  1
  Ho  Ho2  1  0.840991  0.497180  0.283505  1
  Ho  Ho3  1  0.157483  0.502570  0.783142  1
  Ho  Ho4  1  0.660752  0.997794  0.967428  1
  Ho  Ho5  1  0.003252  0.338342  0.534802  1
  Ho  Ho6  1  0.999136  0.659355  0.033322  1
  Lu  Lu7  1  0.338848  0.000947  0.466714  1
  Ti  Ti8  1  0.327507  0.326415  0.001338  1
  Ti  Ti9  1  0.172805  0.827662  0.250081  1
  Ti  Ti10  1  0.833400  0.171312  0.747406  1
  Ti  Ti11  1  0.671933  0.671686  0.498794  1
  Ti  Ti12  1  0.157908  0.010369  0.874846  1
  Ti  Ti13  1  0.491987  0.652466  0.126128  1
  Ti  Ti14  1  0.498461  0.341850  0.626671  1
  Ti  Ti15  1  0.656225  0.496731  0.875024  1
  Ti  Ti16  1  0.347951  0.506208  0.373651  1
  Ti  Ti17  1  0.846756  0.992430  0.374845  1
  Ti  Ti18  1  0.008111  0.151961  0.125835  1
  Ti  Ti19  1  0.992885  0.850708  0.619583  1
  Si  Si20  1  0.370687  0.702114  0.934958  1
  Si  Si21  1  0.630642  0.295999  0.433991  1
  Si  Si22  1  0.703616  0.369461  0.066617  1
  Si  Si23  1  0.301207  0.632009  0.563581  1
  Si  Si24  1  0.795972  0.868988  0.182624  1
  Si  Si25  1  0.131358  0.202010  0.316693  1
  Si  Si26  1  0.867936  0.799181  0.815669  1
  Si  Si27  1  0.292528  0.953662  0.065876  1
  Si  Si28  1  0.545229  0.791641  0.315203  1
  Si  Si29  1  0.458100  0.214722  0.817085  1
  Si  Si30  1  0.787224  0.548945  0.685225  1
  Si  Si31  1  0.208174  0.453671  0.185274  1
  Si  Si32  1  0.703826  0.044631  0.561388  1
  Si  Si33  1  0.952912  0.291313  0.937781  1
  Si  Si34  1  0.047379  0.708390  0.433307  1
  Ir  Ir35  1  0.196582  0.125817  0.687724  1
