# generated using pymatgen
data_Rb8Zr6FeCl20
_symmetry_space_group_name_H-M   'P 1'
_cell_length_a   11.59327691
_cell_length_b   11.59327728
_cell_length_c   11.59327600
_cell_angle_alpha   59.99999795
_cell_angle_beta   59.99999688
_cell_angle_gamma   59.99999734
_symmetry_Int_Tables_number   1
_chemical_formula_structural   Rb8Zr6FeCl20
_chemical_formula_sum   'Rb8 Zr6 Fe1 Cl20'
_cell_volume   1101.80207035
_cell_formula_units_Z   1
loop_
 _symmetry_equiv_pos_site_id
 _symmetry_equiv_pos_as_xyz
  1  'x, y, z'
loop_
 _atom_site_type_symbol
 _atom_site_label
 _atom_site_symmetry_multiplicity
 _atom_site_fract_x
 _atom_site_fract_y
 _atom_site_fract_z
 _atom_site_occupancy
  Rb  Rb0  1  0.359371  0.359371  0.359371  1
  Rb  Rb1  1  0.640629  0.640629  0.640629  1
  Rb  Rb2  1  0.359371  0.359371  0.921889  1
  Rb  Rb3  1  0.359371  0.921889  0.359371  1
  Rb  Rb4  1  0.640629  0.640629  0.078111  1
  Rb  Rb5  1  0.640629  0.078111  0.640629  1
  Rb  Rb6  1  0.921889  0.359371  0.359371  1
  Rb  Rb7  1  0.078111  0.640629  0.640629  1
  Zr  Zr8  1  0.853208  0.146792  0.146792  1
  Zr  Zr9  1  0.146792  0.853208  0.853208  1
  Zr  Zr10  1  0.146792  0.853208  0.146792  1
  Zr  Zr11  1  0.853208  0.146792  0.853208  1
  Zr  Zr12  1  0.146792  0.146792  0.853208  1
  Zr  Zr13  1  0.853208  0.853208  0.146792  1
  Fe  Fe14  1  0.000000  0.000000  0.000000  1
  Cl  Cl15  1  0.322949  0.000000  0.000000  1
  Cl  Cl16  1  0.677051  0.000000  0.000000  1
  Cl  Cl17  1  0.000000  0.322949  0.677051  1
  Cl  Cl18  1  0.000000  0.677051  0.322949  1
  Cl  Cl19  1  0.000000  0.322949  0.000000  1
  Cl  Cl20  1  0.677051  0.000000  0.322949  1
  Cl  Cl21  1  0.000000  0.677051  0.000000  1
  Cl  Cl22  1  0.322949  0.000000  0.677051  1
  Cl  Cl23  1  0.000000  0.000000  0.322949  1
  Cl  Cl24  1  0.000000  0.000000  0.677051  1
  Cl  Cl25  1  0.677051  0.322949  0.000000  1
  Cl  Cl26  1  0.322949  0.677051  0.000000  1
  Cl  Cl27  1  0.687921  0.312079  0.312079  1
  Cl  Cl28  1  0.312079  0.687921  0.687921  1
  Cl  Cl29  1  0.312079  0.687921  0.312079  1
  Cl  Cl30  1  0.687921  0.312079  0.687921  1
  Cl  Cl31  1  0.312079  0.312079  0.687921  1
  Cl  Cl32  1  0.687921  0.687921  0.312079  1
  Cl  Cl33  1  0.250000  0.250000  0.250000  1
  Cl  Cl34  1  0.750000  0.750000  0.750000  1
