# generated using pymatgen
data_Y7Tm3(Bi2As)2
_symmetry_space_group_name_H-M   'P 1'
_cell_length_a   12.10750000
_cell_length_b   9.09863052
_cell_length_c   8.06522445
_cell_angle_alpha   89.96146538
_cell_angle_beta   90.00000000
_cell_angle_gamma   90.00000000
_symmetry_Int_Tables_number   1
_chemical_formula_structural   Y7Tm3(Bi2As)2
_chemical_formula_sum   'Y14 Tm6 Bi8 As4'
_cell_volume   888.47838562
_cell_formula_units_Z   2
loop_
 _symmetry_equiv_pos_site_id
 _symmetry_equiv_pos_as_xyz
  1  'x, y, z'
loop_
 _atom_site_type_symbol
 _atom_site_label
 _atom_site_symmetry_multiplicity
 _atom_site_fract_x
 _atom_site_fract_y
 _atom_site_fract_z
 _atom_site_occupancy
  Y  Y0  1  0.563526  0.445668  0.317108  1
  Y  Y1  1  0.063526  0.054332  0.182892  1
  Y  Y2  1  0.711310  0.249611  0.656891  1
  Y  Y3  1  0.211310  0.250389  0.843109  1
  Y  Y4  1  0.288992  0.749956  0.343234  1
  Y  Y5  1  0.788992  0.750044  0.156766  1
  Y  Y6  1  0.500362  0.249688  0.964241  1
  Y  Y7  1  0.000362  0.250312  0.535759  1
  Y  Y8  1  0.499600  0.750159  0.034539  1
  Y  Y9  1  0.999600  0.749841  0.465461  1
  Y  Y10  1  0.794514  0.249653  0.135685  1
  Y  Y11  1  0.294514  0.250347  0.364315  1
  Y  Y12  1  0.205622  0.750013  0.863863  1
  Y  Y13  1  0.705622  0.749987  0.636137  1
  Tm  Tm14  1  0.563509  0.055660  0.317951  1
  Tm  Tm15  1  0.063509  0.444340  0.182049  1
  Tm  Tm16  1  0.436398  0.556400  0.682545  1
  Tm  Tm17  1  0.936398  0.943600  0.817455  1
  Tm  Tm18  1  0.436602  0.943790  0.682288  1
  Tm  Tm19  1  0.936602  0.556210  0.817712  1
  Bi  Bi20  1  0.826266  0.009751  0.426962  1
  Bi  Bi21  1  0.326266  0.490249  0.073038  1
  Bi  Bi22  1  0.173489  0.509744  0.573165  1
  Bi  Bi23  1  0.673489  0.990256  0.926835  1
  Bi  Bi24  1  0.173603  0.990506  0.573276  1
  Bi  Bi25  1  0.673603  0.509494  0.926724  1
  Bi  Bi26  1  0.826849  0.490292  0.427342  1
  Bi  Bi27  1  0.326849  0.009708  0.072658  1
  As  As28  1  0.980039  0.251058  0.914138  1
  As  As29  1  0.480039  0.248942  0.585862  1
  As  As30  1  0.019319  0.747947  0.083878  1
  As  As31  1  0.519319  0.752053  0.416122  1
