# generated using pymatgen
data_Yb3Al2GaGe2Pt
_symmetry_space_group_name_H-M   'P 1'
_cell_length_a   6.96999800
_cell_length_b   6.95135446
_cell_length_c   4.31260200
_cell_angle_alpha   90.00000000
_cell_angle_beta   90.00000000
_cell_angle_gamma   120.08875959
_symmetry_Int_Tables_number   1
_chemical_formula_structural   Yb3Al2GaGe2Pt
_chemical_formula_sum   'Yb3 Al2 Ga1 Ge2 Pt1'
_cell_volume   180.79356618
_cell_formula_units_Z   1
loop_
 _symmetry_equiv_pos_site_id
 _symmetry_equiv_pos_as_xyz
  1  'x, y, z'
loop_
 _atom_site_type_symbol
 _atom_site_label
 _atom_site_symmetry_multiplicity
 _atom_site_fract_x
 _atom_site_fract_y
 _atom_site_fract_z
 _atom_site_occupancy
  Yb  Yb0  1  0.427835  0.000000  0.000000  1
  Yb  Yb1  1  0.997343  0.420457  0.000000  1
  Yb  Yb2  1  0.576886  0.579543  0.000000  1
  Al  Al3  1  0.231911  0.229387  0.500000  1
  Al  Al4  1  0.002525  0.770613  0.500000  1
  Ga  Ga5  1  0.763066  0.000000  0.500000  1
  Ge  Ge6  1  0.665820  0.337828  0.500000  1
  Ge  Ge7  1  0.327993  0.662172  0.500000  1
  Pt  Pt8  1  0.006620  0.000000  0.000000  1
