# generated using pymatgen
data_Lu10GaSiPb4
_symmetry_space_group_name_H-M   'P 1'
_cell_length_a   6.43757303
_cell_length_b   8.64435889
_cell_length_c   8.70709395
_cell_angle_alpha   119.76193823
_cell_angle_beta   90.00436554
_cell_angle_gamma   89.99119149
_symmetry_Int_Tables_number   1
_chemical_formula_structural   Lu10GaSiPb4
_chemical_formula_sum   'Lu10 Ga1 Si1 Pb4'
_cell_volume   420.62554099
_cell_formula_units_Z   1
loop_
 _symmetry_equiv_pos_site_id
 _symmetry_equiv_pos_as_xyz
  1  'x, y, z'
loop_
 _atom_site_type_symbol
 _atom_site_label
 _atom_site_symmetry_multiplicity
 _atom_site_fract_x
 _atom_site_fract_y
 _atom_site_fract_z
 _atom_site_occupancy
  Lu  Lu0  1  0.749944  0.241197  0.000000  1
  Lu  Lu1  1  0.750085  0.759979  0.773475  1
  Lu  Lu2  1  0.750085  0.986505  0.226525  1
  Lu  Lu3  1  0.250202  0.758623  0.000000  1
  Lu  Lu4  1  0.250039  0.241060  0.226327  1
  Lu  Lu5  1  0.250039  0.014732  0.773673  1
  Lu  Lu6  1  0.499917  0.346755  0.694625  1
  Lu  Lu7  1  0.499917  0.652131  0.305375  1
  Lu  Lu8  1  0.000241  0.651942  0.304980  1
  Lu  Lu9  1  0.000241  0.346962  0.695020  1
  Ga  Ga10  1  0.749350  0.601681  0.000000  1
  Si  Si11  1  0.250303  0.397355  0.000000  1
  Pb  Pb12  1  0.749970  0.392832  0.399379  1
  Pb  Pb13  1  0.749970  0.993454  0.600621  1
  Pb  Pb14  1  0.249848  0.607901  0.601011  1
  Pb  Pb15  1  0.249848  0.006889  0.398989  1
