# generated using pymatgen
data_Ca7Nd8Y5Sn16
_symmetry_space_group_name_H-M   'P 1'
_cell_length_a   8.01549781
_cell_length_b   8.44825829
_cell_length_c   15.93853600
_cell_angle_alpha   89.99416751
_cell_angle_beta   90.06275340
_cell_angle_gamma   89.92494364
_symmetry_Int_Tables_number   1
_chemical_formula_structural   Ca7Nd8Y5Sn16
_chemical_formula_sum   'Ca7 Nd8 Y5 Sn16'
_cell_volume   1079.30819670
_cell_formula_units_Z   1
loop_
 _symmetry_equiv_pos_site_id
 _symmetry_equiv_pos_as_xyz
  1  'x, y, z'
loop_
 _atom_site_type_symbol
 _atom_site_label
 _atom_site_symmetry_multiplicity
 _atom_site_fract_x
 _atom_site_fract_y
 _atom_site_fract_z
 _atom_site_occupancy
  Ca  Ca0  1  0.330724  0.829471  0.878023  1
  Ca  Ca1  1  0.831796  0.670455  0.622587  1
  Ca  Ca2  1  0.669867  0.169098  0.376829  1
  Ca  Ca3  1  0.163408  0.500111  0.749662  1
  Ca  Ca4  1  0.662622  0.001103  0.750668  1
  Ca  Ca5  1  0.835684  0.500483  0.250421  1
  Ca  Ca6  1  0.336830  0.996611  0.251100  1
  Nd  Nd7  1  0.491514  0.317400  0.905519  1
  Nd  Nd8  1  0.991306  0.184820  0.595340  1
  Nd  Nd9  1  0.509189  0.682664  0.404198  1
  Nd  Nd10  1  0.007613  0.817517  0.094867  1
  Nd  Nd11  1  0.507552  0.682329  0.095753  1
  Nd  Nd12  1  0.006273  0.817834  0.404152  1
  Nd  Nd13  1  0.492883  0.317549  0.594772  1
  Nd  Nd14  1  0.991408  0.183858  0.904181  1
  Y  Y15  1  0.166770  0.326989  0.124004  1
  Y  Y16  1  0.666933  0.171341  0.124112  1
  Y  Y17  1  0.166993  0.328044  0.374975  1
  Y  Y18  1  0.334427  0.828180  0.624209  1
  Y  Y19  1  0.833863  0.673564  0.875874  1
  Sn  Sn20  1  0.328389  0.038634  0.040697  1
  Sn  Sn21  1  0.832940  0.463326  0.459967  1
  Sn  Sn22  1  0.668352  0.963895  0.540542  1
  Sn  Sn23  1  0.169675  0.535002  0.962369  1
  Sn  Sn24  1  0.677556  0.961872  0.963572  1
  Sn  Sn25  1  0.178123  0.539130  0.536200  1
  Sn  Sn26  1  0.322938  0.037820  0.463279  1
  Sn  Sn27  1  0.825558  0.460569  0.037212  1
  Sn  Sn28  1  0.533320  0.610217  0.751557  1
  Sn  Sn29  1  0.033051  0.891988  0.748215  1
  Sn  Sn30  1  0.466458  0.390160  0.248848  1
  Sn  Sn31  1  0.969451  0.112711  0.248136  1
  Sn  Sn32  1  0.289356  0.139019  0.748973  1
  Sn  Sn33  1  0.789449  0.361633  0.751561  1
  Sn  Sn34  1  0.709719  0.859788  0.248199  1
  Sn  Sn35  1  0.208008  0.634813  0.249424  1
