# generated using pymatgen
data_NdY2Th(Ga3Rh)6
_symmetry_space_group_name_H-M   'P 1'
_cell_length_a   7.63510856
_cell_length_b   7.64015148
_cell_length_c   9.55493000
_cell_angle_alpha   90.00000000
_cell_angle_beta   90.00000000
_cell_angle_gamma   119.73555958
_symmetry_Int_Tables_number   1
_chemical_formula_structural   NdY2Th(Ga3Rh)6
_chemical_formula_sum   'Nd1 Y2 Th1 Ga18 Rh6'
_cell_volume   483.97889690
_cell_formula_units_Z   1
loop_
 _symmetry_equiv_pos_site_id
 _symmetry_equiv_pos_as_xyz
  1  'x, y, z'
loop_
 _atom_site_type_symbol
 _atom_site_label
 _atom_site_symmetry_multiplicity
 _atom_site_fract_x
 _atom_site_fract_y
 _atom_site_fract_z
 _atom_site_occupancy
  Nd  Nd0  1  0.668778  0.997458  0.250000  1
  Y  Y1  1  0.001975  0.332041  0.750000  1
  Y  Y2  1  0.331749  0.001765  0.750000  1
  Th  Th3  1  0.997632  0.668146  0.250000  1
  Ga  Ga4  1  0.331981  0.331896  0.564718  1
  Ga  Ga5  1  0.663187  0.667057  0.440697  1
  Ga  Ga6  1  0.663187  0.667057  0.059303  1
  Ga  Ga7  1  0.331981  0.331896  0.935282  1
  Ga  Ga8  1  0.341376  0.545309  0.250000  1
  Ga  Ga9  1  0.659607  0.451701  0.750000  1
  Ga  Ga10  1  0.542381  0.337234  0.250000  1
  Ga  Ga11  1  0.452461  0.660848  0.750000  1
  Ga  Ga12  1  0.001162  0.329990  0.076208  1
  Ga  Ga13  1  0.999251  0.665379  0.915513  1
  Ga  Ga14  1  0.999251  0.665379  0.584487  1
  Ga  Ga15  1  0.338561  0.005181  0.423573  1
  Ga  Ga16  1  0.001162  0.329990  0.423792  1
  Ga  Ga17  1  0.665522  0.000111  0.580672  1
  Ga  Ga18  1  0.665522  0.000111  0.919328  1
  Ga  Ga19  1  0.338561  0.005181  0.076427  1
  Ga  Ga20  1  0.126978  0.128480  0.250000  1
  Ga  Ga21  1  0.877510  0.878695  0.750000  1
  Rh  Rh22  1  0.000937  0.997973  0.000432  1
  Rh  Rh23  1  0.000937  0.997973  0.499568  1
  Rh  Rh24  1  0.673219  0.331291  0.000333  1
  Rh  Rh25  1  0.325956  0.670285  0.000356  1
  Rh  Rh26  1  0.325956  0.670285  0.499644  1
  Rh  Rh27  1  0.673219  0.331291  0.499667  1
