# generated using pymatgen
data_Ho2Tm6V(B8Rh)3
_symmetry_space_group_name_H-M   'P 1'
_cell_length_a   3.61003600
_cell_length_b   9.11782475
_cell_length_c   11.48392121
_cell_angle_alpha   90.22099740
_cell_angle_beta   90.00000000
_cell_angle_gamma   90.00000000
_symmetry_Int_Tables_number   1
_chemical_formula_structural   Ho2Tm6V(B8Rh)3
_chemical_formula_sum   'Ho2 Tm6 V1 B24 Rh3'
_cell_volume   377.99821324
_cell_formula_units_Z   1
loop_
 _symmetry_equiv_pos_site_id
 _symmetry_equiv_pos_as_xyz
  1  'x, y, z'
loop_
 _atom_site_type_symbol
 _atom_site_label
 _atom_site_symmetry_multiplicity
 _atom_site_fract_x
 _atom_site_fract_y
 _atom_site_fract_z
 _atom_site_occupancy
  Ho  Ho0  1  0.500000  0.318767  0.410501  1
  Ho  Ho1  1  0.500000  0.676864  0.584906  1
  Tm  Tm2  1  0.500000  0.177797  0.917886  1
  Tm  Tm3  1  0.500000  0.825076  0.087345  1
  Tm  Tm4  1  0.500000  0.443343  0.125675  1
  Tm  Tm5  1  0.500000  0.556995  0.872800  1
  Tm  Tm6  1  0.500000  0.055687  0.628774  1
  Tm  Tm7  1  0.500000  0.946495  0.372371  1
  V  V8  1  0.500000  0.138491  0.178550  1
  B  B9  1  0.000000  0.106822  0.472160  1
  B  B10  1  0.000000  0.892826  0.529871  1
  B  B11  1  0.000000  0.394163  0.969507  1
  B  B12  1  0.000000  0.608655  0.029068  1
  B  B13  1  0.000000  0.132053  0.315661  1
  B  B14  1  0.000000  0.867048  0.683964  1
  B  B15  1  0.000000  0.367394  0.817000  1
  B  B16  1  0.000000  0.633196  0.183632  1
  B  B17  1  0.000000  0.051687  0.065392  1
  B  B18  1  0.000000  0.947493  0.933973  1
  B  B19  1  0.000000  0.445728  0.565807  1
  B  B20  1  0.000000  0.552915  0.433239  1
  B  B21  1  0.000000  0.482282  0.286774  1
  B  B22  1  0.000000  0.517476  0.712338  1
  B  B23  1  0.000000  0.017919  0.788037  1
  B  B24  1  0.000000  0.981174  0.212873  1
  B  B25  1  0.000000  0.249640  0.079248  1
  B  B26  1  0.000000  0.751317  0.920382  1
  B  B27  1  0.000000  0.249816  0.579634  1
  B  B28  1  0.000000  0.749939  0.420082  1
  B  B29  1  0.000000  0.294391  0.235083  1
  B  B30  1  0.000000  0.705890  0.764448  1
  B  B31  1  0.000000  0.206810  0.736640  1
  B  B32  1  0.000000  0.793529  0.265169  1
  Rh  Rh33  1  0.500000  0.860454  0.820573  1
  Rh  Rh34  1  0.500000  0.360466  0.680165  1
  Rh  Rh35  1  0.500000  0.639402  0.320468  1
