# generated using pymatgen
data_Cr3Ni2N
_symmetry_space_group_name_H-M   'P 1'
_cell_length_a   6.23652400
_cell_length_b   6.23652400
_cell_length_c   6.23652400
_cell_angle_alpha   90.00000000
_cell_angle_beta   90.00000000
_cell_angle_gamma   90.00000000
_symmetry_Int_Tables_number   1
_chemical_formula_structural   Cr3Ni2N
_chemical_formula_sum   'Cr12 Ni8 N4'
_cell_volume   242.56480885
_cell_formula_units_Z   4
loop_
 _symmetry_equiv_pos_site_id
 _symmetry_equiv_pos_as_xyz
  1  'x, y, z'
loop_
 _atom_site_type_symbol
 _atom_site_label
 _atom_site_symmetry_multiplicity
 _atom_site_fract_x
 _atom_site_fract_y
 _atom_site_fract_z
 _atom_site_occupancy
  Cr  Cr0  1  0.201910  0.451910  0.125000  1
  Cr  Cr1  1  0.451910  0.125000  0.201910  1
  Cr  Cr2  1  0.951910  0.375000  0.798090  1
  Cr  Cr3  1  0.875000  0.701910  0.048090  1
  Cr  Cr4  1  0.125000  0.201910  0.451910  1
  Cr  Cr5  1  0.798090  0.951910  0.375000  1
  Cr  Cr6  1  0.701910  0.048090  0.875000  1
  Cr  Cr7  1  0.048090  0.875000  0.701910  1
  Cr  Cr8  1  0.625000  0.298090  0.548090  1
  Cr  Cr9  1  0.548090  0.625000  0.298090  1
  Cr  Cr10  1  0.375000  0.798090  0.951910  1
  Cr  Cr11  1  0.298090  0.548090  0.625000  1
  Ni  Ni12  1  0.065103  0.065103  0.065103  1
  Ni  Ni13  1  0.315103  0.184897  0.815103  1
  Ni  Ni14  1  0.815103  0.315103  0.184897  1
  Ni  Ni15  1  0.184897  0.815103  0.315103  1
  Ni  Ni16  1  0.434897  0.934897  0.565103  1
  Ni  Ni17  1  0.565103  0.434897  0.934897  1
  Ni  Ni18  1  0.934897  0.565103  0.434897  1
  Ni  Ni19  1  0.684897  0.684897  0.684897  1
  N  N20  1  0.375000  0.375000  0.375000  1
  N  N21  1  0.625000  0.875000  0.125000  1
  N  N22  1  0.125000  0.625000  0.875000  1
  N  N23  1  0.875000  0.125000  0.625000  1
