# generated using pymatgen
data_Lu10GaSnSb4
_symmetry_space_group_name_H-M   'P 1'
_cell_length_a   8.72118908
_cell_length_b   8.71356613
_cell_length_c   6.27645800
_cell_angle_alpha   90.00000000
_cell_angle_beta   90.00000000
_cell_angle_gamma   119.97110792
_symmetry_Int_Tables_number   1
_chemical_formula_structural   Lu10GaSnSb4
_chemical_formula_sum   'Lu10 Ga1 Sn1 Sb4'
_cell_volume   413.18377343
_cell_formula_units_Z   1
loop_
 _symmetry_equiv_pos_site_id
 _symmetry_equiv_pos_as_xyz
  1  'x, y, z'
loop_
 _atom_site_type_symbol
 _atom_site_label
 _atom_site_symmetry_multiplicity
 _atom_site_fract_x
 _atom_site_fract_y
 _atom_site_fract_z
 _atom_site_occupancy
  Lu  Lu0  1  0.676261  0.335410  0.002532  1
  Lu  Lu1  1  0.323739  0.659150  0.002532  1
  Lu  Lu2  1  0.323739  0.659150  0.497468  1
  Lu  Lu3  1  0.676261  0.335410  0.497468  1
  Lu  Lu4  1  0.761920  0.759240  0.750000  1
  Lu  Lu5  1  0.238080  0.997321  0.750000  1
  Lu  Lu6  1  0.000000  0.239239  0.750000  1
  Lu  Lu7  1  0.231244  0.244492  0.250000  1
  Lu  Lu8  1  0.768756  0.013249  0.250000  1
  Lu  Lu9  1  0.000000  0.755102  0.250000  1
  Ga  Ga10  1  0.000000  0.397120  0.250000  1
  Sn  Sn11  1  0.000000  0.604239  0.750000  1
  Sb  Sb12  1  0.395823  0.391722  0.750000  1
  Sb  Sb13  1  0.604177  0.995897  0.750000  1
  Sb  Sb14  1  0.607779  0.610519  0.250000  1
  Sb  Sb15  1  0.392221  0.002740  0.250000  1
