# generated using pymatgen
data_Er20Ir6Pt5Au
_symmetry_space_group_name_H-M   'P 1'
_cell_length_a   10.98260892
_cell_length_b   10.97917688
_cell_length_c   6.32961962
_cell_angle_alpha   89.95095918
_cell_angle_beta   89.99839755
_cell_angle_gamma   89.88154319
_symmetry_Int_Tables_number   1
_chemical_formula_structural   Er20Ir6Pt5Au
_chemical_formula_sum   'Er20 Ir6 Pt5 Au1'
_cell_volume   763.22365981
_cell_formula_units_Z   1
loop_
 _symmetry_equiv_pos_site_id
 _symmetry_equiv_pos_as_xyz
  1  'x, y, z'
loop_
 _atom_site_type_symbol
 _atom_site_label
 _atom_site_symmetry_multiplicity
 _atom_site_fract_x
 _atom_site_fract_y
 _atom_site_fract_z
 _atom_site_occupancy
  Er  Er0  1  0.294885  0.090278  0.374137  1
  Er  Er1  1  0.296633  0.909085  0.874201  1
  Er  Er2  1  0.700173  0.084857  0.865266  1
  Er  Er3  1  0.701413  0.908970  0.374588  1
  Er  Er4  1  0.582914  0.792678  0.874824  1
  Er  Er5  1  0.578162  0.208032  0.373908  1
  Er  Er6  1  0.409963  0.793595  0.379292  1
  Er  Er7  1  0.409575  0.206088  0.879362  1
  Er  Er8  1  0.209203  0.414752  0.621575  1
  Er  Er9  1  0.209356  0.586305  0.122474  1
  Er  Er10  1  0.795344  0.417871  0.123961  1
  Er  Er11  1  0.796182  0.588583  0.623898  1
  Er  Er12  1  0.914494  0.704716  0.126761  1
  Er  Er13  1  0.916429  0.299037  0.634163  1
  Er  Er14  1  0.092109  0.702743  0.626323  1
  Er  Er15  1  0.095363  0.298000  0.124521  1
  Er  Er16  1  0.002273  0.996106  0.501448  1
  Er  Er17  1  0.002752  0.997821  0.998203  1
  Er  Er18  1  0.496999  0.498817  0.999599  1
  Er  Er19  1  0.497306  0.501706  0.500427  1
  Ir  Ir20  1  0.347653  0.345105  0.251420  1
  Ir  Ir21  1  0.346693  0.654679  0.750767  1
  Ir  Ir22  1  0.500111  0.000089  0.120568  1
  Ir  Ir23  1  0.499325  0.999856  0.618367  1
  Ir  Ir24  1  0.999964  0.500751  0.881501  1
  Ir  Ir25  1  0.999628  0.499521  0.379368  1
  Pt  Pt26  1  0.845809  0.846766  0.750495  1
  Pt  Pt27  1  0.152507  0.153386  0.749454  1
  Pt  Pt28  1  0.153245  0.845785  0.249411  1
  Pt  Pt29  1  0.654475  0.346206  0.749779  1
  Pt  Pt30  1  0.654443  0.653213  0.249457  1
  Au  Au31  1  0.844620  0.154602  0.250479  1
