# generated using pymatgen
data_Tb3Sm(SbSe)4
_symmetry_space_group_name_H-M   'P 1'
_cell_length_a   4.16857700
_cell_length_b   4.17057224
_cell_length_c   17.96671705
_cell_angle_alpha   90.03915503
_cell_angle_beta   90.00000000
_cell_angle_gamma   90.00000000
_symmetry_Int_Tables_number   1
_chemical_formula_structural   Tb3Sm(SbSe)4
_chemical_formula_sum   'Tb3 Sm1 Sb4 Se4'
_cell_volume   312.35761881
_cell_formula_units_Z   1
loop_
 _symmetry_equiv_pos_site_id
 _symmetry_equiv_pos_as_xyz
  1  'x, y, z'
loop_
 _atom_site_type_symbol
 _atom_site_label
 _atom_site_symmetry_multiplicity
 _atom_site_fract_x
 _atom_site_fract_y
 _atom_site_fract_z
 _atom_site_occupancy
  Tb  Tb0  1  0.750000  0.261782  0.352360  1
  Tb  Tb1  1  0.250000  0.761747  0.148325  1
  Tb  Tb2  1  0.250000  0.738035  0.647349  1
  Sm  Sm3  1  0.750000  0.238910  0.852694  1
  Sb  Sb4  1  0.250000  0.248890  0.499966  1
  Sb  Sb5  1  0.250000  0.251005  0.001499  1
  Sb  Sb6  1  0.750000  0.751076  0.499586  1
  Sb  Sb7  1  0.750000  0.748382  0.001233  1
  Se  Se8  1  0.750000  0.236586  0.685182  1
  Se  Se9  1  0.750000  0.263331  0.187407  1
  Se  Se10  1  0.250000  0.763354  0.312635  1
  Se  Se11  1  0.250000  0.736902  0.811766  1
