# generated using pymatgen
data_NaMo2As3O13
_symmetry_space_group_name_H-M   'P 1'
_cell_length_a   6.67955027
_cell_length_b   8.00984991
_cell_length_c   11.65081742
_cell_angle_alpha   75.61987041
_cell_angle_beta   83.99030340
_cell_angle_gamma   78.40594505
_symmetry_Int_Tables_number   1
_chemical_formula_structural   NaMo2As3O13
_chemical_formula_sum   'Na2 Mo4 As6 O26'
_cell_volume   590.50776641
_cell_formula_units_Z   2
loop_
 _symmetry_equiv_pos_site_id
 _symmetry_equiv_pos_as_xyz
  1  'x, y, z'
loop_
 _atom_site_type_symbol
 _atom_site_label
 _atom_site_symmetry_multiplicity
 _atom_site_fract_x
 _atom_site_fract_y
 _atom_site_fract_z
 _atom_site_occupancy
  Na  Na0  1  0.299996  0.571270  0.790709  1
  Na  Na1  1  0.700004  0.428730  0.209291  1
  Mo  Mo2  1  0.787328  0.795194  0.907579  1
  Mo  Mo3  1  0.242466  0.197620  0.594794  1
  Mo  Mo4  1  0.212672  0.204806  0.092421  1
  Mo  Mo5  1  0.757534  0.802380  0.405206  1
  As  As6  1  0.881757  0.533597  0.686041  1
  As  As7  1  0.265899  0.936835  0.889166  1
  As  As8  1  0.737963  0.202093  0.666590  1
  As  As9  1  0.262037  0.797907  0.333410  1
  As  As10  1  0.118243  0.466403  0.313959  1
  As  As11  1  0.734101  0.063165  0.110834  1
  O  O12  1  0.872055  0.546040  0.352235  1
  O  O13  1  0.062579  0.768651  0.436715  1
  O  O14  1  0.264238  0.637164  0.247736  1
  O  O15  1  0.508796  0.202302  0.136611  1
  O  O16  1  0.271522  0.984930  0.023942  1
  O  O17  1  0.096977  0.797084  0.895256  1
  O  O18  1  0.484163  0.725991  0.403394  1
  O  O19  1  0.308714  0.984941  0.583715  1
  O  O20  1  0.211496  0.126534  0.781393  1
  O  O21  1  0.727532  0.667717  0.579673  1
  O  O22  1  0.903023  0.202916  0.104744  1
  O  O23  1  0.491204  0.797698  0.863389  1
  O  O24  1  0.272468  0.332283  0.420327  1
  O  O25  1  0.102096  0.377158  0.198164  1
  O  O26  1  0.231684  0.004022  0.251876  1
  O  O27  1  0.937421  0.231349  0.563285  1
  O  O28  1  0.762570  0.646552  0.040809  1
  O  O29  1  0.735762  0.362836  0.752264  1
  O  O30  1  0.788504  0.873466  0.218607  1
  O  O31  1  0.768316  0.995978  0.748124  1
  O  O32  1  0.237430  0.353448  0.959191  1
  O  O33  1  0.127945  0.453960  0.647765  1
  O  O34  1  0.515837  0.274009  0.596606  1
  O  O35  1  0.897904  0.622842  0.801836  1
  O  O36  1  0.691286  0.015059  0.416285  1
  O  O37  1  0.728478  0.015070  0.976058  1
