# generated using pymatgen
data_CeNp5(Sb4Pt3)2
_symmetry_space_group_name_H-M   'P 1'
_cell_length_a   8.45512749
_cell_length_b   8.46254813
_cell_length_c   8.45709500
_cell_angle_alpha   109.63731135
_cell_angle_beta   109.42601150
_cell_angle_gamma   109.34195263
_symmetry_Int_Tables_number   1
_chemical_formula_structural   CeNp5(Sb4Pt3)2
_chemical_formula_sum   'Ce1 Np5 Sb8 Pt6'
_cell_volume   465.86842134
_cell_formula_units_Z   1
loop_
 _symmetry_equiv_pos_site_id
 _symmetry_equiv_pos_as_xyz
  1  'x, y, z'
loop_
 _atom_site_type_symbol
 _atom_site_label
 _atom_site_symmetry_multiplicity
 _atom_site_fract_x
 _atom_site_fract_y
 _atom_site_fract_z
 _atom_site_occupancy
  Ce  Ce0  1  0.875037  0.249751  0.125009  1
  Np  Np1  1  0.628632  0.753703  0.378861  1
  Np  Np2  1  0.249396  0.123720  0.873773  1
  Np  Np3  1  0.748596  0.375513  0.622529  1
  Np  Np4  1  0.124352  0.872603  0.246918  1
  Np  Np5  1  0.373957  0.626333  0.751540  1
  Sb  Sb6  1  0.676377  0.501060  0.000306  1
  Sb  Sb7  1  0.498128  0.998408  0.673444  1
  Sb  Sb8  1  0.001151  0.676368  0.500138  1
  Sb  Sb9  1  0.821935  0.822462  0.823360  1
  Sb  Sb10  1  0.500220  0.000998  0.176074  1
  Sb  Sb11  1  0.174305  0.498205  0.998651  1
  Sb  Sb12  1  0.001116  0.175183  0.500579  1
  Sb  Sb13  1  0.326187  0.324566  0.325921  1
  Pt  Pt14  1  0.374766  0.249476  0.623972  1
  Pt  Pt15  1  0.126537  0.750430  0.876763  1
  Pt  Pt16  1  0.253527  0.626310  0.375777  1
  Pt  Pt17  1  0.748365  0.873968  0.126826  1
  Pt  Pt18  1  0.624870  0.377480  0.251955  1
  Pt  Pt19  1  0.872547  0.123460  0.747601  1
