# generated using pymatgen
data_Yb3Lu(GaOs3)2
_symmetry_space_group_name_H-M   'P 1'
_cell_length_a   5.31146110
_cell_length_b   5.34124437
_cell_length_c   8.73176304
_cell_angle_alpha   90.00000310
_cell_angle_beta   89.89449357
_cell_angle_gamma   120.18564107
_symmetry_Int_Tables_number   1
_chemical_formula_structural   Yb3Lu(GaOs3)2
_chemical_formula_sum   'Yb3 Lu1 Ga2 Os6'
_cell_volume   214.12756987
_cell_formula_units_Z   1
loop_
 _symmetry_equiv_pos_site_id
 _symmetry_equiv_pos_as_xyz
  1  'x, y, z'
loop_
 _atom_site_type_symbol
 _atom_site_label
 _atom_site_symmetry_multiplicity
 _atom_site_fract_x
 _atom_site_fract_y
 _atom_site_fract_z
 _atom_site_occupancy
  Yb  Yb0  1  0.325966  0.662984  0.437845  1
  Yb  Yb1  1  0.658395  0.329197  0.554984  1
  Yb  Yb2  1  0.661311  0.330655  0.939794  1
  Lu  Lu3  1  0.328314  0.664157  0.074281  1
  Ga  Ga4  1  0.191333  0.348596  0.750952  1
  Ga  Ga5  1  0.191333  0.842738  0.750952  1
  Os  Os6  1  0.350434  0.175217  0.247075  1
  Os  Os7  1  0.832062  0.662762  0.248576  1
  Os  Os8  1  0.678014  0.839007  0.749606  1
  Os  Os9  1  0.977211  0.988606  0.994753  1
  Os  Os10  1  0.832062  0.169300  0.248576  1
  Os  Os11  1  0.973566  0.986783  0.502606  1
