# generated using pymatgen
data_Al3CoCu
_symmetry_space_group_name_H-M   'P 1'
_cell_length_a   4.07521900
_cell_length_b   4.07521996
_cell_length_c   4.94452600
_cell_angle_alpha   90.00000000
_cell_angle_beta   90.00000000
_cell_angle_gamma   120.00000032
_symmetry_Int_Tables_number   1
_chemical_formula_structural   Al3CoCu
_chemical_formula_sum   'Al3 Co1 Cu1'
_cell_volume   71.11435942
_cell_formula_units_Z   1
loop_
 _symmetry_equiv_pos_site_id
 _symmetry_equiv_pos_as_xyz
  1  'x, y, z'
loop_
 _atom_site_type_symbol
 _atom_site_label
 _atom_site_symmetry_multiplicity
 _atom_site_fract_x
 _atom_site_fract_y
 _atom_site_fract_z
 _atom_site_occupancy
  Al  Al0  1  0.000000  0.000000  0.955659  1
  Al  Al1  1  0.333333  0.666667  0.367275  1
  Al  Al2  1  0.666667  0.333333  0.657187  1
  Co  Co3  1  0.333333  0.666667  0.865799  1
  Cu  Cu4  1  0.666667  0.333333  0.154081  1
