# generated using pymatgen
data_Pr3Y2(Sn5Ir2)2
_symmetry_space_group_name_H-M   'P 1'
_cell_length_a   14.14466000
_cell_length_b   14.14466000
_cell_length_c   4.64434000
_cell_angle_alpha   90.00000000
_cell_angle_beta   90.00000000
_cell_angle_gamma   90.00000000
_symmetry_Int_Tables_number   1
_chemical_formula_structural   Pr3Y2(Sn5Ir2)2
_chemical_formula_sum   'Pr6 Y4 Sn20 Ir8'
_cell_volume   929.19963614
_cell_formula_units_Z   2
loop_
 _symmetry_equiv_pos_site_id
 _symmetry_equiv_pos_as_xyz
  1  'x, y, z'
loop_
 _atom_site_type_symbol
 _atom_site_label
 _atom_site_symmetry_multiplicity
 _atom_site_fract_x
 _atom_site_fract_y
 _atom_site_fract_z
 _atom_site_occupancy
  Pr  Pr0  1  0.500000  0.500000  0.000000  1
  Pr  Pr1  1  0.000000  0.000000  0.000000  1
  Pr  Pr2  1  0.887143  0.387143  0.500000  1
  Pr  Pr3  1  0.112857  0.612857  0.500000  1
  Pr  Pr4  1  0.387143  0.112857  0.500000  1
  Pr  Pr5  1  0.612857  0.887143  0.500000  1
  Y  Y6  1  0.676097  0.176097  0.500000  1
  Y  Y7  1  0.323903  0.823903  0.500000  1
  Y  Y8  1  0.176097  0.323903  0.500000  1
  Y  Y9  1  0.823903  0.676097  0.500000  1
  Sn  Sn10  1  0.570005  0.070005  0.000000  1
  Sn  Sn11  1  0.429995  0.929995  0.000000  1
  Sn  Sn12  1  0.070005  0.429995  0.000000  1
  Sn  Sn13  1  0.929995  0.570005  0.000000  1
  Sn  Sn14  1  0.655615  0.698577  0.000000  1
  Sn  Sn15  1  0.344385  0.301423  0.000000  1
  Sn  Sn16  1  0.155615  0.801423  0.000000  1
  Sn  Sn17  1  0.844385  0.198577  0.000000  1
  Sn  Sn18  1  0.301423  0.655615  0.000000  1
  Sn  Sn19  1  0.698577  0.344385  0.000000  1
  Sn  Sn20  1  0.198577  0.155615  0.000000  1
  Sn  Sn21  1  0.801423  0.844385  0.000000  1
  Sn  Sn22  1  0.663299  0.505934  0.500000  1
  Sn  Sn23  1  0.336701  0.494066  0.500000  1
  Sn  Sn24  1  0.163299  0.994066  0.500000  1
  Sn  Sn25  1  0.836701  0.005934  0.500000  1
  Sn  Sn26  1  0.494066  0.663299  0.500000  1
  Sn  Sn27  1  0.505934  0.336701  0.500000  1
  Sn  Sn28  1  0.005934  0.163299  0.500000  1
  Sn  Sn29  1  0.994066  0.836701  0.500000  1
  Ir  Ir30  1  0.747006  0.528986  0.000000  1
  Ir  Ir31  1  0.252994  0.471014  0.000000  1
  Ir  Ir32  1  0.247006  0.971014  0.000000  1
  Ir  Ir33  1  0.752994  0.028986  0.000000  1
  Ir  Ir34  1  0.471014  0.747006  0.000000  1
  Ir  Ir35  1  0.528986  0.252994  0.000000  1
  Ir  Ir36  1  0.028986  0.247006  0.000000  1
  Ir  Ir37  1  0.971014  0.752994  0.000000  1
