# generated using pymatgen
data_La7Er13Pt16
_symmetry_space_group_name_H-M   'P 1'
_cell_length_a   7.58253529
_cell_length_b   7.67650895
_cell_length_c   14.79705200
_cell_angle_alpha   89.99711898
_cell_angle_beta   89.96663145
_cell_angle_gamma   89.94984918
_symmetry_Int_Tables_number   1
_chemical_formula_structural   La7Er13Pt16
_chemical_formula_sum   'La7 Er13 Pt16'
_cell_volume   861.29744732
_cell_formula_units_Z   1
loop_
 _symmetry_equiv_pos_site_id
 _symmetry_equiv_pos_as_xyz
  1  'x, y, z'
loop_
 _atom_site_type_symbol
 _atom_site_label
 _atom_site_symmetry_multiplicity
 _atom_site_fract_x
 _atom_site_fract_y
 _atom_site_fract_z
 _atom_site_occupancy
  La  La0  1  0.498882  0.676959  0.095260  1
  La  La1  1  0.501093  0.322974  0.594496  1
  La  La2  1  0.000871  0.177801  0.905805  1
  La  La3  1  0.000330  0.174356  0.592767  1
  La  La4  1  0.500899  0.323104  0.905348  1
  La  La5  1  0.498912  0.678985  0.406251  1
  La  La6  1  0.999740  0.822788  0.094868  1
  Er  Er7  1  0.681019  0.992104  0.251918  1
  Er  Er8  1  0.179284  0.509009  0.251538  1
  Er  Er9  1  0.820797  0.492327  0.749365  1
  Er  Er10  1  0.320229  0.007490  0.749717  1
  Er  Er11  1  0.657510  0.832750  0.623387  1
  Er  Er12  1  0.157237  0.667361  0.875433  1
  Er  Er13  1  0.843480  0.332248  0.376121  1
  Er  Er14  1  0.342411  0.167626  0.125291  1
  Er  Er15  1  0.339972  0.165575  0.376899  1
  Er  Er16  1  0.843489  0.331697  0.125430  1
  Er  Er17  1  0.154493  0.669633  0.622203  1
  Er  Er18  1  0.656858  0.832224  0.875747  1
  Er  Er19  1  0.996234  0.819908  0.404007  1
  Pt  Pt20  1  0.817999  0.639716  0.253472  1
  Pt  Pt21  1  0.311858  0.863161  0.251658  1
  Pt  Pt22  1  0.686257  0.136579  0.749686  1
  Pt  Pt23  1  0.185937  0.363719  0.749491  1
  Pt  Pt24  1  0.547188  0.376465  0.250463  1
  Pt  Pt25  1  0.045121  0.120629  0.251796  1
  Pt  Pt26  1  0.953494  0.875510  0.749858  1
  Pt  Pt27  1  0.453691  0.624859  0.749415  1
  Pt  Pt28  1  0.823220  0.541228  0.541306  1
  Pt  Pt29  1  0.322095  0.962679  0.956573  1
  Pt  Pt30  1  0.686856  0.031280  0.455049  1
  Pt  Pt31  1  0.177436  0.462675  0.043485  1
  Pt  Pt32  1  0.174763  0.469578  0.454284  1
  Pt  Pt33  1  0.677669  0.037265  0.043514  1
  Pt  Pt34  1  0.320811  0.960843  0.541328  1
  Pt  Pt35  1  0.821865  0.536895  0.956766  1
