# generated using pymatgen
data_Sm4YNb3(Ni4As3)4
_symmetry_space_group_name_H-M   'P 1'
_cell_length_a   12.73345463
_cell_length_b   12.71270260
_cell_length_c   3.92869100
_cell_angle_alpha   90.00000000
_cell_angle_beta   90.00000000
_cell_angle_gamma   119.94610711
_symmetry_Int_Tables_number   1
_chemical_formula_structural   Sm4YNb3(Ni4As3)4
_chemical_formula_sum   'Sm4 Y1 Nb3 Ni16 As12'
_cell_volume   551.05916323
_cell_formula_units_Z   1
loop_
 _symmetry_equiv_pos_site_id
 _symmetry_equiv_pos_as_xyz
  1  'x, y, z'
loop_
 _atom_site_type_symbol
 _atom_site_label
 _atom_site_symmetry_multiplicity
 _atom_site_fract_x
 _atom_site_fract_y
 _atom_site_fract_z
 _atom_site_occupancy
  Sm  Sm0  1  0.187264  0.186982  0.500000  1
  Sm  Sm1  1  0.812736  0.999718  0.500000  1
  Sm  Sm2  1  0.333595  0.666897  0.000000  1
  Sm  Sm3  1  0.666405  0.333301  0.000000  1
  Y  Y4  1  0.000000  0.812233  0.500000  1
  Nb  Nb5  1  0.565187  0.564791  0.000000  1
  Nb  Nb6  1  0.434813  0.999604  0.000000  1
  Nb  Nb7  1  0.000000  0.435958  0.000000  1
  Ni  Ni8  1  0.722068  0.721407  0.500000  1
  Ni  Ni9  1  0.277932  0.999339  0.500000  1
  Ni  Ni10  1  0.000000  0.279107  0.500000  1
  Ni  Ni11  1  0.182674  0.376732  0.000000  1
  Ni  Ni12  1  0.623909  0.806087  0.000000  1
  Ni  Ni13  1  0.192789  0.817087  0.000000  1
  Ni  Ni14  1  0.807211  0.624298  0.000000  1
  Ni  Ni15  1  0.817326  0.194058  0.000000  1
  Ni  Ni16  1  0.376091  0.182179  0.000000  1
  Ni  Ni17  1  0.362825  0.483742  0.500000  1
  Ni  Ni18  1  0.516585  0.879195  0.500000  1
  Ni  Ni19  1  0.120782  0.637816  0.500000  1
  Ni  Ni20  1  0.879218  0.517033  0.500000  1
  Ni  Ni21  1  0.637175  0.120916  0.500000  1
  Ni  Ni22  1  0.483415  0.362609  0.500000  1
  Ni  Ni23  1  0.000000  0.999262  0.000000  1
  As  As24  1  0.822044  0.820536  0.000000  1
  As  As25  1  0.177956  0.998492  0.000000  1
  As  As26  1  0.000000  0.179122  0.000000  1
  As  As27  1  0.168727  0.478492  0.500000  1
  As  As28  1  0.522248  0.690681  0.500000  1
  As  As29  1  0.309621  0.831119  0.500000  1
  As  As30  1  0.690379  0.521499  0.500000  1
  As  As31  1  0.831273  0.309765  0.500000  1
  As  As32  1  0.477752  0.168434  0.500000  1
  As  As33  1  0.364323  0.364283  0.000000  1
  As  As34  1  0.635677  0.999960  0.000000  1
  As  As35  1  0.000000  0.637265  0.000000  1
