# generated using pymatgen
data_Tb4Er8ZnGa(TcNi)2
_symmetry_space_group_name_H-M   'P 1'
_cell_length_a   8.31500362
_cell_length_b   8.31500406
_cell_length_c   8.31500500
_cell_angle_alpha   113.34011851
_cell_angle_beta   111.16504100
_cell_angle_gamma   104.04925082
_symmetry_Int_Tables_number   1
_chemical_formula_structural   Tb4Er8ZnGa(TcNi)2
_chemical_formula_sum   'Tb4 Er8 Zn1 Ga1 Tc2 Ni2'
_cell_volume   439.44303825
_cell_formula_units_Z   1
loop_
 _symmetry_equiv_pos_site_id
 _symmetry_equiv_pos_as_xyz
  1  'x, y, z'
loop_
 _atom_site_type_symbol
 _atom_site_label
 _atom_site_symmetry_multiplicity
 _atom_site_fract_x
 _atom_site_fract_y
 _atom_site_fract_z
 _atom_site_occupancy
  Tb  Tb0  1  0.055166  0.744358  0.310756  1
  Tb  Tb1  1  0.944834  0.255642  0.689244  1
  Tb  Tb2  1  0.566397  0.255642  0.310808  1
  Tb  Tb3  1  0.433603  0.744358  0.689192  1
  Er  Er4  1  0.666963  0.850369  0.183404  1
  Er  Er5  1  0.332970  0.516275  0.183305  1
  Er  Er6  1  0.333037  0.149631  0.816596  1
  Er  Er7  1  0.667030  0.483725  0.816695  1
  Er  Er8  1  0.180035  0.217927  0.397824  1
  Er  Er9  1  0.820105  0.217927  0.037893  1
  Er  Er10  1  0.179895  0.782073  0.962107  1
  Er  Er11  1  0.819965  0.782073  0.602176  1
  Zn  Zn12  1  0.000000  0.500000  0.500000  1
  Ga  Ga13  1  0.500000  0.000000  0.500000  1
  Tc  Tc14  1  0.681499  0.500000  0.181499  1
  Tc  Tc15  1  0.318501  0.500000  0.818501  1
  Ni  Ni16  1  0.883114  0.883477  0.000363  1
  Ni  Ni17  1  0.116886  0.116523  0.999637  1
