# generated using pymatgen
data_V9Si4TcW2
_symmetry_space_group_name_H-M   'P 1'
_cell_length_a   4.70803100
_cell_length_b   4.75196216
_cell_length_c   9.58495553
_cell_angle_alpha   89.92644957
_cell_angle_beta   90.00000000
_cell_angle_gamma   90.00000000
_symmetry_Int_Tables_number   1
_chemical_formula_structural   V9Si4TcW2
_chemical_formula_sum   'V9 Si4 Tc1 W2'
_cell_volume   214.43813987
_cell_formula_units_Z   1
loop_
 _symmetry_equiv_pos_site_id
 _symmetry_equiv_pos_as_xyz
  1  'x, y, z'
loop_
 _atom_site_type_symbol
 _atom_site_label
 _atom_site_symmetry_multiplicity
 _atom_site_fract_x
 _atom_site_fract_y
 _atom_site_fract_z
 _atom_site_occupancy
  V  V0  1  0.500000  0.248347  0.498219  1
  V  V1  1  0.749264  0.001174  0.252571  1
  V  V2  1  0.750392  0.000730  0.749670  1
  V  V3  1  0.000000  0.497262  0.128699  1
  V  V4  1  0.000000  0.499004  0.621391  1
  V  V5  1  0.500000  0.750052  0.998867  1
  V  V6  1  0.500000  0.752962  0.497617  1
  V  V7  1  0.250736  0.001174  0.252571  1
  V  V8  1  0.249608  0.000730  0.749670  1
  Si  Si9  1  0.500000  0.503776  0.249552  1
  Si  Si10  1  0.500000  0.502935  0.742782  1
  Si  Si11  1  0.000000  0.992649  0.004280  1
  Si  Si12  1  0.000000  0.999463  0.503574  1
  Tc  Tc13  1  0.000000  0.500464  0.375057  1
  W  W14  1  0.000000  0.499370  0.874695  1
  W  W15  1  0.500000  0.249904  0.000785  1
