# generated using pymatgen
data_Eu2P6Rh7
_symmetry_space_group_name_H-M   'P 1'
_cell_length_a   11.14717100
_cell_length_b   11.14717100
_cell_length_c   4.12297100
_cell_angle_alpha   90.00000000
_cell_angle_beta   90.00000000
_cell_angle_gamma   90.00000000
_symmetry_Int_Tables_number   1
_chemical_formula_structural   Eu2P6Rh7
_chemical_formula_sum   'Eu4 P12 Rh14'
_cell_volume   512.31799051
_cell_formula_units_Z   2
loop_
 _symmetry_equiv_pos_site_id
 _symmetry_equiv_pos_as_xyz
  1  'x, y, z'
loop_
 _atom_site_type_symbol
 _atom_site_label
 _atom_site_symmetry_multiplicity
 _atom_site_fract_x
 _atom_site_fract_y
 _atom_site_fract_z
 _atom_site_occupancy
  Eu  Eu0  1  0.166112  0.666112  0.750115  1
  Eu  Eu1  1  0.333888  0.166112  0.249885  1
  Eu  Eu2  1  0.666112  0.833888  0.249885  1
  Eu  Eu3  1  0.833888  0.333888  0.750115  1
  P  P4  1  0.856344  0.110872  0.270924  1
  P  P5  1  0.356344  0.389128  0.729076  1
  P  P6  1  0.570940  0.070940  0.758673  1
  P  P7  1  0.643656  0.610872  0.729076  1
  P  P8  1  0.610872  0.356344  0.270924  1
  P  P9  1  0.070940  0.429060  0.241327  1
  P  P10  1  0.389128  0.643656  0.270924  1
  P  P11  1  0.929060  0.570940  0.241327  1
  P  P12  1  0.110872  0.143656  0.729076  1
  P  P13  1  0.429060  0.929060  0.758673  1
  P  P14  1  0.143656  0.889128  0.270924  1
  P  P15  1  0.889128  0.856344  0.729076  1
  Rh  Rh16  1  0.534960  0.274615  0.748798  1
  Rh  Rh17  1  0.034960  0.225385  0.251202  1
  Rh  Rh18  1  0.725385  0.534960  0.251202  1
  Rh  Rh19  1  0.274615  0.465040  0.251202  1
  Rh  Rh20  1  0.349924  0.849924  0.256111  1
  Rh  Rh21  1  0.849924  0.650076  0.743889  1
  Rh  Rh22  1  0.965040  0.774615  0.251202  1
  Rh  Rh23  1  0.225385  0.965040  0.748798  1
  Rh  Rh24  1  0.774615  0.034960  0.748798  1
  Rh  Rh25  1  0.000000  0.000000  0.000000  1
  Rh  Rh26  1  0.150076  0.349924  0.743889  1
  Rh  Rh27  1  0.465040  0.725385  0.748798  1
  Rh  Rh28  1  0.500000  0.500000  0.000000  1
  Rh  Rh29  1  0.650076  0.150076  0.256111  1
