# generated using pymatgen
data_Dy2Zn14Pd3
_symmetry_space_group_name_H-M   'P 1'
_cell_length_a   6.83127299
_cell_length_b   6.83127324
_cell_length_c   6.83127364
_cell_angle_alpha   82.82563422
_cell_angle_beta   82.82562627
_cell_angle_gamma   82.82564856
_symmetry_Int_Tables_number   1
_chemical_formula_structural   Dy2Zn14Pd3
_chemical_formula_sum   'Dy2 Zn14 Pd3'
_cell_volume   311.87783749
_cell_formula_units_Z   1
loop_
 _symmetry_equiv_pos_site_id
 _symmetry_equiv_pos_as_xyz
  1  'x, y, z'
loop_
 _atom_site_type_symbol
 _atom_site_label
 _atom_site_symmetry_multiplicity
 _atom_site_fract_x
 _atom_site_fract_y
 _atom_site_fract_z
 _atom_site_occupancy
  Dy  Dy0  1  0.662537  0.662537  0.662537  1
  Dy  Dy1  1  0.337463  0.337463  0.337463  1
  Zn  Zn2  1  0.351177  0.351177  0.839780  1
  Zn  Zn3  1  0.839780  0.351177  0.351177  1
  Zn  Zn4  1  0.102942  0.102942  0.102942  1
  Zn  Zn5  1  0.897058  0.897058  0.897058  1
  Zn  Zn6  1  0.298756  0.701244  0.000000  1
  Zn  Zn7  1  0.701244  0.000000  0.298756  1
  Zn  Zn8  1  0.000000  0.298756  0.701244  1
  Zn  Zn9  1  0.701244  0.298756  0.000000  1
  Zn  Zn10  1  0.298756  0.000000  0.701244  1
  Zn  Zn11  1  0.000000  0.701244  0.298756  1
  Zn  Zn12  1  0.160220  0.648823  0.648823  1
  Zn  Zn13  1  0.648823  0.648823  0.160220  1
  Zn  Zn14  1  0.648823  0.160220  0.648823  1
  Zn  Zn15  1  0.351177  0.839780  0.351177  1
  Pd  Pd16  1  0.000000  0.000000  0.500000  1
  Pd  Pd17  1  0.000000  0.500000  0.000000  1
  Pd  Pd18  1  0.500000  0.000000  0.000000  1
