# generated using pymatgen
data_Zr2Re2TcOs
_symmetry_space_group_name_H-M   'P 1'
_cell_length_a   5.22475192
_cell_length_b   5.22475221
_cell_length_c   8.80539400
_cell_angle_alpha   90.00000000
_cell_angle_beta   90.00000000
_cell_angle_gamma   119.66807756
_symmetry_Int_Tables_number   1
_chemical_formula_structural   Zr2Re2TcOs
_chemical_formula_sum   'Zr4 Re4 Tc2 Os2'
_cell_volume   208.85923092
_cell_formula_units_Z   2
loop_
 _symmetry_equiv_pos_site_id
 _symmetry_equiv_pos_as_xyz
  1  'x, y, z'
loop_
 _atom_site_type_symbol
 _atom_site_label
 _atom_site_symmetry_multiplicity
 _atom_site_fract_x
 _atom_site_fract_y
 _atom_site_fract_z
 _atom_site_occupancy
  Zr  Zr0  1  0.333319  0.666681  0.434873  1
  Zr  Zr1  1  0.667469  0.332531  0.564312  1
  Zr  Zr2  1  0.667469  0.332531  0.935688  1
  Zr  Zr3  1  0.333319  0.666681  0.065127  1
  Re  Re4  1  0.829747  0.170253  0.250000  1
  Re  Re5  1  0.828358  0.656166  0.250000  1
  Re  Re6  1  0.343834  0.171642  0.250000  1
  Re  Re7  1  0.167631  0.832369  0.750000  1
  Tc  Tc8  1  0.172091  0.349523  0.750000  1
  Tc  Tc9  1  0.650477  0.827909  0.750000  1
  Os  Os10  1  0.003143  0.996857  0.501424  1
  Os  Os11  1  0.003143  0.996857  0.998576  1
