# generated using pymatgen
data_Ca6Er2Si12Pd3Pt
_symmetry_space_group_name_H-M   'P 1'
_cell_length_a   8.21832400
_cell_length_b   8.21832319
_cell_length_c   8.10613100
_cell_angle_alpha   90.00000000
_cell_angle_beta   90.00000000
_cell_angle_gamma   119.99999522
_symmetry_Int_Tables_number   1
_chemical_formula_structural   Ca6Er2Si12Pd3Pt
_chemical_formula_sum   'Ca6 Er2 Si12 Pd3 Pt1'
_cell_volume   474.14453090
_cell_formula_units_Z   1
loop_
 _symmetry_equiv_pos_site_id
 _symmetry_equiv_pos_as_xyz
  1  'x, y, z'
loop_
 _atom_site_type_symbol
 _atom_site_label
 _atom_site_symmetry_multiplicity
 _atom_site_fract_x
 _atom_site_fract_y
 _atom_site_fract_z
 _atom_site_occupancy
  Ca  Ca0  1  0.501989  0.003978  0.250001  1
  Ca  Ca1  1  0.496981  0.993961  0.750110  1
  Ca  Ca2  1  0.996022  0.498011  0.250001  1
  Ca  Ca3  1  0.006039  0.503019  0.750110  1
  Ca  Ca4  1  0.501989  0.498011  0.250001  1
  Ca  Ca5  1  0.496981  0.503019  0.750110  1
  Er  Er6  1  0.000000  0.000000  0.250560  1
  Er  Er7  1  0.000000  0.000000  0.749399  1
  Si  Si8  1  0.164571  0.329142  0.001851  1
  Si  Si9  1  0.835831  0.671664  0.998333  1
  Si  Si10  1  0.670858  0.835429  0.001851  1
  Si  Si11  1  0.835876  0.671753  0.501568  1
  Si  Si12  1  0.328336  0.164169  0.998333  1
  Si  Si13  1  0.163811  0.327621  0.498375  1
  Si  Si14  1  0.164571  0.835429  0.001851  1
  Si  Si15  1  0.328247  0.164124  0.501568  1
  Si  Si16  1  0.835831  0.164169  0.998333  1
  Si  Si17  1  0.672379  0.836189  0.498375  1
  Si  Si18  1  0.835876  0.164124  0.501568  1
  Si  Si19  1  0.163811  0.836189  0.498375  1
  Pd  Pd20  1  0.666667  0.333333  0.995116  1
  Pd  Pd21  1  0.666667  0.333333  0.505338  1
  Pd  Pd22  1  0.333333  0.666667  0.495036  1
  Pt  Pt23  1  0.333333  0.666667  0.003839  1
