# generated using pymatgen
data_Er2Tm2(Ga8Pd3)3
_symmetry_space_group_name_H-M   'P 1'
_cell_length_a   7.50418804
_cell_length_b   7.56616130
_cell_length_c   13.40379400
_cell_angle_alpha   84.83333262
_cell_angle_beta   79.74813648
_cell_angle_gamma   60.22030257
_symmetry_Int_Tables_number   1
_chemical_formula_structural   Er2Tm2(Ga8Pd3)3
_chemical_formula_sum   'Er2 Tm2 Ga24 Pd9'
_cell_volume   649.99076930
_cell_formula_units_Z   1
loop_
 _symmetry_equiv_pos_site_id
 _symmetry_equiv_pos_as_xyz
  1  'x, y, z'
loop_
 _atom_site_type_symbol
 _atom_site_label
 _atom_site_symmetry_multiplicity
 _atom_site_fract_x
 _atom_site_fract_y
 _atom_site_fract_z
 _atom_site_occupancy
  Er  Er0  1  0.731299  0.496666  0.811525  1
  Er  Er1  1  0.268701  0.503334  0.188475  1
  Tm  Tm2  1  0.394078  0.168862  0.811253  1
  Tm  Tm3  1  0.605922  0.831138  0.188747  1
  Ga  Ga4  1  0.685234  0.833693  0.938696  1
  Ga  Ga5  1  0.314766  0.166307  0.061304  1
  Ga  Ga6  1  0.142528  0.835801  0.558584  1
  Ga  Ga7  1  0.857472  0.164199  0.441416  1
  Ga  Ga8  1  0.476927  0.167305  0.556268  1
  Ga  Ga9  1  0.523073  0.832695  0.443732  1
  Ga  Ga10  1  0.223935  0.164779  0.323047  1
  Ga  Ga11  1  0.776065  0.835221  0.676953  1
  Ga  Ga12  1  0.434665  0.503915  0.675372  1
  Ga  Ga13  1  0.565335  0.496085  0.324628  1
  Ga  Ga14  1  0.105416  0.163336  0.675297  1
  Ga  Ga15  1  0.894584  0.836664  0.324703  1
  Ga  Ga16  1  0.356451  0.498496  0.939736  1
  Ga  Ga17  1  0.643549  0.501504  0.060264  1
  Ga  Ga18  1  0.020549  0.168423  0.943781  1
  Ga  Ga19  1  0.979451  0.831577  0.056219  1
  Ga  Ga20  1  0.188511  0.499837  0.443152  1
  Ga  Ga21  1  0.811489  0.500163  0.556848  1
  Ga  Ga22  1  0.733380  0.164295  0.181836  1
  Ga  Ga23  1  0.266620  0.835705  0.818164  1
  Ga  Ga24  1  0.060953  0.628735  0.817126  1
  Ga  Ga25  1  0.939047  0.371265  0.182874  1
  Ga  Ga26  1  0.856165  0.039425  0.816830  1
  Ga  Ga27  1  0.143835  0.960575  0.183170  1
  Pd  Pd28  1  0.114659  0.496756  0.639280  1
  Pd  Pd29  1  0.885341  0.503244  0.360720  1
  Pd  Pd30  1  0.660209  0.169641  0.998496  1
  Pd  Pd31  1  0.339791  0.830359  0.001504  1
  Pd  Pd32  1  0.543790  0.166720  0.359981  1
  Pd  Pd33  1  0.456210  0.833280  0.640019  1
  Pd  Pd34  1  0.776614  0.172653  0.638796  1
  Pd  Pd35  1  0.223386  0.827347  0.361204  1
  Pd  Pd36  1  0.000000  0.500000  0.000000  1
