# generated using pymatgen
data_Tb4Lu4Hf9Si16Mo3
_symmetry_space_group_name_H-M   'P 1'
_cell_length_a   7.17266795
_cell_length_b   7.16870942
_cell_length_c   13.12576469
_cell_angle_alpha   90.01239993
_cell_angle_beta   89.98579326
_cell_angle_gamma   90.08611188
_symmetry_Int_Tables_number   1
_chemical_formula_structural   Tb4Lu4Hf9Si16Mo3
_chemical_formula_sum   'Tb4 Lu4 Hf9 Si16 Mo3'
_cell_volume   674.90990735
_cell_formula_units_Z   1
loop_
 _symmetry_equiv_pos_site_id
 _symmetry_equiv_pos_as_xyz
  1  'x, y, z'
loop_
 _atom_site_type_symbol
 _atom_site_label
 _atom_site_symmetry_multiplicity
 _atom_site_fract_x
 _atom_site_fract_y
 _atom_site_fract_z
 _atom_site_occupancy
  Tb  Tb0  1  0.846078  0.502605  0.968256  1
  Tb  Tb1  1  0.497926  0.153817  0.531970  1
  Tb  Tb2  1  0.342654  0.996952  0.784939  1
  Tb  Tb3  1  0.656003  0.000454  0.285141  1
  Lu  Lu4  1  0.001277  0.344334  0.214673  1
  Lu  Lu5  1  0.001474  0.656683  0.714443  1
  Lu  Lu6  1  0.154640  0.500998  0.463703  1
  Lu  Lu7  1  0.498258  0.845717  0.036591  1
  Hf  Hf8  1  0.676732  0.323977  0.749878  1
  Hf  Hf9  1  0.145275  0.993992  0.372980  1
  Hf  Hf10  1  0.855684  0.003479  0.875973  1
  Hf  Hf11  1  0.505481  0.649199  0.620035  1
  Hf  Hf12  1  0.350920  0.495621  0.879642  1
  Hf  Hf13  1  0.493011  0.353289  0.124223  1
  Hf  Hf14  1  0.646573  0.506092  0.375387  1
  Hf  Hf15  1  0.996965  0.144910  0.623934  1
  Hf  Hf16  1  0.005031  0.854320  0.126858  1
  Si  Si17  1  0.357027  0.300259  0.316353  1
  Si  Si18  1  0.641886  0.703049  0.815611  1
  Si  Si19  1  0.199032  0.855501  0.565181  1
  Si  Si20  1  0.142808  0.799100  0.935990  1
  Si  Si21  1  0.796709  0.139769  0.068421  1
  Si  Si22  1  0.862350  0.205733  0.432393  1
  Si  Si23  1  0.294846  0.361995  0.683517  1
  Si  Si24  1  0.702052  0.639357  0.182718  1
  Si  Si25  1  0.294583  0.051522  0.184322  1
  Si  Si26  1  0.707202  0.945296  0.682411  1
  Si  Si27  1  0.445232  0.792650  0.432486  1
  Si  Si28  1  0.205411  0.552870  0.068299  1
  Si  Si29  1  0.548395  0.201715  0.936799  1
  Si  Si30  1  0.800132  0.453503  0.563762  1
  Si  Si31  1  0.053073  0.296393  0.817064  1
  Si  Si32  1  0.950593  0.701540  0.315172  1
  Mo  Mo33  1  0.176948  0.176657  0.003127  1
  Mo  Mo34  1  0.825118  0.821483  0.497768  1
  Mo  Mo35  1  0.322625  0.675169  0.249982  1
