# generated using pymatgen
data_ErLu3(ScRh)4
_symmetry_space_group_name_H-M   'P 1'
_cell_length_a   4.20897600
_cell_length_b   7.18098799
_cell_length_c   8.59535217
_cell_angle_alpha   90.17505747
_cell_angle_beta   90.00000000
_cell_angle_gamma   90.00000000
_symmetry_Int_Tables_number   1
_chemical_formula_structural   ErLu3(ScRh)4
_chemical_formula_sum   'Er1 Lu3 Sc4 Rh4'
_cell_volume   259.78992099
_cell_formula_units_Z   1
loop_
 _symmetry_equiv_pos_site_id
 _symmetry_equiv_pos_as_xyz
  1  'x, y, z'
loop_
 _atom_site_type_symbol
 _atom_site_label
 _atom_site_symmetry_multiplicity
 _atom_site_fract_x
 _atom_site_fract_y
 _atom_site_fract_z
 _atom_site_occupancy
  Er  Er0  1  0.750000  0.519163  0.827923  1
  Lu  Lu1  1  0.250000  0.979593  0.328469  1
  Lu  Lu2  1  0.250000  0.479645  0.172135  1
  Lu  Lu3  1  0.750000  0.020893  0.670724  1
  Sc  Sc4  1  0.250000  0.359919  0.565209  1
  Sc  Sc5  1  0.250000  0.859339  0.933171  1
  Sc  Sc6  1  0.750000  0.642256  0.432354  1
  Sc  Sc7  1  0.750000  0.140656  0.067910  1
  Rh  Rh8  1  0.250000  0.242431  0.894450  1
  Rh  Rh9  1  0.250000  0.746606  0.606240  1
  Rh  Rh10  1  0.750000  0.755004  0.107674  1
  Rh  Rh11  1  0.750000  0.254497  0.393742  1
