# generated using pymatgen
data_Ho3Er2Sn3
_symmetry_space_group_name_H-M   'P 1'
_cell_length_a   8.91422900
_cell_length_b   8.91422895
_cell_length_c   6.49442500
_cell_angle_alpha   90.00000000
_cell_angle_beta   90.00000000
_cell_angle_gamma   119.99999647
_symmetry_Int_Tables_number   1
_chemical_formula_structural   Ho3Er2Sn3
_chemical_formula_sum   'Ho6 Er4 Sn6'
_cell_volume   446.92939919
_cell_formula_units_Z   2
loop_
 _symmetry_equiv_pos_site_id
 _symmetry_equiv_pos_as_xyz
  1  'x, y, z'
loop_
 _atom_site_type_symbol
 _atom_site_label
 _atom_site_symmetry_multiplicity
 _atom_site_fract_x
 _atom_site_fract_y
 _atom_site_fract_z
 _atom_site_occupancy
  Ho  Ho0  1  0.000000  0.761738  0.750000  1
  Ho  Ho1  1  0.000000  0.238262  0.250000  1
  Ho  Ho2  1  0.761738  0.761738  0.250000  1
  Ho  Ho3  1  0.761738  0.000000  0.750000  1
  Ho  Ho4  1  0.238262  0.238262  0.750000  1
  Ho  Ho5  1  0.238262  0.000000  0.250000  1
  Er  Er6  1  0.333333  0.666667  0.500000  1
  Er  Er7  1  0.666667  0.333333  0.000000  1
  Er  Er8  1  0.666667  0.333333  0.500000  1
  Er  Er9  1  0.333333  0.666667  0.000000  1
  Sn  Sn10  1  0.395269  0.000000  0.750000  1
  Sn  Sn11  1  0.395269  0.395269  0.250000  1
  Sn  Sn12  1  0.000000  0.604731  0.250000  1
  Sn  Sn13  1  0.000000  0.395269  0.750000  1
  Sn  Sn14  1  0.604731  0.604731  0.750000  1
  Sn  Sn15  1  0.604731  0.000000  0.250000  1
