# generated using pymatgen
data_TiBe9NbTc
_symmetry_space_group_name_H-M   'P 1'
_cell_length_a   7.39183999
_cell_length_b   7.39183913
_cell_length_c   7.39184038
_cell_angle_alpha   34.91157853
_cell_angle_beta   34.91159149
_cell_angle_gamma   34.91156731
_symmetry_Int_Tables_number   1
_chemical_formula_structural   TiBe9NbTc
_chemical_formula_sum   'Ti1 Be9 Nb1 Tc1'
_cell_volume   118.10020334
_cell_formula_units_Z   1
loop_
 _symmetry_equiv_pos_site_id
 _symmetry_equiv_pos_as_xyz
  1  'x, y, z'
loop_
 _atom_site_type_symbol
 _atom_site_label
 _atom_site_symmetry_multiplicity
 _atom_site_fract_x
 _atom_site_fract_y
 _atom_site_fract_z
 _atom_site_occupancy
  Ti  Ti0  1  0.143138  0.143138  0.143138  1
  Be  Be1  1  0.416408  0.919366  0.416408  1
  Be  Be2  1  0.416408  0.416408  0.919366  1
  Be  Be3  1  0.919366  0.416408  0.416408  1
  Be  Be4  1  0.585715  0.076363  0.585715  1
  Be  Be5  1  0.585715  0.585715  0.076363  1
  Be  Be6  1  0.076363  0.585715  0.585715  1
  Be  Be7  1  0.667201  0.667201  0.667201  1
  Be  Be8  1  0.335187  0.335187  0.335187  1
  Be  Be9  1  0.500049  0.500049  0.500049  1
  Nb  Nb10  1  0.997283  0.997283  0.997283  1
  Tc  Tc11  1  0.857167  0.857167  0.857167  1
