# generated using pymatgen
data_Nd3Co2Ni6P6Ru
_symmetry_space_group_name_H-M   'P 1'
_cell_length_a   3.84849600
_cell_length_b   10.62440300
_cell_length_c   12.53563900
_cell_angle_alpha   90.00000000
_cell_angle_beta   90.00000000
_cell_angle_gamma   90.00000000
_symmetry_Int_Tables_number   1
_chemical_formula_structural   Nd3Co2Ni6P6Ru
_chemical_formula_sum   'Nd6 Co4 Ni12 P12 Ru2'
_cell_volume   512.55686205
_cell_formula_units_Z   2
loop_
 _symmetry_equiv_pos_site_id
 _symmetry_equiv_pos_as_xyz
  1  'x, y, z'
loop_
 _atom_site_type_symbol
 _atom_site_label
 _atom_site_symmetry_multiplicity
 _atom_site_fract_x
 _atom_site_fract_y
 _atom_site_fract_z
 _atom_site_occupancy
  Nd  Nd0  1  0.000000  0.500000  0.519855  1
  Nd  Nd1  1  0.500000  0.000000  0.479698  1
  Nd  Nd2  1  0.500000  0.813072  0.206319  1
  Nd  Nd3  1  0.500000  0.186928  0.206319  1
  Nd  Nd4  1  0.000000  0.686551  0.793339  1
  Nd  Nd5  1  0.000000  0.313449  0.793339  1
  Co  Co6  1  0.000000  0.500000  0.983981  1
  Co  Co7  1  0.500000  0.000000  0.017424  1
  Co  Co8  1  0.000000  0.616608  0.286778  1
  Co  Co9  1  0.000000  0.383392  0.286778  1
  Ni  Ni10  1  0.500000  0.500000  0.702279  1
  Ni  Ni11  1  0.000000  0.000000  0.299351  1
  Ni  Ni12  1  0.500000  0.331157  0.989866  1
  Ni  Ni13  1  0.500000  0.668843  0.989866  1
  Ni  Ni14  1  0.000000  0.169347  0.011174  1
  Ni  Ni15  1  0.000000  0.830653  0.011174  1
  Ni  Ni16  1  0.500000  0.304132  0.424552  1
  Ni  Ni17  1  0.500000  0.695868  0.424552  1
  Ni  Ni18  1  0.000000  0.197884  0.571976  1
  Ni  Ni19  1  0.000000  0.802116  0.571976  1
  Ni  Ni20  1  0.500000  0.882585  0.713016  1
  Ni  Ni21  1  0.500000  0.117415  0.713016  1
  P  P22  1  0.500000  0.500000  0.882403  1
  P  P23  1  0.000000  0.000000  0.119069  1
  P  P24  1  0.500000  0.500000  0.339949  1
  P  P25  1  0.000000  0.000000  0.658471  1
  P  P26  1  0.500000  0.309355  0.612999  1
  P  P27  1  0.500000  0.690645  0.612999  1
  P  P28  1  0.000000  0.193179  0.385580  1
  P  P29  1  0.000000  0.806821  0.385580  1
  P  P30  1  0.500000  0.852626  0.896701  1
  P  P31  1  0.500000  0.147374  0.896701  1
  P  P32  1  0.000000  0.647045  0.105517  1
  P  P33  1  0.000000  0.352955  0.105517  1
  Ru  Ru34  1  0.500000  0.500000  0.153792  1
  Ru  Ru35  1  0.000000  0.000000  0.848095  1
