# generated using pymatgen
data_Tb9Er3(TcRh)2
_symmetry_space_group_name_H-M   'P 1'
_cell_length_a   6.34264498
_cell_length_b   7.31620589
_cell_length_c   9.22642270
_cell_angle_alpha   89.84348597
_cell_angle_beta   89.85681447
_cell_angle_gamma   90.00468029
_symmetry_Int_Tables_number   1
_chemical_formula_structural   Tb9Er3(TcRh)2
_chemical_formula_sum   'Tb9 Er3 Tc2 Rh2'
_cell_volume   428.14087395
_cell_formula_units_Z   1
loop_
 _symmetry_equiv_pos_site_id
 _symmetry_equiv_pos_as_xyz
  1  'x, y, z'
loop_
 _atom_site_type_symbol
 _atom_site_label
 _atom_site_symmetry_multiplicity
 _atom_site_fract_x
 _atom_site_fract_y
 _atom_site_fract_z
 _atom_site_occupancy
  Tb  Tb0  1  0.671418  0.177638  0.066842  1
  Tb  Tb1  1  0.170630  0.322770  0.933795  1
  Tb  Tb2  1  0.832384  0.680906  0.438139  1
  Tb  Tb3  1  0.331856  0.819225  0.561181  1
  Tb  Tb4  1  0.334068  0.820159  0.937949  1
  Tb  Tb5  1  0.866583  0.960304  0.750042  1
  Tb  Tb6  1  0.367273  0.539588  0.250104  1
  Tb  Tb7  1  0.632661  0.459803  0.749508  1
  Tb  Tb8  1  0.132121  0.040077  0.250938  1
  Er  Er9  1  0.834140  0.678885  0.062863  1
  Er  Er10  1  0.168864  0.323581  0.565467  1
  Er  Er11  1  0.668944  0.176337  0.434836  1
  Tc  Tc12  1  0.038674  0.611248  0.752220  1
  Tc  Tc13  1  0.540704  0.888514  0.248953  1
  Rh  Rh14  1  0.455779  0.114429  0.744737  1
  Rh  Rh15  1  0.953900  0.386536  0.252425  1
