# generated using pymatgen
data_Zr2B2MoRu5
_symmetry_space_group_name_H-M   'P 1'
_cell_length_a   9.48570100
_cell_length_b   9.48570100
_cell_length_c   3.08982100
_cell_angle_alpha   90.00000000
_cell_angle_beta   90.00000000
_cell_angle_gamma   90.00000000
_symmetry_Int_Tables_number   1
_chemical_formula_structural   Zr2B2MoRu5
_chemical_formula_sum   'Zr4 B4 Mo2 Ru10'
_cell_volume   278.01753134
_cell_formula_units_Z   2
loop_
 _symmetry_equiv_pos_site_id
 _symmetry_equiv_pos_as_xyz
  1  'x, y, z'
loop_
 _atom_site_type_symbol
 _atom_site_label
 _atom_site_symmetry_multiplicity
 _atom_site_fract_x
 _atom_site_fract_y
 _atom_site_fract_z
 _atom_site_occupancy
  Zr  Zr0  1  0.676959  0.176959  0.000000  1
  Zr  Zr1  1  0.323041  0.823041  0.000000  1
  Zr  Zr2  1  0.176959  0.323041  0.000000  1
  Zr  Zr3  1  0.823041  0.676959  0.000000  1
  B  B4  1  0.121242  0.621242  0.000000  1
  B  B5  1  0.878758  0.378758  0.000000  1
  B  B6  1  0.621242  0.878758  0.000000  1
  B  B7  1  0.378758  0.121242  0.000000  1
  Mo  Mo8  1  0.000000  0.000000  0.000000  1
  Mo  Mo9  1  0.500000  0.500000  0.000000  1
  Ru  Ru10  1  0.216278  0.071405  0.500000  1
  Ru  Ru11  1  0.783722  0.928595  0.500000  1
  Ru  Ru12  1  0.071405  0.783722  0.500000  1
  Ru  Ru13  1  0.716278  0.428595  0.500000  1
  Ru  Ru14  1  0.928595  0.216278  0.500000  1
  Ru  Ru15  1  0.283722  0.571405  0.500000  1
  Ru  Ru16  1  0.571405  0.716278  0.500000  1
  Ru  Ru17  1  0.428595  0.283722  0.500000  1
  Ru  Ru18  1  0.500000  0.000000  0.500000  1
  Ru  Ru19  1  0.000000  0.500000  0.500000  1
