# generated using pymatgen
data_Hf2ZrScSb8
_symmetry_space_group_name_H-M   'P 1'
_cell_length_a   3.89421100
_cell_length_b   10.11007925
_cell_length_c   15.08174143
_cell_angle_alpha   90.10117030
_cell_angle_beta   90.00000000
_cell_angle_gamma   90.00000000
_symmetry_Int_Tables_number   1
_chemical_formula_structural   Hf2ZrScSb8
_chemical_formula_sum   'Hf4 Zr2 Sc2 Sb16'
_cell_volume   593.77902587
_cell_formula_units_Z   2
loop_
 _symmetry_equiv_pos_site_id
 _symmetry_equiv_pos_as_xyz
  1  'x, y, z'
loop_
 _atom_site_type_symbol
 _atom_site_label
 _atom_site_symmetry_multiplicity
 _atom_site_fract_x
 _atom_site_fract_y
 _atom_site_fract_z
 _atom_site_occupancy
  Hf  Hf0  1  0.000000  0.834629  0.494865  1
  Hf  Hf1  1  0.000000  0.165371  0.505135  1
  Hf  Hf2  1  0.500000  0.333856  0.006264  1
  Hf  Hf3  1  0.500000  0.666144  0.993736  1
  Zr  Zr4  1  0.000000  0.022496  0.248843  1
  Zr  Zr5  1  0.000000  0.977504  0.751157  1
  Sc  Sc6  1  0.500000  0.522166  0.250334  1
  Sc  Sc7  1  0.500000  0.477834  0.749666  1
  Sb  Sb8  1  0.000000  0.513928  0.103928  1
  Sb  Sb9  1  0.000000  0.486072  0.896072  1
  Sb  Sb10  1  0.500000  0.012559  0.396389  1
  Sb  Sb11  1  0.500000  0.987441  0.603611  1
  Sb  Sb12  1  0.000000  0.734639  0.301959  1
  Sb  Sb13  1  0.000000  0.265361  0.698041  1
  Sb  Sb14  1  0.500000  0.235218  0.199241  1
  Sb  Sb15  1  0.500000  0.764782  0.800759  1
  Sb  Sb16  1  0.000000  0.881105  0.943834  1
  Sb  Sb17  1  0.000000  0.118895  0.056166  1
  Sb  Sb18  1  0.500000  0.378137  0.556013  1
  Sb  Sb19  1  0.500000  0.621863  0.443987  1
  Sb  Sb20  1  0.000000  0.664418  0.654636  1
  Sb  Sb21  1  0.000000  0.335582  0.345364  1
  Sb  Sb22  1  0.500000  0.159438  0.844673  1
  Sb  Sb23  1  0.500000  0.840562  0.155327  1
