# generated using pymatgen
data_La3Yb5Tl4
_symmetry_space_group_name_H-M   'P 1'
_cell_length_a   5.50125600
_cell_length_b   7.06229043
_cell_length_c   9.87101343
_cell_angle_alpha   89.40239265
_cell_angle_beta   90.00000000
_cell_angle_gamma   90.00000000
_symmetry_Int_Tables_number   1
_chemical_formula_structural   La3Yb5Tl4
_chemical_formula_sum   'La3 Yb5 Tl4'
_cell_volume   383.48249817
_cell_formula_units_Z   1
loop_
 _symmetry_equiv_pos_site_id
 _symmetry_equiv_pos_as_xyz
  1  'x, y, z'
loop_
 _atom_site_type_symbol
 _atom_site_label
 _atom_site_symmetry_multiplicity
 _atom_site_fract_x
 _atom_site_fract_y
 _atom_site_fract_z
 _atom_site_occupancy
  La  La0  1  0.250000  0.790288  0.919445  1
  La  La1  1  0.250000  0.307290  0.577245  1
  La  La2  1  0.750000  0.209693  0.081247  1
  Yb  Yb3  1  0.750000  0.696310  0.422831  1
  Yb  Yb4  1  0.250000  0.982994  0.286744  1
  Yb  Yb5  1  0.250000  0.487270  0.212819  1
  Yb  Yb6  1  0.750000  0.010503  0.712616  1
  Yb  Yb7  1  0.750000  0.511870  0.787452  1
  Tl  Tl8  1  0.250000  0.268804  0.905703  1
  Tl  Tl9  1  0.250000  0.775787  0.590851  1
  Tl  Tl10  1  0.750000  0.728902  0.096715  1
  Tl  Tl11  1  0.750000  0.230288  0.406335  1
