# generated using pymatgen
data_Tb3MgCd2Sn2Au
_symmetry_space_group_name_H-M   'P 1'
_cell_length_a   7.51741976
_cell_length_b   7.51741969
_cell_length_c   4.54402700
_cell_angle_alpha   90.00000000
_cell_angle_beta   90.00000000
_cell_angle_gamma   120.49719238
_symmetry_Int_Tables_number   1
_chemical_formula_structural   Tb3MgCd2Sn2Au
_chemical_formula_sum   'Tb3 Mg1 Cd2 Sn2 Au1'
_cell_volume   221.26433921
_cell_formula_units_Z   1
loop_
 _symmetry_equiv_pos_site_id
 _symmetry_equiv_pos_as_xyz
  1  'x, y, z'
loop_
 _atom_site_type_symbol
 _atom_site_label
 _atom_site_symmetry_multiplicity
 _atom_site_fract_x
 _atom_site_fract_y
 _atom_site_fract_z
 _atom_site_occupancy
  Tb  Tb0  1  0.592691  0.002075  0.000000  1
  Tb  Tb1  1  0.002075  0.592691  0.000000  1
  Tb  Tb2  1  0.404134  0.404134  0.000000  1
  Mg  Mg3  1  0.770452  0.770452  0.500000  1
  Cd  Cd4  1  0.240235  0.998553  0.500000  1
  Cd  Cd5  1  0.998553  0.240235  0.500000  1
  Sn  Sn6  1  0.338353  0.667148  0.500000  1
  Sn  Sn7  1  0.667148  0.338353  0.500000  1
  Au  Au8  1  0.986359  0.986359  0.000000  1
