# generated using pymatgen
data_Tm4PdPt3O14
_symmetry_space_group_name_H-M   'P 1'
_cell_length_a   7.20901750
_cell_length_b   7.20013559
_cell_length_c   7.20013700
_cell_angle_alpha   59.99999810
_cell_angle_beta   60.04074581
_cell_angle_gamma   60.04074019
_symmetry_Int_Tables_number   1
_chemical_formula_structural   Tm4PdPt3O14
_chemical_formula_sum   'Tm4 Pd1 Pt3 O14'
_cell_volume   264.42936836
_cell_formula_units_Z   1
loop_
 _symmetry_equiv_pos_site_id
 _symmetry_equiv_pos_as_xyz
  1  'x, y, z'
loop_
 _atom_site_type_symbol
 _atom_site_label
 _atom_site_symmetry_multiplicity
 _atom_site_fract_x
 _atom_site_fract_y
 _atom_site_fract_z
 _atom_site_occupancy
  Tm  Tm0  1  0.625000  0.625000  0.125000  1
  Tm  Tm1  1  0.625000  0.625000  0.625000  1
  Tm  Tm2  1  0.625000  0.125000  0.625000  1
  Tm  Tm3  1  0.125000  0.625000  0.625000  1
  Pd  Pd4  1  0.625000  0.125000  0.125000  1
  Pt  Pt5  1  0.125000  0.125000  0.125000  1
  Pt  Pt6  1  0.125000  0.625000  0.125000  1
  Pt  Pt7  1  0.125000  0.125000  0.625000  1
  O  O8  1  0.031667  0.468595  0.468595  1
  O  O9  1  0.783165  0.780717  0.218059  1
  O  O10  1  0.783165  0.218059  0.218059  1
  O  O11  1  0.466835  0.031941  0.469283  1
  O  O12  1  0.031667  0.031142  0.468595  1
  O  O13  1  0.031667  0.468595  0.031142  1
  O  O14  1  0.750123  0.749959  0.749959  1
  O  O15  1  0.499877  0.500041  0.500041  1
  O  O16  1  0.783165  0.218059  0.780717  1
  O  O17  1  0.218333  0.781405  0.218858  1
  O  O18  1  0.218333  0.218858  0.781405  1
  O  O19  1  0.466835  0.031941  0.031941  1
  O  O20  1  0.466835  0.469283  0.031941  1
  O  O21  1  0.218333  0.781405  0.781405  1
