# generated using pymatgen
data_Ho6Sc2Nb2Al12Ir7
_symmetry_space_group_name_H-M   'P 1'
_cell_length_a   9.07150983
_cell_length_b   9.04246274
_cell_length_c   9.04246382
_cell_angle_alpha   59.92395968
_cell_angle_beta   59.89368129
_cell_angle_gamma   59.89368063
_symmetry_Int_Tables_number   1
_chemical_formula_structural   Ho6Sc2Nb2Al12Ir7
_chemical_formula_sum   'Ho6 Sc2 Nb2 Al12 Ir7'
_cell_volume   523.34599089
_cell_formula_units_Z   1
loop_
 _symmetry_equiv_pos_site_id
 _symmetry_equiv_pos_as_xyz
  1  'x, y, z'
loop_
 _atom_site_type_symbol
 _atom_site_label
 _atom_site_symmetry_multiplicity
 _atom_site_fract_x
 _atom_site_fract_y
 _atom_site_fract_z
 _atom_site_occupancy
  Ho  Ho0  1  0.703766  0.701649  0.297317  1
  Ho  Ho1  1  0.297268  0.701649  0.297317  1
  Ho  Ho2  1  0.702790  0.297210  0.297210  1
  Ho  Ho3  1  0.297268  0.297317  0.701649  1
  Ho  Ho4  1  0.703766  0.297317  0.701649  1
  Ho  Ho5  1  0.301142  0.698858  0.698858  1
  Sc  Sc6  1  0.354649  0.880941  0.880941  1
  Sc  Sc7  1  0.883470  0.880941  0.880941  1
  Nb  Nb8  1  0.880226  0.877888  0.361661  1
  Nb  Nb9  1  0.880226  0.361661  0.877888  1
  Al  Al10  1  0.120694  0.119947  0.638665  1
  Al  Al11  1  0.120694  0.638665  0.119947  1
  Al  Al12  1  0.637624  0.120435  0.120435  1
  Al  Al13  1  0.121507  0.120435  0.120435  1
  Al  Al14  1  0.667501  0.669729  0.995267  1
  Al  Al15  1  0.667501  0.995267  0.669729  1
  Al  Al16  1  0.998559  0.667862  0.667862  1
  Al  Al17  1  0.665716  0.667862  0.667862  1
  Al  Al18  1  0.329294  0.329964  0.011448  1
  Al  Al19  1  0.329294  0.011448  0.329964  1
  Al  Al20  1  0.011424  0.329625  0.329625  1
  Al  Al21  1  0.329327  0.329625  0.329625  1
  Ir  Ir22  1  0.990555  0.009445  0.009445  1
  Ir  Ir23  1  0.999703  0.000697  0.494822  1
  Ir  Ir24  1  0.504779  0.000697  0.494822  1
  Ir  Ir25  1  0.998432  0.501568  0.501568  1
  Ir  Ir26  1  0.504779  0.494822  0.000697  1
  Ir  Ir27  1  0.999703  0.494822  0.000697  1
  Ir  Ir28  1  0.498350  0.001650  0.001650  1
