# generated using pymatgen
data_Cs4RbAl3S7
_symmetry_space_group_name_H-M   'P 1'
_cell_length_a   10.75865604
_cell_length_b   10.75865593
_cell_length_c   9.17018691
_cell_angle_alpha   76.27717106
_cell_angle_beta   76.27717429
_cell_angle_gamma   72.40559866
_symmetry_Int_Tables_number   1
_chemical_formula_structural   Cs4RbAl3S7
_chemical_formula_sum   'Cs8 Rb2 Al6 S14'
_cell_volume   967.07275677
_cell_formula_units_Z   2
loop_
 _symmetry_equiv_pos_site_id
 _symmetry_equiv_pos_as_xyz
  1  'x, y, z'
loop_
 _atom_site_type_symbol
 _atom_site_label
 _atom_site_symmetry_multiplicity
 _atom_site_fract_x
 _atom_site_fract_y
 _atom_site_fract_z
 _atom_site_occupancy
  Cs  Cs0  1  0.029420  0.434687  0.718954  1
  Cs  Cs1  1  0.434687  0.029420  0.718954  1
  Cs  Cs2  1  0.970580  0.565313  0.281046  1
  Cs  Cs3  1  0.565313  0.970580  0.281046  1
  Cs  Cs4  1  0.292171  0.707829  0.000000  1
  Cs  Cs5  1  0.707829  0.292171  0.000000  1
  Cs  Cs6  1  0.845613  0.154387  0.500000  1
  Cs  Cs7  1  0.154387  0.845613  0.500000  1
  Rb  Rb8  1  0.429822  0.429822  0.687464  1
  Rb  Rb9  1  0.570178  0.570178  0.312536  1
  Al  Al10  1  0.213496  0.213496  0.178512  1
  Al  Al11  1  0.786504  0.786504  0.821488  1
  Al  Al12  1  0.071618  0.071618  0.055822  1
  Al  Al13  1  0.928382  0.928382  0.944178  1
  Al  Al14  1  0.346200  0.346200  0.329982  1
  Al  Al15  1  0.653800  0.653800  0.670018  1
  S  S16  1  0.007970  0.279240  0.112282  1
  S  S17  1  0.279240  0.007970  0.112282  1
  S  S18  1  0.992030  0.720760  0.887718  1
  S  S19  1  0.720760  0.992030  0.887718  1
  S  S20  1  0.206990  0.206990  0.427049  1
  S  S21  1  0.793010  0.793010  0.572951  1
  S  S22  1  0.061748  0.061748  0.814486  1
  S  S23  1  0.938252  0.938252  0.185514  1
  S  S24  1  0.348678  0.348678  0.071146  1
  S  S25  1  0.651322  0.651322  0.928854  1
  S  S26  1  0.258106  0.545671  0.394047  1
  S  S27  1  0.545671  0.258106  0.394047  1
  S  S28  1  0.741894  0.454329  0.605953  1
  S  S29  1  0.454329  0.741894  0.605953  1
