# generated using pymatgen
data_La3Y9Er4(CdNi)4
_symmetry_space_group_name_H-M   'P 1'
_cell_length_a   9.63743823
_cell_length_b   9.64673247
_cell_length_c   9.65094988
_cell_angle_alpha   59.79749091
_cell_angle_beta   60.06113362
_cell_angle_gamma   60.12239651
_symmetry_Int_Tables_number   1
_chemical_formula_structural   La3Y9Er4(CdNi)4
_chemical_formula_sum   'La3 Y9 Er4 Cd4 Ni4'
_cell_volume   634.34676761
_cell_formula_units_Z   1
loop_
 _symmetry_equiv_pos_site_id
 _symmetry_equiv_pos_as_xyz
  1  'x, y, z'
loop_
 _atom_site_type_symbol
 _atom_site_label
 _atom_site_symmetry_multiplicity
 _atom_site_fract_x
 _atom_site_fract_y
 _atom_site_fract_z
 _atom_site_occupancy
  La  La0  1  0.596217  0.600098  0.599039  1
  La  La1  1  0.595430  0.601408  0.201723  1
  La  La2  1  0.595426  0.201057  0.601308  1
  Y  Y3  1  0.064565  0.436717  0.062103  1
  Y  Y4  1  0.437807  0.435188  0.064768  1
  Y  Y5  1  0.064933  0.062700  0.436567  1
  Y  Y6  1  0.187843  0.815957  0.814514  1
  Y  Y7  1  0.814017  0.184965  0.185388  1
  Y  Y8  1  0.815072  0.185609  0.814916  1
  Y  Y9  1  0.185872  0.813692  0.185347  1
  Y  Y10  1  0.814532  0.815704  0.185820  1
  Y  Y11  1  0.186449  0.185512  0.812799  1
  Er  Er12  1  0.196113  0.602219  0.602035  1
  Er  Er13  1  0.064108  0.437434  0.438306  1
  Er  Er14  1  0.436748  0.064823  0.065111  1
  Er  Er15  1  0.437233  0.064926  0.435524  1
  Cd  Cd16  1  0.837190  0.828306  0.828388  1
  Cd  Cd17  1  0.836724  0.828844  0.503448  1
  Cd  Cd18  1  0.836726  0.503239  0.829009  1
  Cd  Cd19  1  0.504313  0.831206  0.831447  1
  Ni  Ni20  1  0.387355  0.392233  0.394735  1
  Ni  Ni21  1  0.388845  0.390336  0.824697  1
  Ni  Ni22  1  0.389247  0.826377  0.391343  1
  Ni  Ni23  1  0.827234  0.391447  0.391666  1
