# generated using pymatgen
data_RbTm2(FeH6)2
_symmetry_space_group_name_H-M   'P 1'
_cell_length_a   4.80308900
_cell_length_b   4.80308954
_cell_length_c   8.82108300
_cell_angle_alpha   90.00000000
_cell_angle_beta   90.00000000
_cell_angle_gamma   119.99998941
_symmetry_Int_Tables_number   1
_chemical_formula_structural   RbTm2(FeH6)2
_chemical_formula_sum   'Rb1 Tm2 Fe2 H12'
_cell_volume   176.23570626
_cell_formula_units_Z   1
loop_
 _symmetry_equiv_pos_site_id
 _symmetry_equiv_pos_as_xyz
  1  'x, y, z'
loop_
 _atom_site_type_symbol
 _atom_site_label
 _atom_site_symmetry_multiplicity
 _atom_site_fract_x
 _atom_site_fract_y
 _atom_site_fract_z
 _atom_site_occupancy
  Rb  Rb0  1  0.000000  0.000000  0.000000  1
  Tm  Tm1  1  0.666667  0.333333  0.371572  1
  Tm  Tm2  1  0.333333  0.666667  0.628428  1
  Fe  Fe3  1  0.666667  0.333333  0.696786  1
  Fe  Fe4  1  0.333333  0.666667  0.303214  1
  H  H5  1  0.174107  0.825893  0.402086  1
  H  H6  1  0.651785  0.825893  0.402086  1
  H  H7  1  0.174107  0.348215  0.402086  1
  H  H8  1  0.825893  0.174107  0.597914  1
  H  H9  1  0.348215  0.174107  0.597914  1
  H  H10  1  0.825893  0.651785  0.597914  1
  H  H11  1  0.519073  0.038146  0.809314  1
  H  H12  1  0.519073  0.480927  0.809314  1
  H  H13  1  0.961854  0.480927  0.809314  1
  H  H14  1  0.480927  0.961854  0.190686  1
  H  H15  1  0.480927  0.519073  0.190686  1
  H  H16  1  0.038146  0.519073  0.190686  1
