# generated using pymatgen
data_Dy4Lu(SiHg)2
_symmetry_space_group_name_H-M   'P 1'
_cell_length_a   8.77469147
_cell_length_b   8.77469131
_cell_length_c   7.50397500
_cell_angle_alpha   90.00000000
_cell_angle_beta   90.00000000
_cell_angle_gamma   129.54475242
_symmetry_Int_Tables_number   1
_chemical_formula_structural   Dy4Lu(SiHg)2
_chemical_formula_sum   'Dy8 Lu2 Si4 Hg4'
_cell_volume   445.53444329
_cell_formula_units_Z   2
loop_
 _symmetry_equiv_pos_site_id
 _symmetry_equiv_pos_as_xyz
  1  'x, y, z'
loop_
 _atom_site_type_symbol
 _atom_site_label
 _atom_site_symmetry_multiplicity
 _atom_site_fract_x
 _atom_site_fract_y
 _atom_site_fract_z
 _atom_site_occupancy
  Dy  Dy0  1  0.053606  0.308696  0.324615  1
  Dy  Dy1  1  0.946394  0.691304  0.675385  1
  Dy  Dy2  1  0.446394  0.191304  0.824615  1
  Dy  Dy3  1  0.808696  0.553606  0.175385  1
  Dy  Dy4  1  0.553606  0.808696  0.175385  1
  Dy  Dy5  1  0.191304  0.446394  0.824615  1
  Dy  Dy6  1  0.691304  0.946394  0.675385  1
  Dy  Dy7  1  0.308696  0.053606  0.324615  1
  Lu  Lu8  1  0.000000  0.000000  0.000000  1
  Lu  Lu9  1  0.500000  0.500000  0.500000  1
  Si  Si10  1  0.379606  0.379606  0.123280  1
  Si  Si11  1  0.620394  0.620394  0.876720  1
  Si  Si12  1  0.120394  0.120394  0.623280  1
  Si  Si13  1  0.879606  0.879606  0.376720  1
  Hg  Hg14  1  0.782950  0.217050  0.000000  1
  Hg  Hg15  1  0.217050  0.782950  0.000000  1
  Hg  Hg16  1  0.717050  0.282950  0.500000  1
  Hg  Hg17  1  0.282950  0.717050  0.500000  1
