# generated using pymatgen
data_Zr6SnSbC4
_symmetry_space_group_name_H-M   'P 1'
_cell_length_a   3.39831300
_cell_length_b   3.39831241
_cell_length_c   19.87376300
_cell_angle_alpha   90.00000000
_cell_angle_beta   90.00000000
_cell_angle_gamma   119.99999597
_symmetry_Int_Tables_number   1
_chemical_formula_structural   Zr6SnSbC4
_chemical_formula_sum   'Zr6 Sn1 Sb1 C4'
_cell_volume   198.76386569
_cell_formula_units_Z   1
loop_
 _symmetry_equiv_pos_site_id
 _symmetry_equiv_pos_as_xyz
  1  'x, y, z'
loop_
 _atom_site_type_symbol
 _atom_site_label
 _atom_site_symmetry_multiplicity
 _atom_site_fract_x
 _atom_site_fract_y
 _atom_site_fract_z
 _atom_site_occupancy
  Zr  Zr0  1  0.000000  0.000000  0.002395  1
  Zr  Zr1  1  0.333334  0.666667  0.131760  1
  Zr  Zr2  1  0.333334  0.666667  0.368240  1
  Zr  Zr3  1  0.000000  0.000000  0.497605  1
  Zr  Zr4  1  0.666666  0.333334  0.626660  1
  Zr  Zr5  1  0.666666  0.333334  0.873340  1
  Sn  Sn6  1  0.000000  0.000000  0.750000  1
  Sb  Sb7  1  0.000000  0.000000  0.250000  1
  C  C8  1  0.666666  0.333334  0.072367  1
  C  C9  1  0.666666  0.333334  0.427633  1
  C  C10  1  0.333334  0.666667  0.568095  1
  C  C11  1  0.333334  0.666667  0.931905  1
