# generated using pymatgen
data_SrMnFe2Sb12Os
_symmetry_space_group_name_H-M   'P 1'
_cell_length_a   8.05955091
_cell_length_b   8.10900662
_cell_length_c   8.10927036
_cell_angle_alpha   109.81103345
_cell_angle_beta   109.47128674
_cell_angle_gamma   109.48965278
_symmetry_Int_Tables_number   1
_chemical_formula_structural   SrMnFe2Sb12Os
_chemical_formula_sum   'Sr1 Mn1 Fe2 Sb12 Os1'
_cell_volume   406.16203988
_cell_formula_units_Z   1
loop_
 _symmetry_equiv_pos_site_id
 _symmetry_equiv_pos_as_xyz
  1  'x, y, z'
loop_
 _atom_site_type_symbol
 _atom_site_label
 _atom_site_symmetry_multiplicity
 _atom_site_fract_x
 _atom_site_fract_y
 _atom_site_fract_z
 _atom_site_occupancy
  Sr  Sr0  1  0.000000  0.000000  0.000000  1
  Mn  Mn1  1  0.500000  0.500000  0.500000  1
  Fe  Fe2  1  0.000000  0.000000  0.500000  1
  Fe  Fe3  1  0.000000  0.500000  0.000000  1
  Sb  Sb4  1  0.330986  0.176084  0.833355  1
  Sb  Sb5  1  0.669014  0.823916  0.166645  1
  Sb  Sb6  1  0.668420  0.500733  0.849622  1
  Sb  Sb7  1  0.331580  0.499267  0.150378  1
  Sb  Sb8  1  0.170134  0.837021  0.333012  1
  Sb  Sb9  1  0.829866  0.162979  0.666988  1
  Sb  Sb10  1  0.499702  0.844892  0.657058  1
  Sb  Sb11  1  0.500298  0.155108  0.342942  1
  Sb  Sb12  1  0.845744  0.342676  0.176224  1
  Sb  Sb13  1  0.154256  0.657324  0.823776  1
  Sb  Sb14  1  0.849416  0.668907  0.500971  1
  Sb  Sb15  1  0.150584  0.331093  0.499029  1
  Os  Os16  1  0.500000  0.000000  0.000000  1
