# generated using pymatgen
data_Pr3U5(TcB6)4
_symmetry_space_group_name_H-M   'P 1'
_cell_length_a   3.69307700
_cell_length_b   9.37871304
_cell_length_c   11.49455493
_cell_angle_alpha   90.10624382
_cell_angle_beta   90.00000000
_cell_angle_gamma   90.00000000
_symmetry_Int_Tables_number   1
_chemical_formula_structural   Pr3U5(TcB6)4
_chemical_formula_sum   'Pr3 U5 Tc4 B24'
_cell_volume   398.12827668
_cell_formula_units_Z   1
loop_
 _symmetry_equiv_pos_site_id
 _symmetry_equiv_pos_as_xyz
  1  'x, y, z'
loop_
 _atom_site_type_symbol
 _atom_site_label
 _atom_site_symmetry_multiplicity
 _atom_site_fract_x
 _atom_site_fract_y
 _atom_site_fract_z
 _atom_site_occupancy
  Pr  Pr0  1  0.000000  0.337599  0.408174  1
  Pr  Pr1  1  0.000000  0.662410  0.592268  1
  Pr  Pr2  1  0.000000  0.836755  0.092037  1
  U  U3  1  0.000000  0.162895  0.907385  1
  U  U4  1  0.000000  0.957070  0.396898  1
  U  U5  1  0.000000  0.042185  0.603808  1
  U  U6  1  0.000000  0.457135  0.102872  1
  U  U7  1  0.000000  0.541339  0.896880  1
  Tc  Tc8  1  0.000000  0.648015  0.317226  1
  Tc  Tc9  1  0.000000  0.348435  0.687119  1
  Tc  Tc10  1  0.000000  0.148609  0.177703  1
  Tc  Tc11  1  0.000000  0.858560  0.818715  1
  B  B12  1  0.500000  0.556169  0.427516  1
  B  B13  1  0.500000  0.442370  0.574249  1
  B  B14  1  0.500000  0.056536  0.067775  1
  B  B15  1  0.500000  0.950454  0.928657  1
  B  B16  1  0.500000  0.746074  0.421007  1
  B  B17  1  0.500000  0.253338  0.580235  1
  B  B18  1  0.500000  0.243866  0.075874  1
  B  B19  1  0.500000  0.755514  0.920724  1
  B  B20  1  0.500000  0.802767  0.275008  1
  B  B21  1  0.500000  0.194836  0.727993  1
  B  B22  1  0.500000  0.302296  0.223469  1
  B  B23  1  0.500000  0.698886  0.775835  1
  B  B24  1  0.500000  0.643326  0.187729  1
  B  B25  1  0.500000  0.352509  0.813587  1
  B  B26  1  0.500000  0.144053  0.310742  1
  B  B27  1  0.500000  0.857365  0.688957  1
  B  B28  1  0.500000  0.993216  0.219933  1
  B  B29  1  0.500000  0.012608  0.781314  1
  B  B30  1  0.500000  0.492172  0.278536  1
  B  B31  1  0.500000  0.506695  0.722189  1
  B  B32  1  0.500000  0.636816  0.036665  1
  B  B33  1  0.500000  0.356595  0.960821  1
  B  B34  1  0.500000  0.135962  0.462433  1
  B  B35  1  0.500000  0.864569  0.537668  1
