# generated using pymatgen
data_Pr6MgCd22S
_symmetry_space_group_name_H-M   'P 1'
_cell_length_a   10.08977038
_cell_length_b   10.08977082
_cell_length_c   10.08976900
_cell_angle_alpha   59.99999614
_cell_angle_beta   59.99999469
_cell_angle_gamma   59.99999601
_symmetry_Int_Tables_number   1
_chemical_formula_structural   Pr6MgCd22S
_chemical_formula_sum   'Pr6 Mg1 Cd22 S1'
_cell_volume   726.32127761
_cell_formula_units_Z   1
loop_
 _symmetry_equiv_pos_site_id
 _symmetry_equiv_pos_as_xyz
  1  'x, y, z'
loop_
 _atom_site_type_symbol
 _atom_site_label
 _atom_site_symmetry_multiplicity
 _atom_site_fract_x
 _atom_site_fract_y
 _atom_site_fract_z
 _atom_site_occupancy
  Pr  Pr0  1  0.797167  0.797281  0.202629  1
  Pr  Pr1  1  0.202744  0.797482  0.202631  1
  Pr  Pr2  1  0.797435  0.202657  0.202704  1
  Pr  Pr3  1  0.202833  0.202719  0.797371  1
  Pr  Pr4  1  0.797256  0.202518  0.797369  1
  Pr  Pr5  1  0.202565  0.797343  0.797296  1
  Mg  Mg6  1  0.500000  0.500000  0.500000  1
  Cd  Cd7  1  0.831873  0.831873  0.503045  1
  Cd  Cd8  1  0.831762  0.503029  0.831906  1
  Cd  Cd9  1  0.502822  0.831856  0.831916  1
  Cd  Cd10  1  0.833594  0.833638  0.833531  1
  Cd  Cd11  1  0.168127  0.168127  0.496955  1
  Cd  Cd12  1  0.168238  0.496971  0.168094  1
  Cd  Cd13  1  0.497178  0.168144  0.168084  1
  Cd  Cd14  1  0.166406  0.166362  0.166469  1
  Cd  Cd15  1  0.620679  0.620692  0.137219  1
  Cd  Cd16  1  0.620598  0.137236  0.620656  1
  Cd  Cd17  1  0.137326  0.620580  0.620640  1
  Cd  Cd18  1  0.621485  0.621503  0.621384  1
  Cd  Cd19  1  0.379321  0.379308  0.862781  1
  Cd  Cd20  1  0.379402  0.862764  0.379344  1
  Cd  Cd21  1  0.862674  0.379420  0.379360  1
  Cd  Cd22  1  0.378515  0.378497  0.378616  1
  Cd  Cd23  1  0.000000  0.000000  0.500000  1
  Cd  Cd24  1  0.500000  0.000000  0.500000  1
  Cd  Cd25  1  0.000000  0.500000  0.500000  1
  Cd  Cd26  1  0.500000  0.500000  0.000000  1
  Cd  Cd27  1  0.000000  0.500000  0.000000  1
  Cd  Cd28  1  0.500000  0.000000  0.000000  1
  S  S29  1  0.000000  0.000000  0.000000  1
