# generated using pymatgen
data_Pb(NF7)2
_symmetry_space_group_name_H-M   'P 1'
_cell_length_a   7.11268418
_cell_length_b   7.11268413
_cell_length_c   7.11268449
_cell_angle_alpha   118.78601149
_cell_angle_beta   118.78600497
_cell_angle_gamma   92.11588569
_symmetry_Int_Tables_number   1
_chemical_formula_structural   Pb(NF7)2
_chemical_formula_sum   'Pb1 N2 F14'
_cell_volume   258.91793472
_cell_formula_units_Z   1
loop_
 _symmetry_equiv_pos_site_id
 _symmetry_equiv_pos_as_xyz
  1  'x, y, z'
loop_
 _atom_site_type_symbol
 _atom_site_label
 _atom_site_symmetry_multiplicity
 _atom_site_fract_x
 _atom_site_fract_y
 _atom_site_fract_z
 _atom_site_occupancy
  Pb  Pb0  1  0.000000  0.000000  0.000000  1
  N  N1  1  0.750000  0.250000  0.500000  1
  N  N2  1  0.250000  0.750000  0.500000  1
  F  F3  1  0.399166  0.961752  0.704970  1
  F  F4  1  0.253209  0.147023  0.400231  1
  F  F5  1  0.147023  0.746791  0.893813  1
  F  F6  1  0.852977  0.253209  0.106187  1
  F  F7  1  0.746791  0.852977  0.599769  1
  F  F8  1  0.212750  0.212750  0.000000  1
  F  F9  1  0.787250  0.787250  0.000000  1
  F  F10  1  0.743218  0.305804  0.704970  1
  F  F11  1  0.305804  0.600834  0.562586  1
  F  F12  1  0.038248  0.743218  0.437414  1
  F  F13  1  0.600834  0.038248  0.295030  1
  F  F14  1  0.256782  0.694196  0.295030  1
  F  F15  1  0.694196  0.399166  0.437414  1
  F  F16  1  0.961752  0.256782  0.562586  1
