# generated using pymatgen
data_Ba2Zr3(NiS4)2
_symmetry_space_group_name_H-M   'P 1'
_cell_length_a   3.78455007
_cell_length_b   7.14295034
_cell_length_c   12.87306999
_cell_angle_alpha   93.37619693
_cell_angle_beta   98.40535441
_cell_angle_gamma   105.35502706
_symmetry_Int_Tables_number   1
_chemical_formula_structural   Ba2Zr3(NiS4)2
_chemical_formula_sum   'Ba2 Zr3 Ni2 S8'
_cell_volume   330.22708226
_cell_formula_units_Z   1
loop_
 _symmetry_equiv_pos_site_id
 _symmetry_equiv_pos_as_xyz
  1  'x, y, z'
loop_
 _atom_site_type_symbol
 _atom_site_label
 _atom_site_symmetry_multiplicity
 _atom_site_fract_x
 _atom_site_fract_y
 _atom_site_fract_z
 _atom_site_occupancy
  Ba  Ba0  1  0.870432  0.540860  0.199945  1
  Ba  Ba1  1  0.129568  0.459140  0.800054  1
  Zr  Zr2  1  0.500000  0.000000  0.000000  1
  Zr  Zr3  1  0.718543  0.061507  0.375581  1
  Zr  Zr4  1  0.281456  0.938493  0.624418  1
  Ni  Ni5  1  0.141898  0.087693  0.194513  1
  Ni  Ni6  1  0.858101  0.912308  0.805486  1
  S  S7  1  0.154571  0.259451  0.049640  1
  S  S8  1  0.542733  0.896883  0.187846  1
  S  S9  1  0.323069  0.305042  0.341585  1
  S  S10  1  0.121645  0.820660  0.422723  1
  S  S11  1  0.878355  0.179341  0.577276  1
  S  S12  1  0.676932  0.694959  0.658416  1
  S  S13  1  0.457267  0.103117  0.812154  1
  S  S14  1  0.845428  0.740548  0.950359  1
