# generated using pymatgen
data_CaLa4Cd3(GaO4)4
_symmetry_space_group_name_H-M   'P 1'
_cell_length_a   11.87059746
_cell_length_b   5.41204754
_cell_length_c   6.84806818
_cell_angle_alpha   90.18920768
_cell_angle_beta   89.81758548
_cell_angle_gamma   89.96635377
_symmetry_Int_Tables_number   1
_chemical_formula_structural   CaLa4Cd3(GaO4)4
_chemical_formula_sum   'Ca1 La4 Cd3 Ga4 O16'
_cell_volume   439.94421277
_cell_formula_units_Z   1
loop_
 _symmetry_equiv_pos_site_id
 _symmetry_equiv_pos_as_xyz
  1  'x, y, z'
loop_
 _atom_site_type_symbol
 _atom_site_label
 _atom_site_symmetry_multiplicity
 _atom_site_fract_x
 _atom_site_fract_y
 _atom_site_fract_z
 _atom_site_occupancy
  Ca  Ca0  1  0.999973  0.000019  0.487167  1
  La  La1  1  0.221452  0.513083  0.237579  1
  La  La2  1  0.778543  0.486914  0.736651  1
  La  La3  1  0.279029  0.012957  0.738070  1
  La  La4  1  0.720965  0.987095  0.236176  1
  Cd  Cd5  1  0.499973  0.499959  0.487212  1
  Cd  Cd6  1  0.500024  0.500034  0.987206  1
  Cd  Cd7  1  0.000027  0.999961  0.987201  1
  Ga  Ga8  1  0.410543  0.069148  0.237187  1
  Ga  Ga9  1  0.589464  0.930854  0.737083  1
  Ga  Ga10  1  0.089843  0.568843  0.738928  1
  Ga  Ga11  1  0.910163  0.431175  0.235314  1
  O  O12  1  0.407742  0.729931  0.237096  1
  O  O13  1  0.592244  0.270058  0.737168  1
  O  O14  1  0.093304  0.230050  0.733121  1
  O  O15  1  0.906710  0.769943  0.241141  1
  O  O16  1  0.161479  0.731251  0.525626  1
  O  O17  1  0.836905  0.270115  0.024329  1
  O  O18  1  0.337257  0.227514  0.025796  1
  O  O19  1  0.663649  0.772630  0.525014  1
  O  O20  1  0.336323  0.227371  0.449260  1
  O  O21  1  0.662767  0.772469  0.948488  1
  O  O22  1  0.163127  0.729883  0.949959  1
  O  O23  1  0.838494  0.268757  0.448639  1
  O  O24  1  0.551995  0.230164  0.237138  1
  O  O25  1  0.448000  0.769843  0.737168  1
  O  O26  1  0.947316  0.725507  0.740579  1
  O  O27  1  0.052693  0.274469  0.233712  1
