# generated using pymatgen
data_HoTm19Rh12
_symmetry_space_group_name_H-M   'P 1'
_cell_length_a   10.73011600
_cell_length_b   10.73011600
_cell_length_c   6.25688600
_cell_angle_alpha   90.00000000
_cell_angle_beta   90.00000000
_cell_angle_gamma   90.00000000
_symmetry_Int_Tables_number   1
_chemical_formula_structural   HoTm19Rh12
_chemical_formula_sum   'Ho1 Tm19 Rh12'
_cell_volume   720.38900588
_cell_formula_units_Z   1
loop_
 _symmetry_equiv_pos_site_id
 _symmetry_equiv_pos_as_xyz
  1  'x, y, z'
loop_
 _atom_site_type_symbol
 _atom_site_label
 _atom_site_symmetry_multiplicity
 _atom_site_fract_x
 _atom_site_fract_y
 _atom_site_fract_z
 _atom_site_occupancy
  Ho  Ho0  1  0.000000  0.000000  0.500000  1
  Tm  Tm1  1  0.290495  0.087551  0.376492  1
  Tm  Tm2  1  0.291320  0.911522  0.877039  1
  Tm  Tm3  1  0.708680  0.088478  0.877039  1
  Tm  Tm4  1  0.709505  0.912449  0.376492  1
  Tm  Tm5  1  0.588638  0.790799  0.876934  1
  Tm  Tm6  1  0.587133  0.209377  0.376786  1
  Tm  Tm7  1  0.412867  0.790623  0.376786  1
  Tm  Tm8  1  0.411362  0.209201  0.876934  1
  Tm  Tm9  1  0.209377  0.412867  0.623214  1
  Tm  Tm10  1  0.209201  0.588638  0.123066  1
  Tm  Tm11  1  0.790799  0.411362  0.123066  1
  Tm  Tm12  1  0.790623  0.587133  0.623214  1
  Tm  Tm13  1  0.911522  0.708680  0.122961  1
  Tm  Tm14  1  0.912449  0.290495  0.623508  1
  Tm  Tm15  1  0.087551  0.709505  0.623508  1
  Tm  Tm16  1  0.088478  0.291320  0.122961  1
  Tm  Tm17  1  0.000000  0.000000  0.000000  1
  Tm  Tm18  1  0.500000  0.500000  0.000000  1
  Tm  Tm19  1  0.500000  0.500000  0.500000  1
  Rh  Rh20  1  0.845412  0.155882  0.248701  1
  Rh  Rh21  1  0.844118  0.845412  0.751299  1
  Rh  Rh22  1  0.155882  0.154588  0.751299  1
  Rh  Rh23  1  0.154588  0.844118  0.248701  1
  Rh  Rh24  1  0.654552  0.345535  0.749672  1
  Rh  Rh25  1  0.654465  0.654552  0.250328  1
  Rh  Rh26  1  0.345535  0.345448  0.250328  1
  Rh  Rh27  1  0.345448  0.654465  0.749672  1
  Rh  Rh28  1  0.500000  0.000000  0.123572  1
  Rh  Rh29  1  0.500000  0.000000  0.623450  1
  Rh  Rh30  1  0.000000  0.500000  0.876428  1
  Rh  Rh31  1  0.000000  0.500000  0.376550  1
