# generated using pymatgen
data_Np4Ga10Ge2Pd
_symmetry_space_group_name_H-M   'P 1'
_cell_length_a   7.48082840
_cell_length_b   7.48082865
_cell_length_c   7.48082871
_cell_angle_alpha   107.45779771
_cell_angle_beta   110.48721840
_cell_angle_gamma   110.48721636
_symmetry_Int_Tables_number   1
_chemical_formula_structural   Np4Ga10Ge2Pd
_chemical_formula_sum   'Np4 Ga10 Ge2 Pd1'
_cell_volume   321.97825924
_cell_formula_units_Z   1
loop_
 _symmetry_equiv_pos_site_id
 _symmetry_equiv_pos_as_xyz
  1  'x, y, z'
loop_
 _atom_site_type_symbol
 _atom_site_label
 _atom_site_symmetry_multiplicity
 _atom_site_fract_x
 _atom_site_fract_y
 _atom_site_fract_z
 _atom_site_occupancy
  Np  Np0  1  0.500000  0.500000  0.500000  1
  Np  Np1  1  0.000000  0.000000  0.500000  1
  Np  Np2  1  0.000000  0.500000  0.000000  1
  Np  Np3  1  0.500000  0.000000  0.000000  1
  Ga  Ga4  1  0.249239  0.500000  0.749239  1
  Ga  Ga5  1  0.750761  0.500000  0.250761  1
  Ga  Ga6  1  0.750761  0.250761  0.500000  1
  Ga  Ga7  1  0.249239  0.749239  0.500000  1
  Ga  Ga8  1  0.000000  0.294547  0.294547  1
  Ga  Ga9  1  0.000000  0.705453  0.705453  1
  Ga  Ga10  1  0.295560  0.000000  0.295560  1
  Ga  Ga11  1  0.704440  0.000000  0.704440  1
  Ga  Ga12  1  0.295560  0.295560  0.000000  1
  Ga  Ga13  1  0.704440  0.704440  0.000000  1
  Ge  Ge14  1  0.500000  0.750000  0.250000  1
  Ge  Ge15  1  0.500000  0.250000  0.750000  1
  Pd  Pd16  1  0.000000  0.000000  0.000000  1
