# generated using pymatgen
data_Er16In4IrRu3
_symmetry_space_group_name_H-M   'P 1'
_cell_length_a   9.53525829
_cell_length_b   9.55355095
_cell_length_c   9.53525800
_cell_angle_alpha   60.06332024
_cell_angle_beta   60.00000102
_cell_angle_gamma   60.06331990
_symmetry_Int_Tables_number   1
_chemical_formula_structural   Er16In4IrRu3
_chemical_formula_sum   'Er16 In4 Ir1 Ru3'
_cell_volume   614.79415985
_cell_formula_units_Z   1
loop_
 _symmetry_equiv_pos_site_id
 _symmetry_equiv_pos_as_xyz
  1  'x, y, z'
loop_
 _atom_site_type_symbol
 _atom_site_label
 _atom_site_symmetry_multiplicity
 _atom_site_fract_x
 _atom_site_fract_y
 _atom_site_fract_z
 _atom_site_occupancy
  Er  Er0  1  0.059807  0.059938  0.440128  1
  Er  Er1  1  0.650467  0.048599  0.650467  1
  Er  Er2  1  0.190947  0.808981  0.190947  1
  Er  Er3  1  0.440128  0.059938  0.440128  1
  Er  Er4  1  0.192225  0.189854  0.808961  1
  Er  Er5  1  0.650538  0.650813  0.650538  1
  Er  Er6  1  0.048112  0.650813  0.650538  1
  Er  Er7  1  0.440128  0.059938  0.059807  1
  Er  Er8  1  0.650538  0.650813  0.048112  1
  Er  Er9  1  0.190947  0.808981  0.809126  1
  Er  Er10  1  0.808961  0.189854  0.808961  1
  Er  Er11  1  0.808961  0.189854  0.192225  1
  Er  Er12  1  0.809126  0.808981  0.190947  1
  Er  Er13  1  0.060250  0.440261  0.439239  1
  Er  Er14  1  0.439239  0.440261  0.060250  1
  Er  Er15  1  0.060250  0.440261  0.060250  1
  In  In16  1  0.747865  0.417347  0.417394  1
  In  In17  1  0.417394  0.417347  0.747865  1
  In  In18  1  0.417147  0.748560  0.417147  1
  In  In19  1  0.417394  0.417347  0.417394  1
  Ir  Ir20  1  0.858474  0.424578  0.858474  1
  Ru  Ru21  1  0.858936  0.858895  0.858936  1
  Ru  Ru22  1  0.423235  0.858895  0.858936  1
  Ru  Ru23  1  0.858936  0.858895  0.423235  1
