# generated using pymatgen
data_Ba6Sc2(TeO6)3
_symmetry_space_group_name_H-M   'P 1'
_cell_length_a   10.22813524
_cell_length_b   10.22813466
_cell_length_c   10.22813510
_cell_angle_alpha   146.54857669
_cell_angle_beta   132.01536866
_cell_angle_gamma   59.75600570
_symmetry_Int_Tables_number   1
_chemical_formula_structural   Ba6Sc2(TeO6)3
_chemical_formula_sum   'Ba6 Sc2 Te3 O18'
_cell_volume   434.28135619
_cell_formula_units_Z   1
loop_
 _symmetry_equiv_pos_site_id
 _symmetry_equiv_pos_as_xyz
  1  'x, y, z'
loop_
 _atom_site_type_symbol
 _atom_site_label
 _atom_site_symmetry_multiplicity
 _atom_site_fract_x
 _atom_site_fract_y
 _atom_site_fract_z
 _atom_site_occupancy
  Ba  Ba0  1  0.771973  0.500000  0.271973  1
  Ba  Ba1  1  0.398066  0.158907  0.239159  1
  Ba  Ba2  1  0.080252  0.841093  0.239159  1
  Ba  Ba3  1  0.228027  0.500000  0.728027  1
  Ba  Ba4  1  0.919748  0.158907  0.760841  1
  Ba  Ba5  1  0.601934  0.841093  0.760841  1
  Sc  Sc6  1  0.665069  0.665069  0.000000  1
  Sc  Sc7  1  0.334931  0.334931  0.000000  1
  Te  Te8  1  0.500000  0.000000  0.500000  1
  Te  Te9  1  0.172458  0.672458  0.500000  1
  Te  Te10  1  0.827542  0.327542  0.500000  1
  O  O11  1  0.726764  0.000000  0.726764  1
  O  O12  1  0.414546  0.672172  0.742373  1
  O  O13  1  0.070202  0.327828  0.742373  1
  O  O14  1  0.580291  0.836868  0.256576  1
  O  O15  1  0.251300  0.515189  0.263890  1
  O  O16  1  0.903572  0.173976  0.270403  1
  O  O17  1  0.419709  0.676285  0.256576  1
  O  O18  1  0.096428  0.366831  0.270403  1
  O  O19  1  0.748700  0.012590  0.263890  1
  O  O20  1  0.273236  0.000000  0.273236  1
  O  O21  1  0.929798  0.672172  0.257627  1
  O  O22  1  0.585454  0.327828  0.257627  1
  O  O23  1  0.419709  0.163132  0.743424  1
  O  O24  1  0.096428  0.826024  0.729597  1
  O  O25  1  0.748700  0.484811  0.736110  1
  O  O26  1  0.580291  0.323715  0.743424  1
  O  O27  1  0.251300  0.987410  0.736110  1
  O  O28  1  0.903572  0.633170  0.729597  1
