# generated using pymatgen
data_Nb12Al5Pd3N4
_symmetry_space_group_name_H-M   'P 1'
_cell_length_a   7.07670823
_cell_length_b   7.07670823
_cell_length_c   7.07670823
_cell_angle_alpha   90.23660663
_cell_angle_beta   90.23660663
_cell_angle_gamma   90.23660663
_symmetry_Int_Tables_number   1
_chemical_formula_structural   Nb12Al5Pd3N4
_chemical_formula_sum   'Nb12 Al5 Pd3 N4'
_cell_volume   354.39103825
_cell_formula_units_Z   1
loop_
 _symmetry_equiv_pos_site_id
 _symmetry_equiv_pos_as_xyz
  1  'x, y, z'
loop_
 _atom_site_type_symbol
 _atom_site_label
 _atom_site_symmetry_multiplicity
 _atom_site_fract_x
 _atom_site_fract_y
 _atom_site_fract_z
 _atom_site_occupancy
  Nb  Nb0  1  0.787344  0.956717  0.380360  1
  Nb  Nb1  1  0.710156  0.041135  0.870982  1
  Nb  Nb2  1  0.211239  0.455878  0.124855  1
  Nb  Nb3  1  0.291090  0.543610  0.624417  1
  Nb  Nb4  1  0.956717  0.380360  0.787344  1
  Nb  Nb5  1  0.041135  0.870982  0.710156  1
  Nb  Nb6  1  0.455878  0.124855  0.211239  1
  Nb  Nb7  1  0.543610  0.624417  0.291090  1
  Nb  Nb8  1  0.380360  0.787344  0.956717  1
  Nb  Nb9  1  0.870982  0.710156  0.041135  1
  Nb  Nb10  1  0.124855  0.211239  0.455878  1
  Nb  Nb11  1  0.624417  0.291090  0.543610  1
  Al  Al12  1  0.676912  0.676912  0.676912  1
  Al  Al13  1  0.571451  0.419579  0.933474  1
  Al  Al14  1  0.419579  0.933474  0.571451  1
  Al  Al15  1  0.933474  0.571451  0.419579  1
  Al  Al16  1  0.073629  0.073629  0.073629  1
  Pd  Pd17  1  0.177608  0.822963  0.318574  1
  Pd  Pd18  1  0.318574  0.177608  0.822963  1
  Pd  Pd19  1  0.822963  0.318574  0.177608  1
  N  N20  1  0.880417  0.126443  0.625154  1
  N  N21  1  0.625154  0.880417  0.126443  1
  N  N22  1  0.126443  0.625154  0.880417  1
  N  N23  1  0.376015  0.376015  0.376015  1
