# generated using pymatgen
data_Pr3In3CuPdRh
_symmetry_space_group_name_H-M   'P 1'
_cell_length_a   7.72101700
_cell_length_b   7.72101737
_cell_length_c   4.06235500
_cell_angle_alpha   90.00000000
_cell_angle_beta   90.00000000
_cell_angle_gamma   120.00000271
_symmetry_Int_Tables_number   1
_chemical_formula_structural   Pr3In3CuPdRh
_chemical_formula_sum   'Pr3 In3 Cu1 Pd1 Rh1'
_cell_volume   209.72853854
_cell_formula_units_Z   1
loop_
 _symmetry_equiv_pos_site_id
 _symmetry_equiv_pos_as_xyz
  1  'x, y, z'
loop_
 _atom_site_type_symbol
 _atom_site_label
 _atom_site_symmetry_multiplicity
 _atom_site_fract_x
 _atom_site_fract_y
 _atom_site_fract_z
 _atom_site_occupancy
  Pr  Pr0  1  0.990703  0.581592  0.500000  1
  Pr  Pr1  1  0.418408  0.409110  0.500000  1
  Pr  Pr2  1  0.590890  0.009297  0.500000  1
  In  In3  1  0.754580  0.754381  0.000000  1
  In  In4  1  0.999800  0.245420  0.000000  1
  In  In5  1  0.245619  0.000200  0.000000  1
  Cu  Cu6  1  0.000000  0.000000  0.500000  1
  Pd  Pd7  1  0.333333  0.666667  0.000000  1
  Rh  Rh8  1  0.666667  0.333333  0.000000  1
