# generated using pymatgen
data_Dy4Er8Ga2Ni3Os
_symmetry_space_group_name_H-M   'P 1'
_cell_length_a   8.27368299
_cell_length_b   8.27368260
_cell_length_c   8.27368334
_cell_angle_alpha   112.83202079
_cell_angle_beta   109.59892775
_cell_angle_gamma   106.05353821
_symmetry_Int_Tables_number   1
_chemical_formula_structural   Dy4Er8Ga2Ni3Os
_chemical_formula_sum   'Dy4 Er8 Ga2 Ni3 Os1'
_cell_volume   434.46434338
_cell_formula_units_Z   1
loop_
 _symmetry_equiv_pos_site_id
 _symmetry_equiv_pos_as_xyz
  1  'x, y, z'
loop_
 _atom_site_type_symbol
 _atom_site_label
 _atom_site_symmetry_multiplicity
 _atom_site_fract_x
 _atom_site_fract_y
 _atom_site_fract_z
 _atom_site_occupancy
  Dy  Dy0  1  0.054497  0.747869  0.306629  1
  Dy  Dy1  1  0.960719  0.265833  0.694887  1
  Dy  Dy2  1  0.558760  0.252131  0.306629  1
  Dy  Dy3  1  0.429053  0.734167  0.694887  1
  Er  Er4  1  0.674449  0.862854  0.192414  1
  Er  Er5  1  0.329562  0.517965  0.192414  1
  Er  Er6  1  0.329562  0.137146  0.811596  1
  Er  Er7  1  0.674449  0.482035  0.811596  1
  Er  Er8  1  0.173802  0.222255  0.396059  1
  Er  Er9  1  0.815333  0.221803  0.037137  1
  Er  Er10  1  0.173802  0.777745  0.951547  1
  Er  Er11  1  0.815333  0.778197  0.593529  1
  Ga  Ga12  1  0.987851  0.500000  0.487851  1
  Ga  Ga13  1  0.505576  0.000000  0.505576  1
  Ni  Ni14  1  0.348782  0.500000  0.848782  1
  Ni  Ni15  1  0.881783  0.881482  0.000301  1
  Ni  Ni16  1  0.118819  0.118518  0.000301  1
  Os  Os17  1  0.667867  0.500000  0.167867  1
