# generated using pymatgen
data_Zr8In4Pd3PtRh4
_symmetry_space_group_name_H-M   'P 1'
_cell_length_a   7.57843009
_cell_length_b   7.57842927
_cell_length_c   6.77331691
_cell_angle_alpha   90.01807902
_cell_angle_beta   90.01807893
_cell_angle_gamma   89.50655491
_symmetry_Int_Tables_number   1
_chemical_formula_structural   Zr8In4Pd3PtRh4
_chemical_formula_sum   'Zr8 In4 Pd3 Pt1 Rh4'
_cell_volume   388.99471166
_cell_formula_units_Z   1
loop_
 _symmetry_equiv_pos_site_id
 _symmetry_equiv_pos_as_xyz
  1  'x, y, z'
loop_
 _atom_site_type_symbol
 _atom_site_label
 _atom_site_symmetry_multiplicity
 _atom_site_fract_x
 _atom_site_fract_y
 _atom_site_fract_z
 _atom_site_occupancy
  Zr  Zr0  1  0.656320  0.656320  0.501997  1
  Zr  Zr1  1  0.812460  0.183955  0.501005  1
  Zr  Zr2  1  0.673792  0.673792  0.998598  1
  Zr  Zr3  1  0.832981  0.159383  0.999331  1
  Zr  Zr4  1  0.183955  0.812460  0.501005  1
  Zr  Zr5  1  0.329774  0.329774  0.000346  1
  Zr  Zr6  1  0.159383  0.832981  0.999331  1
  Zr  Zr7  1  0.348813  0.348813  0.498988  1
  In  In8  1  0.000220  0.496789  0.250190  1
  In  In9  1  0.496547  0.000183  0.748215  1
  In  In10  1  0.496789  0.000220  0.250190  1
  In  In11  1  0.000183  0.496547  0.748215  1
  Pd  Pd12  1  0.129211  0.129211  0.273495  1
  Pd  Pd13  1  0.871336  0.871336  0.274638  1
  Pd  Pd14  1  0.131877  0.131877  0.725569  1
  Pt  Pt15  1  0.873528  0.873528  0.728309  1
  Rh  Rh16  1  0.631410  0.369305  0.229598  1
  Rh  Rh17  1  0.370325  0.631789  0.770690  1
  Rh  Rh18  1  0.631789  0.370325  0.770690  1
  Rh  Rh19  1  0.369305  0.631410  0.229598  1
