# generated using pymatgen
data_La2IrO6
_symmetry_space_group_name_H-M   'P 1'
_cell_length_a   5.52584100
_cell_length_b   9.56638100
_cell_length_c   10.30764100
_cell_angle_alpha   90.00000000
_cell_angle_beta   90.00000000
_cell_angle_gamma   90.00000000
_symmetry_Int_Tables_number   1
_chemical_formula_structural   La2IrO6
_chemical_formula_sum   'La8 Ir4 O24'
_cell_volume   544.88561446
_cell_formula_units_Z   4
loop_
 _symmetry_equiv_pos_site_id
 _symmetry_equiv_pos_as_xyz
  1  'x, y, z'
loop_
 _atom_site_type_symbol
 _atom_site_label
 _atom_site_symmetry_multiplicity
 _atom_site_fract_x
 _atom_site_fract_y
 _atom_site_fract_z
 _atom_site_occupancy
  La  La0  1  0.526214  0.102104  0.958825  1
  La  La1  1  0.026214  0.397896  0.041175  1
  La  La2  1  0.473786  0.602104  0.541175  1
  La  La3  1  0.973786  0.897896  0.458825  1
  La  La4  1  0.531751  0.219354  0.363443  1
  La  La5  1  0.031751  0.280646  0.636557  1
  La  La6  1  0.468249  0.719354  0.136557  1
  La  La7  1  0.968249  0.780646  0.863443  1
  Ir  Ir8  1  0.457402  0.997062  0.639635  1
  Ir  Ir9  1  0.957402  0.502938  0.360365  1
  Ir  Ir10  1  0.542598  0.497062  0.860365  1
  Ir  Ir11  1  0.042598  0.002938  0.139635  1
  O  O12  1  0.310691  0.129717  0.178056  1
  O  O13  1  0.810691  0.370283  0.821944  1
  O  O14  1  0.689309  0.629717  0.321944  1
  O  O15  1  0.189309  0.870283  0.678056  1
  O  O16  1  0.723159  0.112062  0.563706  1
  O  O17  1  0.223159  0.387938  0.436294  1
  O  O18  1  0.276841  0.612062  0.936294  1
  O  O19  1  0.776841  0.887938  0.063706  1
  O  O20  1  0.672277  0.639099  0.745634  1
  O  O21  1  0.172277  0.860901  0.254366  1
  O  O22  1  0.327723  0.139099  0.754366  1
  O  O23  1  0.827723  0.360901  0.245634  1
  O  O24  1  0.664160  0.942678  0.780430  1
  O  O25  1  0.164160  0.557322  0.219570  1
  O  O26  1  0.335840  0.442678  0.719570  1
  O  O27  1  0.835840  0.057322  0.280430  1
  O  O28  1  0.250447  0.086922  0.503816  1
  O  O29  1  0.750447  0.413078  0.496184  1
  O  O30  1  0.749553  0.586922  0.996184  1
  O  O31  1  0.249553  0.913078  0.003816  1
  O  O32  1  0.064938  0.648479  0.481565  1
  O  O33  1  0.564938  0.851521  0.518435  1
  O  O34  1  0.935062  0.148479  0.018435  1
  O  O35  1  0.435062  0.351521  0.981565  1
