# generated using pymatgen
data_Li6Pr3Tl3(TeO6)4
_symmetry_space_group_name_H-M   'P 1'
_cell_length_a   10.96555942
_cell_length_b   10.96557826
_cell_length_c   10.94343626
_cell_angle_alpha   109.44298270
_cell_angle_beta   109.44279059
_cell_angle_gamma   109.60977923
_symmetry_Int_Tables_number   1
_chemical_formula_structural   Li6Pr3Tl3(TeO6)4
_chemical_formula_sum   'Li12 Pr6 Tl6 Te8 O48'
_cell_volume   1011.93714839
_cell_formula_units_Z   2
loop_
 _symmetry_equiv_pos_site_id
 _symmetry_equiv_pos_as_xyz
  1  'x, y, z'
loop_
 _atom_site_type_symbol
 _atom_site_label
 _atom_site_symmetry_multiplicity
 _atom_site_fract_x
 _atom_site_fract_y
 _atom_site_fract_z
 _atom_site_occupancy
  Li  Li0  1  0.878426  0.749588  0.125772  1
  Li  Li1  1  0.247350  0.876188  0.125769  1
  Li  Li2  1  0.874707  0.124706  0.249998  1
  Li  Li3  1  0.375292  0.625291  0.250001  1
  Li  Li4  1  0.750415  0.621577  0.374230  1
  Li  Li5  1  0.623812  0.252652  0.374230  1
  Li  Li6  1  0.374408  0.752081  0.623688  1
  Li  Li7  1  0.249280  0.371605  0.623688  1
  Li  Li8  1  0.124547  0.874548  0.750002  1
  Li  Li9  1  0.625450  0.375451  0.749997  1
  Li  Li10  1  0.128394  0.250720  0.876311  1
  Li  Li11  1  0.747918  0.125593  0.876311  1
  Pr  Pr12  1  0.749456  0.875016  0.623218  1
  Pr  Pr13  1  0.873760  0.248202  0.623218  1
  Pr  Pr14  1  0.375001  0.125000  0.749999  1
  Pr  Pr15  1  0.874999  0.625000  0.750000  1
  Pr  Pr16  1  0.251799  0.626238  0.876783  1
  Pr  Pr17  1  0.624983  0.750543  0.876780  1
  Tl  Tl18  1  0.751577  0.375594  0.126863  1
  Tl  Tl19  1  0.375287  0.251268  0.126860  1
  Tl  Tl20  1  0.624999  0.874998  0.249996  1
  Tl  Tl21  1  0.124998  0.375001  0.250001  1
  Tl  Tl22  1  0.248730  0.124711  0.373139  1
  Tl  Tl23  1  0.124407  0.748427  0.373140  1
  Te  Te24  1  0.003590  0.004582  0.003938  1
  Te  Te25  1  0.498676  0.003582  0.005763  1
  Te  Te26  1  0.507090  0.502183  0.005764  1
  Te  Te27  1  0.000349  0.499357  0.003935  1
  Te  Te28  1  0.997816  0.992913  0.494238  1
  Te  Te29  1  0.495420  0.496412  0.496061  1
  Te  Te30  1  0.496420  0.001324  0.494237  1
  Te  Te31  1  0.000645  0.499652  0.496067  1
  O  O32  1  0.900271  0.326860  0.023552  1
  O  O33  1  0.123283  0.196695  0.023554  1
  O  O34  1  0.401426  0.885478  0.078536  1
  O  O35  1  0.677112  0.693059  0.078536  1
  O  O36  1  0.669700  0.978214  0.101317  1
  O  O37  1  0.431619  0.623105  0.101316  1
  O  O38  1  0.927943  0.598810  0.123616  1
  O  O39  1  0.195675  0.024807  0.123616  1
  O  O40  1  0.574507  0.198616  0.174795  1
  O  O41  1  0.600291  0.476184  0.174797  1
  O  O42  1  0.173065  0.572752  0.196451  1
  O  O43  1  0.023386  0.123699  0.196451  1
  O  O44  1  0.376301  0.476614  0.303549  1
  O  O45  1  0.927248  0.326935  0.303548  1
  O  O46  1  0.301384  0.925492  0.325204  1
  O  O47  1  0.023818  0.899712  0.325205  1
  O  O48  1  0.901191  0.572059  0.376385  1
  O  O49  1  0.475192  0.304325  0.376382  1
  O  O50  1  0.521787  0.830301  0.398682  1
  O  O51  1  0.876895  0.068382  0.398683  1
  O  O52  1  0.806941  0.822888  0.421464  1
  O  O53  1  0.614521  0.098576  0.421464  1
  O  O54  1  0.303305  0.376717  0.476444  1
  O  O55  1  0.173140  0.599729  0.476448  1
  O  O56  1  0.689581  0.614208  0.519214  1
  O  O57  1  0.829632  0.405006  0.519212  1
  O  O58  1  0.192068  0.167662  0.570210  1
  O  O59  1  0.378144  0.902547  0.570211  1
  O  O60  1  0.114665  0.920900  0.594683  1
  O  O61  1  0.480017  0.173783  0.594684  1
  O  O62  1  0.518697  0.690818  0.614118  1
  O  O63  1  0.095420  0.423299  0.614118  1
  O  O64  1  0.979942  0.094176  0.668276  1
  O  O65  1  0.688335  0.074102  0.668275  1
  O  O66  1  0.614044  0.519811  0.690360  1
  O  O67  1  0.076316  0.670550  0.690362  1
  O  O68  1  0.980189  0.885955  0.809639  1
  O  O69  1  0.829451  0.423685  0.809639  1
  O  O70  1  0.405826  0.520057  0.831724  1
  O  O71  1  0.425900  0.811665  0.831725  1
  O  O72  1  0.809182  0.981303  0.885883  1
  O  O73  1  0.076701  0.404581  0.885882  1
  O  O74  1  0.579100  0.385334  0.905317  1
  O  O75  1  0.326215  0.019980  0.905314  1
  O  O76  1  0.332337  0.307931  0.929789  1
  O  O77  1  0.597452  0.121857  0.929788  1
  O  O78  1  0.094995  0.670368  0.980787  1
  O  O79  1  0.885794  0.810421  0.980787  1
