# generated using pymatgen
data_Tb16CdHg3Pt4
_symmetry_space_group_name_H-M   'P 1'
_cell_length_a   9.70949142
_cell_length_b   9.71295101
_cell_length_c   9.71295200
_cell_angle_alpha   59.99999662
_cell_angle_beta   59.98820928
_cell_angle_gamma   59.98820589
_symmetry_Int_Tables_number   1
_chemical_formula_structural   Tb16CdHg3Pt4
_chemical_formula_sum   'Tb16 Cd1 Hg3 Pt4'
_cell_volume   647.59946500
_cell_formula_units_Z   1
loop_
 _symmetry_equiv_pos_site_id
 _symmetry_equiv_pos_as_xyz
  1  'x, y, z'
loop_
 _atom_site_type_symbol
 _atom_site_label
 _atom_site_symmetry_multiplicity
 _atom_site_fract_x
 _atom_site_fract_y
 _atom_site_fract_z
 _atom_site_occupancy
  Tb  Tb0  1  0.354083  0.353120  0.353120  1
  Tb  Tb1  1  0.354083  0.353120  0.939679  1
  Tb  Tb2  1  0.354083  0.939679  0.353120  1
  Tb  Tb3  1  0.937778  0.354075  0.354075  1
  Tb  Tb4  1  0.809649  0.190210  0.190210  1
  Tb  Tb5  1  0.189245  0.810424  0.810424  1
  Tb  Tb6  1  0.189245  0.810424  0.189907  1
  Tb  Tb7  1  0.809649  0.190210  0.809932  1
  Tb  Tb8  1  0.189245  0.189907  0.810424  1
  Tb  Tb9  1  0.809649  0.809932  0.190210  1
  Tb  Tb10  1  0.933448  0.565089  0.565089  1
  Tb  Tb11  1  0.564359  0.935532  0.935532  1
  Tb  Tb12  1  0.564359  0.935532  0.564578  1
  Tb  Tb13  1  0.933448  0.565088  0.936374  1
  Tb  Tb14  1  0.564359  0.564578  0.935532  1
  Tb  Tb15  1  0.933448  0.936374  0.565088  1
  Cd  Cd16  1  0.253926  0.582025  0.582025  1
  Hg  Hg17  1  0.585374  0.587170  0.587170  1
  Hg  Hg18  1  0.585374  0.587170  0.240285  1
  Hg  Hg19  1  0.585374  0.240285  0.587170  1
  Pt  Pt20  1  0.143384  0.143646  0.143646  1
  Pt  Pt21  1  0.143384  0.143646  0.569324  1
  Pt  Pt22  1  0.143384  0.569324  0.143646  1
  Pt  Pt23  1  0.569674  0.143442  0.143442  1
