# generated using pymatgen
data_Sm2BeSi13Ir6
_symmetry_space_group_name_H-M   'P 1'
_cell_length_a   8.06406991
_cell_length_b   7.98071257
_cell_length_c   7.97661700
_cell_angle_alpha   57.16487693
_cell_angle_beta   56.66507480
_cell_angle_gamma   56.75924188
_symmetry_Int_Tables_number   1
_chemical_formula_structural   Sm2BeSi13Ir6
_chemical_formula_sum   'Sm2 Be1 Si13 Ir6'
_cell_volume   336.70495161
_cell_formula_units_Z   1
loop_
 _symmetry_equiv_pos_site_id
 _symmetry_equiv_pos_as_xyz
  1  'x, y, z'
loop_
 _atom_site_type_symbol
 _atom_site_label
 _atom_site_symmetry_multiplicity
 _atom_site_fract_x
 _atom_site_fract_y
 _atom_site_fract_z
 _atom_site_occupancy
  Sm  Sm0  1  0.503309  0.497444  0.501875  1
  Sm  Sm1  1  0.999059  0.000216  0.996405  1
  Be  Be2  1  0.850954  0.053661  0.679525  1
  Si  Si3  1  0.673841  0.857138  0.058091  1
  Si  Si4  1  0.058425  0.683285  0.844098  1
  Si  Si5  1  0.651542  0.820917  0.444453  1
  Si  Si6  1  0.248424  0.248701  0.250408  1
  Si  Si7  1  0.750826  0.757691  0.749370  1
  Si  Si8  1  0.168599  0.569096  0.351715  1
  Si  Si9  1  0.562943  0.353347  0.170891  1
  Si  Si10  1  0.351730  0.174663  0.559816  1
  Si  Si11  1  0.935880  0.328406  0.148586  1
  Si  Si12  1  0.331827  0.148774  0.929818  1
  Si  Si13  1  0.138494  0.942107  0.338057  1
  Si  Si14  1  0.837796  0.412451  0.648341  1
  Si  Si15  1  0.441161  0.647485  0.826959  1
  Ir  Ir16  1  0.748363  0.073997  0.425972  1
  Ir  Ir17  1  0.425640  0.751694  0.075012  1
  Ir  Ir18  1  0.068113  0.429915  0.749678  1
  Ir  Ir19  1  0.254648  0.926654  0.571975  1
  Ir  Ir20  1  0.568473  0.250602  0.929750  1
  Ir  Ir21  1  0.929951  0.571761  0.249209  1
