# generated using pymatgen
data_Tb2Y2ErPa(AlGa5)3
_symmetry_space_group_name_H-M   'P 1'
_cell_length_a   14.49865018
_cell_length_b   14.48934199
_cell_length_c   14.48470480
_cell_angle_alpha   24.79386893
_cell_angle_beta   24.71776698
_cell_angle_gamma   24.64236952
_symmetry_Int_Tables_number   1
_chemical_formula_structural   Tb2Y2ErPa(AlGa5)3
_chemical_formula_sum   'Tb2 Y2 Er1 Pa1 Al3 Ga15'
_cell_volume   467.90457003
_cell_formula_units_Z   1
loop_
 _symmetry_equiv_pos_site_id
 _symmetry_equiv_pos_as_xyz
  1  'x, y, z'
loop_
 _atom_site_type_symbol
 _atom_site_label
 _atom_site_symmetry_multiplicity
 _atom_site_fract_x
 _atom_site_fract_y
 _atom_site_fract_z
 _atom_site_occupancy
  Tb  Tb0  1  0.999576  0.999375  0.999097  1
  Tb  Tb1  1  0.500269  0.500447  0.500451  1
  Y  Y2  1  0.893778  0.892641  0.888564  1
  Y  Y3  1  0.395298  0.390277  0.389051  1
  Er  Er4  1  0.605263  0.609647  0.610595  1
  Pa  Pa5  1  0.105710  0.106632  0.110685  1
  Al  Al6  1  0.002759  0.494776  0.003448  1
  Al  Al7  1  0.998347  0.500350  0.500018  1
  Al  Al8  1  0.494705  0.002959  0.003241  1
  Ga  Ga9  1  0.926420  0.372307  0.368008  1
  Ga  Ga10  1  0.424194  0.869718  0.869103  1
  Ga  Ga11  1  0.369798  0.369875  0.925623  1
  Ga  Ga12  1  0.871372  0.866912  0.423404  1
  Ga  Ga13  1  0.371732  0.927308  0.367580  1
  Ga  Ga14  1  0.872107  0.422616  0.867073  1
  Ga  Ga15  1  0.573600  0.130792  0.130849  1
  Ga  Ga16  1  0.076499  0.628136  0.631837  1
  Ga  Ga17  1  0.128590  0.133498  0.574390  1
  Ga  Ga18  1  0.630155  0.630501  0.077363  1
  Ga  Ga19  1  0.128183  0.574893  0.133199  1
  Ga  Ga20  1  0.628462  0.075578  0.632488  1
  Ga  Ga21  1  0.500247  0.500042  0.998126  1
  Ga  Ga22  1  0.002367  0.002808  0.495814  1
  Ga  Ga23  1  0.500572  0.997913  0.499993  1
