# generated using pymatgen
data_U4ReW3C8
_symmetry_space_group_name_H-M   'P 1'
_cell_length_a   3.21249400
_cell_length_b   5.63144701
_cell_length_c   11.07819601
_cell_angle_alpha   90.00483160
_cell_angle_beta   90.00000000
_cell_angle_gamma   90.00000000
_symmetry_Int_Tables_number   1
_chemical_formula_structural   U4ReW3C8
_chemical_formula_sum   'U4 Re1 W3 C8'
_cell_volume   200.41552936
_cell_formula_units_Z   1
loop_
 _symmetry_equiv_pos_site_id
 _symmetry_equiv_pos_as_xyz
  1  'x, y, z'
loop_
 _atom_site_type_symbol
 _atom_site_label
 _atom_site_symmetry_multiplicity
 _atom_site_fract_x
 _atom_site_fract_y
 _atom_site_fract_z
 _atom_site_occupancy
  U  U0  1  0.250000  0.081404  0.857990  1
  U  U1  1  0.250000  0.580367  0.641607  1
  U  U2  1  0.750000  0.919622  0.141127  1
  U  U3  1  0.750000  0.417400  0.358917  1
  Re  Re4  1  0.750000  0.078925  0.603193  1
  W  W5  1  0.250000  0.421789  0.102510  1
  W  W6  1  0.250000  0.919416  0.398105  1
  W  W7  1  0.750000  0.579172  0.896969  1
  C  C8  1  0.250000  0.162023  0.244309  1
  C  C9  1  0.250000  0.662687  0.256704  1
  C  C10  1  0.750000  0.840547  0.754109  1
  C  C11  1  0.750000  0.337487  0.743721  1
  C  C12  1  0.250000  0.749603  0.992344  1
  C  C13  1  0.250000  0.246868  0.507829  1
  C  C14  1  0.750000  0.251531  0.007152  1
  C  C15  1  0.750000  0.751159  0.493413  1
