# generated using pymatgen
data_Rb6CeGdBr12
_symmetry_space_group_name_H-M   'P 1'
_cell_length_a   10.05967500
_cell_length_b   10.06092070
_cell_length_c   8.36757700
_cell_angle_alpha   90.00000000
_cell_angle_beta   90.00000000
_cell_angle_gamma   90.07089563
_symmetry_Int_Tables_number   1
_chemical_formula_structural   Rb6CeGdBr12
_chemical_formula_sum   'Rb6 Ce1 Gd1 Br12'
_cell_volume   846.87840976
_cell_formula_units_Z   1
loop_
 _symmetry_equiv_pos_site_id
 _symmetry_equiv_pos_as_xyz
  1  'x, y, z'
loop_
 _atom_site_type_symbol
 _atom_site_label
 _atom_site_symmetry_multiplicity
 _atom_site_fract_x
 _atom_site_fract_y
 _atom_site_fract_z
 _atom_site_occupancy
  Rb  Rb0  1  0.000000  0.000000  0.500000  1
  Rb  Rb1  1  0.000000  0.000000  0.000000  1
  Rb  Rb2  1  0.230837  0.532235  0.500000  1
  Rb  Rb3  1  0.769163  0.467765  0.500000  1
  Rb  Rb4  1  0.473962  0.223733  0.000000  1
  Rb  Rb5  1  0.526038  0.776267  0.000000  1
  Ce  Ce6  1  0.000000  0.500000  0.000000  1
  Gd  Gd7  1  0.500000  0.000000  0.500000  1
  Br  Br8  1  0.698165  0.015364  0.747844  1
  Br  Br9  1  0.301835  0.984636  0.747844  1
  Br  Br10  1  0.987547  0.700995  0.250390  1
  Br  Br11  1  0.012453  0.299005  0.250390  1
  Br  Br12  1  0.301835  0.984636  0.252156  1
  Br  Br13  1  0.698165  0.015364  0.252156  1
  Br  Br14  1  0.012453  0.299005  0.749610  1
  Br  Br15  1  0.987547  0.700995  0.749610  1
  Br  Br16  1  0.524072  0.716193  0.500000  1
  Br  Br17  1  0.475928  0.283807  0.500000  1
  Br  Br18  1  0.288007  0.518022  0.000000  1
  Br  Br19  1  0.711993  0.481978  0.000000  1
