# generated using pymatgen
data_K2MgZr(ZnAs2)2
_symmetry_space_group_name_H-M   'P 1'
_cell_length_a   7.81015155
_cell_length_b   7.81015133
_cell_length_c   6.06914300
_cell_angle_alpha   90.00000000
_cell_angle_beta   90.00000000
_cell_angle_gamma   134.25058100
_symmetry_Int_Tables_number   1
_chemical_formula_structural   K2MgZr(ZnAs2)2
_chemical_formula_sum   'K2 Mg1 Zr1 Zn2 As4'
_cell_volume   265.17838412
_cell_formula_units_Z   1
loop_
 _symmetry_equiv_pos_site_id
 _symmetry_equiv_pos_as_xyz
  1  'x, y, z'
loop_
 _atom_site_type_symbol
 _atom_site_label
 _atom_site_symmetry_multiplicity
 _atom_site_fract_x
 _atom_site_fract_y
 _atom_site_fract_z
 _atom_site_occupancy
  K  K0  1  0.500000  0.000000  0.251130  1
  K  K1  1  0.000000  0.500000  0.748870  1
  Mg  Mg2  1  0.500000  0.500000  0.500000  1
  Zr  Zr3  1  0.000000  0.000000  0.000000  1
  Zn  Zn4  1  0.500000  0.500000  0.000000  1
  Zn  Zn5  1  0.000000  0.000000  0.500000  1
  As  As6  1  0.646964  0.859737  0.753711  1
  As  As7  1  0.140263  0.353036  0.246289  1
  As  As8  1  0.859737  0.646964  0.246289  1
  As  As9  1  0.353036  0.140263  0.753711  1
