# generated using pymatgen
data_EuSiPOs2
_symmetry_space_group_name_H-M   'P 1'
_cell_length_a   5.78973473
_cell_length_b   5.78973465
_cell_length_c   5.78973467
_cell_angle_alpha   137.96857845
_cell_angle_beta   137.96857120
_cell_angle_gamma   60.95112872
_symmetry_Int_Tables_number   1
_chemical_formula_structural   EuSiPOs2
_chemical_formula_sum   'Eu1 Si1 P1 Os2'
_cell_volume   86.04864073
_cell_formula_units_Z   1
loop_
 _symmetry_equiv_pos_site_id
 _symmetry_equiv_pos_as_xyz
  1  'x, y, z'
loop_
 _atom_site_type_symbol
 _atom_site_label
 _atom_site_symmetry_multiplicity
 _atom_site_fract_x
 _atom_site_fract_y
 _atom_site_fract_z
 _atom_site_occupancy
  Eu  Eu0  1  0.998466  0.998466  0.000000  1
  Si  Si1  1  0.631220  0.631220  0.000000  1
  P  P2  1  0.365391  0.365391  0.000000  1
  Os  Os3  1  0.252461  0.752461  0.500000  1
  Os  Os4  1  0.752461  0.252461  0.500000  1
