# generated using pymatgen
data_YbY3Ru8
_symmetry_space_group_name_H-M   'P 1'
_cell_length_a   5.24390571
_cell_length_b   5.24398331
_cell_length_c   8.98696801
_cell_angle_alpha   90.00471812
_cell_angle_beta   89.99462567
_cell_angle_gamma   120.00309843
_symmetry_Int_Tables_number   1
_chemical_formula_structural   YbY3Ru8
_chemical_formula_sum   'Yb1 Y3 Ru8'
_cell_volume   214.01609734
_cell_formula_units_Z   1
loop_
 _symmetry_equiv_pos_site_id
 _symmetry_equiv_pos_as_xyz
  1  'x, y, z'
loop_
 _atom_site_type_symbol
 _atom_site_label
 _atom_site_symmetry_multiplicity
 _atom_site_fract_x
 _atom_site_fract_y
 _atom_site_fract_z
 _atom_site_occupancy
  Yb  Yb0  1  0.666673  0.333328  0.935179  1
  Y  Y1  1  0.666668  0.333335  0.572833  1
  Y  Y2  1  0.333334  0.666669  0.432137  1
  Y  Y3  1  0.333341  0.666664  0.062672  1
  Ru  Ru4  1  0.000000  0.000005  0.498080  1
  Ru  Ru5  1  0.000015  0.999988  0.999231  1
  Ru  Ru6  1  0.170491  0.341022  0.749979  1
  Ru  Ru7  1  0.170522  0.829471  0.749983  1
  Ru  Ru8  1  0.658979  0.829499  0.749980  1
  Ru  Ru9  1  0.828642  0.657331  0.249972  1
  Ru  Ru10  1  0.828668  0.171333  0.249980  1
  Ru  Ru11  1  0.342667  0.171355  0.249974  1
