# generated using pymatgen
data_Zr12Al9Tc3N4
_symmetry_space_group_name_H-M   'P 1'
_cell_length_a   8.64998153
_cell_length_b   8.64998294
_cell_length_c   8.64998200
_cell_angle_alpha   60.07684137
_cell_angle_beta   60.07683600
_cell_angle_gamma   60.07683156
_symmetry_Int_Tables_number   1
_chemical_formula_structural   Zr12Al9Tc3N4
_chemical_formula_sum   'Zr12 Al9 Tc3 N4'
_cell_volume   458.44388459
_cell_formula_units_Z   1
loop_
 _symmetry_equiv_pos_site_id
 _symmetry_equiv_pos_as_xyz
  1  'x, y, z'
loop_
 _atom_site_type_symbol
 _atom_site_label
 _atom_site_symmetry_multiplicity
 _atom_site_fract_x
 _atom_site_fract_y
 _atom_site_fract_z
 _atom_site_occupancy
  Zr  Zr0  1  0.808435  0.191119  0.191119  1
  Zr  Zr1  1  0.191119  0.808435  0.191119  1
  Zr  Zr2  1  0.810007  0.810007  0.186126  1
  Zr  Zr3  1  0.186126  0.810007  0.810007  1
  Zr  Zr4  1  0.810007  0.186126  0.810007  1
  Zr  Zr5  1  0.191119  0.191119  0.808435  1
  Zr  Zr6  1  0.441565  0.058881  0.058881  1
  Zr  Zr7  1  0.058881  0.441565  0.058881  1
  Zr  Zr8  1  0.439993  0.439993  0.063874  1
  Zr  Zr9  1  0.063874  0.439993  0.439993  1
  Zr  Zr10  1  0.439993  0.063874  0.439993  1
  Zr  Zr11  1  0.058881  0.058881  0.441565  1
  Al  Al12  1  0.413472  0.413472  0.743767  1
  Al  Al13  1  0.418674  0.418674  0.418674  1
  Al  Al14  1  0.743767  0.413472  0.413472  1
  Al  Al15  1  0.413472  0.743767  0.413472  1
  Al  Al16  1  0.836528  0.836528  0.506233  1
  Al  Al17  1  0.831326  0.831326  0.831326  1
  Al  Al18  1  0.506233  0.836528  0.836528  1
  Al  Al19  1  0.836528  0.506233  0.836528  1
  Al  Al20  1  0.625000  0.625000  0.625000  1
  Tc  Tc21  1  0.625000  0.625000  0.125000  1
  Tc  Tc22  1  0.125000  0.625000  0.625000  1
  Tc  Tc23  1  0.625000  0.125000  0.625000  1
  N  N24  1  0.125000  0.125000  0.625000  1
  N  N25  1  0.125000  0.125000  0.125000  1
  N  N26  1  0.625000  0.125000  0.125000  1
  N  N27  1  0.125000  0.625000  0.125000  1
