# generated using pymatgen
data_Nb3Ni2WN
_symmetry_space_group_name_H-M   'P 1'
_cell_length_a   8.17448640
_cell_length_b   8.17448697
_cell_length_c   8.17448800
_cell_angle_alpha   60.00000391
_cell_angle_beta   60.00000162
_cell_angle_gamma   60.00000338
_symmetry_Int_Tables_number   1
_chemical_formula_structural   Nb3Ni2WN
_chemical_formula_sum   'Nb12 Ni8 W4 N4'
_cell_volume   386.24829324
_cell_formula_units_Z   4
loop_
 _symmetry_equiv_pos_site_id
 _symmetry_equiv_pos_as_xyz
  1  'x, y, z'
loop_
 _atom_site_type_symbol
 _atom_site_label
 _atom_site_symmetry_multiplicity
 _atom_site_fract_x
 _atom_site_fract_y
 _atom_site_fract_z
 _atom_site_occupancy
  Nb  Nb0  1  0.812660  0.812660  0.187340  1
  Nb  Nb1  1  0.187340  0.187340  0.812660  1
  Nb  Nb2  1  0.812660  0.187340  0.812660  1
  Nb  Nb3  1  0.187340  0.812660  0.187340  1
  Nb  Nb4  1  0.187340  0.812660  0.812660  1
  Nb  Nb5  1  0.812660  0.187340  0.187340  1
  Nb  Nb6  1  0.437340  0.437340  0.062660  1
  Nb  Nb7  1  0.062660  0.062660  0.437340  1
  Nb  Nb8  1  0.437340  0.062660  0.437340  1
  Nb  Nb9  1  0.062660  0.437340  0.062660  1
  Nb  Nb10  1  0.062660  0.437340  0.437340  1
  Nb  Nb11  1  0.437340  0.062660  0.062660  1
  Ni  Ni12  1  0.737114  0.420963  0.420963  1
  Ni  Ni13  1  0.420963  0.737114  0.420963  1
  Ni  Ni14  1  0.420963  0.420963  0.737114  1
  Ni  Ni15  1  0.420963  0.420963  0.420963  1
  Ni  Ni16  1  0.512886  0.829037  0.829037  1
  Ni  Ni17  1  0.829037  0.512886  0.829037  1
  Ni  Ni18  1  0.829037  0.829037  0.512886  1
  Ni  Ni19  1  0.829037  0.829037  0.829037  1
  W  W20  1  0.125000  0.625000  0.625000  1
  W  W21  1  0.625000  0.125000  0.625000  1
  W  W22  1  0.625000  0.625000  0.125000  1
  W  W23  1  0.625000  0.625000  0.625000  1
  N  N24  1  0.625000  0.125000  0.125000  1
  N  N25  1  0.125000  0.625000  0.125000  1
  N  N26  1  0.125000  0.125000  0.625000  1
  N  N27  1  0.125000  0.125000  0.125000  1
