# generated using pymatgen
data_Ho9Lu(Bi2As)2
_symmetry_space_group_name_H-M   'P 1'
_cell_length_a   8.01306600
_cell_length_b   9.09660500
_cell_length_c   12.01053500
_cell_angle_alpha   90.00000000
_cell_angle_beta   90.00000000
_cell_angle_gamma   89.99704313
_symmetry_Int_Tables_number   1
_chemical_formula_structural   Ho9Lu(Bi2As)2
_chemical_formula_sum   'Ho18 Lu2 Bi8 As4'
_cell_volume   875.46826833
_cell_formula_units_Z   2
loop_
 _symmetry_equiv_pos_site_id
 _symmetry_equiv_pos_as_xyz
  1  'x, y, z'
loop_
 _atom_site_type_symbol
 _atom_site_label
 _atom_site_symmetry_multiplicity
 _atom_site_fract_x
 _atom_site_fract_y
 _atom_site_fract_z
 _atom_site_occupancy
  Ho  Ho0  1  0.182481  0.056335  0.937099  1
  Ho  Ho1  1  0.317519  0.443665  0.437099  1
  Ho  Ho2  1  0.182884  0.443786  0.937134  1
  Ho  Ho3  1  0.317116  0.056214  0.437134  1
  Ho  Ho4  1  0.817163  0.943621  0.062779  1
  Ho  Ho5  1  0.682837  0.556379  0.562779  1
  Ho  Ho6  1  0.156201  0.749777  0.210674  1
  Ho  Ho7  1  0.343799  0.750223  0.710674  1
  Ho  Ho8  1  0.843814  0.249874  0.789102  1
  Ho  Ho9  1  0.656186  0.250126  0.289102  1
  Ho  Ho10  1  0.464332  0.749851  0.000030  1
  Ho  Ho11  1  0.035668  0.750149  0.500030  1
  Ho  Ho12  1  0.536419  0.250098  0.999969  1
  Ho  Ho13  1  0.963581  0.249902  0.499969  1
  Ho  Ho14  1  0.634428  0.749768  0.292718  1
  Ho  Ho15  1  0.865572  0.750232  0.792718  1
  Ho  Ho16  1  0.365775  0.250016  0.707156  1
  Ho  Ho17  1  0.134225  0.249984  0.207156  1
  Lu  Lu18  1  0.818045  0.558162  0.062836  1
  Lu  Lu19  1  0.681955  0.941838  0.562836  1
  Bi  Bi20  1  0.924957  0.509891  0.326498  1
  Bi  Bi21  1  0.575043  0.990109  0.826498  1
  Bi  Bi22  1  0.074585  0.010116  0.673190  1
  Bi  Bi23  1  0.425415  0.489884  0.173190  1
  Bi  Bi24  1  0.074505  0.490231  0.673317  1
  Bi  Bi25  1  0.425495  0.009769  0.173317  1
  Bi  Bi26  1  0.925562  0.990140  0.326864  1
  Bi  Bi27  1  0.574438  0.509860  0.826864  1
  As  As28  1  0.413554  0.751105  0.478895  1
  As  As29  1  0.086446  0.748895  0.978895  1
  As  As30  1  0.588290  0.247433  0.521739  1
  As  As31  1  0.911710  0.252567  0.021739  1
