# generated using pymatgen
data_KAc(LaB12)2
_symmetry_space_group_name_H-M   'P 1'
_cell_length_a   7.24531569
_cell_length_b   7.24531503
_cell_length_c   5.91778000
_cell_angle_alpha   90.00000000
_cell_angle_beta   90.00000000
_cell_angle_gamma   109.43278843
_symmetry_Int_Tables_number   1
_chemical_formula_structural   KAc(LaB12)2
_chemical_formula_sum   'K1 Ac1 La2 B24'
_cell_volume   292.95439998
_cell_formula_units_Z   1
loop_
 _symmetry_equiv_pos_site_id
 _symmetry_equiv_pos_as_xyz
  1  'x, y, z'
loop_
 _atom_site_type_symbol
 _atom_site_label
 _atom_site_symmetry_multiplicity
 _atom_site_fract_x
 _atom_site_fract_y
 _atom_site_fract_z
 _atom_site_occupancy
  K  K0  1  0.000257  0.999743  0.000000  1
  Ac  Ac1  1  0.751861  0.248139  0.500000  1
  La  La2  1  0.498837  0.501163  0.000000  1
  La  La3  1  0.248442  0.751558  0.500000  1
  B  B4  1  0.176954  0.325854  0.649454  1
  B  B5  1  0.925418  0.574758  0.149069  1
  B  B6  1  0.674146  0.823046  0.649454  1
  B  B7  1  0.425242  0.074582  0.149069  1
  B  B8  1  0.176954  0.325854  0.350546  1
  B  B9  1  0.925418  0.574758  0.850931  1
  B  B10  1  0.674146  0.823046  0.350546  1
  B  B11  1  0.425242  0.074582  0.850931  1
  B  B12  1  0.399635  0.400002  0.500000  1
  B  B13  1  0.149115  0.650298  0.000000  1
  B  B14  1  0.898953  0.898197  0.500000  1
  B  B15  1  0.649275  0.148314  0.000000  1
  B  B16  1  0.325043  0.176037  0.649429  1
  B  B17  1  0.076209  0.426756  0.149078  1
  B  B18  1  0.823963  0.674957  0.649429  1
  B  B19  1  0.573244  0.923791  0.149078  1
  B  B20  1  0.101803  0.101047  0.500000  1
  B  B21  1  0.851686  0.350725  0.000000  1
  B  B22  1  0.599998  0.600365  0.500000  1
  B  B23  1  0.349702  0.850885  0.000000  1
  B  B24  1  0.325043  0.176037  0.350571  1
  B  B25  1  0.076209  0.426756  0.850922  1
  B  B26  1  0.823963  0.674957  0.350571  1
  B  B27  1  0.573244  0.923791  0.850922  1
