# generated using pymatgen
data_Tm4Al17GaRh6
_symmetry_space_group_name_H-M   'P 1'
_cell_length_a   7.51706974
_cell_length_b   7.51706992
_cell_length_c   9.44588000
_cell_angle_alpha   90.00000000
_cell_angle_beta   90.00000000
_cell_angle_gamma   119.26703842
_symmetry_Int_Tables_number   1
_chemical_formula_structural   Tm4Al17GaRh6
_chemical_formula_sum   'Tm4 Al17 Ga1 Rh6'
_cell_volume   465.61899528
_cell_formula_units_Z   1
loop_
 _symmetry_equiv_pos_site_id
 _symmetry_equiv_pos_as_xyz
  1  'x, y, z'
loop_
 _atom_site_type_symbol
 _atom_site_label
 _atom_site_symmetry_multiplicity
 _atom_site_fract_x
 _atom_site_fract_y
 _atom_site_fract_z
 _atom_site_occupancy
  Tm  Tm0  1  0.993458  0.675634  0.250000  1
  Tm  Tm1  1  0.004961  0.326681  0.750000  1
  Tm  Tm2  1  0.675634  0.993458  0.250000  1
  Tm  Tm3  1  0.326681  0.004961  0.750000  1
  Al  Al4  1  0.870616  0.870616  0.750000  1
  Al  Al5  1  0.001176  0.336708  0.075015  1
  Al  Al6  1  0.999177  0.663602  0.924506  1
  Al  Al7  1  0.999177  0.663602  0.575494  1
  Al  Al8  1  0.336708  0.001176  0.424985  1
  Al  Al9  1  0.001176  0.336708  0.424985  1
  Al  Al10  1  0.663602  0.999177  0.575494  1
  Al  Al11  1  0.663602  0.999177  0.924506  1
  Al  Al12  1  0.336708  0.001176  0.075015  1
  Al  Al13  1  0.332441  0.332441  0.553873  1
  Al  Al14  1  0.666299  0.666299  0.450516  1
  Al  Al15  1  0.666299  0.666299  0.049484  1
  Al  Al16  1  0.332441  0.332441  0.946127  1
  Al  Al17  1  0.338634  0.552006  0.250000  1
  Al  Al18  1  0.660836  0.448590  0.750000  1
  Al  Al19  1  0.552006  0.338634  0.250000  1
  Al  Al20  1  0.448590  0.660836  0.750000  1
  Ga  Ga21  1  0.132416  0.132416  0.250000  1
  Rh  Rh22  1  0.671724  0.327389  0.000004  1
  Rh  Rh23  1  0.327389  0.671724  0.000004  1
  Rh  Rh24  1  0.327389  0.671724  0.499996  1
  Rh  Rh25  1  0.671724  0.327389  0.499996  1
  Rh  Rh26  1  0.999568  0.999568  0.997581  1
  Rh  Rh27  1  0.999568  0.999568  0.502419  1
