# generated using pymatgen
data_Al3V11FeTc
_symmetry_space_group_name_H-M   'P 1'
_cell_length_a   4.78095800
_cell_length_b   4.76728100
_cell_length_c   9.49253100
_cell_angle_alpha   90.00000000
_cell_angle_beta   90.00000000
_cell_angle_gamma   90.00000000
_symmetry_Int_Tables_number   1
_chemical_formula_structural   Al3V11FeTc
_chemical_formula_sum   'Al3 V11 Fe1 Tc1'
_cell_volume   216.35538251
_cell_formula_units_Z   1
loop_
 _symmetry_equiv_pos_site_id
 _symmetry_equiv_pos_as_xyz
  1  'x, y, z'
loop_
 _atom_site_type_symbol
 _atom_site_label
 _atom_site_symmetry_multiplicity
 _atom_site_fract_x
 _atom_site_fract_y
 _atom_site_fract_z
 _atom_site_occupancy
  Al  Al0  1  0.499806  0.500000  0.249934  1
  Al  Al1  1  0.499806  0.500000  0.750066  1
  Al  Al2  1  0.001333  0.000000  0.000000  1
  V  V3  1  0.499454  0.000000  0.381551  1
  V  V4  1  0.500439  0.000000  0.871440  1
  V  V5  1  0.758162  0.500000  0.500000  1
  V  V6  1  0.000339  0.756795  0.259659  1
  V  V7  1  0.000339  0.756795  0.740341  1
  V  V8  1  0.500439  0.000000  0.128560  1
  V  V9  1  0.499454  0.000000  0.618449  1
  V  V10  1  0.250411  0.500000  0.000000  1
  V  V11  1  0.242141  0.500000  0.500000  1
  V  V12  1  0.000339  0.243205  0.259659  1
  V  V13  1  0.000339  0.243205  0.740341  1
  Fe  Fe14  1  0.998868  0.000000  0.500000  1
  Tc  Tc15  1  0.748333  0.500000  0.000000  1
