# generated using pymatgen
data_La7Dy13Si15Os
_symmetry_space_group_name_H-M   'P 1'
_cell_length_a   7.58704351
_cell_length_b   7.84885588
_cell_length_c   14.91835600
_cell_angle_alpha   89.79325208
_cell_angle_beta   89.77886031
_cell_angle_gamma   89.72669086
_symmetry_Int_Tables_number   1
_chemical_formula_structural   La7Dy13Si15Os
_chemical_formula_sum   'La7 Dy13 Si15 Os1'
_cell_volume   888.35984829
_cell_formula_units_Z   1
loop_
 _symmetry_equiv_pos_site_id
 _symmetry_equiv_pos_as_xyz
  1  'x, y, z'
loop_
 _atom_site_type_symbol
 _atom_site_label
 _atom_site_symmetry_multiplicity
 _atom_site_fract_x
 _atom_site_fract_y
 _atom_site_fract_z
 _atom_site_occupancy
  La  La0  1  0.962615  0.812686  0.103297  1
  La  La1  1  0.481719  0.677395  0.400359  1
  La  La2  1  0.525311  0.322455  0.901012  1
  La  La3  1  0.024970  0.177026  0.595121  1
  La  La4  1  0.025073  0.175417  0.902263  1
  La  La5  1  0.528705  0.322866  0.598639  1
  La  La6  1  0.479324  0.676558  0.100717  1
  Dy  Dy7  1  0.651973  0.981225  0.251589  1
  Dy  Dy8  1  0.134686  0.516157  0.251388  1
  Dy  Dy9  1  0.852460  0.489482  0.749454  1
  Dy  Dy10  1  0.352293  0.009104  0.749772  1
  Dy  Dy11  1  0.962171  0.809850  0.394460  1
  Dy  Dy12  1  0.682952  0.822310  0.876510  1
  Dy  Dy13  1  0.183252  0.682787  0.620521  1
  Dy  Dy14  1  0.815356  0.324721  0.126009  1
  Dy  Dy15  1  0.318123  0.176196  0.379087  1
  Dy  Dy16  1  0.316452  0.174436  0.123667  1
  Dy  Dy17  1  0.814964  0.327599  0.374378  1
  Dy  Dy18  1  0.182984  0.680065  0.878011  1
  Dy  Dy19  1  0.685640  0.823855  0.623067  1
  Si  Si20  1  0.260083  0.886103  0.253504  1
  Si  Si21  1  0.736133  0.119752  0.749542  1
  Si  Si22  1  0.232430  0.383193  0.749089  1
  Si  Si23  1  0.026663  0.111272  0.253372  1
  Si  Si24  1  0.519120  0.387243  0.249744  1
  Si  Si25  1  0.476221  0.616597  0.749575  1
  Si  Si26  1  0.977851  0.884342  0.749474  1
  Si  Si27  1  0.859821  0.528222  0.959265  1
  Si  Si28  1  0.366417  0.974008  0.542309  1
  Si  Si29  1  0.642441  0.032469  0.038894  1
  Si  Si30  1  0.142374  0.472222  0.458680  1
  Si  Si31  1  0.143794  0.463661  0.038973  1
  Si  Si32  1  0.649933  0.030915  0.460435  1
  Si  Si33  1  0.361431  0.972220  0.958375  1
  Si  Si34  1  0.861374  0.535466  0.538266  1
  Os  Os35  1  0.762890  0.620125  0.251178  1
