# generated using pymatgen
data_Sm4TaNb3N8
_symmetry_space_group_name_H-M   'P 1'
_cell_length_a   3.35192100
_cell_length_b   5.77022675
_cell_length_c   11.05057458
_cell_angle_alpha   90.13306582
_cell_angle_beta   90.00000000
_cell_angle_gamma   90.00000000
_symmetry_Int_Tables_number   1
_chemical_formula_structural   Sm4TaNb3N8
_chemical_formula_sum   'Sm4 Ta1 Nb3 N8'
_cell_volume   213.73239044
_cell_formula_units_Z   1
loop_
 _symmetry_equiv_pos_site_id
 _symmetry_equiv_pos_as_xyz
  1  'x, y, z'
loop_
 _atom_site_type_symbol
 _atom_site_label
 _atom_site_symmetry_multiplicity
 _atom_site_fract_x
 _atom_site_fract_y
 _atom_site_fract_z
 _atom_site_occupancy
  Sm  Sm0  1  0.250000  0.585643  0.860535  1
  Sm  Sm1  1  0.750000  0.411709  0.139580  1
  Sm  Sm2  1  0.750000  0.914215  0.362243  1
  Sm  Sm3  1  0.250000  0.084470  0.638100  1
  Ta  Ta4  1  0.250000  0.916325  0.109365  1
  Nb  Nb5  1  0.750000  0.084166  0.889400  1
  Nb  Nb6  1  0.750000  0.581753  0.606486  1
  Nb  Nb7  1  0.250000  0.417688  0.393048  1
  N  N8  1  0.250000  0.664825  0.243229  1
  N  N9  1  0.750000  0.339063  0.754103  1
  N  N10  1  0.750000  0.837684  0.747516  1
  N  N11  1  0.250000  0.159426  0.251470  1
  N  N12  1  0.250000  0.738217  0.509153  1
  N  N13  1  0.750000  0.262022  0.489739  1
  N  N14  1  0.750000  0.768987  0.014472  1
  N  N15  1  0.250000  0.233805  0.991558  1
