# generated using pymatgen
data_Hf3ZrNbRe24
_symmetry_space_group_name_H-M   'P 1'
_cell_length_a   8.45876429
_cell_length_b   8.46180946
_cell_length_c   8.46182408
_cell_angle_alpha   109.47981747
_cell_angle_beta   109.46281988
_cell_angle_gamma   109.46376715
_symmetry_Int_Tables_number   1
_chemical_formula_structural   Hf3ZrNbRe24
_chemical_formula_sum   'Hf3 Zr1 Nb1 Re24'
_cell_volume   466.28468235
_cell_formula_units_Z   1
loop_
 _symmetry_equiv_pos_site_id
 _symmetry_equiv_pos_as_xyz
  1  'x, y, z'
loop_
 _atom_site_type_symbol
 _atom_site_label
 _atom_site_symmetry_multiplicity
 _atom_site_fract_x
 _atom_site_fract_y
 _atom_site_fract_z
 _atom_site_occupancy
  Hf  Hf0  1  0.000134  0.628742  0.000002  1
  Hf  Hf1  1  0.000134  0.000002  0.628743  1
  Hf  Hf2  1  0.371395  0.371258  0.371260  1
  Zr  Zr3  1  0.999182  0.000000  0.000000  1
  Nb  Nb4  1  0.628649  0.999998  0.999992  1
  Re  Re5  1  0.398507  0.681352  0.000002  1
  Re  Re6  1  0.717149  0.318645  0.318650  1
  Re  Re7  1  0.398517  0.000007  0.681348  1
  Re  Re8  1  0.677159  0.395666  0.999976  1
  Re  Re9  1  0.000629  0.396040  0.677496  1
  Re  Re10  1  0.323144  0.718563  0.322515  1
  Re  Re11  1  0.323150  0.322500  0.718550  1
  Re  Re12  1  0.000645  0.677503  0.396049  1
  Re  Re13  1  0.677157  0.999994  0.395686  1
  Re  Re14  1  0.604580  0.603960  0.281452  1
  Re  Re15  1  0.281504  0.604336  0.604325  1
  Re  Re16  1  0.604575  0.281445  0.603961  1
  Re  Re17  1  0.376427  0.194084  0.999991  1
  Re  Re18  1  0.182346  0.805921  0.805915  1
  Re  Re19  1  0.376426  0.999999  0.194094  1
  Re  Re20  1  0.193140  0.375390  0.999999  1
  Re  Re21  1  0.999252  0.375725  0.194738  1
  Re  Re22  1  0.804492  0.180973  0.805248  1
  Re  Re23  1  0.804508  0.805251  0.180974  1
  Re  Re24  1  0.999260  0.194745  0.375728  1
  Re  Re25  1  0.193157  0.000004  0.375402  1
  Re  Re26  1  0.623519  0.624263  0.819014  1
  Re  Re27  1  0.817746  0.624610  0.624614  1
  Re  Re28  1  0.623518  0.819026  0.624273  1
