# generated using pymatgen
data_Zr6Sn6IrRh5
_symmetry_space_group_name_H-M   'P 1'
_cell_length_a   7.43099600
_cell_length_b   7.43099660
_cell_length_c   7.29793900
_cell_angle_alpha   90.00000000
_cell_angle_beta   90.00000000
_cell_angle_gamma   119.99999735
_symmetry_Int_Tables_number   1
_chemical_formula_structural   Zr6Sn6IrRh5
_chemical_formula_sum   'Zr6 Sn6 Ir1 Rh5'
_cell_volume   348.99962653
_cell_formula_units_Z   1
loop_
 _symmetry_equiv_pos_site_id
 _symmetry_equiv_pos_as_xyz
  1  'x, y, z'
loop_
 _atom_site_type_symbol
 _atom_site_label
 _atom_site_symmetry_multiplicity
 _atom_site_fract_x
 _atom_site_fract_y
 _atom_site_fract_z
 _atom_site_occupancy
  Zr  Zr0  1  0.596626  0.985312  0.750046  1
  Zr  Zr1  1  0.388686  0.403374  0.750046  1
  Zr  Zr2  1  0.014688  0.611314  0.750046  1
  Zr  Zr3  1  0.613297  0.022115  0.248290  1
  Zr  Zr4  1  0.408818  0.386703  0.248290  1
  Zr  Zr5  1  0.977885  0.591182  0.248290  1
  Sn  Sn6  1  0.268140  0.996680  0.999505  1
  Sn  Sn7  1  0.728809  0.729016  0.499135  1
  Sn  Sn8  1  0.000207  0.271191  0.499135  1
  Sn  Sn9  1  0.003320  0.271461  0.999505  1
  Sn  Sn10  1  0.728539  0.731860  0.999505  1
  Sn  Sn11  1  0.270984  0.999793  0.499135  1
  Ir  Ir12  1  0.666667  0.333333  0.965207  1
  Rh  Rh13  1  0.666667  0.333333  0.545452  1
  Rh  Rh14  1  0.333333  0.666667  0.035043  1
  Rh  Rh15  1  0.333333  0.666667  0.464602  1
  Rh  Rh16  1  0.000000  0.000000  0.749479  1
  Rh  Rh17  1  0.000000  0.000000  0.249291  1
