# generated using pymatgen
data_Tm4Mn8Fe11P12W
_symmetry_space_group_name_H-M   'P 1'
_cell_length_a   3.63924900
_cell_length_b   10.31020955
_cell_length_c   12.12599995
_cell_angle_alpha   90.03168624
_cell_angle_beta   90.00000000
_cell_angle_gamma   90.00000000
_symmetry_Int_Tables_number   1
_chemical_formula_structural   Tm4Mn8Fe11P12W
_chemical_formula_sum   'Tm4 Mn8 Fe11 P12 W1'
_cell_volume   454.98466497
_cell_formula_units_Z   1
loop_
 _symmetry_equiv_pos_site_id
 _symmetry_equiv_pos_as_xyz
  1  'x, y, z'
loop_
 _atom_site_type_symbol
 _atom_site_label
 _atom_site_symmetry_multiplicity
 _atom_site_fract_x
 _atom_site_fract_y
 _atom_site_fract_z
 _atom_site_occupancy
  Tm  Tm0  1  0.250000  0.580497  0.709870  1
  Tm  Tm1  1  0.250000  0.915228  0.213011  1
  Tm  Tm2  1  0.750000  0.423470  0.290980  1
  Tm  Tm3  1  0.750000  0.080461  0.788870  1
  Mn  Mn4  1  0.250000  0.704870  0.992136  1
  Mn  Mn5  1  0.250000  0.794832  0.491443  1
  Mn  Mn6  1  0.750000  0.207092  0.508067  1
  Mn  Mn7  1  0.250000  0.411738  0.491730  1
  Mn  Mn8  1  0.250000  0.086179  0.988997  1
  Mn  Mn9  1  0.750000  0.593041  0.509560  1
  Mn  Mn10  1  0.750000  0.901543  0.008306  1
  Mn  Mn11  1  0.250000  0.216406  0.178036  1
  Fe  Fe12  1  0.250000  0.278983  0.671359  1
  Fe  Fe13  1  0.750000  0.778287  0.826503  1
  Fe  Fe14  1  0.750000  0.721955  0.328329  1
  Fe  Fe15  1  0.250000  0.878203  0.694879  1
  Fe  Fe16  1  0.250000  0.622443  0.196555  1
  Fe  Fe17  1  0.750000  0.125938  0.302217  1
  Fe  Fe18  1  0.750000  0.377691  0.802184  1
  Fe  Fe19  1  0.250000  0.466673  0.934747  1
  Fe  Fe20  1  0.250000  0.038369  0.434882  1
  Fe  Fe21  1  0.750000  0.540389  0.063284  1
  Fe  Fe22  1  0.750000  0.963229  0.563975  1
  P  P23  1  0.250000  0.427591  0.114287  1
  P  P24  1  0.250000  0.077268  0.612937  1
  P  P25  1  0.750000  0.576608  0.884147  1
  P  P26  1  0.750000  0.923619  0.387033  1
  P  P27  1  0.250000  0.269700  0.857925  1
  P  P28  1  0.250000  0.236980  0.369774  1
  P  P29  1  0.750000  0.732410  0.139774  1
  P  P30  1  0.750000  0.768247  0.638132  1
  P  P31  1  0.250000  0.603688  0.381390  1
  P  P32  1  0.250000  0.895751  0.879202  1
  P  P33  1  0.750000  0.399342  0.618455  1
  P  P34  1  0.750000  0.087901  0.116578  1
  W  W35  1  0.750000  0.293376  0.010441  1
