# generated using pymatgen
data_Ta16Cu5Ni3(CN)2
_symmetry_space_group_name_H-M   'P 1'
_cell_length_a   8.26920105
_cell_length_b   8.25809803
_cell_length_c   8.25351100
_cell_angle_alpha   60.01836872
_cell_angle_beta   60.06274192
_cell_angle_gamma   60.09076090
_symmetry_Int_Tables_number   1
_chemical_formula_structural   Ta16Cu5Ni3(CN)2
_chemical_formula_sum   'Ta16 Cu5 Ni3 C2 N2'
_cell_volume   399.05293860
_cell_formula_units_Z   1
loop_
 _symmetry_equiv_pos_site_id
 _symmetry_equiv_pos_as_xyz
  1  'x, y, z'
loop_
 _atom_site_type_symbol
 _atom_site_label
 _atom_site_symmetry_multiplicity
 _atom_site_fract_x
 _atom_site_fract_y
 _atom_site_fract_z
 _atom_site_occupancy
  Ta  Ta0  1  0.118007  0.627236  0.627379  1
  Ta  Ta1  1  0.630998  0.120791  0.624106  1
  Ta  Ta2  1  0.630857  0.624129  0.120839  1
  Ta  Ta3  1  0.630857  0.624129  0.624175  1
  Ta  Ta4  1  0.815927  0.815561  0.184256  1
  Ta  Ta5  1  0.182189  0.185626  0.816092  1
  Ta  Ta6  1  0.816358  0.183498  0.816108  1
  Ta  Ta7  1  0.182342  0.815645  0.186541  1
  Ta  Ta8  1  0.182342  0.815645  0.815472  1
  Ta  Ta9  1  0.816358  0.183498  0.184037  1
  Ta  Ta10  1  0.435976  0.435799  0.064112  1
  Ta  Ta11  1  0.066578  0.065612  0.433905  1
  Ta  Ta12  1  0.435579  0.064752  0.435504  1
  Ta  Ta13  1  0.066546  0.434289  0.064904  1
  Ta  Ta14  1  0.066546  0.434289  0.434262  1
  Ta  Ta15  1  0.435579  0.064752  0.064164  1
  Cu  Cu16  1  0.751330  0.415915  0.416377  1
  Cu  Cu17  1  0.416611  0.749693  0.416847  1
  Cu  Cu18  1  0.416749  0.416660  0.749511  1
  Cu  Cu19  1  0.416749  0.416660  0.417079  1
  Cu  Cu20  1  0.498226  0.834106  0.833833  1
  Ni  Ni21  1  0.828914  0.510974  0.830056  1
  Ni  Ni22  1  0.828726  0.830467  0.511008  1
  Ni  Ni23  1  0.828726  0.830467  0.829799  1
  C  C24  1  0.623385  0.125508  0.125554  1
  C  C25  1  0.125923  0.623677  0.125200  1
  N  N26  1  0.125809  0.125312  0.623523  1
  N  N27  1  0.125809  0.125312  0.125357  1
