# generated using pymatgen
data_Pr4Sc6Sn3Sb5
_symmetry_space_group_name_H-M   'P 1'
_cell_length_a   7.99299600
_cell_length_b   8.02775535
_cell_length_c   15.04295000
_cell_angle_alpha   90.00000000
_cell_angle_beta   90.00000000
_cell_angle_gamma   90.31503092
_symmetry_Int_Tables_number   1
_chemical_formula_structural   Pr4Sc6Sn3Sb5
_chemical_formula_sum   'Pr8 Sc12 Sn6 Sb10'
_cell_volume   965.22857693
_cell_formula_units_Z   2
loop_
 _symmetry_equiv_pos_site_id
 _symmetry_equiv_pos_as_xyz
  1  'x, y, z'
loop_
 _atom_site_type_symbol
 _atom_site_label
 _atom_site_symmetry_multiplicity
 _atom_site_fract_x
 _atom_site_fract_y
 _atom_site_fract_z
 _atom_site_occupancy
  Pr  Pr0  1  0.980699  0.182516  0.095823  1
  Pr  Pr1  1  0.019301  0.817484  0.904177  1
  Pr  Pr2  1  0.517994  0.681302  0.907037  1
  Pr  Pr3  1  0.019301  0.817484  0.595823  1
  Pr  Pr4  1  0.482006  0.318698  0.092963  1
  Pr  Pr5  1  0.980699  0.182516  0.404177  1
  Pr  Pr6  1  0.482006  0.318698  0.407037  1
  Pr  Pr7  1  0.517994  0.681302  0.592963  1
  Sc  Sc8  1  0.177859  0.497616  0.750000  1
  Sc  Sc9  1  0.822141  0.502384  0.250000  1
  Sc  Sc10  1  0.320282  0.997843  0.250000  1
  Sc  Sc11  1  0.679718  0.002157  0.750000  1
  Sc  Sc12  1  0.353337  0.152917  0.627402  1
  Sc  Sc13  1  0.646663  0.847083  0.372598  1
  Sc  Sc14  1  0.149567  0.652700  0.374379  1
  Sc  Sc15  1  0.646663  0.847083  0.127402  1
  Sc  Sc16  1  0.850433  0.347300  0.625621  1
  Sc  Sc17  1  0.353337  0.152917  0.872598  1
  Sc  Sc18  1  0.850433  0.347300  0.874379  1
  Sc  Sc19  1  0.149567  0.652700  0.125621  1
  Sn  Sn20  1  0.456083  0.628959  0.250000  1
  Sn  Sn21  1  0.543917  0.371041  0.750000  1
  Sn  Sn22  1  0.327229  0.848739  0.750000  1
  Sn  Sn23  1  0.672771  0.151261  0.250000  1
  Sn  Sn24  1  0.180484  0.354717  0.250000  1
  Sn  Sn25  1  0.819516  0.645283  0.750000  1
  Sb  Sb26  1  0.043781  0.133853  0.750000  1
  Sb  Sb27  1  0.956219  0.866147  0.250000  1
  Sb  Sb28  1  0.196653  0.448431  0.547457  1
  Sb  Sb29  1  0.803347  0.551569  0.452543  1
  Sb  Sb30  1  0.300144  0.951668  0.453128  1
  Sb  Sb31  1  0.803347  0.551569  0.047457  1
  Sb  Sb32  1  0.699856  0.048332  0.546872  1
  Sb  Sb33  1  0.196653  0.448431  0.952543  1
  Sb  Sb34  1  0.699856  0.048332  0.953128  1
  Sb  Sb35  1  0.300144  0.951668  0.046872  1
