# generated using pymatgen
data_Tm4Al7Ga17Pt9
_symmetry_space_group_name_H-M   'P 1'
_cell_length_a   7.45500382
_cell_length_b   7.51883980
_cell_length_c   13.32097227
_cell_angle_alpha   84.73096466
_cell_angle_beta   79.55586666
_cell_angle_gamma   60.56707046
_symmetry_Int_Tables_number   1
_chemical_formula_structural   Tm4Al7Ga17Pt9
_chemical_formula_sum   'Tm4 Al7 Ga17 Pt9'
_cell_volume   639.52980753
_cell_formula_units_Z   1
loop_
 _symmetry_equiv_pos_site_id
 _symmetry_equiv_pos_as_xyz
  1  'x, y, z'
loop_
 _atom_site_type_symbol
 _atom_site_label
 _atom_site_symmetry_multiplicity
 _atom_site_fract_x
 _atom_site_fract_y
 _atom_site_fract_z
 _atom_site_occupancy
  Tm  Tm0  1  0.394020  0.170849  0.808004  1
  Tm  Tm1  1  0.607739  0.827729  0.191480  1
  Tm  Tm2  1  0.733880  0.494685  0.808529  1
  Tm  Tm3  1  0.266363  0.507094  0.190583  1
  Al  Al4  1  0.686957  0.833053  0.944746  1
  Al  Al5  1  0.313583  0.166811  0.055718  1
  Al  Al6  1  0.144061  0.834182  0.560352  1
  Al  Al7  1  0.854958  0.165994  0.439154  1
  Al  Al8  1  0.478407  0.166466  0.556946  1
  Al  Al9  1  0.521186  0.834371  0.441743  1
  Al  Al10  1  0.220484  0.165572  0.326890  1
  Ga  Ga11  1  0.775836  0.834823  0.677552  1
  Ga  Ga12  1  0.439566  0.502048  0.676247  1
  Ga  Ga13  1  0.560231  0.498082  0.324748  1
  Ga  Ga14  1  0.106800  0.163772  0.675623  1
  Ga  Ga15  1  0.893132  0.835833  0.325226  1
  Ga  Ga16  1  0.357978  0.497697  0.938455  1
  Ga  Ga17  1  0.642681  0.501852  0.061497  1
  Ga  Ga18  1  0.020598  0.168242  0.941861  1
  Ga  Ga19  1  0.979825  0.832332  0.058112  1
  Ga  Ga20  1  0.189504  0.496969  0.442584  1
  Ga  Ga21  1  0.810383  0.502175  0.556461  1
  Ga  Ga22  1  0.729783  0.166835  0.183127  1
  Ga  Ga23  1  0.269772  0.833062  0.816769  1
  Ga  Ga24  1  0.055992  0.634115  0.816987  1
  Ga  Ga25  1  0.946242  0.363989  0.183173  1
  Ga  Ga26  1  0.856052  0.039090  0.816277  1
  Ga  Ga27  1  0.144469  0.962380  0.184046  1
  Pt  Pt28  1  0.119752  0.495653  0.638577  1
  Pt  Pt29  1  0.883701  0.500982  0.360654  1
  Pt  Pt30  1  0.655829  0.167347  0.999638  1
  Pt  Pt31  1  0.344254  0.832697  0.000209  1
  Pt  Pt32  1  0.540160  0.163346  0.362619  1
  Pt  Pt33  1  0.456017  0.836825  0.635646  1
  Pt  Pt34  1  0.781990  0.169567  0.633546  1
  Pt  Pt35  1  0.217789  0.833517  0.366060  1
  Pt  Pt36  1  0.000028  0.499961  0.000161  1
