# generated using pymatgen
data_Ba6Lu2AuO12
_symmetry_space_group_name_H-M   'P 1'
_cell_length_a   9.48512316
_cell_length_b   9.48512168
_cell_length_c   7.41651966
_cell_angle_alpha   67.42179784
_cell_angle_beta   67.42179957
_cell_angle_gamma   36.91321372
_symmetry_Int_Tables_number   1
_chemical_formula_structural   Ba6Lu2AuO12
_chemical_formula_sum   'Ba6 Lu2 Au1 O12'
_cell_volume   366.45535900
_cell_formula_units_Z   1
loop_
 _symmetry_equiv_pos_site_id
 _symmetry_equiv_pos_as_xyz
  1  'x, y, z'
loop_
 _atom_site_type_symbol
 _atom_site_label
 _atom_site_symmetry_multiplicity
 _atom_site_fract_x
 _atom_site_fract_y
 _atom_site_fract_z
 _atom_site_occupancy
  Ba  Ba0  1  0.881022  0.881022  0.710654  1
  Ba  Ba1  1  0.215214  0.215214  0.711642  1
  Ba  Ba2  1  0.547944  0.547944  0.710240  1
  Ba  Ba3  1  0.452056  0.452056  0.289760  1
  Ba  Ba4  1  0.784786  0.784786  0.288358  1
  Ba  Ba5  1  0.118978  0.118978  0.289346  1
  Lu  Lu6  1  0.665868  0.665868  0.999662  1
  Lu  Lu7  1  0.334132  0.334132  0.000338  1
  Au  Au8  1  0.000000  0.000000  0.000000  1
  O  O9  1  0.948592  0.948592  0.311351  1
  O  O10  1  0.280648  0.280648  0.326372  1
  O  O11  1  0.609755  0.609755  0.325500  1
  O  O12  1  0.390245  0.390245  0.674500  1
  O  O13  1  0.719352  0.719352  0.673628  1
  O  O14  1  0.051408  0.051408  0.688649  1
  O  O15  1  0.500000  0.000000  0.000000  1
  O  O16  1  0.840870  0.318572  0.000764  1
  O  O17  1  0.159130  0.681428  0.999236  1
  O  O18  1  0.000000  0.500000  0.000000  1
  O  O19  1  0.318572  0.840870  0.000764  1
  O  O20  1  0.681428  0.159130  0.999236  1
