# generated using pymatgen
data_La3Mg3Cu2Ru
_symmetry_space_group_name_H-M   'P 1'
_cell_length_a   7.62099700
_cell_length_b   7.62099675
_cell_length_c   4.19913300
_cell_angle_alpha   90.00000000
_cell_angle_beta   90.00000000
_cell_angle_gamma   119.99999676
_symmetry_Int_Tables_number   1
_chemical_formula_structural   La3Mg3Cu2Ru
_chemical_formula_sum   'La3 Mg3 Cu2 Ru1'
_cell_volume   211.20969193
_cell_formula_units_Z   1
loop_
 _symmetry_equiv_pos_site_id
 _symmetry_equiv_pos_as_xyz
  1  'x, y, z'
loop_
 _atom_site_type_symbol
 _atom_site_label
 _atom_site_symmetry_multiplicity
 _atom_site_fract_x
 _atom_site_fract_y
 _atom_site_fract_z
 _atom_site_occupancy
  La  La0  1  0.573527  0.981252  0.000000  1
  La  La1  1  0.018748  0.592275  0.000000  1
  La  La2  1  0.407725  0.426473  0.000000  1
  Mg  Mg3  1  0.238417  0.999951  0.500000  1
  Mg  Mg4  1  0.000049  0.238466  0.500000  1
  Mg  Mg5  1  0.761534  0.761583  0.500000  1
  Cu  Cu6  1  0.666667  0.333333  0.500000  1
  Cu  Cu7  1  0.000000  0.000000  0.000000  1
  Ru  Ru8  1  0.333333  0.666667  0.500000  1
