# generated using pymatgen
data_Y2Er8Sn5Bi
_symmetry_space_group_name_H-M   'P 1'
_cell_length_a   8.91880275
_cell_length_b   8.91767368
_cell_length_c   6.48858200
_cell_angle_alpha   90.00000000
_cell_angle_beta   90.00000000
_cell_angle_gamma   119.72379179
_symmetry_Int_Tables_number   1
_chemical_formula_structural   Y2Er8Sn5Bi
_chemical_formula_sum   'Y2 Er8 Sn5 Bi1'
_cell_volume   448.16775013
_cell_formula_units_Z   1
loop_
 _symmetry_equiv_pos_site_id
 _symmetry_equiv_pos_as_xyz
  1  'x, y, z'
loop_
 _atom_site_type_symbol
 _atom_site_label
 _atom_site_symmetry_multiplicity
 _atom_site_fract_x
 _atom_site_fract_y
 _atom_site_fract_z
 _atom_site_occupancy
  Y  Y0  1  0.994069  0.758098  0.750000  1
  Y  Y1  1  0.764714  0.999889  0.750000  1
  Er  Er2  1  0.000778  0.238540  0.250000  1
  Er  Er3  1  0.761197  0.760659  0.250000  1
  Er  Er4  1  0.236734  0.243486  0.750000  1
  Er  Er5  1  0.237192  0.000374  0.250000  1
  Er  Er6  1  0.332152  0.662411  0.498168  1
  Er  Er7  1  0.671312  0.337381  0.001966  1
  Er  Er8  1  0.671312  0.337381  0.498034  1
  Er  Er9  1  0.332152  0.662411  0.001832  1
  Sn  Sn10  1  0.394690  0.392426  0.250000  1
  Sn  Sn11  1  0.002492  0.606628  0.250000  1
  Sn  Sn12  1  0.999457  0.396153  0.750000  1
  Sn  Sn13  1  0.603269  0.603916  0.750000  1
  Sn  Sn14  1  0.605487  0.000084  0.250000  1
  Bi  Bi15  1  0.392990  0.000162  0.750000  1
