# generated using pymatgen
data_Pr17Er3Si15Sn
_symmetry_space_group_name_H-M   'P 1'
_cell_length_a   7.90604153
_cell_length_b   7.88383208
_cell_length_c   15.30151163
_cell_angle_alpha   90.24462999
_cell_angle_beta   89.62632395
_cell_angle_gamma   89.81283717
_symmetry_Int_Tables_number   1
_chemical_formula_structural   Pr17Er3Si15Sn
_chemical_formula_sum   'Pr17 Er3 Si15 Sn1'
_cell_volume   953.70759627
_cell_formula_units_Z   1
loop_
 _symmetry_equiv_pos_site_id
 _symmetry_equiv_pos_as_xyz
  1  'x, y, z'
loop_
 _atom_site_type_symbol
 _atom_site_label
 _atom_site_symmetry_multiplicity
 _atom_site_fract_x
 _atom_site_fract_y
 _atom_site_fract_z
 _atom_site_occupancy
  Pr  Pr0  1  0.690146  0.694772  0.496583  1
  Pr  Pr1  1  0.376254  0.015030  0.447284  1
  Pr  Pr2  1  0.494098  0.872807  0.697153  1
  Pr  Pr3  1  0.511329  0.120548  0.195345  1
  Pr  Pr4  1  0.879654  0.487099  0.301721  1
  Pr  Pr5  1  0.118458  0.516646  0.808183  1
  Pr  Pr6  1  0.623068  0.985287  0.948090  1
  Pr  Pr7  1  0.006151  0.386363  0.548889  1
  Pr  Pr8  1  0.988104  0.619582  0.055711  1
  Pr  Pr9  1  0.127295  0.976740  0.881345  1
  Pr  Pr10  1  0.522015  0.626048  0.128160  1
  Pr  Pr11  1  0.486655  0.386435  0.628060  1
  Pr  Pr12  1  0.626934  0.522846  0.875128  1
  Pr  Pr13  1  0.376061  0.478223  0.369479  1
  Pr  Pr14  1  0.872359  0.023104  0.376897  1
  Pr  Pr15  1  0.978117  0.125589  0.122553  1
  Pr  Pr16  1  0.010664  0.859899  0.619157  1
  Er  Er17  1  0.311544  0.309266  0.000985  1
  Er  Er18  1  0.189489  0.811119  0.249475  1
  Er  Er19  1  0.801118  0.188139  0.752364  1
  Si  Si20  1  0.327050  0.687735  0.958586  1
  Si  Si21  1  0.668067  0.307614  0.454917  1
  Si  Si22  1  0.690498  0.327382  0.044393  1
  Si  Si23  1  0.307420  0.672696  0.541996  1
  Si  Si24  1  0.811060  0.828195  0.205439  1
  Si  Si25  1  0.171049  0.189160  0.293819  1
  Si  Si26  1  0.831350  0.810544  0.796004  1
  Si  Si27  1  0.286087  0.921194  0.064264  1
  Si  Si28  1  0.574143  0.790744  0.308935  1
  Si  Si29  1  0.432575  0.211996  0.818100  1
  Si  Si30  1  0.790028  0.574000  0.692388  1
  Si  Si31  1  0.214126  0.419319  0.186213  1
  Si  Si32  1  0.712551  0.085206  0.564761  1
  Si  Si33  1  0.921753  0.285633  0.937368  1
  Si  Si34  1  0.083435  0.716323  0.433262  1
  Sn  Sn35  1  0.189297  0.166720  0.696995  1
