# generated using pymatgen
data_Sr14LuBi11
_symmetry_space_group_name_H-M   'P 1'
_cell_length_a   17.41501692
_cell_length_b   17.41502671
_cell_length_c   17.41503200
_cell_angle_alpha   94.39898063
_cell_angle_beta   117.49359858
_cell_angle_gamma   117.49361955
_symmetry_Int_Tables_number   1
_chemical_formula_structural   Sr14LuBi11
_chemical_formula_sum   'Sr56 Lu4 Bi44'
_cell_volume   3863.87811173
_cell_formula_units_Z   4
loop_
 _symmetry_equiv_pos_site_id
 _symmetry_equiv_pos_as_xyz
  1  'x, y, z'
loop_
 _atom_site_type_symbol
 _atom_site_label
 _atom_site_symmetry_multiplicity
 _atom_site_fract_x
 _atom_site_fract_y
 _atom_site_fract_z
 _atom_site_occupancy
  Sr  Sr0  1  0.096778  0.123968  0.980186  1
  Sr  Sr1  1  0.354009  0.250003  0.604008  1
  Sr  Sr2  1  0.031713  0.785359  0.402080  1
  Sr  Sr3  1  0.090371  0.522882  0.751951  1
  Sr  Sr4  1  0.645991  0.749997  0.395992  1
  Sr  Sr5  1  0.646023  0.396018  0.250002  1
  Sr  Sr6  1  0.883282  0.753647  0.785359  1
  Sr  Sr7  1  0.403210  0.383387  0.027177  1
  Sr  Sr8  1  0.270945  0.338421  0.748057  1
  Sr  Sr9  1  0.090356  0.067474  0.338424  1
  Sr  Sr10  1  0.909644  0.932526  0.661576  1
  Sr  Sr11  1  0.729055  0.661579  0.251943  1
  Sr  Sr12  1  0.643772  0.116580  0.519807  1
  Sr  Sr13  1  0.856253  0.980212  0.383452  1
  Sr  Sr14  1  0.145983  0.749995  0.895983  1
  Sr  Sr15  1  0.596790  0.616613  0.972823  1
  Sr  Sr16  1  0.729056  0.567496  0.477117  1
  Sr  Sr17  1  0.590361  0.251938  0.022880  1
  Sr  Sr18  1  0.403218  0.519788  0.376013  1
  Sr  Sr19  1  0.229057  0.977106  0.067491  1
  Sr  Sr20  1  0.409639  0.748062  0.977120  1
  Sr  Sr21  1  0.143763  0.623956  0.527172  1
  Sr  Sr22  1  0.383280  0.285345  0.253633  1
  Sr  Sr23  1  0.531711  0.129645  0.246351  1
  Sr  Sr24  1  0.909629  0.477118  0.248049  1
  Sr  Sr25  1  0.590355  0.838407  0.567471  1
  Sr  Sr26  1  0.883263  0.629611  0.097906  1
  Sr  Sr27  1  0.116737  0.370389  0.902094  1
  Sr  Sr28  1  0.356228  0.883420  0.480193  1
  Sr  Sr29  1  0.468289  0.870355  0.753649  1
  Sr  Sr30  1  0.356245  0.972797  0.876039  1
  Sr  Sr31  1  0.903222  0.876032  0.019814  1
  Sr  Sr32  1  0.856237  0.376044  0.472828  1
  Sr  Sr33  1  0.854017  0.250005  0.104017  1
  Sr  Sr34  1  0.903224  0.527209  0.883421  1
  Sr  Sr35  1  0.096776  0.472791  0.116579  1
  Sr  Sr36  1  0.116718  0.246353  0.214641  1
  Sr  Sr37  1  0.531707  0.902070  0.285364  1
  Sr  Sr38  1  0.596782  0.480212  0.623987  1
  Sr  Sr39  1  0.229049  0.751942  0.161564  1
  Sr  Sr40  1  0.616737  0.402098  0.870385  1
  Sr  Sr41  1  0.383263  0.597902  0.129615  1
  Sr  Sr42  1  0.031710  0.746348  0.629636  1
  Sr  Sr43  1  0.968287  0.214641  0.597920  1
  Sr  Sr44  1  0.770951  0.248058  0.838436  1
  Sr  Sr45  1  0.353977  0.603982  0.749998  1
  Sr  Sr46  1  0.409645  0.161593  0.432529  1
  Sr  Sr47  1  0.143747  0.019788  0.616548  1
  Sr  Sr48  1  0.643755  0.027203  0.123961  1
  Sr  Sr49  1  0.853984  0.103985  0.749998  1
  Sr  Sr50  1  0.616720  0.714655  0.746367  1
  Sr  Sr51  1  0.270944  0.432504  0.522883  1
  Sr  Sr52  1  0.146016  0.896015  0.250002  1
  Sr  Sr53  1  0.468293  0.097930  0.714636  1
  Sr  Sr54  1  0.770943  0.022894  0.932509  1
  Sr  Sr55  1  0.968290  0.253652  0.370364  1
  Lu  Lu56  1  0.750037  0.875020  0.125016  1
  Lu  Lu57  1  0.749970  0.374990  0.624979  1
  Lu  Lu58  1  0.250030  0.625010  0.375021  1
  Lu  Lu59  1  0.249963  0.124980  0.874984  1
  Bi  Bi60  1  0.481845  0.490926  0.740926  1
  Bi  Bi61  1  0.395276  0.915950  0.074073  1
  Bi  Bi62  1  0.518155  0.509074  0.259074  1
  Bi  Bi63  1  0.104728  0.178800  0.520675  1
  Bi  Bi64  1  0.895278  0.574078  0.415951  1
  Bi  Bi65  1  0.750003  0.990921  0.509080  1
  Bi  Bi66  1  0.604724  0.084050  0.925927  1
  Bi  Bi67  1  0.395280  0.979329  0.321208  1
  Bi  Bi68  1  0.386435  0.683401  0.579818  1
  Bi  Bi69  1  0.658115  0.678793  0.574072  1
  Bi  Bi70  1  0.749999  0.124998  0.374997  1
  Bi  Bi71  1  0.895272  0.821200  0.479325  1
  Bi  Bi72  1  0.103610  0.420215  0.306633  1
  Bi  Bi73  1  0.886432  0.306622  0.703033  1
  Bi  Bi74  1  0.886429  0.079803  0.183398  1
  Bi  Bi75  1  0.613562  0.796962  0.193382  1
  Bi  Bi76  1  0.396403  0.193369  0.079798  1
  Bi  Bi77  1  0.603592  0.296969  0.683406  1
  Bi  Bi78  1  0.396408  0.703031  0.316594  1
  Bi  Bi79  1  0.250006  0.374996  0.125004  1
  Bi  Bi80  1  0.103598  0.183406  0.796975  1
  Bi  Bi81  1  0.249997  0.009079  0.490920  1
  Bi  Bi82  1  0.113568  0.693378  0.296967  1
  Bi  Bi83  1  0.749994  0.625004  0.874996  1
  Bi  Bi84  1  0.113571  0.920197  0.816602  1
  Bi  Bi85  1  0.104722  0.425922  0.584049  1
  Bi  Bi86  1  0.250001  0.875002  0.625003  1
  Bi  Bi87  1  0.604720  0.020671  0.678792  1
  Bi  Bi88  1  0.841880  0.925927  0.821206  1
  Bi  Bi89  1  0.341885  0.321207  0.425928  1
  Bi  Bi90  1  0.841887  0.415951  0.020675  1
  Bi  Bi91  1  0.896402  0.816594  0.203025  1
  Bi  Bi92  1  0.158113  0.584049  0.979325  1
  Bi  Bi93  1  0.249999  0.740917  0.759080  1
  Bi  Bi94  1  0.896390  0.579785  0.693367  1
  Bi  Bi95  1  0.750001  0.259083  0.240920  1
  Bi  Bi96  1  0.613565  0.316599  0.420182  1
  Bi  Bi97  1  0.386438  0.203038  0.806618  1
  Bi  Bi98  1  0.658112  0.479324  0.084043  1
  Bi  Bi99  1  0.341888  0.520676  0.915957  1
  Bi  Bi100  1  0.158120  0.074073  0.178794  1
  Bi  Bi101  1  0.018159  0.759082  0.009080  1
  Bi  Bi102  1  0.981841  0.240918  0.990920  1
  Bi  Bi103  1  0.603597  0.806631  0.920202  1
