# generated using pymatgen
data_InSb(As2O7)2
_symmetry_space_group_name_H-M   'P 1'
_cell_length_a   8.60490023
_cell_length_b   5.15755681
_cell_length_c   7.46098512
_cell_angle_alpha   73.28514584
_cell_angle_beta   90.34663791
_cell_angle_gamma   91.02183262
_symmetry_Int_Tables_number   1
_chemical_formula_structural   InSb(As2O7)2
_chemical_formula_sum   'In1 Sb1 As4 O14'
_cell_volume   317.07937929
_cell_formula_units_Z   1
loop_
 _symmetry_equiv_pos_site_id
 _symmetry_equiv_pos_as_xyz
  1  'x, y, z'
loop_
 _atom_site_type_symbol
 _atom_site_label
 _atom_site_symmetry_multiplicity
 _atom_site_fract_x
 _atom_site_fract_y
 _atom_site_fract_z
 _atom_site_occupancy
  In  In0  1  0.547755  0.781370  0.734891  1
  Sb  Sb1  1  0.049803  0.215389  0.274452  1
  As  As2  1  0.867110  0.604590  0.507404  1
  As  As3  1  0.272958  0.782863  0.097975  1
  As  As4  1  0.784644  0.228824  0.903374  1
  As  As5  1  0.369682  0.389663  0.492287  1
  O  O6  1  0.748372  0.947219  0.838491  1
  O  O7  1  0.362577  0.897919  0.892108  1
  O  O8  1  0.016144  0.841950  0.451045  1
  O  O9  1  0.685544  0.716082  0.501616  1
  O  O10  1  0.357191  0.585757  0.636493  1
  O  O11  1  0.629791  0.407911  0.932058  1
  O  O12  1  0.924789  0.430051  0.739754  1
  O  O13  1  0.410324  0.592537  0.255562  1
  O  O14  1  0.107737  0.583149  0.096130  1
  O  O15  1  0.871500  0.382384  0.370781  1
  O  O16  1  0.178250  0.273723  0.482039  1
  O  O17  1  0.508836  0.158166  0.523583  1
  O  O18  1  0.900301  0.113954  0.102076  1
  O  O19  1  0.229907  0.066498  0.167880  1
