# generated using pymatgen
data_Tb16Hg4PdRh3
_symmetry_space_group_name_H-M   'P 1'
_cell_length_a   9.64613479
_cell_length_b   9.65315381
_cell_length_c   9.64613300
_cell_angle_alpha   60.02405279
_cell_angle_beta   60.00000270
_cell_angle_gamma   60.02404793
_symmetry_Int_Tables_number   1
_chemical_formula_structural   Tb16Hg4PdRh3
_chemical_formula_sum   'Tb16 Hg4 Pd1 Rh3'
_cell_volume   635.35812545
_cell_formula_units_Z   1
loop_
 _symmetry_equiv_pos_site_id
 _symmetry_equiv_pos_as_xyz
  1  'x, y, z'
loop_
 _atom_site_type_symbol
 _atom_site_label
 _atom_site_symmetry_multiplicity
 _atom_site_fract_x
 _atom_site_fract_y
 _atom_site_fract_z
 _atom_site_occupancy
  Tb  Tb0  1  0.811388  0.811309  0.188652  1
  Tb  Tb1  1  0.810746  0.184907  0.810746  1
  Tb  Tb2  1  0.193601  0.184907  0.810746  1
  Tb  Tb3  1  0.649908  0.050276  0.649908  1
  Tb  Tb4  1  0.063794  0.065077  0.435564  1
  Tb  Tb5  1  0.433947  0.437318  0.064367  1
  Tb  Tb6  1  0.646587  0.651568  0.646587  1
  Tb  Tb7  1  0.810746  0.184907  0.193601  1
  Tb  Tb8  1  0.188652  0.811309  0.811388  1
  Tb  Tb9  1  0.055258  0.651568  0.646587  1
  Tb  Tb10  1  0.435564  0.065077  0.063794  1
  Tb  Tb11  1  0.435564  0.065077  0.435564  1
  Tb  Tb12  1  0.064367  0.437318  0.064367  1
  Tb  Tb13  1  0.646587  0.651568  0.055258  1
  Tb  Tb14  1  0.188652  0.811309  0.188652  1
  Tb  Tb15  1  0.064367  0.437318  0.433947  1
  Hg  Hg16  1  0.415851  0.415721  0.415851  1
  Hg  Hg17  1  0.415851  0.415721  0.752577  1
  Hg  Hg18  1  0.415502  0.753493  0.415502  1
  Hg  Hg19  1  0.752577  0.415721  0.415851  1
  Pd  Pd20  1  0.856721  0.429836  0.856721  1
  Rh  Rh21  1  0.857576  0.856231  0.857576  1
  Rh  Rh22  1  0.857576  0.856231  0.428619  1
  Rh  Rh23  1  0.428619  0.856231  0.857576  1
