# generated using pymatgen
data_Rb2(ZrTe2)5
_symmetry_space_group_name_H-M   'P 1'
_cell_length_a   6.92998088
_cell_length_b   12.35493317
_cell_length_c   10.15387476
_cell_angle_alpha   55.51528212
_cell_angle_beta   70.29927617
_cell_angle_gamma   89.96678535
_symmetry_Int_Tables_number   1
_chemical_formula_structural   Rb2(ZrTe2)5
_chemical_formula_sum   'Rb2 Zr5 Te10'
_cell_volume   654.05959375
_cell_formula_units_Z   1
loop_
 _symmetry_equiv_pos_site_id
 _symmetry_equiv_pos_as_xyz
  1  'x, y, z'
loop_
 _atom_site_type_symbol
 _atom_site_label
 _atom_site_symmetry_multiplicity
 _atom_site_fract_x
 _atom_site_fract_y
 _atom_site_fract_z
 _atom_site_occupancy
  Rb  Rb0  1  0.787587  0.075664  0.424721  1
  Rb  Rb1  1  0.012413  0.524336  0.975279  1
  Zr  Zr2  1  0.400000  0.800000  0.200000  1
  Zr  Zr3  1  0.803914  0.599211  0.397250  1
  Zr  Zr4  1  0.198069  0.400684  0.600153  1
  Zr  Zr5  1  0.601931  0.199316  0.799847  1
  Zr  Zr6  1  0.996086  0.000789  0.002750  1
  Te  Te7  1  0.989364  0.834354  0.356014  1
  Te  Te8  1  0.583985  0.038698  0.154439  1
  Te  Te9  1  0.190213  0.239038  0.954444  1
  Te  Te10  1  0.785970  0.438230  0.752384  1
  Te  Te11  1  0.395156  0.639060  0.549933  1
  Te  Te12  1  0.404844  0.960940  0.850067  1
  Te  Te13  1  0.014030  0.161770  0.647616  1
  Te  Te14  1  0.609787  0.360962  0.445556  1
  Te  Te15  1  0.216015  0.561302  0.245561  1
  Te  Te16  1  0.810636  0.765646  0.043986  1
