# generated using pymatgen
data_Tm4ReSi4Ru
_symmetry_space_group_name_H-M   'P 1'
_cell_length_a   5.69939886
_cell_length_b   5.69939848
_cell_length_c   9.91979712
_cell_angle_alpha   116.26105718
_cell_angle_beta   116.26105769
_cell_angle_gamma   43.08002935
_symmetry_Int_Tables_number   1
_chemical_formula_structural   Tm4ReSi4Ru
_chemical_formula_sum   'Tm4 Re1 Si4 Ru1'
_cell_volume   193.59197755
_cell_formula_units_Z   1
loop_
 _symmetry_equiv_pos_site_id
 _symmetry_equiv_pos_as_xyz
  1  'x, y, z'
loop_
 _atom_site_type_symbol
 _atom_site_label
 _atom_site_symmetry_multiplicity
 _atom_site_fract_x
 _atom_site_fract_y
 _atom_site_fract_z
 _atom_site_occupancy
  Tm  Tm0  1  0.008566  0.008566  0.179065  1
  Tm  Tm1  1  0.813680  0.813680  0.389102  1
  Tm  Tm2  1  0.184894  0.184894  0.610257  1
  Tm  Tm3  1  0.995093  0.995093  0.822329  1
  Re  Re4  1  0.728480  0.728480  0.870443  1
  Si  Si5  1  0.641742  0.641742  0.061956  1
  Si  Si6  1  0.503265  0.503265  0.375309  1
  Si  Si7  1  0.494690  0.494690  0.620963  1
  Si  Si8  1  0.360215  0.360215  0.942611  1
  Ru  Ru9  1  0.269376  0.269376  0.127968  1
