# generated using pymatgen
data_Ta8NbGaS16
_symmetry_space_group_name_H-M   'P 1'
_cell_length_a   6.68150600
_cell_length_b   6.68150569
_cell_length_c   13.65774900
_cell_angle_alpha   90.00000000
_cell_angle_beta   90.00000000
_cell_angle_gamma   120.00001142
_symmetry_Int_Tables_number   1
_chemical_formula_structural   Ta8NbGaS16
_chemical_formula_sum   'Ta8 Nb1 Ga1 S16'
_cell_volume   528.02977709
_cell_formula_units_Z   1
loop_
 _symmetry_equiv_pos_site_id
 _symmetry_equiv_pos_as_xyz
  1  'x, y, z'
loop_
 _atom_site_type_symbol
 _atom_site_label
 _atom_site_symmetry_multiplicity
 _atom_site_fract_x
 _atom_site_fract_y
 _atom_site_fract_z
 _atom_site_occupancy
  Ta  Ta0  1  0.503768  0.496232  0.736052  1
  Ta  Ta1  1  0.007536  0.503768  0.263948  1
  Ta  Ta2  1  0.496232  0.992464  0.263948  1
  Ta  Ta3  1  0.503768  0.007536  0.736052  1
  Ta  Ta4  1  0.992464  0.496232  0.736052  1
  Ta  Ta5  1  0.496232  0.503768  0.263948  1
  Ta  Ta6  1  0.000000  0.000000  0.734650  1
  Ta  Ta7  1  0.000000  0.000000  0.265350  1
  Nb  Nb8  1  0.000000  0.000000  0.500000  1
  Ga  Ga9  1  0.000000  0.000000  0.000000  1
  S  S10  1  0.833010  0.166991  0.380245  1
  S  S11  1  0.833010  0.666019  0.380245  1
  S  S12  1  0.333981  0.166990  0.380245  1
  S  S13  1  0.667691  0.833845  0.848929  1
  S  S14  1  0.166990  0.333981  0.619755  1
  S  S15  1  0.166154  0.833845  0.848929  1
  S  S16  1  0.166154  0.332309  0.848929  1
  S  S17  1  0.833846  0.166155  0.151071  1
  S  S18  1  0.332309  0.166155  0.151071  1
  S  S19  1  0.666019  0.833010  0.619755  1
  S  S20  1  0.333332  0.666666  0.148227  1
  S  S21  1  0.666667  0.333334  0.620855  1
  S  S22  1  0.666668  0.333334  0.851773  1
  S  S23  1  0.333333  0.666666  0.379145  1
  S  S24  1  0.833846  0.667691  0.151071  1
  S  S25  1  0.166990  0.833009  0.619755  1
