# generated using pymatgen
data_Y3Lu(Si2Tc)2
_symmetry_space_group_name_H-M   'P 1'
_cell_length_a   5.77675084
_cell_length_b   5.77675117
_cell_length_c   10.04795091
_cell_angle_alpha   63.71063079
_cell_angle_beta   63.71062981
_cell_angle_gamma   42.48525657
_symmetry_Int_Tables_number   1
_chemical_formula_structural   Y3Lu(Si2Tc)2
_chemical_formula_sum   'Y3 Lu1 Si4 Tc2'
_cell_volume   199.26482946
_cell_formula_units_Z   1
loop_
 _symmetry_equiv_pos_site_id
 _symmetry_equiv_pos_as_xyz
  1  'x, y, z'
loop_
 _atom_site_type_symbol
 _atom_site_label
 _atom_site_symmetry_multiplicity
 _atom_site_fract_x
 _atom_site_fract_y
 _atom_site_fract_z
 _atom_site_occupancy
  Y  Y0  1  0.187882  0.187882  0.891518  1
  Y  Y1  1  0.994320  0.994320  0.676977  1
  Y  Y2  1  0.811750  0.811750  0.110090  1
  Lu  Lu3  1  0.003137  0.003137  0.324785  1
  Si  Si4  1  0.358405  0.358405  0.558799  1
  Si  Si5  1  0.499459  0.499459  0.877947  1
  Si  Si6  1  0.641675  0.641675  0.439066  1
  Si  Si7  1  0.502391  0.502391  0.123925  1
  Tc  Tc8  1  0.728956  0.728956  0.627530  1
  Tc  Tc9  1  0.272025  0.272025  0.369362  1
