# generated using pymatgen
data_La9Tb(Tl2Os)2
_symmetry_space_group_name_H-M   'P 1'
_cell_length_a   8.54545681
_cell_length_b   9.27316900
_cell_length_c   12.98233400
_cell_angle_alpha   90.00000000
_cell_angle_beta   89.55580099
_cell_angle_gamma   90.00000000
_symmetry_Int_Tables_number   1
_chemical_formula_structural   La9Tb(Tl2Os)2
_chemical_formula_sum   'La18 Tb2 Tl8 Os4'
_cell_volume   1028.73421562
_cell_formula_units_Z   2
loop_
 _symmetry_equiv_pos_site_id
 _symmetry_equiv_pos_as_xyz
  1  'x, y, z'
loop_
 _atom_site_type_symbol
 _atom_site_label
 _atom_site_symmetry_multiplicity
 _atom_site_fract_x
 _atom_site_fract_y
 _atom_site_fract_z
 _atom_site_occupancy
  La  La0  1  0.838359  0.750000  0.794883  1
  La  La1  1  0.161641  0.250000  0.205117  1
  La  La2  1  0.339012  0.250000  0.714208  1
  La  La3  1  0.660988  0.750000  0.285792  1
  La  La4  1  0.384950  0.750000  0.693141  1
  La  La5  1  0.615050  0.250000  0.306859  1
  La  La6  1  0.887003  0.250000  0.812712  1
  La  La7  1  0.112997  0.750000  0.187288  1
  La  La8  1  0.932174  0.750000  0.499554  1
  La  La9  1  0.067826  0.250000  0.500446  1
  La  La10  1  0.669743  0.036535  0.573548  1
  La  La11  1  0.330257  0.963465  0.426452  1
  La  La12  1  0.175321  0.965960  0.926840  1
  La  La13  1  0.330257  0.536535  0.426452  1
  La  La14  1  0.824679  0.034040  0.073160  1
  La  La15  1  0.669743  0.463465  0.573548  1
  La  La16  1  0.824679  0.465960  0.073160  1
  La  La17  1  0.175321  0.534040  0.926840  1
  Tb  Tb18  1  0.439969  0.250000  0.999002  1
  Tb  Tb19  1  0.560031  0.750000  0.000998  1
  Tl  Tl20  1  0.571839  0.484928  0.839550  1
  Tl  Tl21  1  0.428161  0.515072  0.160450  1
  Tl  Tl22  1  0.073675  0.516642  0.668136  1
  Tl  Tl23  1  0.428161  0.984928  0.160450  1
  Tl  Tl24  1  0.926325  0.483358  0.331864  1
  Tl  Tl25  1  0.571839  0.015072  0.839550  1
  Tl  Tl26  1  0.926325  0.016642  0.331864  1
  Tl  Tl27  1  0.073675  0.983358  0.668136  1
  Os  Os28  1  0.575761  0.750000  0.509346  1
  Os  Os29  1  0.424239  0.250000  0.490654  1
  Os  Os30  1  0.086731  0.250000  0.987203  1
  Os  Os31  1  0.913269  0.750000  0.012797  1
