# generated using pymatgen
data_Ho3Co8TcP6
_symmetry_space_group_name_H-M   'P 1'
_cell_length_a   3.71268200
_cell_length_b   10.52368600
_cell_length_c   12.22416800
_cell_angle_alpha   90.00000000
_cell_angle_beta   90.00000000
_cell_angle_gamma   90.00000000
_symmetry_Int_Tables_number   1
_chemical_formula_structural   Ho3Co8TcP6
_chemical_formula_sum   'Ho6 Co16 Tc2 P12'
_cell_volume   477.61168528
_cell_formula_units_Z   2
loop_
 _symmetry_equiv_pos_site_id
 _symmetry_equiv_pos_as_xyz
  1  'x, y, z'
loop_
 _atom_site_type_symbol
 _atom_site_label
 _atom_site_symmetry_multiplicity
 _atom_site_fract_x
 _atom_site_fract_y
 _atom_site_fract_z
 _atom_site_occupancy
  Ho  Ho0  1  0.000000  0.500000  0.524308  1
  Ho  Ho1  1  0.500000  0.000000  0.475692  1
  Ho  Ho2  1  0.500000  0.818038  0.205980  1
  Ho  Ho3  1  0.500000  0.181962  0.205980  1
  Ho  Ho4  1  0.000000  0.681962  0.794020  1
  Ho  Ho5  1  0.000000  0.318038  0.794020  1
  Co  Co6  1  0.000000  0.500000  0.987309  1
  Co  Co7  1  0.500000  0.000000  0.012691  1
  Co  Co8  1  0.500000  0.296707  0.431104  1
  Co  Co9  1  0.500000  0.703293  0.431104  1
  Co  Co10  1  0.000000  0.203293  0.568896  1
  Co  Co11  1  0.000000  0.796707  0.568896  1
  Co  Co12  1  0.500000  0.878793  0.707582  1
  Co  Co13  1  0.500000  0.121207  0.707582  1
  Co  Co14  1  0.000000  0.621207  0.292418  1
  Co  Co15  1  0.000000  0.378793  0.292418  1
  Co  Co16  1  0.500000  0.332375  0.989630  1
  Co  Co17  1  0.500000  0.667625  0.989630  1
  Co  Co18  1  0.000000  0.167625  0.010370  1
  Co  Co19  1  0.000000  0.832375  0.010370  1
  Co  Co20  1  0.500000  0.500000  0.702667  1
  Co  Co21  1  0.000000  0.000000  0.297333  1
  Tc  Tc22  1  0.500000  0.500000  0.156966  1
  Tc  Tc23  1  0.000000  0.000000  0.843034  1
  P  P24  1  0.500000  0.312023  0.616284  1
  P  P25  1  0.500000  0.687977  0.616284  1
  P  P26  1  0.000000  0.187977  0.383716  1
  P  P27  1  0.000000  0.812023  0.383716  1
  P  P28  1  0.500000  0.500000  0.880713  1
  P  P29  1  0.000000  0.000000  0.119287  1
  P  P30  1  0.500000  0.845866  0.892482  1
  P  P31  1  0.500000  0.154134  0.892482  1
  P  P32  1  0.000000  0.654134  0.107518  1
  P  P33  1  0.000000  0.345866  0.107518  1
  P  P34  1  0.500000  0.500000  0.349044  1
  P  P35  1  0.000000  0.000000  0.650956  1
