# generated using pymatgen
data_Na2CaBe2F8
_symmetry_space_group_name_H-M   'P 1'
_cell_length_a   6.47301948
_cell_length_b   6.47301908
_cell_length_c   8.29174000
_cell_angle_alpha   73.87594428
_cell_angle_beta   106.12405471
_cell_angle_gamma   99.28150604
_symmetry_Int_Tables_number   1
_chemical_formula_structural   Na2CaBe2F8
_chemical_formula_sum   'Na4 Ca2 Be4 F16'
_cell_volume   319.29194662
_cell_formula_units_Z   2
loop_
 _symmetry_equiv_pos_site_id
 _symmetry_equiv_pos_as_xyz
  1  'x, y, z'
loop_
 _atom_site_type_symbol
 _atom_site_label
 _atom_site_symmetry_multiplicity
 _atom_site_fract_x
 _atom_site_fract_y
 _atom_site_fract_z
 _atom_site_occupancy
  Na  Na0  1  0.584446  0.305268  0.435165  1
  Na  Na1  1  0.305270  0.584447  0.064838  1
  Na  Na2  1  0.415555  0.694733  0.564834  1
  Na  Na3  1  0.694733  0.415556  0.935162  1
  Ca  Ca4  1  0.943990  0.943983  0.249999  1
  Ca  Ca5  1  0.056017  0.056016  0.750000  1
  Be  Be6  1  0.407963  0.033208  0.191140  1
  Be  Be7  1  0.033196  0.407961  0.308858  1
  Be  Be8  1  0.592045  0.966792  0.808867  1
  Be  Be9  1  0.966796  0.592046  0.691137  1
  F  F10  1  0.317658  0.006358  0.354269  1
  F  F11  1  0.006362  0.317650  0.145729  1
  F  F12  1  0.682350  0.993634  0.645738  1
  F  F13  1  0.993637  0.682350  0.854265  1
  F  F14  1  0.495102  0.274552  0.136873  1
  F  F15  1  0.274535  0.495095  0.363128  1
  F  F16  1  0.504900  0.725447  0.863132  1
  F  F17  1  0.725446  0.504901  0.636869  1
  F  F18  1  0.587704  0.879410  0.241801  1
  F  F19  1  0.879399  0.587697  0.258195  1
  F  F20  1  0.412306  0.120594  0.758202  1
  F  F21  1  0.120592  0.412304  0.741798  1
  F  F22  1  0.212645  0.958187  0.053980  1
  F  F23  1  0.958175  0.212633  0.446018  1
  F  F24  1  0.787361  0.041813  0.946022  1
  F  F25  1  0.041816  0.787362  0.553979  1
