# generated using pymatgen
data_Zr4TcSn3B
_symmetry_space_group_name_H-M   'P 1'
_cell_length_a   8.43729100
_cell_length_b   8.43729045
_cell_length_c   5.65453400
_cell_angle_alpha   90.00000000
_cell_angle_beta   90.00000000
_cell_angle_gamma   119.99999823
_symmetry_Int_Tables_number   1
_chemical_formula_structural   Zr4TcSn3B
_chemical_formula_sum   'Zr8 Tc2 Sn6 B2'
_cell_volume   348.60489986
_cell_formula_units_Z   2
loop_
 _symmetry_equiv_pos_site_id
 _symmetry_equiv_pos_as_xyz
  1  'x, y, z'
loop_
 _atom_site_type_symbol
 _atom_site_label
 _atom_site_symmetry_multiplicity
 _atom_site_fract_x
 _atom_site_fract_y
 _atom_site_fract_z
 _atom_site_occupancy
  Zr  Zr0  1  0.333333  0.666667  0.500000  1
  Zr  Zr1  1  0.666667  0.333333  0.500000  1
  Zr  Zr2  1  0.765497  0.765497  0.744058  1
  Zr  Zr3  1  0.234503  0.000000  0.744058  1
  Zr  Zr4  1  0.000000  0.234503  0.744058  1
  Zr  Zr5  1  0.234503  0.234503  0.255942  1
  Zr  Zr6  1  0.765497  0.000000  0.255942  1
  Zr  Zr7  1  0.000000  0.765497  0.255942  1
  Tc  Tc8  1  0.666667  0.333333  0.000000  1
  Tc  Tc9  1  0.333333  0.666667  0.000000  1
  Sn  Sn10  1  0.401952  0.401952  0.764514  1
  Sn  Sn11  1  0.598048  0.000000  0.764514  1
  Sn  Sn12  1  0.000000  0.598048  0.764514  1
  Sn  Sn13  1  0.598048  0.598048  0.235486  1
  Sn  Sn14  1  0.401952  0.000000  0.235486  1
  Sn  Sn15  1  0.000000  0.401952  0.235486  1
  B  B16  1  0.000000  0.000000  0.000000  1
  B  B17  1  0.000000  0.000000  0.500000  1
