# generated using pymatgen
data_Ca20Zn7Ga5
_symmetry_space_group_name_H-M   'P 1'
_cell_length_a   7.88510740
_cell_length_b   7.88512480
_cell_length_c   15.16363902
_cell_angle_alpha   90.00290647
_cell_angle_beta   89.99919127
_cell_angle_gamma   89.97348482
_symmetry_Int_Tables_number   1
_chemical_formula_structural   Ca20Zn7Ga5
_chemical_formula_sum   'Ca20 Zn7 Ga5'
_cell_volume   942.80000218
_cell_formula_units_Z   1
loop_
 _symmetry_equiv_pos_site_id
 _symmetry_equiv_pos_as_xyz
  1  'x, y, z'
loop_
 _atom_site_type_symbol
 _atom_site_label
 _atom_site_symmetry_multiplicity
 _atom_site_fract_x
 _atom_site_fract_y
 _atom_site_fract_z
 _atom_site_occupancy
  Ca  Ca0  1  0.675167  0.171779  0.100225  1
  Ca  Ca1  1  0.174022  0.674209  0.601226  1
  Ca  Ca2  1  0.327674  0.825448  0.100213  1
  Ca  Ca3  1  0.825124  0.326642  0.601207  1
  Ca  Ca4  1  0.824550  0.676096  0.100949  1
  Ca  Ca5  1  0.326096  0.174529  0.602129  1
  Ca  Ca6  1  0.172966  0.326421  0.099299  1
  Ca  Ca7  1  0.674827  0.824504  0.601782  1
  Ca  Ca8  1  0.826109  0.326319  0.899101  1
  Ca  Ca9  1  0.327953  0.824450  0.399458  1
  Ca  Ca10  1  0.173009  0.674568  0.899104  1
  Ca  Ca11  1  0.674884  0.172588  0.399469  1
  Ca  Ca12  1  0.675234  0.825437  0.898504  1
  Ca  Ca13  1  0.173914  0.326709  0.400402  1
  Ca  Ca14  1  0.325790  0.173570  0.898148  1
  Ca  Ca15  1  0.823566  0.675812  0.398778  1
  Ca  Ca16  1  0.500254  0.500042  0.751462  1
  Ca  Ca17  1  0.997624  0.000647  0.250099  1
  Ca  Ca18  1  0.999953  0.999741  0.749809  1
  Ca  Ca19  1  0.499368  0.502374  0.248522  1
  Zn  Zn20  1  0.614504  0.113395  0.750136  1
  Zn  Zn21  1  0.113495  0.614139  0.249855  1
  Zn  Zn22  1  0.885873  0.386495  0.249892  1
  Zn  Zn23  1  0.386595  0.885506  0.750155  1
  Zn  Zn24  1  0.885997  0.614006  0.750134  1
  Zn  Zn25  1  0.384775  0.115212  0.249795  1
  Zn  Zn26  1  0.113857  0.386125  0.750150  1
  Ga  Ga27  1  0.498944  0.497582  0.500082  1
  Ga  Ga28  1  0.498928  0.497669  0.999951  1
  Ga  Ga29  1  0.002468  0.001094  0.500097  1
  Ga  Ga30  1  0.614163  0.885851  0.249896  1
  Ga  Ga31  1  0.002318  0.001043  0.999969  1
