# generated using pymatgen
data_Fe4B4MoW3
_symmetry_space_group_name_H-M   'P 1'
_cell_length_a   5.85699000
_cell_length_b   3.15324900
_cell_length_c   6.80755318
_cell_angle_alpha   90.00000000
_cell_angle_beta   89.93266095
_cell_angle_gamma   90.00000000
_symmetry_Int_Tables_number   1
_chemical_formula_structural   Fe4B4MoW3
_chemical_formula_sum   'Fe4 B4 Mo1 W3'
_cell_volume   125.72553504
_cell_formula_units_Z   1
loop_
 _symmetry_equiv_pos_site_id
 _symmetry_equiv_pos_as_xyz
  1  'x, y, z'
loop_
 _atom_site_type_symbol
 _atom_site_label
 _atom_site_symmetry_multiplicity
 _atom_site_fract_x
 _atom_site_fract_y
 _atom_site_fract_z
 _atom_site_occupancy
  Fe  Fe0  1  0.142626  0.250000  0.442992  1
  Fe  Fe1  1  0.642726  0.250000  0.056979  1
  Fe  Fe2  1  0.856810  0.750000  0.556586  1
  Fe  Fe3  1  0.356792  0.750000  0.943076  1
  B  B4  1  0.265113  0.250000  0.134053  1
  B  B5  1  0.764784  0.250000  0.366866  1
  B  B6  1  0.734620  0.750000  0.866195  1
  B  B7  1  0.235875  0.750000  0.633216  1
  Mo  Mo8  1  0.030004  0.250000  0.826988  1
  W  W9  1  0.529944  0.250000  0.673390  1
  W  W10  1  0.970320  0.750000  0.172619  1
  W  W11  1  0.470385  0.750000  0.327039  1
