# generated using pymatgen
data_ScTa5(NbN3)4
_symmetry_space_group_name_H-M   'P 1'
_cell_length_a   5.26394521
_cell_length_b   5.26636183
_cell_length_c   10.41811489
_cell_angle_alpha   89.96004895
_cell_angle_beta   89.99792912
_cell_angle_gamma   120.12964086
_symmetry_Int_Tables_number   1
_chemical_formula_structural   ScTa5(NbN3)4
_chemical_formula_sum   'Sc1 Ta5 Nb4 N12'
_cell_volume   249.78873954
_cell_formula_units_Z   1
loop_
 _symmetry_equiv_pos_site_id
 _symmetry_equiv_pos_as_xyz
  1  'x, y, z'
loop_
 _atom_site_type_symbol
 _atom_site_label
 _atom_site_symmetry_multiplicity
 _atom_site_fract_x
 _atom_site_fract_y
 _atom_site_fract_z
 _atom_site_occupancy
  Sc  Sc0  1  0.665257  0.333104  0.000195  1
  Ta  Ta1  1  0.678113  0.001791  0.251190  1
  Ta  Ta2  1  0.998139  0.676427  0.251172  1
  Ta  Ta3  1  0.333303  0.665347  0.999398  1
  Ta  Ta4  1  0.333781  0.665407  0.499276  1
  Ta  Ta5  1  0.665255  0.333560  0.499429  1
  Nb  Nb6  1  0.677663  0.675981  0.748555  1
  Nb  Nb7  1  0.324483  0.001853  0.748619  1
  Nb  Nb8  1  0.998363  0.322829  0.748689  1
  Nb  Nb9  1  0.324629  0.323125  0.252407  1
  N  N10  1  0.664553  0.664916  0.381290  1
  N  N11  1  0.340978  0.995960  0.380484  1
  N  N12  1  0.996251  0.341285  0.380609  1
  N  N13  1  0.340800  0.341019  0.618090  1
  N  N14  1  0.657409  0.999932  0.618071  1
  N  N15  1  0.000180  0.657629  0.618028  1
  N  N16  1  0.340465  0.348554  0.876383  1
  N  N17  1  0.650367  0.991699  0.876190  1
  N  N18  1  0.008598  0.658699  0.876202  1
  N  N19  1  0.655593  0.663297  0.124824  1
  N  N20  1  0.342016  0.987741  0.125456  1
  N  N21  1  0.003806  0.349845  0.125444  1
