# generated using pymatgen
data_La2NdOsO8
_symmetry_space_group_name_H-M   'P 1'
_cell_length_a   6.34497100
_cell_length_b   7.53963155
_cell_length_c   7.55613032
_cell_angle_alpha   69.85469446
_cell_angle_beta   90.00000000
_cell_angle_gamma   90.00000000
_symmetry_Int_Tables_number   1
_chemical_formula_structural   La2NdOsO8
_chemical_formula_sum   'La4 Nd2 Os2 O16'
_cell_volume   339.36149300
_cell_formula_units_Z   2
loop_
 _symmetry_equiv_pos_site_id
 _symmetry_equiv_pos_as_xyz
  1  'x, y, z'
loop_
 _atom_site_type_symbol
 _atom_site_label
 _atom_site_symmetry_multiplicity
 _atom_site_fract_x
 _atom_site_fract_y
 _atom_site_fract_z
 _atom_site_occupancy
  La  La0  1  0.250000  0.397808  0.396864  1
  La  La1  1  0.750000  0.602192  0.603136  1
  La  La2  1  0.250000  0.331141  0.894969  1
  La  La3  1  0.750000  0.668859  0.105031  1
  Nd  Nd4  1  0.750000  0.107609  0.659340  1
  Nd  Nd5  1  0.250000  0.892391  0.340660  1
  Os  Os6  1  0.250000  0.818369  0.818415  1
  Os  Os7  1  0.750000  0.181631  0.181585  1
  O  O8  1  0.999123  0.332082  0.664712  1
  O  O9  1  0.499123  0.667918  0.335288  1
  O  O10  1  0.000877  0.667918  0.335288  1
  O  O11  1  0.500877  0.332082  0.664712  1
  O  O12  1  0.948745  0.811261  0.803829  1
  O  O13  1  0.448745  0.188739  0.196171  1
  O  O14  1  0.051255  0.188739  0.196171  1
  O  O15  1  0.551255  0.811261  0.803829  1
  O  O16  1  0.750000  0.968489  0.411096  1
  O  O17  1  0.250000  0.031511  0.588904  1
  O  O18  1  0.750000  0.338600  0.337654  1
  O  O19  1  0.250000  0.661400  0.662346  1
  O  O20  1  0.750000  0.411181  0.969462  1
  O  O21  1  0.250000  0.588819  0.030538  1
  O  O22  1  0.750000  0.037845  0.027046  1
  O  O23  1  0.250000  0.962155  0.972954  1
