# generated using pymatgen
data_HfZr3Si2(B2Ru5)2
_symmetry_space_group_name_H-M   'P 1'
_cell_length_a   9.35117912
_cell_length_b   9.35117912
_cell_length_c   3.04079900
_cell_angle_alpha   90.00000000
_cell_angle_beta   90.00000000
_cell_angle_gamma   90.09362238
_symmetry_Int_Tables_number   1
_chemical_formula_structural   HfZr3Si2(B2Ru5)2
_chemical_formula_sum   'Hf1 Zr3 Si2 B4 Ru10'
_cell_volume   265.90094811
_cell_formula_units_Z   1
loop_
 _symmetry_equiv_pos_site_id
 _symmetry_equiv_pos_as_xyz
  1  'x, y, z'
loop_
 _atom_site_type_symbol
 _atom_site_label
 _atom_site_symmetry_multiplicity
 _atom_site_fract_x
 _atom_site_fract_y
 _atom_site_fract_z
 _atom_site_occupancy
  Hf  Hf0  1  0.675388  0.175388  0.000000  1
  Zr  Zr1  1  0.324842  0.824842  0.000000  1
  Zr  Zr2  1  0.175449  0.324401  0.000000  1
  Zr  Zr3  1  0.824401  0.675449  0.000000  1
  Si  Si4  1  0.000139  0.999937  0.000000  1
  Si  Si5  1  0.499937  0.500139  0.000000  1
  B  B6  1  0.123985  0.623985  0.000000  1
  B  B7  1  0.875433  0.375433  0.000000  1
  B  B8  1  0.624079  0.876350  0.000000  1
  B  B9  1  0.376350  0.124079  0.000000  1
  Ru  Ru10  1  0.211065  0.068162  0.500000  1
  Ru  Ru11  1  0.788858  0.933004  0.500000  1
  Ru  Ru12  1  0.068040  0.789007  0.500000  1
  Ru  Ru13  1  0.710604  0.430510  0.500000  1
  Ru  Ru14  1  0.930510  0.210604  0.500000  1
  Ru  Ru15  1  0.289007  0.568040  0.500000  1
  Ru  Ru16  1  0.568162  0.711065  0.500000  1
  Ru  Ru17  1  0.433004  0.288858  0.500000  1
  Ru  Ru18  1  0.500930  0.000930  0.500000  1
  Ru  Ru19  1  0.999817  0.499817  0.500000  1
