# generated using pymatgen
data_Ta6MnCr(Ga2C)2
_symmetry_space_group_name_H-M   'P 1'
_cell_length_a   8.24488052
_cell_length_b   8.24488069
_cell_length_c   8.24663100
_cell_angle_alpha   59.99297323
_cell_angle_beta   59.99297255
_cell_angle_gamma   60.02255778
_symmetry_Int_Tables_number   1
_chemical_formula_structural   Ta6MnCr(Ga2C)2
_chemical_formula_sum   'Ta12 Mn2 Cr2 Ga8 C4'
_cell_volume   396.42235576
_cell_formula_units_Z   2
loop_
 _symmetry_equiv_pos_site_id
 _symmetry_equiv_pos_as_xyz
  1  'x, y, z'
loop_
 _atom_site_type_symbol
 _atom_site_label
 _atom_site_symmetry_multiplicity
 _atom_site_fract_x
 _atom_site_fract_y
 _atom_site_fract_z
 _atom_site_occupancy
  Ta  Ta0  1  0.554121  0.945027  0.555446  1
  Ta  Ta1  1  0.304973  0.695879  0.694554  1
  Ta  Ta2  1  0.695879  0.304973  0.304594  1
  Ta  Ta3  1  0.304973  0.695879  0.304594  1
  Ta  Ta4  1  0.694814  0.694814  0.305186  1
  Ta  Ta5  1  0.304501  0.304501  0.695499  1
  Ta  Ta6  1  0.555186  0.555186  0.944814  1
  Ta  Ta7  1  0.945027  0.554121  0.555446  1
  Ta  Ta8  1  0.554121  0.945027  0.945406  1
  Ta  Ta9  1  0.945499  0.945499  0.554501  1
  Ta  Ta10  1  0.695879  0.304973  0.694554  1
  Ta  Ta11  1  0.945027  0.554121  0.945406  1
  Mn  Mn12  1  0.625000  0.125000  0.125000  1
  Mn  Mn13  1  0.125000  0.625000  0.125000  1
  Cr  Cr14  1  0.125000  0.125000  0.125000  1
  Cr  Cr15  1  0.125000  0.125000  0.625000  1
  Ga  Ga16  1  0.913667  0.913667  0.914245  1
  Ga  Ga17  1  0.991251  0.336636  0.336056  1
  Ga  Ga18  1  0.336636  0.991251  0.336056  1
  Ga  Ga19  1  0.336333  0.336333  0.991578  1
  Ga  Ga20  1  0.913364  0.258749  0.913944  1
  Ga  Ga21  1  0.913667  0.913667  0.258422  1
  Ga  Ga22  1  0.258749  0.913364  0.913944  1
  Ga  Ga23  1  0.336333  0.336333  0.335755  1
  C  C24  1  0.625000  0.625000  0.625000  1
  C  C25  1  0.125000  0.625000  0.625000  1
  C  C26  1  0.625000  0.125000  0.625000  1
  C  C27  1  0.625000  0.625000  0.125000  1
