# generated using pymatgen
data_BaSr(Ga4Ni9)2
_symmetry_space_group_name_H-M   'P 1'
_cell_length_a   8.21286838
_cell_length_b   8.21284823
_cell_length_c   8.21284006
_cell_angle_alpha   120.94248893
_cell_angle_beta   120.94257797
_cell_angle_gamma   88.37533873
_symmetry_Int_Tables_number   1
_chemical_formula_structural   BaSr(Ga4Ni9)2
_chemical_formula_sum   'Ba1 Sr1 Ga8 Ni18'
_cell_volume   385.96239412
_cell_formula_units_Z   1
loop_
 _symmetry_equiv_pos_site_id
 _symmetry_equiv_pos_as_xyz
  1  'x, y, z'
loop_
 _atom_site_type_symbol
 _atom_site_label
 _atom_site_symmetry_multiplicity
 _atom_site_fract_x
 _atom_site_fract_y
 _atom_site_fract_z
 _atom_site_occupancy
  Ba  Ba0  1  0.749999  0.750000  0.999999  1
  Sr  Sr1  1  0.250000  0.250000  0.000000  1
  Ga  Ga2  1  0.059265  0.556230  0.857495  1
  Ga  Ga3  1  0.698735  0.201770  0.142504  1
  Ga  Ga4  1  0.556230  0.698736  0.496965  1
  Ga  Ga5  1  0.201771  0.059267  0.503036  1
  Ga  Ga6  1  0.943769  0.440733  0.142504  1
  Ga  Ga7  1  0.298230  0.801265  0.857494  1
  Ga  Ga8  1  0.440734  0.298230  0.496965  1
  Ga  Ga9  1  0.801265  0.943771  0.503036  1
  Ni  Ni10  1  0.066847  0.205805  0.271437  1
  Ni  Ni11  1  0.934369  0.795411  0.728563  1
  Ni  Ni12  1  0.565631  0.294195  0.861042  1
  Ni  Ni13  1  0.433153  0.704590  0.138959  1
  Ni  Ni14  1  0.795410  0.066847  0.861042  1
  Ni  Ni15  1  0.205806  0.934369  0.138959  1
  Ni  Ni16  1  0.704589  0.565631  0.271437  1
  Ni  Ni17  1  0.294195  0.433153  0.728563  1
  Ni  Ni18  1  0.436811  0.938403  0.729690  1
  Ni  Ni19  1  0.208714  0.707121  0.270311  1
  Ni  Ni20  1  0.938403  0.208714  0.501592  1
  Ni  Ni21  1  0.707121  0.436811  0.498408  1
  Ni  Ni22  1  0.561597  0.063189  0.270310  1
  Ni  Ni23  1  0.792879  0.291286  0.729690  1
  Ni  Ni24  1  0.063190  0.792878  0.501592  1
  Ni  Ni25  1  0.291287  0.561597  0.498408  1
  Ni  Ni26  1  0.000001  0.499999  0.499999  1
  Ni  Ni27  1  0.500000  0.000000  0.500001  1
