# generated using pymatgen
data_HoPuCo9CuP6
_symmetry_space_group_name_H-M   'P 1'
_cell_length_a   3.67878000
_cell_length_b   10.30328600
_cell_length_c   11.83482300
_cell_angle_alpha   90.00000000
_cell_angle_beta   90.00000000
_cell_angle_gamma   90.00000000
_symmetry_Int_Tables_number   1
_chemical_formula_structural   HoPuCo9CuP6
_chemical_formula_sum   'Ho2 Pu2 Co18 Cu2 P12'
_cell_volume   448.58147952
_cell_formula_units_Z   2
loop_
 _symmetry_equiv_pos_site_id
 _symmetry_equiv_pos_as_xyz
  1  'x, y, z'
loop_
 _atom_site_type_symbol
 _atom_site_label
 _atom_site_symmetry_multiplicity
 _atom_site_fract_x
 _atom_site_fract_y
 _atom_site_fract_z
 _atom_site_occupancy
  Ho  Ho0  1  0.750000  0.420948  0.297475  1
  Ho  Ho1  1  0.750000  0.079052  0.797475  1
  Pu  Pu2  1  0.250000  0.582745  0.702567  1
  Pu  Pu3  1  0.250000  0.917255  0.202567  1
  Co  Co4  1  0.250000  0.711968  0.989771  1
  Co  Co5  1  0.250000  0.788032  0.489771  1
  Co  Co6  1  0.250000  0.408816  0.484227  1
  Co  Co7  1  0.250000  0.091184  0.984227  1
  Co  Co8  1  0.750000  0.594654  0.511496  1
  Co  Co9  1  0.750000  0.905346  0.011496  1
  Co  Co10  1  0.250000  0.221555  0.174471  1
  Co  Co11  1  0.250000  0.278445  0.674471  1
  Co  Co12  1  0.750000  0.778589  0.824938  1
  Co  Co13  1  0.750000  0.721411  0.324938  1
  Co  Co14  1  0.250000  0.880202  0.699243  1
  Co  Co15  1  0.250000  0.619798  0.199243  1
  Co  Co16  1  0.750000  0.121677  0.303111  1
  Co  Co17  1  0.750000  0.378323  0.803111  1
  Co  Co18  1  0.250000  0.464351  0.933912  1
  Co  Co19  1  0.250000  0.035649  0.433912  1
  Co  Co20  1  0.750000  0.535349  0.067636  1
  Co  Co21  1  0.750000  0.964651  0.567636  1
  Cu  Cu22  1  0.750000  0.287899  0.012292  1
  Cu  Cu23  1  0.750000  0.212101  0.512292  1
  P  P24  1  0.250000  0.423538  0.116126  1
  P  P25  1  0.250000  0.076462  0.616126  1
  P  P26  1  0.750000  0.578504  0.886907  1
  P  P27  1  0.750000  0.921496  0.386907  1
  P  P28  1  0.250000  0.269021  0.861891  1
  P  P29  1  0.250000  0.230979  0.361891  1
  P  P30  1  0.750000  0.730663  0.132175  1
  P  P31  1  0.750000  0.769337  0.632175  1
  P  P32  1  0.250000  0.604415  0.391869  1
  P  P33  1  0.250000  0.895585  0.891869  1
  P  P34  1  0.750000  0.401103  0.609892  1
  P  P35  1  0.750000  0.098897  0.109892  1
