# generated using pymatgen
data_YbSmHoGa8Ag3
_symmetry_space_group_name_H-M   'P 1'
_cell_length_a   4.37339966
_cell_length_b   8.36743629
_cell_length_c   8.36743577
_cell_angle_alpha   70.11408535
_cell_angle_beta   74.85073196
_cell_angle_gamma   74.85073557
_symmetry_Int_Tables_number   1
_chemical_formula_structural   YbSmHoGa8Ag3
_chemical_formula_sum   'Yb1 Sm1 Ho1 Ga8 Ag3'
_cell_volume   272.87290662
_cell_formula_units_Z   1
loop_
 _symmetry_equiv_pos_site_id
 _symmetry_equiv_pos_as_xyz
  1  'x, y, z'
loop_
 _atom_site_type_symbol
 _atom_site_label
 _atom_site_symmetry_multiplicity
 _atom_site_fract_x
 _atom_site_fract_y
 _atom_site_fract_z
 _atom_site_occupancy
  Yb  Yb0  1  0.199252  0.800748  0.800748  1
  Sm  Sm1  1  0.500469  0.499531  0.499531  1
  Ho  Ho2  1  0.798602  0.201398  0.201398  1
  Ga  Ga3  1  0.357295  0.360240  0.925169  1
  Ga  Ga4  1  0.644480  0.638153  0.072889  1
  Ga  Ga5  1  0.357295  0.925169  0.360240  1
  Ga  Ga6  1  0.644480  0.072889  0.638153  1
  Ga  Ga7  1  0.159203  0.471382  0.210211  1
  Ga  Ga8  1  0.839247  0.528674  0.792832  1
  Ga  Ga9  1  0.159203  0.210211  0.471382  1
  Ga  Ga10  1  0.839247  0.792832  0.528674  1
  Ag  Ag11  1  0.500109  0.999891  0.999891  1
  Ag  Ag12  1  0.000559  0.805938  0.192945  1
  Ag  Ag13  1  0.000559  0.192945  0.805938  1
