# generated using pymatgen
data_Tb3AlCd2C
_symmetry_space_group_name_H-M   'P 1'
_cell_length_a   9.47958215
_cell_length_b   9.47958322
_cell_length_c   9.47958000
_cell_angle_alpha   60.00000425
_cell_angle_beta   60.00000052
_cell_angle_gamma   60.00000811
_symmetry_Int_Tables_number   1
_chemical_formula_structural   Tb3AlCd2C
_chemical_formula_sum   'Tb12 Al4 Cd8 C4'
_cell_volume   602.35508141
_cell_formula_units_Z   4
loop_
 _symmetry_equiv_pos_site_id
 _symmetry_equiv_pos_as_xyz
  1  'x, y, z'
loop_
 _atom_site_type_symbol
 _atom_site_label
 _atom_site_symmetry_multiplicity
 _atom_site_fract_x
 _atom_site_fract_y
 _atom_site_fract_z
 _atom_site_occupancy
  Tb  Tb0  1  0.442519  0.442519  0.057481  1
  Tb  Tb1  1  0.057481  0.442519  0.057481  1
  Tb  Tb2  1  0.442519  0.057481  0.057481  1
  Tb  Tb3  1  0.057481  0.057481  0.442519  1
  Tb  Tb4  1  0.442519  0.057481  0.442519  1
  Tb  Tb5  1  0.057481  0.442519  0.442519  1
  Tb  Tb6  1  0.807481  0.807481  0.192519  1
  Tb  Tb7  1  0.192519  0.807481  0.192519  1
  Tb  Tb8  1  0.807481  0.192519  0.192519  1
  Tb  Tb9  1  0.192519  0.192519  0.807481  1
  Tb  Tb10  1  0.807481  0.192519  0.807481  1
  Tb  Tb11  1  0.192519  0.807481  0.807481  1
  Al  Al12  1  0.625000  0.625000  0.125000  1
  Al  Al13  1  0.625000  0.125000  0.625000  1
  Al  Al14  1  0.125000  0.625000  0.625000  1
  Al  Al15  1  0.625000  0.625000  0.625000  1
  Cd  Cd16  1  0.831499  0.831499  0.505502  1
  Cd  Cd17  1  0.831499  0.505502  0.831499  1
  Cd  Cd18  1  0.505502  0.831499  0.831499  1
  Cd  Cd19  1  0.831499  0.831499  0.831499  1
  Cd  Cd20  1  0.418501  0.418501  0.744498  1
  Cd  Cd21  1  0.418501  0.744498  0.418501  1
  Cd  Cd22  1  0.744498  0.418501  0.418501  1
  Cd  Cd23  1  0.418501  0.418501  0.418501  1
  C  C24  1  0.125000  0.125000  0.625000  1
  C  C25  1  0.125000  0.625000  0.125000  1
  C  C26  1  0.625000  0.125000  0.125000  1
  C  C27  1  0.125000  0.125000  0.125000  1
