# generated using pymatgen
data_Ba4FeReO8
_symmetry_space_group_name_H-M   'P 1'
_cell_length_a   7.27077334
_cell_length_b   7.27077316
_cell_length_c   5.91078600
_cell_angle_alpha   90.00000000
_cell_angle_beta   90.00000000
_cell_angle_gamma   132.32668229
_symmetry_Int_Tables_number   1
_chemical_formula_structural   Ba4FeReO8
_chemical_formula_sum   'Ba4 Fe1 Re1 O8'
_cell_volume   231.01356422
_cell_formula_units_Z   1
loop_
 _symmetry_equiv_pos_site_id
 _symmetry_equiv_pos_as_xyz
  1  'x, y, z'
loop_
 _atom_site_type_symbol
 _atom_site_label
 _atom_site_symmetry_multiplicity
 _atom_site_fract_x
 _atom_site_fract_y
 _atom_site_fract_z
 _atom_site_occupancy
  Ba  Ba0  1  0.353902  0.646098  0.000000  1
  Ba  Ba1  1  0.856398  0.143602  0.500000  1
  Ba  Ba2  1  0.143602  0.856398  0.500000  1
  Ba  Ba3  1  0.646098  0.353902  0.000000  1
  Fe  Fe4  1  0.000000  0.000000  0.000000  1
  Re  Re5  1  0.500000  0.500000  0.500000  1
  O  O6  1  0.266898  0.266898  0.729519  1
  O  O7  1  0.733102  0.733102  0.270481  1
  O  O8  1  0.733102  0.733102  0.729519  1
  O  O9  1  0.266898  0.266898  0.270481  1
  O  O10  1  0.156340  0.843660  0.000000  1
  O  O11  1  0.651164  0.348836  0.500000  1
  O  O12  1  0.348836  0.651164  0.500000  1
  O  O13  1  0.843660  0.156340  0.000000  1
