# generated using pymatgen
data_Dy2Tm2Ir7Ru
_symmetry_space_group_name_H-M   'P 1'
_cell_length_a   5.34714288
_cell_length_b   5.34752746
_cell_length_c   8.67063531
_cell_angle_alpha   89.99999659
_cell_angle_beta   89.99394062
_cell_angle_gamma   59.99759215
_symmetry_Int_Tables_number   1
_chemical_formula_structural   Dy2Tm2Ir7Ru
_chemical_formula_sum   'Dy2 Tm2 Ir7 Ru1'
_cell_volume   214.70681181
_cell_formula_units_Z   1
loop_
 _symmetry_equiv_pos_site_id
 _symmetry_equiv_pos_as_xyz
  1  'x, y, z'
loop_
 _atom_site_type_symbol
 _atom_site_label
 _atom_site_symmetry_multiplicity
 _atom_site_fract_x
 _atom_site_fract_y
 _atom_site_fract_z
 _atom_site_occupancy
  Dy  Dy0  1  0.333366  0.333317  0.565996  1
  Dy  Dy1  1  0.666634  0.666683  0.434004  1
  Tm  Tm2  1  0.666608  0.666696  0.066420  1
  Tm  Tm3  1  0.333392  0.333304  0.933580  1
  Ir  Ir4  1  0.000000  0.000000  0.500000  1
  Ir  Ir5  1  0.830568  0.338960  0.752355  1
  Ir  Ir6  1  0.339034  0.830483  0.752318  1
  Ir  Ir7  1  0.830568  0.830471  0.752355  1
  Ir  Ir8  1  0.169432  0.661040  0.247645  1
  Ir  Ir9  1  0.660966  0.169517  0.247682  1
  Ir  Ir10  1  0.169432  0.169529  0.247645  1
  Ru  Ru11  1  0.000000  0.000000  0.000000  1
