# generated using pymatgen
data_K2Cr2F7
_symmetry_space_group_name_H-M   'P 1'
_cell_length_a   7.84235281
_cell_length_b   7.84235210
_cell_length_c   7.84235215
_cell_angle_alpha   121.96509053
_cell_angle_beta   116.95808523
_cell_angle_gamma   90.98891324
_symmetry_Int_Tables_number   1
_chemical_formula_structural   K2Cr2F7
_chemical_formula_sum   'K4 Cr4 F14'
_cell_volume   342.97119582
_cell_formula_units_Z   2
loop_
 _symmetry_equiv_pos_site_id
 _symmetry_equiv_pos_as_xyz
  1  'x, y, z'
loop_
 _atom_site_type_symbol
 _atom_site_label
 _atom_site_symmetry_multiplicity
 _atom_site_fract_x
 _atom_site_fract_y
 _atom_site_fract_z
 _atom_site_occupancy
  K  K0  1  0.000000  0.000000  0.000000  1
  K  K1  1  0.000000  0.500000  0.000000  1
  K  K2  1  0.000000  0.000000  0.500000  1
  K  K3  1  0.500000  0.500000  0.000000  1
  Cr  Cr4  1  0.500000  0.500000  0.500000  1
  Cr  Cr5  1  0.500000  0.000000  0.000000  1
  Cr  Cr6  1  0.500000  0.000000  0.500000  1
  Cr  Cr7  1  0.000000  0.500000  0.500000  1
  F  F8  1  0.817207  0.201476  0.243991  1
  F  F9  1  0.205691  0.914598  0.291093  1
  F  F10  1  0.457486  0.701476  0.384270  1
  F  F11  1  0.123506  0.414598  0.708907  1
  F  F12  1  0.542514  0.298523  0.615730  1
  F  F13  1  0.876494  0.585402  0.291093  1
  F  F14  1  0.817207  0.573215  0.615730  1
  F  F15  1  0.404621  0.250000  0.154621  1
  F  F16  1  0.595379  0.750000  0.845379  1
  F  F17  1  0.182793  0.798523  0.756009  1
  F  F18  1  0.542514  0.926785  0.243991  1
  F  F19  1  0.182793  0.426785  0.384270  1
  F  F20  1  0.457486  0.073215  0.756009  1
  F  F21  1  0.794309  0.085402  0.708907  1
