# generated using pymatgen
data_HfSc3(SnRh5)2
_symmetry_space_group_name_H-M   'P 1'
_cell_length_a   4.18391900
_cell_length_b   5.58125782
_cell_length_c   11.04350031
_cell_angle_alpha   90.04684953
_cell_angle_beta   90.00000000
_cell_angle_gamma   90.00000000
_symmetry_Int_Tables_number   1
_chemical_formula_structural   HfSc3(SnRh5)2
_chemical_formula_sum   'Hf1 Sc3 Sn2 Rh10'
_cell_volume   257.88254949
_cell_formula_units_Z   1
loop_
 _symmetry_equiv_pos_site_id
 _symmetry_equiv_pos_as_xyz
  1  'x, y, z'
loop_
 _atom_site_type_symbol
 _atom_site_label
 _atom_site_symmetry_multiplicity
 _atom_site_fract_x
 _atom_site_fract_y
 _atom_site_fract_z
 _atom_site_occupancy
  Hf  Hf0  1  0.500000  0.318242  0.140992  1
  Sc  Sc1  1  0.500000  0.183950  0.640753  1
  Sc  Sc2  1  0.500000  0.817893  0.361505  1
  Sc  Sc3  1  0.500000  0.682911  0.857745  1
  Sn  Sn4  1  0.000000  0.499892  0.500728  1
  Sn  Sn5  1  0.000000  0.993960  0.997734  1
  Rh  Rh6  1  0.500000  0.201636  0.887069  1
  Rh  Rh7  1  0.500000  0.800303  0.115486  1
  Rh  Rh8  1  0.500000  0.701495  0.615231  1
  Rh  Rh9  1  0.500000  0.300363  0.383660  1
  Rh  Rh10  1  0.000000  0.437983  0.750828  1
  Rh  Rh11  1  0.000000  0.562779  0.249896  1
  Rh  Rh12  1  0.000000  0.000316  0.499544  1
  Rh  Rh13  1  0.000000  0.495889  0.001180  1
  Rh  Rh14  1  0.000000  0.063422  0.248456  1
  Rh  Rh15  1  0.000000  0.938965  0.749194  1
