# generated using pymatgen
data_SrTh2ScSb5
_symmetry_space_group_name_H-M   'P 1'
_cell_length_a   9.55690831
_cell_length_b   9.62807467
_cell_length_c   6.42813600
_cell_angle_alpha   90.00000000
_cell_angle_beta   90.00000000
_cell_angle_gamma   120.24664755
_symmetry_Int_Tables_number   1
_chemical_formula_structural   SrTh2ScSb5
_chemical_formula_sum   'Sr2 Th4 Sc2 Sb10'
_cell_volume   510.96104824
_cell_formula_units_Z   2
loop_
 _symmetry_equiv_pos_site_id
 _symmetry_equiv_pos_as_xyz
  1  'x, y, z'
loop_
 _atom_site_type_symbol
 _atom_site_label
 _atom_site_symmetry_multiplicity
 _atom_site_fract_x
 _atom_site_fract_y
 _atom_site_fract_z
 _atom_site_occupancy
  Sr  Sr0  1  0.619781  0.623968  0.750000  1
  Sr  Sr1  1  0.619781  0.995813  0.250000  1
  Th  Th2  1  0.389895  0.002360  0.750000  1
  Th  Th3  1  0.389895  0.387535  0.250000  1
  Th  Th4  1  0.995399  0.617678  0.250000  1
  Th  Th5  1  0.995399  0.377721  0.750000  1
  Sc  Sc6  1  0.995563  0.997781  0.000000  1
  Sc  Sc7  1  0.995563  0.997781  0.500000  1
  Sb  Sb8  1  0.665518  0.332759  0.500000  1
  Sb  Sb9  1  0.320002  0.660001  0.000000  1
  Sb  Sb10  1  0.742395  0.005550  0.750000  1
  Sb  Sb11  1  0.742395  0.736846  0.250000  1
  Sb  Sb12  1  0.320002  0.660001  0.500000  1
  Sb  Sb13  1  0.665518  0.332759  0.000000  1
  Sb  Sb14  1  0.262356  0.002810  0.250000  1
  Sb  Sb15  1  0.262356  0.259547  0.750000  1
  Sb  Sb16  1  0.009090  0.738699  0.750000  1
  Sb  Sb17  1  0.009090  0.270391  0.250000  1
