# generated using pymatgen
data_Y13Ho3(TmSn4)4
_symmetry_space_group_name_H-M   'P 1'
_cell_length_a   8.01900703
_cell_length_b   8.16932173
_cell_length_c   15.46416500
_cell_angle_alpha   90.00372418
_cell_angle_beta   89.99486989
_cell_angle_gamma   90.02397959
_symmetry_Int_Tables_number   1
_chemical_formula_structural   Y13Ho3(TmSn4)4
_chemical_formula_sum   'Y13 Ho3 Tm4 Sn16'
_cell_volume   1013.05501021
_cell_formula_units_Z   1
loop_
 _symmetry_equiv_pos_site_id
 _symmetry_equiv_pos_as_xyz
  1  'x, y, z'
loop_
 _atom_site_type_symbol
 _atom_site_label
 _atom_site_symmetry_multiplicity
 _atom_site_fract_x
 _atom_site_fract_y
 _atom_site_fract_z
 _atom_site_occupancy
  Y  Y0  1  0.134255  0.337325  0.122086  1
  Y  Y1  1  0.633829  0.162804  0.122514  1
  Y  Y2  1  0.133736  0.337299  0.377841  1
  Y  Y3  1  0.366397  0.837332  0.622428  1
  Y  Y4  1  0.866435  0.662643  0.877677  1
  Y  Y5  1  0.519066  0.320403  0.902973  1
  Y  Y6  1  0.019215  0.179691  0.597117  1
  Y  Y7  1  0.480828  0.679898  0.403296  1
  Y  Y8  1  0.980759  0.820431  0.096992  1
  Y  Y9  1  0.480936  0.679546  0.096660  1
  Y  Y10  1  0.980930  0.820556  0.403492  1
  Y  Y11  1  0.519171  0.320779  0.596902  1
  Y  Y12  1  0.019142  0.179045  0.902651  1
  Ho  Ho13  1  0.365691  0.837797  0.876844  1
  Ho  Ho14  1  0.865323  0.662339  0.622620  1
  Ho  Ho15  1  0.634445  0.162249  0.377523  1
  Tm  Tm16  1  0.197264  0.503332  0.750126  1
  Tm  Tm17  1  0.697349  0.996828  0.749711  1
  Tm  Tm18  1  0.802696  0.496891  0.250467  1
  Tm  Tm19  1  0.302937  0.003040  0.249924  1
  Sn  Sn20  1  0.294172  0.036009  0.041632  1
  Sn  Sn21  1  0.793379  0.462648  0.458206  1
  Sn  Sn22  1  0.706605  0.962701  0.541843  1
  Sn  Sn23  1  0.206979  0.537934  0.957548  1
  Sn  Sn24  1  0.704356  0.962988  0.957467  1
  Sn  Sn25  1  0.204320  0.537088  0.542526  1
  Sn  Sn26  1  0.295472  0.037063  0.457540  1
  Sn  Sn27  1  0.794151  0.463383  0.042449  1
  Sn  Sn28  1  0.562773  0.618265  0.749963  1
  Sn  Sn29  1  0.062634  0.881621  0.749907  1
  Sn  Sn30  1  0.437723  0.381631  0.250413  1
  Sn  Sn31  1  0.937114  0.117818  0.250313  1
  Sn  Sn32  1  0.328874  0.149302  0.750085  1
  Sn  Sn33  1  0.828769  0.351050  0.749870  1
  Sn  Sn34  1  0.671088  0.850990  0.250281  1
  Sn  Sn35  1  0.171186  0.649286  0.250109  1
