# generated using pymatgen
data_K6GaTe4I
_symmetry_space_group_name_H-M   'P 1'
_cell_length_a   11.35408400
_cell_length_b   11.35408384
_cell_length_c   8.39281100
_cell_angle_alpha   90.00000000
_cell_angle_beta   90.00000000
_cell_angle_gamma   120.00000046
_symmetry_Int_Tables_number   1
_chemical_formula_structural   K6GaTe4I
_chemical_formula_sum   'K12 Ga2 Te8 I2'
_cell_volume   937.00578621
_cell_formula_units_Z   2
loop_
 _symmetry_equiv_pos_site_id
 _symmetry_equiv_pos_as_xyz
  1  'x, y, z'
loop_
 _atom_site_type_symbol
 _atom_site_label
 _atom_site_symmetry_multiplicity
 _atom_site_fract_x
 _atom_site_fract_y
 _atom_site_fract_z
 _atom_site_occupancy
  K  K0  1  0.139750  0.860250  0.514395  1
  K  K1  1  0.720499  0.860250  0.514395  1
  K  K2  1  0.952412  0.476206  0.320806  1
  K  K3  1  0.523794  0.476206  0.320806  1
  K  K4  1  0.860250  0.720499  0.014395  1
  K  K5  1  0.279501  0.139750  0.014395  1
  K  K6  1  0.523794  0.047588  0.320806  1
  K  K7  1  0.139750  0.279501  0.514395  1
  K  K8  1  0.860250  0.139750  0.014395  1
  K  K9  1  0.047588  0.523794  0.820806  1
  K  K10  1  0.476206  0.952412  0.820806  1
  K  K11  1  0.476206  0.523794  0.820806  1
  Ga  Ga12  1  0.666667  0.333333  0.706272  1
  Ga  Ga13  1  0.333333  0.666667  0.206272  1
  Te  Te14  1  0.408997  0.204500  0.608125  1
  Te  Te15  1  0.591003  0.795500  0.108125  1
  Te  Te16  1  0.666667  0.333333  0.032376  1
  Te  Te17  1  0.795500  0.591003  0.608125  1
  Te  Te18  1  0.204500  0.408997  0.108125  1
  Te  Te19  1  0.333333  0.666667  0.532376  1
  Te  Te20  1  0.204500  0.795500  0.108125  1
  Te  Te21  1  0.795500  0.204500  0.608125  1
  I  I22  1  0.000000  0.000000  0.271975  1
  I  I23  1  0.000000  0.000000  0.771975  1
