# generated using pymatgen
data_Zr3BeTc(GeOs)2
_symmetry_space_group_name_H-M   'P 1'
_cell_length_a   6.90829605
_cell_length_b   6.90829684
_cell_length_c   3.46723100
_cell_angle_alpha   90.00000000
_cell_angle_beta   90.00000000
_cell_angle_gamma   119.67753464
_symmetry_Int_Tables_number   1
_chemical_formula_structural   Zr3BeTc(GeOs)2
_chemical_formula_sum   'Zr3 Be1 Tc1 Ge2 Os2'
_cell_volume   143.76639212
_cell_formula_units_Z   1
loop_
 _symmetry_equiv_pos_site_id
 _symmetry_equiv_pos_as_xyz
  1  'x, y, z'
loop_
 _atom_site_type_symbol
 _atom_site_label
 _atom_site_symmetry_multiplicity
 _atom_site_fract_x
 _atom_site_fract_y
 _atom_site_fract_z
 _atom_site_occupancy
  Zr  Zr0  1  0.391417  0.391417  0.500000  1
  Zr  Zr1  1  0.607911  0.998101  0.500000  1
  Zr  Zr2  1  0.998101  0.607911  0.500000  1
  Be  Be3  1  0.001307  0.001307  0.500000  1
  Tc  Tc4  1  0.759348  0.759348  0.000000  1
  Ge  Ge5  1  0.667008  0.333701  0.000000  1
  Ge  Ge6  1  0.333701  0.667008  0.000000  1
  Os  Os7  1  0.241029  0.000177  0.000000  1
  Os  Os8  1  0.000177  0.241029  0.000000  1
