# generated using pymatgen
data_Ac3BMoO9
_symmetry_space_group_name_H-M   'P 1'
_cell_length_a   8.98084900
_cell_length_b   8.98084919
_cell_length_c   5.71106800
_cell_angle_alpha   90.00000000
_cell_angle_beta   90.00000000
_cell_angle_gamma   120.00003246
_symmetry_Int_Tables_number   1
_chemical_formula_structural   Ac3BMoO9
_chemical_formula_sum   'Ac6 B2 Mo2 O18'
_cell_volume   398.91706837
_cell_formula_units_Z   2
loop_
 _symmetry_equiv_pos_site_id
 _symmetry_equiv_pos_as_xyz
  1  'x, y, z'
loop_
 _atom_site_type_symbol
 _atom_site_label
 _atom_site_symmetry_multiplicity
 _atom_site_fract_x
 _atom_site_fract_y
 _atom_site_fract_z
 _atom_site_occupancy
  Ac  Ac0  1  0.371918  0.092734  0.230866  1
  Ac  Ac1  1  0.907267  0.279186  0.230866  1
  Ac  Ac2  1  0.720815  0.628082  0.230866  1
  Ac  Ac3  1  0.279186  0.371919  0.730865  1
  Ac  Ac4  1  0.092733  0.720815  0.730865  1
  Ac  Ac5  1  0.628082  0.907267  0.730865  1
  B  B6  1  0.000000  0.000000  0.374147  1
  B  B7  1  0.000000  0.000000  0.874146  1
  Mo  Mo8  1  0.333334  0.666667  0.239222  1
  Mo  Mo9  1  0.666666  0.333334  0.739223  1
  O  O10  1  0.494687  0.658828  0.018763  1
  O  O11  1  0.341172  0.835857  0.018763  1
  O  O12  1  0.164144  0.505314  0.018765  1
  O  O13  1  0.128429  0.172396  0.369099  1
  O  O14  1  0.043967  0.871571  0.369099  1
  O  O15  1  0.827603  0.956032  0.369099  1
  O  O16  1  0.154691  0.515255  0.461581  1
  O  O17  1  0.484745  0.639436  0.461581  1
  O  O18  1  0.360564  0.845308  0.461581  1
  O  O19  1  0.658828  0.164143  0.518764  1
  O  O20  1  0.505313  0.341171  0.518764  1
  O  O21  1  0.835856  0.494687  0.518764  1
  O  O22  1  0.172396  0.043967  0.869100  1
  O  O23  1  0.956032  0.128429  0.869100  1
  O  O24  1  0.871571  0.827603  0.869100  1
  O  O25  1  0.639435  0.154691  0.961579  1
  O  O26  1  0.845308  0.484744  0.961579  1
  O  O27  1  0.515255  0.360563  0.961581  1
