# generated using pymatgen
data_Er3Lu3ReSb2
_symmetry_space_group_name_H-M   'P 1'
_cell_length_a   7.99843500
_cell_length_b   7.99843484
_cell_length_c   4.26784700
_cell_angle_alpha   90.00000000
_cell_angle_beta   90.00000000
_cell_angle_gamma   119.99999654
_symmetry_Int_Tables_number   1
_chemical_formula_structural   Er3Lu3ReSb2
_chemical_formula_sum   'Er3 Lu3 Re1 Sb2'
_cell_volume   236.45555398
_cell_formula_units_Z   1
loop_
 _symmetry_equiv_pos_site_id
 _symmetry_equiv_pos_as_xyz
  1  'x, y, z'
loop_
 _atom_site_type_symbol
 _atom_site_label
 _atom_site_symmetry_multiplicity
 _atom_site_fract_x
 _atom_site_fract_y
 _atom_site_fract_z
 _atom_site_occupancy
  Er  Er0  1  0.606888  0.000000  0.000000  1
  Er  Er1  1  0.000000  0.606888  0.000000  1
  Er  Er2  1  0.393112  0.393112  0.000000  1
  Lu  Lu3  1  0.233893  0.000000  0.500000  1
  Lu  Lu4  1  0.000000  0.233893  0.500000  1
  Lu  Lu5  1  0.766107  0.766107  0.500000  1
  Re  Re6  1  0.000000  0.000000  0.000000  1
  Sb  Sb7  1  0.333333  0.666667  0.500000  1
  Sb  Sb8  1  0.666667  0.333333  0.500000  1
