# generated using pymatgen
data_Y4Sc4Ir3Rh
_symmetry_space_group_name_H-M   'P 1'
_cell_length_a   4.22570100
_cell_length_b   7.19206889
_cell_length_c   8.77974810
_cell_angle_alpha   89.88708354
_cell_angle_beta   90.00000000
_cell_angle_gamma   90.00000000
_symmetry_Int_Tables_number   1
_chemical_formula_structural   Y4Sc4Ir3Rh
_chemical_formula_sum   'Y4 Sc4 Ir3 Rh1'
_cell_volume   266.82948333
_cell_formula_units_Z   1
loop_
 _symmetry_equiv_pos_site_id
 _symmetry_equiv_pos_as_xyz
  1  'x, y, z'
loop_
 _atom_site_type_symbol
 _atom_site_label
 _atom_site_symmetry_multiplicity
 _atom_site_fract_x
 _atom_site_fract_y
 _atom_site_fract_z
 _atom_site_occupancy
  Y  Y0  1  0.250000  0.518151  0.174223  1
  Y  Y1  1  0.750000  0.485469  0.827978  1
  Y  Y2  1  0.750000  0.978357  0.674240  1
  Y  Y3  1  0.250000  0.015851  0.325309  1
  Sc  Sc4  1  0.250000  0.642310  0.563215  1
  Sc  Sc5  1  0.750000  0.357825  0.435759  1
  Sc  Sc6  1  0.750000  0.858589  0.063449  1
  Sc  Sc7  1  0.250000  0.142062  0.938459  1
  Ir  Ir8  1  0.250000  0.765462  0.890019  1
  Ir  Ir9  1  0.750000  0.236924  0.108744  1
  Ir  Ir10  1  0.750000  0.735082  0.392197  1
  Rh  Rh11  1  0.250000  0.263920  0.606407  1
