# generated using pymatgen
data_NdSmU6(ReB6)4
_symmetry_space_group_name_H-M   'P 1'
_cell_length_a   3.66279700
_cell_length_b   9.33690883
_cell_length_c   11.43990203
_cell_angle_alpha   90.06835034
_cell_angle_beta   90.00000000
_cell_angle_gamma   90.00000000
_symmetry_Int_Tables_number   1
_chemical_formula_structural   NdSmU6(ReB6)4
_chemical_formula_sum   'Nd1 Sm1 U6 Re4 B24'
_cell_volume   391.23523810
_cell_formula_units_Z   1
loop_
 _symmetry_equiv_pos_site_id
 _symmetry_equiv_pos_as_xyz
  1  'x, y, z'
loop_
 _atom_site_type_symbol
 _atom_site_label
 _atom_site_symmetry_multiplicity
 _atom_site_fract_x
 _atom_site_fract_y
 _atom_site_fract_z
 _atom_site_occupancy
  Nd  Nd0  1  0.000000  0.336663  0.407781  1
  Sm  Sm1  1  0.000000  0.663570  0.592440  1
  U  U2  1  0.000000  0.836788  0.092166  1
  U  U3  1  0.000000  0.163215  0.907582  1
  U  U4  1  0.000000  0.956587  0.396201  1
  U  U5  1  0.000000  0.042848  0.604088  1
  U  U6  1  0.000000  0.457621  0.103131  1
  U  U7  1  0.000000  0.542456  0.896920  1
  Re  Re8  1  0.000000  0.650011  0.314762  1
  Re  Re9  1  0.000000  0.350692  0.685567  1
  Re  Re10  1  0.000000  0.142541  0.176809  1
  Re  Re11  1  0.000000  0.857017  0.822708  1
  B  B12  1  0.500000  0.555482  0.428805  1
  B  B13  1  0.500000  0.445930  0.571906  1
  B  B14  1  0.500000  0.049799  0.067077  1
  B  B15  1  0.500000  0.949928  0.932555  1
  B  B16  1  0.500000  0.745080  0.421724  1
  B  B17  1  0.500000  0.254995  0.578996  1
  B  B18  1  0.500000  0.242679  0.075875  1
  B  B19  1  0.500000  0.757171  0.923766  1
  B  B20  1  0.500000  0.804967  0.272479  1
  B  B21  1  0.500000  0.195189  0.727660  1
  B  B22  1  0.500000  0.301356  0.223497  1
  B  B23  1  0.500000  0.698195  0.775925  1
  B  B24  1  0.500000  0.646668  0.186712  1
  B  B25  1  0.500000  0.353807  0.813196  1
  B  B26  1  0.500000  0.142878  0.310461  1
  B  B27  1  0.500000  0.856212  0.689196  1
  B  B28  1  0.500000  0.987234  0.218192  1
  B  B29  1  0.500000  0.012461  0.781555  1
  B  B30  1  0.500000  0.491470  0.278759  1
  B  B31  1  0.500000  0.509722  0.721032  1
  B  B32  1  0.500000  0.643768  0.038895  1
  B  B33  1  0.500000  0.356386  0.961020  1
  B  B34  1  0.500000  0.136425  0.461960  1
  B  B35  1  0.500000  0.862189  0.538603  1
