# generated using pymatgen
data_Sc4Fe11(Co3P4)3
_symmetry_space_group_name_H-M   'P 1'
_cell_length_a   3.58350600
_cell_length_b   10.12257469
_cell_length_c   11.58909393
_cell_angle_alpha   90.06622674
_cell_angle_beta   90.00000000
_cell_angle_gamma   90.00000000
_symmetry_Int_Tables_number   1
_chemical_formula_structural   Sc4Fe11(Co3P4)3
_chemical_formula_sum   'Sc4 Fe11 Co9 P12'
_cell_volume   420.38607205
_cell_formula_units_Z   1
loop_
 _symmetry_equiv_pos_site_id
 _symmetry_equiv_pos_as_xyz
  1  'x, y, z'
loop_
 _atom_site_type_symbol
 _atom_site_label
 _atom_site_symmetry_multiplicity
 _atom_site_fract_x
 _atom_site_fract_y
 _atom_site_fract_z
 _atom_site_occupancy
  Sc  Sc0  1  0.250000  0.581763  0.703793  1
  Sc  Sc1  1  0.250000  0.918385  0.202886  1
  Sc  Sc2  1  0.750000  0.417528  0.296223  1
  Sc  Sc3  1  0.750000  0.082266  0.796952  1
  Fe  Fe4  1  0.250000  0.711989  0.989048  1
  Fe  Fe5  1  0.250000  0.787470  0.487647  1
  Fe  Fe6  1  0.750000  0.288214  0.010950  1
  Fe  Fe7  1  0.750000  0.211648  0.511067  1
  Fe  Fe8  1  0.250000  0.405971  0.487703  1
  Fe  Fe9  1  0.250000  0.093533  0.987374  1
  Fe  Fe10  1  0.750000  0.593665  0.512636  1
  Fe  Fe11  1  0.750000  0.906693  0.012916  1
  Fe  Fe12  1  0.250000  0.219903  0.175739  1
  Fe  Fe13  1  0.250000  0.279676  0.675813  1
  Fe  Fe14  1  0.750000  0.779893  0.824335  1
  Co  Co15  1  0.750000  0.721253  0.323507  1
  Co  Co16  1  0.250000  0.883087  0.699019  1
  Co  Co17  1  0.250000  0.617452  0.200121  1
  Co  Co18  1  0.750000  0.116371  0.300510  1
  Co  Co19  1  0.750000  0.383607  0.800619  1
  Co  Co20  1  0.250000  0.465164  0.932686  1
  Co  Co21  1  0.250000  0.034667  0.432182  1
  Co  Co22  1  0.750000  0.534877  0.068518  1
  Co  Co23  1  0.750000  0.965106  0.567851  1
  P  P24  1  0.250000  0.417907  0.116187  1
  P  P25  1  0.250000  0.082010  0.615918  1
  P  P26  1  0.750000  0.581852  0.884415  1
  P  P27  1  0.750000  0.919213  0.384286  1
  P  P28  1  0.250000  0.264070  0.867736  1
  P  P29  1  0.250000  0.235899  0.367459  1
  P  P30  1  0.750000  0.736135  0.131289  1
  P  P31  1  0.750000  0.764197  0.632520  1
  P  P32  1  0.250000  0.596424  0.391363  1
  P  P33  1  0.250000  0.901723  0.890720  1
  P  P34  1  0.750000  0.401632  0.609106  1
  P  P35  1  0.750000  0.098757  0.108907  1
