# generated using pymatgen
data_Ca3Yb7
_symmetry_space_group_name_H-M   'P 1'
_cell_length_a   15.38329031
_cell_length_b   15.38329052
_cell_length_c   6.05355400
_cell_angle_alpha   90.00000000
_cell_angle_beta   90.00000000
_cell_angle_gamma   164.10842625
_symmetry_Int_Tables_number   1
_chemical_formula_structural   Ca3Yb7
_chemical_formula_sum   'Ca3 Yb7'
_cell_volume   392.25685179
_cell_formula_units_Z   1
loop_
 _symmetry_equiv_pos_site_id
 _symmetry_equiv_pos_as_xyz
  1  'x, y, z'
loop_
 _atom_site_type_symbol
 _atom_site_label
 _atom_site_symmetry_multiplicity
 _atom_site_fract_x
 _atom_site_fract_y
 _atom_site_fract_z
 _atom_site_occupancy
  Ca  Ca0  1  0.000000  0.000000  0.000000  1
  Ca  Ca1  1  0.800097  0.199904  0.000000  1
  Ca  Ca2  1  0.199904  0.800097  0.000000  1
  Yb  Yb3  1  0.599386  0.400615  0.000000  1
  Yb  Yb4  1  0.400615  0.599386  0.000000  1
  Yb  Yb5  1  0.900310  0.099690  0.499999  1
  Yb  Yb6  1  0.699834  0.300166  0.499999  1
  Yb  Yb7  1  0.500000  0.500000  0.499999  1
  Yb  Yb8  1  0.300166  0.699834  0.499999  1
  Yb  Yb9  1  0.099690  0.900310  0.499999  1
