# generated using pymatgen
data_Cs2Li14Pu3O14
_symmetry_space_group_name_H-M   'P 1'
_cell_length_a   7.44650290
_cell_length_b   8.14033235
_cell_length_c   8.63561392
_cell_angle_alpha   118.12023972
_cell_angle_beta   115.54060691
_cell_angle_gamma   89.99999908
_symmetry_Int_Tables_number   1
_chemical_formula_structural   Cs2Li14Pu3O14
_chemical_formula_sum   'Cs2 Li14 Pu3 O14'
_cell_volume   402.74959053
_cell_formula_units_Z   1
loop_
 _symmetry_equiv_pos_site_id
 _symmetry_equiv_pos_as_xyz
  1  'x, y, z'
loop_
 _atom_site_type_symbol
 _atom_site_label
 _atom_site_symmetry_multiplicity
 _atom_site_fract_x
 _atom_site_fract_y
 _atom_site_fract_z
 _atom_site_occupancy
  Cs  Cs0  1  0.764563  0.500000  0.000000  1
  Cs  Cs1  1  0.235437  0.500000  0.000000  1
  Li  Li2  1  0.230922  0.874310  0.461843  1
  Li  Li3  1  0.769078  0.125690  0.538157  1
  Li  Li4  1  0.230922  0.587535  0.461843  1
  Li  Li5  1  0.769078  0.412465  0.538157  1
  Li  Li6  1  0.500000  0.155095  0.000000  1
  Li  Li7  1  0.500000  0.844905  0.000000  1
  Li  Li8  1  0.857741  0.980769  0.271617  1
  Li  Li9  1  0.142259  0.019230  0.728383  1
  Li  Li10  1  0.413877  0.290847  0.271617  1
  Li  Li11  1  0.142259  0.709153  0.728383  1
  Li  Li12  1  0.586123  0.709153  0.728383  1
  Li  Li13  1  0.857741  0.290847  0.271617  1
  Li  Li14  1  0.586123  0.019230  0.728383  1
  Li  Li15  1  0.413877  0.980769  0.271617  1
  Pu  Pu16  1  0.267980  0.267980  0.535959  1
  Pu  Pu17  1  0.732020  0.732020  0.464041  1
  Pu  Pu18  1  0.000000  0.000000  0.000000  1
  O  O19  1  0.708320  0.000000  0.000000  1
  O  O20  1  0.291680  0.000000  0.000000  1
  O  O21  1  0.959100  0.250224  0.500449  1
  O  O22  1  0.040900  0.749776  0.499552  1
  O  O23  1  0.541348  0.250224  0.500449  1
  O  O24  1  0.458652  0.749776  0.499552  1
  O  O25  1  0.131502  0.951178  0.263005  1
  O  O26  1  0.868498  0.048822  0.736995  1
  O  O27  1  0.131502  0.311827  0.263005  1
  O  O28  1  0.868498  0.688173  0.736995  1
  O  O29  1  0.370347  0.149545  0.740696  1
  O  O30  1  0.629653  0.850455  0.259304  1
  O  O31  1  0.370347  0.591151  0.740696  1
  O  O32  1  0.629653  0.408849  0.259304  1
