# generated using pymatgen
data_Ta2ReB2
_symmetry_space_group_name_H-M   'P 1'
_cell_length_a   6.04743500
_cell_length_b   6.04743500
_cell_length_c   3.30850300
_cell_angle_alpha   90.00000000
_cell_angle_beta   90.00000000
_cell_angle_gamma   90.00000000
_symmetry_Int_Tables_number   1
_chemical_formula_structural   Ta2ReB2
_chemical_formula_sum   'Ta4 Re2 B4'
_cell_volume   120.99681847
_cell_formula_units_Z   2
loop_
 _symmetry_equiv_pos_site_id
 _symmetry_equiv_pos_as_xyz
  1  'x, y, z'
loop_
 _atom_site_type_symbol
 _atom_site_label
 _atom_site_symmetry_multiplicity
 _atom_site_fract_x
 _atom_site_fract_y
 _atom_site_fract_z
 _atom_site_occupancy
  Ta  Ta0  1  0.825312  0.674688  0.500000  1
  Ta  Ta1  1  0.325312  0.825312  0.500000  1
  Ta  Ta2  1  0.174688  0.325312  0.500000  1
  Ta  Ta3  1  0.674688  0.174688  0.500000  1
  Re  Re4  1  0.500000  0.500000  0.000000  1
  Re  Re5  1  0.000000  0.000000  0.000000  1
  B  B6  1  0.112274  0.612274  0.000000  1
  B  B7  1  0.612274  0.887726  0.000000  1
  B  B8  1  0.387726  0.112274  0.000000  1
  B  B9  1  0.887726  0.387726  0.000000  1
