# generated using pymatgen
data_LiLa4Al3Pt4
_symmetry_space_group_name_H-M   'P 1'
_cell_length_a   4.53064100
_cell_length_b   7.17219239
_cell_length_c   8.09778800
_cell_angle_alpha   89.98045054
_cell_angle_beta   90.00000000
_cell_angle_gamma   90.00000000
_symmetry_Int_Tables_number   1
_chemical_formula_structural   LiLa4Al3Pt4
_chemical_formula_sum   'Li1 La4 Al3 Pt4'
_cell_volume   263.13460076
_cell_formula_units_Z   1
loop_
 _symmetry_equiv_pos_site_id
 _symmetry_equiv_pos_as_xyz
  1  'x, y, z'
loop_
 _atom_site_type_symbol
 _atom_site_label
 _atom_site_symmetry_multiplicity
 _atom_site_fract_x
 _atom_site_fract_y
 _atom_site_fract_z
 _atom_site_occupancy
  Li  Li0  1  0.250000  0.130169  0.067454  1
  La  La1  1  0.250000  0.029979  0.686091  1
  La  La2  1  0.250000  0.535611  0.815486  1
  La  La3  1  0.750000  0.968318  0.314501  1
  La  La4  1  0.750000  0.465680  0.183375  1
  Al  Al5  1  0.250000  0.649957  0.434489  1
  Al  Al6  1  0.750000  0.859917  0.936620  1
  Al  Al7  1  0.750000  0.361387  0.562967  1
  Pt  Pt8  1  0.250000  0.287713  0.402097  1
  Pt  Pt9  1  0.250000  0.763000  0.112941  1
  Pt  Pt10  1  0.750000  0.723063  0.611323  1
  Pt  Pt11  1  0.750000  0.225206  0.872653  1
