# generated using pymatgen
data_AsCl(OF3)2
_symmetry_space_group_name_H-M   'P 1'
_cell_length_a   5.72564000
_cell_length_b   7.04615900
_cell_length_c   7.63174500
_cell_angle_alpha   90.00000000
_cell_angle_beta   90.00000000
_cell_angle_gamma   90.00000000
_symmetry_Int_Tables_number   1
_chemical_formula_structural   AsCl(OF3)2
_chemical_formula_sum   'As2 Cl2 O4 F12'
_cell_volume   307.89336358
_cell_formula_units_Z   2
loop_
 _symmetry_equiv_pos_site_id
 _symmetry_equiv_pos_as_xyz
  1  'x, y, z'
loop_
 _atom_site_type_symbol
 _atom_site_label
 _atom_site_symmetry_multiplicity
 _atom_site_fract_x
 _atom_site_fract_y
 _atom_site_fract_z
 _atom_site_occupancy
  As  As0  1  0.995124  0.000000  0.500000  1
  As  As1  1  0.004876  0.500000  0.000000  1
  Cl  Cl2  1  0.648937  0.000000  0.000000  1
  Cl  Cl3  1  0.351063  0.500000  0.500000  1
  O  O4  1  0.480338  0.500000  0.659489  1
  O  O5  1  0.519662  0.000000  0.159489  1
  O  O6  1  0.519662  0.000000  0.840511  1
  O  O7  1  0.480338  0.500000  0.340511  1
  F  F8  1  0.784696  0.180938  0.500000  1
  F  F9  1  0.229330  0.173969  0.500000  1
  F  F10  1  0.995143  0.500000  0.769212  1
  F  F11  1  0.784696  0.819062  0.500000  1
  F  F12  1  0.004857  0.000000  0.269212  1
  F  F13  1  0.770670  0.326031  0.000000  1
  F  F14  1  0.004857  0.000000  0.730788  1
  F  F15  1  0.229330  0.826031  0.500000  1
  F  F16  1  0.995143  0.500000  0.230788  1
  F  F17  1  0.770670  0.673969  0.000000  1
  F  F18  1  0.215304  0.319062  0.000000  1
  F  F19  1  0.215304  0.680938  0.000000  1
