# generated using pymatgen
data_Nd3Pb7
_symmetry_space_group_name_H-M   'P 1'
_cell_length_a   13.20671100
_cell_length_b   13.20671202
_cell_length_c   4.69950600
_cell_angle_alpha   90.00000000
_cell_angle_beta   90.00000000
_cell_angle_gamma   158.32415658
_symmetry_Int_Tables_number   1
_chemical_formula_structural   Nd3Pb7
_chemical_formula_sum   'Nd3 Pb7'
_cell_volume   302.75098350
_cell_formula_units_Z   1
loop_
 _symmetry_equiv_pos_site_id
 _symmetry_equiv_pos_as_xyz
  1  'x, y, z'
loop_
 _atom_site_type_symbol
 _atom_site_label
 _atom_site_symmetry_multiplicity
 _atom_site_fract_x
 _atom_site_fract_y
 _atom_site_fract_z
 _atom_site_occupancy
  Nd  Nd0  1  0.000000  0.000000  0.000000  1
  Nd  Nd1  1  0.814146  0.185852  0.000000  1
  Nd  Nd2  1  0.185852  0.814146  0.000000  1
  Pb  Pb3  1  0.597259  0.402739  0.000000  1
  Pb  Pb4  1  0.402739  0.597259  0.000000  1
  Pb  Pb5  1  0.903805  0.096193  0.499999  1
  Pb  Pb6  1  0.708014  0.291984  0.499999  1
  Pb  Pb7  1  0.499999  0.499999  0.499999  1
  Pb  Pb8  1  0.291984  0.708014  0.499999  1
  Pb  Pb9  1  0.096193  0.903805  0.499999  1
