# generated using pymatgen
data_La2Al2GaRh
_symmetry_space_group_name_H-M   'P 1'
_cell_length_a   4.53869900
_cell_length_b   7.23362000
_cell_length_c   16.29381500
_cell_angle_alpha   90.00000000
_cell_angle_beta   90.00000000
_cell_angle_gamma   90.00000000
_symmetry_Int_Tables_number   1
_chemical_formula_structural   La2Al2GaRh
_chemical_formula_sum   'La8 Al8 Ga4 Rh4'
_cell_volume   534.94588780
_cell_formula_units_Z   4
loop_
 _symmetry_equiv_pos_site_id
 _symmetry_equiv_pos_as_xyz
  1  'x, y, z'
loop_
 _atom_site_type_symbol
 _atom_site_label
 _atom_site_symmetry_multiplicity
 _atom_site_fract_x
 _atom_site_fract_y
 _atom_site_fract_z
 _atom_site_occupancy
  La  La0  1  0.250000  0.518913  0.783048  1
  La  La1  1  0.750000  0.481087  0.216952  1
  La  La2  1  0.750000  0.981087  0.283048  1
  La  La3  1  0.250000  0.018913  0.716952  1
  La  La4  1  0.250000  0.640848  0.555355  1
  La  La5  1  0.750000  0.359152  0.444645  1
  La  La6  1  0.750000  0.859152  0.055355  1
  La  La7  1  0.250000  0.140848  0.944645  1
  Al  Al8  1  0.250000  0.662886  0.354675  1
  Al  Al9  1  0.750000  0.337114  0.645325  1
  Al  Al10  1  0.750000  0.837114  0.854675  1
  Al  Al11  1  0.250000  0.162886  0.145325  1
  Al  Al12  1  0.250000  0.505347  0.057941  1
  Al  Al13  1  0.750000  0.494653  0.942059  1
  Al  Al14  1  0.750000  0.994653  0.557941  1
  Al  Al15  1  0.250000  0.005347  0.442059  1
  Ga  Ga16  1  0.250000  0.774120  0.182408  1
  Ga  Ga17  1  0.750000  0.225880  0.817592  1
  Ga  Ga18  1  0.750000  0.725880  0.682408  1
  Ga  Ga19  1  0.250000  0.274120  0.317592  1
  Rh  Rh20  1  0.250000  0.709563  0.924320  1
  Rh  Rh21  1  0.750000  0.290437  0.075680  1
  Rh  Rh22  1  0.750000  0.790437  0.424320  1
  Rh  Rh23  1  0.250000  0.209563  0.575680  1
