# generated using pymatgen
data_TbEr7Sc11Si16Ru
_symmetry_space_group_name_H-M   'P 1'
_cell_length_a   6.98459904
_cell_length_b   7.33826254
_cell_length_c   13.85338694
_cell_angle_alpha   90.04056204
_cell_angle_beta   89.98878387
_cell_angle_gamma   90.05534703
_symmetry_Int_Tables_number   1
_chemical_formula_structural   TbEr7Sc11Si16Ru
_chemical_formula_sum   'Tb1 Er7 Sc11 Si16 Ru1'
_cell_volume   710.05235211
_cell_formula_units_Z   1
loop_
 _symmetry_equiv_pos_site_id
 _symmetry_equiv_pos_as_xyz
  1  'x, y, z'
loop_
 _atom_site_type_symbol
 _atom_site_label
 _atom_site_symmetry_multiplicity
 _atom_site_fract_x
 _atom_site_fract_y
 _atom_site_fract_z
 _atom_site_occupancy
  Tb  Tb0  1  0.488397  0.672920  0.597284  1
  Er  Er1  1  0.012410  0.178690  0.093194  1
  Er  Er2  1  0.992322  0.817892  0.901022  1
  Er  Er3  1  0.488006  0.673505  0.901918  1
  Er  Er4  1  0.992292  0.818038  0.599414  1
  Er  Er5  1  0.511562  0.322869  0.094932  1
  Er  Er6  1  0.012168  0.178705  0.406470  1
  Er  Er7  1  0.511689  0.322890  0.404595  1
  Sc  Sc8  1  0.842069  0.495163  0.249902  1
  Sc  Sc9  1  0.342397  0.003945  0.249894  1
  Sc  Sc10  1  0.658678  0.996352  0.750264  1
  Sc  Sc11  1  0.325619  0.177080  0.626953  1
  Sc  Sc12  1  0.672212  0.824909  0.374159  1
  Sc  Sc13  1  0.172639  0.674025  0.376354  1
  Sc  Sc14  1  0.672217  0.824414  0.125552  1
  Sc  Sc15  1  0.825965  0.330418  0.628295  1
  Sc  Sc16  1  0.325875  0.177177  0.873452  1
  Sc  Sc17  1  0.825456  0.330821  0.872349  1
  Sc  Sc18  1  0.172733  0.673862  0.123428  1
  Si  Si19  1  0.029011  0.117262  0.750317  1
  Si  Si20  1  0.973577  0.886174  0.249897  1
  Si  Si21  1  0.469597  0.614540  0.249857  1
  Si  Si22  1  0.516394  0.394342  0.750547  1
  Si  Si23  1  0.284600  0.866167  0.750596  1
  Si  Si24  1  0.717297  0.130460  0.249935  1
  Si  Si25  1  0.215806  0.369713  0.249907  1
  Si  Si26  1  0.794279  0.630508  0.750566  1
  Si  Si27  1  0.155379  0.465135  0.546709  1
  Si  Si28  1  0.842819  0.535609  0.462975  1
  Si  Si29  1  0.344136  0.966257  0.462423  1
  Si  Si30  1  0.842551  0.535613  0.036831  1
  Si  Si31  1  0.659873  0.035384  0.539345  1
  Si  Si32  1  0.157362  0.466321  0.952888  1
  Si  Si33  1  0.659317  0.033842  0.960268  1
  Si  Si34  1  0.344403  0.964922  0.037069  1
  Ru  Ru35  1  0.148894  0.494076  0.750438  1
