# generated using pymatgen
data_DyTm3(ScRh)4
_symmetry_space_group_name_H-M   'P 1'
_cell_length_a   4.32539300
_cell_length_b   7.08626947
_cell_length_c   8.52676723
_cell_angle_alpha   89.78593980
_cell_angle_beta   90.00000000
_cell_angle_gamma   90.00000000
_symmetry_Int_Tables_number   1
_chemical_formula_structural   DyTm3(ScRh)4
_chemical_formula_sum   'Dy1 Tm3 Sc4 Rh4'
_cell_volume   261.35126873
_cell_formula_units_Z   1
loop_
 _symmetry_equiv_pos_site_id
 _symmetry_equiv_pos_as_xyz
  1  'x, y, z'
loop_
 _atom_site_type_symbol
 _atom_site_label
 _atom_site_symmetry_multiplicity
 _atom_site_fract_x
 _atom_site_fract_y
 _atom_site_fract_z
 _atom_site_occupancy
  Dy  Dy0  1  0.250000  0.983807  0.324911  1
  Tm  Tm1  1  0.750000  0.518918  0.826682  1
  Tm  Tm2  1  0.250000  0.481187  0.173147  1
  Tm  Tm3  1  0.750000  0.017126  0.673492  1
  Sc  Sc4  1  0.750000  0.639696  0.430605  1
  Sc  Sc5  1  0.750000  0.139935  0.066375  1
  Sc  Sc6  1  0.250000  0.360229  0.571634  1
  Sc  Sc7  1  0.250000  0.858107  0.929389  1
  Rh  Rh8  1  0.750000  0.754076  0.098487  1
  Rh  Rh9  1  0.750000  0.257923  0.403171  1
  Rh  Rh10  1  0.250000  0.244759  0.901556  1
  Rh  Rh11  1  0.250000  0.744236  0.600551  1
