# generated using pymatgen
data_CaNd17(DySn8)2
_symmetry_space_group_name_H-M   'P 1'
_cell_length_a   8.21663975
_cell_length_b   8.43743415
_cell_length_c   16.02130400
_cell_angle_alpha   90.00000000
_cell_angle_beta   90.00000000
_cell_angle_gamma   89.97868610
_symmetry_Int_Tables_number   1
_chemical_formula_structural   CaNd17(DySn8)2
_chemical_formula_sum   'Ca1 Nd17 Dy2 Sn16'
_cell_volume   1110.71458350
_cell_formula_units_Z   1
loop_
 _symmetry_equiv_pos_site_id
 _symmetry_equiv_pos_as_xyz
  1  'x, y, z'
loop_
 _atom_site_type_symbol
 _atom_site_label
 _atom_site_symmetry_multiplicity
 _atom_site_fract_x
 _atom_site_fract_y
 _atom_site_fract_z
 _atom_site_occupancy
  Ca  Ca0  1  0.687393  0.999915  0.250000  1
  Nd  Nd1  1  0.007001  0.180635  0.403744  1
  Nd  Nd2  1  0.358851  0.833419  0.122257  1
  Nd  Nd3  1  0.143560  0.335162  0.621825  1
  Nd  Nd4  1  0.490220  0.682493  0.902512  1
  Nd  Nd5  1  0.857109  0.665606  0.122145  1
  Nd  Nd6  1  0.143560  0.335162  0.878175  1
  Nd  Nd7  1  0.490220  0.682493  0.597488  1
  Nd  Nd8  1  0.642761  0.167200  0.622908  1
  Nd  Nd9  1  0.813066  0.500834  0.750000  1
  Nd  Nd10  1  0.857109  0.665606  0.377855  1
  Nd  Nd11  1  0.007001  0.180635  0.096256  1
  Nd  Nd12  1  0.991804  0.820352  0.902547  1
  Nd  Nd13  1  0.642761  0.167200  0.877092  1
  Nd  Nd14  1  0.509259  0.316490  0.097056  1
  Nd  Nd15  1  0.358851  0.833419  0.377743  1
  Nd  Nd16  1  0.991804  0.820352  0.597453  1
  Nd  Nd17  1  0.509259  0.316490  0.402944  1
  Dy  Dy18  1  0.187744  0.498102  0.250000  1
  Dy  Dy19  1  0.312239  0.001249  0.750000  1
  Sn  Sn20  1  0.801391  0.464113  0.541155  1
  Sn  Sn21  1  0.697296  0.960567  0.461537  1
  Sn  Sn22  1  0.683796  0.858159  0.750000  1
  Sn  Sn23  1  0.197788  0.535387  0.456628  1
  Sn  Sn24  1  0.303950  0.037787  0.958495  1
  Sn  Sn25  1  0.818509  0.359009  0.250000  1
  Sn  Sn26  1  0.801391  0.464113  0.958845  1
  Sn  Sn27  1  0.553664  0.605781  0.250000  1
  Sn  Sn28  1  0.197788  0.535387  0.043372  1
  Sn  Sn29  1  0.442517  0.385702  0.750000  1
  Sn  Sn30  1  0.186925  0.648943  0.750000  1
  Sn  Sn31  1  0.947854  0.113053  0.750000  1
  Sn  Sn32  1  0.303950  0.037787  0.541505  1
  Sn  Sn33  1  0.697296  0.960567  0.038463  1
  Sn  Sn34  1  0.307082  0.146112  0.250000  1
  Sn  Sn35  1  0.057235  0.884723  0.250000  1
