# generated using pymatgen
data_Nd(Al3Pt)3
_symmetry_space_group_name_H-M   'P 1'
_cell_length_a   10.48352969
_cell_length_b   10.48352959
_cell_length_c   10.48352675
_cell_angle_alpha   42.19898535
_cell_angle_beta   42.19898436
_cell_angle_gamma   42.19898884
_symmetry_Int_Tables_number   1
_chemical_formula_structural   Nd(Al3Pt)3
_chemical_formula_sum   'Nd2 Al18 Pt6'
_cell_volume   470.43390846
_cell_formula_units_Z   2
loop_
 _symmetry_equiv_pos_site_id
 _symmetry_equiv_pos_as_xyz
  1  'x, y, z'
loop_
 _atom_site_type_symbol
 _atom_site_label
 _atom_site_symmetry_multiplicity
 _atom_site_fract_x
 _atom_site_fract_y
 _atom_site_fract_z
 _atom_site_occupancy
  Nd  Nd0  1  0.166810  0.166810  0.166810  1
  Nd  Nd1  1  0.833190  0.833190  0.833190  1
  Al  Al2  1  0.049847  0.049847  0.049847  1
  Al  Al3  1  0.702113  0.500000  0.297887  1
  Al  Al4  1  0.665798  0.334202  0.000000  1
  Al  Al5  1  0.106698  0.433918  0.761549  1
  Al  Al6  1  0.433918  0.761549  0.106698  1
  Al  Al7  1  0.384463  0.384463  0.384463  1
  Al  Al8  1  0.334202  0.000000  0.665798  1
  Al  Al9  1  0.615537  0.615537  0.615537  1
  Al  Al10  1  0.238451  0.566082  0.893302  1
  Al  Al11  1  0.566082  0.893302  0.238451  1
  Al  Al12  1  0.500000  0.297887  0.702113  1
  Al  Al13  1  0.761549  0.106698  0.433918  1
  Al  Al14  1  0.950153  0.950153  0.950153  1
  Al  Al15  1  0.297887  0.702113  0.500000  1
  Al  Al16  1  0.000000  0.665798  0.334202  1
  Al  Al17  1  0.716075  0.716075  0.716075  1
  Al  Al18  1  0.283925  0.283925  0.283925  1
  Al  Al19  1  0.893302  0.238451  0.566082  1
  Pt  Pt20  1  0.241871  0.922203  0.581907  1
  Pt  Pt21  1  0.922203  0.581907  0.241871  1
  Pt  Pt22  1  0.758129  0.418093  0.077797  1
  Pt  Pt23  1  0.077797  0.758129  0.418093  1
  Pt  Pt24  1  0.418093  0.077797  0.758129  1
  Pt  Pt25  1  0.581907  0.241871  0.922203  1
