# generated using pymatgen
data_BaThSb2SeS
_symmetry_space_group_name_H-M   'P 1'
_cell_length_a   4.29976500
_cell_length_b   4.29976500
_cell_length_c   9.57960900
_cell_angle_alpha   90.00000000
_cell_angle_beta   90.00000000
_cell_angle_gamma   90.00000000
_symmetry_Int_Tables_number   1
_chemical_formula_structural   BaThSb2SeS
_chemical_formula_sum   'Ba1 Th1 Sb2 Se1 S1'
_cell_volume   177.10761055
_cell_formula_units_Z   1
loop_
 _symmetry_equiv_pos_site_id
 _symmetry_equiv_pos_as_xyz
  1  'x, y, z'
loop_
 _atom_site_type_symbol
 _atom_site_label
 _atom_site_symmetry_multiplicity
 _atom_site_fract_x
 _atom_site_fract_y
 _atom_site_fract_z
 _atom_site_occupancy
  Ba  Ba0  1  0.000000  0.500000  0.695162  1
  Th  Th1  1  0.500000  0.000000  0.308577  1
  Sb  Sb2  1  0.000000  0.000000  0.023420  1
  Sb  Sb3  1  0.500000  0.500000  0.023420  1
  Se  Se4  1  0.000000  0.500000  0.355150  1
  S  S5  1  0.500000  0.000000  0.594269  1
