# generated using pymatgen
data_Tb3Th5(ZnRh)8
_symmetry_space_group_name_H-M   'P 1'
_cell_length_a   3.90872600
_cell_length_b   7.49174212
_cell_length_c   16.54254927
_cell_angle_alpha   90.37114998
_cell_angle_beta   90.00000000
_cell_angle_gamma   90.00000000
_symmetry_Int_Tables_number   1
_chemical_formula_structural   Tb3Th5(ZnRh)8
_chemical_formula_sum   'Tb3 Th5 Zn8 Rh8'
_cell_volume   484.40807287
_cell_formula_units_Z   1
loop_
 _symmetry_equiv_pos_site_id
 _symmetry_equiv_pos_as_xyz
  1  'x, y, z'
loop_
 _atom_site_type_symbol
 _atom_site_label
 _atom_site_symmetry_multiplicity
 _atom_site_fract_x
 _atom_site_fract_y
 _atom_site_fract_z
 _atom_site_occupancy
  Tb  Tb0  1  0.750000  0.444004  0.213471  1
  Tb  Tb1  1  0.250000  0.054168  0.713350  1
  Tb  Tb2  1  0.250000  0.554720  0.786101  1
  Th  Th3  1  0.250000  0.174728  0.936180  1
  Th  Th4  1  0.250000  0.672361  0.563743  1
  Th  Th5  1  0.750000  0.326156  0.439346  1
  Th  Th6  1  0.750000  0.944169  0.284507  1
  Th  Th7  1  0.750000  0.829681  0.059699  1
  Zn  Zn8  1  0.750000  0.008301  0.563701  1
  Zn  Zn9  1  0.250000  0.611184  0.342900  1
  Zn  Zn10  1  0.750000  0.380960  0.659027  1
  Zn  Zn11  1  0.250000  0.494645  0.063722  1
  Zn  Zn12  1  0.750000  0.508782  0.936128  1
  Zn  Zn13  1  0.250000  0.991643  0.442222  1
  Zn  Zn14  1  0.250000  0.126685  0.153430  1
  Zn  Zn15  1  0.750000  0.881030  0.841256  1
  Rh  Rh16  1  0.750000  0.740602  0.439191  1
  Rh  Rh17  1  0.250000  0.233195  0.317817  1
  Rh  Rh18  1  0.750000  0.250402  0.817227  1
  Rh  Rh19  1  0.750000  0.752412  0.682131  1
  Rh  Rh20  1  0.250000  0.261604  0.561876  1
  Rh  Rh21  1  0.250000  0.755184  0.185614  1
  Rh  Rh22  1  0.750000  0.243519  0.058359  1
  Rh  Rh23  1  0.250000  0.759865  0.939004  1
