# generated using pymatgen
data_YbNi5Sn
_symmetry_space_group_name_H-M   'P 1'
_cell_length_a   4.80682600
_cell_length_b   7.97789700
_cell_length_c   10.20948000
_cell_angle_alpha   90.00000000
_cell_angle_beta   90.00000000
_cell_angle_gamma   90.00000000
_symmetry_Int_Tables_number   1
_chemical_formula_structural   YbNi5Sn
_chemical_formula_sum   'Yb4 Ni20 Sn4'
_cell_volume   391.51684227
_cell_formula_units_Z   4
loop_
 _symmetry_equiv_pos_site_id
 _symmetry_equiv_pos_as_xyz
  1  'x, y, z'
loop_
 _atom_site_type_symbol
 _atom_site_label
 _atom_site_symmetry_multiplicity
 _atom_site_fract_x
 _atom_site_fract_y
 _atom_site_fract_z
 _atom_site_occupancy
  Yb  Yb0  1  0.750000  0.246364  0.559735  1
  Yb  Yb1  1  0.250000  0.253636  0.059735  1
  Yb  Yb2  1  0.750000  0.746364  0.940265  1
  Yb  Yb3  1  0.250000  0.753636  0.440265  1
  Ni  Ni4  1  0.750000  0.913844  0.483621  1
  Ni  Ni5  1  0.250000  0.586156  0.983621  1
  Ni  Ni6  1  0.750000  0.413844  0.016379  1
  Ni  Ni7  1  0.250000  0.086156  0.516379  1
  Ni  Ni8  1  0.250000  0.188965  0.742534  1
  Ni  Ni9  1  0.750000  0.311035  0.242534  1
  Ni  Ni10  1  0.250000  0.688965  0.757466  1
  Ni  Ni11  1  0.750000  0.811035  0.257466  1
  Ni  Ni12  1  0.750000  0.547085  0.400309  1
  Ni  Ni13  1  0.250000  0.952915  0.900309  1
  Ni  Ni14  1  0.750000  0.047085  0.099691  1
  Ni  Ni15  1  0.250000  0.452915  0.599691  1
  Ni  Ni16  1  0.498530  0.065759  0.309625  1
  Ni  Ni17  1  0.501470  0.434241  0.809625  1
  Ni  Ni18  1  0.001470  0.565759  0.190375  1
  Ni  Ni19  1  0.998530  0.934241  0.690375  1
  Ni  Ni20  1  0.501470  0.934241  0.690375  1
  Ni  Ni21  1  0.498530  0.565759  0.190375  1
  Ni  Ni22  1  0.998530  0.434241  0.809625  1
  Ni  Ni23  1  0.001470  0.065759  0.309625  1
  Sn  Sn24  1  0.750000  0.638752  0.638595  1
  Sn  Sn25  1  0.250000  0.861248  0.138595  1
  Sn  Sn26  1  0.750000  0.138752  0.861405  1
  Sn  Sn27  1  0.250000  0.361248  0.361405  1
