# generated using pymatgen
data_Hf3Al3CoPd2
_symmetry_space_group_name_H-M   'P 1'
_cell_length_a   7.24886900
_cell_length_b   7.24886764
_cell_length_c   6.68197800
_cell_angle_alpha   90.00000000
_cell_angle_beta   90.00000000
_cell_angle_gamma   119.99999251
_symmetry_Int_Tables_number   1
_chemical_formula_structural   Hf3Al3CoPd2
_chemical_formula_sum   'Hf6 Al6 Co2 Pd4'
_cell_volume   304.07178753
_cell_formula_units_Z   2
loop_
 _symmetry_equiv_pos_site_id
 _symmetry_equiv_pos_as_xyz
  1  'x, y, z'
loop_
 _atom_site_type_symbol
 _atom_site_label
 _atom_site_symmetry_multiplicity
 _atom_site_fract_x
 _atom_site_fract_y
 _atom_site_fract_z
 _atom_site_occupancy
  Hf  Hf0  1  0.586591  0.608589  0.250000  1
  Hf  Hf1  1  0.025437  0.415263  0.750000  1
  Hf  Hf2  1  0.391411  0.978003  0.250000  1
  Hf  Hf3  1  0.021997  0.413409  0.250000  1
  Hf  Hf4  1  0.389826  0.974563  0.750000  1
  Hf  Hf5  1  0.584737  0.610174  0.750000  1
  Al  Al6  1  0.270635  0.265424  0.499947  1
  Al  Al7  1  0.734576  0.005211  0.499947  1
  Al  Al8  1  0.994789  0.729365  0.499947  1
  Al  Al9  1  0.734576  0.005211  0.000053  1
  Al  Al10  1  0.270635  0.265424  0.000053  1
  Al  Al11  1  0.994789  0.729365  0.000053  1
  Co  Co12  1  0.333333  0.666667  0.497427  1
  Co  Co13  1  0.333333  0.666667  0.002573  1
  Pd  Pd14  1  0.000000  0.000000  0.750000  1
  Pd  Pd15  1  0.000000  0.000000  0.250000  1
  Pd  Pd16  1  0.666667  0.333333  0.503072  1
  Pd  Pd17  1  0.666667  0.333333  0.996928  1
