# generated using pymatgen
data_Nd14Y2Cd4CoRu3
_symmetry_space_group_name_H-M   'P 1'
_cell_length_a   9.91938467
_cell_length_b   9.87718363
_cell_length_c   9.91938430
_cell_angle_alpha   59.57532607
_cell_angle_beta   60.01245462
_cell_angle_gamma   59.57532956
_symmetry_Int_Tables_number   1
_chemical_formula_structural   Nd14Y2Cd4CoRu3
_chemical_formula_sum   'Nd14 Y2 Cd4 Co1 Ru3'
_cell_volume   682.82619910
_cell_formula_units_Z   1
loop_
 _symmetry_equiv_pos_site_id
 _symmetry_equiv_pos_as_xyz
  1  'x, y, z'
loop_
 _atom_site_type_symbol
 _atom_site_label
 _atom_site_symmetry_multiplicity
 _atom_site_fract_x
 _atom_site_fract_y
 _atom_site_fract_z
 _atom_site_occupancy
  Nd  Nd0  1  0.440795  0.440106  0.060118  1
  Nd  Nd1  1  0.065907  0.060179  0.436279  1
  Nd  Nd2  1  0.436279  0.060179  0.065907  1
  Nd  Nd3  1  0.843173  0.852284  0.843173  1
  Nd  Nd4  1  0.689625  0.308954  0.315657  1
  Nd  Nd5  1  0.060118  0.440106  0.440795  1
  Nd  Nd6  1  0.310851  0.688207  0.689362  1
  Nd  Nd7  1  0.315657  0.308954  0.689625  1
  Nd  Nd8  1  0.847311  0.849113  0.460241  1
  Nd  Nd9  1  0.689362  0.688207  0.310851  1
  Nd  Nd10  1  0.460241  0.849113  0.847311  1
  Nd  Nd11  1  0.060033  0.439138  0.060033  1
  Nd  Nd12  1  0.844890  0.459833  0.844890  1
  Nd  Nd13  1  0.440700  0.057824  0.440700  1
  Y  Y14  1  0.310126  0.688885  0.310126  1
  Y  Y15  1  0.689983  0.307266  0.689983  1
  Cd  Cd16  1  0.079606  0.761190  0.079606  1
  Cd  Cd17  1  0.077496  0.079690  0.761206  1
  Cd  Cd18  1  0.761206  0.079690  0.077496  1
  Cd  Cd19  1  0.080213  0.077430  0.080213  1
  Co  Co20  1  0.638798  0.082608  0.638798  1
  Ru  Ru21  1  0.636076  0.640540  0.636076  1
  Ru  Ru22  1  0.637707  0.640253  0.083846  1
  Ru  Ru23  1  0.083846  0.640253  0.637707  1
