# generated using pymatgen
data_Ho3Lu17(Cd3Pt)2
_symmetry_space_group_name_H-M   'P 1'
_cell_length_a   9.53443800
_cell_length_b   9.53443618
_cell_length_c   9.57796200
_cell_angle_alpha   90.00000000
_cell_angle_beta   90.00000000
_cell_angle_gamma   119.99999936
_symmetry_Int_Tables_number   1
_chemical_formula_structural   Ho3Lu17(Cd3Pt)2
_chemical_formula_sum   'Ho3 Lu17 Cd6 Pt2'
_cell_volume   754.03908796
_cell_formula_units_Z   1
loop_
 _symmetry_equiv_pos_site_id
 _symmetry_equiv_pos_as_xyz
  1  'x, y, z'
loop_
 _atom_site_type_symbol
 _atom_site_label
 _atom_site_symmetry_multiplicity
 _atom_site_fract_x
 _atom_site_fract_y
 _atom_site_fract_z
 _atom_site_occupancy
  Ho  Ho0  1  0.458751  0.541249  0.250000  1
  Ho  Ho1  1  0.458751  0.917503  0.250000  1
  Ho  Ho2  1  0.082497  0.541249  0.250000  1
  Lu  Lu3  1  0.207448  0.792552  0.939711  1
  Lu  Lu4  1  0.207448  0.414897  0.939711  1
  Lu  Lu5  1  0.585103  0.792552  0.939711  1
  Lu  Lu6  1  0.791305  0.208695  0.055935  1
  Lu  Lu7  1  0.791305  0.582609  0.055935  1
  Lu  Lu8  1  0.417391  0.208695  0.055935  1
  Lu  Lu9  1  0.791305  0.208695  0.444065  1
  Lu  Lu10  1  0.791305  0.582609  0.444065  1
  Lu  Lu11  1  0.417391  0.208695  0.444065  1
  Lu  Lu12  1  0.207448  0.792552  0.560289  1
  Lu  Lu13  1  0.207448  0.414897  0.560289  1
  Lu  Lu14  1  0.585103  0.792552  0.560289  1
  Lu  Lu15  1  0.542406  0.457594  0.750000  1
  Lu  Lu16  1  0.542406  0.084810  0.750000  1
  Lu  Lu17  1  0.915190  0.457594  0.750000  1
  Lu  Lu18  1  0.000000  0.000000  0.999922  1
  Lu  Lu19  1  0.000000  0.000000  0.500078  1
  Cd  Cd20  1  0.884529  0.115471  0.750000  1
  Cd  Cd21  1  0.884529  0.769061  0.750000  1
  Cd  Cd22  1  0.230939  0.115471  0.750000  1
  Cd  Cd23  1  0.113691  0.886309  0.250000  1
  Cd  Cd24  1  0.113691  0.227380  0.250000  1
  Cd  Cd25  1  0.772620  0.886309  0.250000  1
  Pt  Pt26  1  0.333333  0.666667  0.750000  1
  Pt  Pt27  1  0.666667  0.333333  0.250000  1
