# generated using pymatgen
data_ZnCoMo6(PtN)2
_symmetry_space_group_name_H-M   'P 1'
_cell_length_a   6.80249391
_cell_length_b   6.81219685
_cell_length_c   6.82280286
_cell_angle_alpha   89.61548824
_cell_angle_beta   90.03515735
_cell_angle_gamma   89.47327645
_symmetry_Int_Tables_number   1
_chemical_formula_structural   ZnCoMo6(PtN)2
_chemical_formula_sum   'Zn2 Co2 Mo12 Pt4 N4'
_cell_volume   316.14763937
_cell_formula_units_Z   2
loop_
 _symmetry_equiv_pos_site_id
 _symmetry_equiv_pos_as_xyz
  1  'x, y, z'
loop_
 _atom_site_type_symbol
 _atom_site_label
 _atom_site_symmetry_multiplicity
 _atom_site_fract_x
 _atom_site_fract_y
 _atom_site_fract_z
 _atom_site_occupancy
  Zn  Zn0  1  0.193079  0.177700  0.178899  1
  Zn  Zn1  1  0.319133  0.825000  0.691763  1
  Co  Co2  1  0.429459  0.060239  0.936679  1
  Co  Co3  1  0.813881  0.689446  0.309889  1
  Mo  Mo4  1  0.624432  0.703418  0.964415  1
  Mo  Mo5  1  0.466566  0.876781  0.293708  1
  Mo  Mo6  1  0.704414  0.953885  0.621162  1
  Mo  Mo7  1  0.545841  0.372959  0.201791  1
  Mo  Mo8  1  0.377441  0.205988  0.551871  1
  Mo  Mo9  1  0.191110  0.542131  0.370792  1
  Mo  Mo10  1  0.873860  0.308863  0.458697  1
  Mo  Mo11  1  0.046753  0.121874  0.801825  1
  Mo  Mo12  1  0.302403  0.452911  0.872173  1
  Mo  Mo13  1  0.124331  0.796417  0.044824  1
  Mo  Mo14  1  0.792285  0.041624  0.122542  1
  Mo  Mo15  1  0.950278  0.625974  0.697709  1
  Pt  Pt16  1  0.677297  0.302613  0.816765  1
  Pt  Pt17  1  0.560007  0.572009  0.556013  1
  Pt  Pt18  1  0.066885  0.933199  0.432893  1
  Pt  Pt19  1  0.941443  0.436956  0.068390  1
  N  N20  1  0.373409  0.623182  0.127129  1
  N  N21  1  0.872471  0.873203  0.874528  1
  N  N22  1  0.124310  0.374763  0.628605  1
  N  N23  1  0.628911  0.128866  0.376936  1
