# generated using pymatgen
data_Ho2UTcRu2
_symmetry_space_group_name_H-M   'P 1'
_cell_length_a   5.81549095
_cell_length_b   5.81549032
_cell_length_c   8.06232900
_cell_angle_alpha   90.00000000
_cell_angle_beta   90.00000000
_cell_angle_gamma   120.43523540
_symmetry_Int_Tables_number   1
_chemical_formula_structural   Ho2UTcRu2
_chemical_formula_sum   'Ho4 U2 Tc2 Ru4'
_cell_volume   235.09447295
_cell_formula_units_Z   2
loop_
 _symmetry_equiv_pos_site_id
 _symmetry_equiv_pos_as_xyz
  1  'x, y, z'
loop_
 _atom_site_type_symbol
 _atom_site_label
 _atom_site_symmetry_multiplicity
 _atom_site_fract_x
 _atom_site_fract_y
 _atom_site_fract_z
 _atom_site_occupancy
  Ho  Ho0  1  0.333258  0.666742  0.439503  1
  Ho  Ho1  1  0.667013  0.332987  0.557438  1
  Ho  Ho2  1  0.667013  0.332987  0.942562  1
  Ho  Ho3  1  0.333258  0.666742  0.060497  1
  U  U4  1  0.998438  0.001562  0.499533  1
  U  U5  1  0.998438  0.001562  0.000467  1
  Tc  Tc6  1  0.164192  0.325269  0.750000  1
  Tc  Tc7  1  0.674731  0.835808  0.750000  1
  Ru  Ru8  1  0.834275  0.165725  0.250000  1
  Ru  Ru9  1  0.832460  0.667392  0.250000  1
  Ru  Ru10  1  0.332608  0.167540  0.250000  1
  Ru  Ru11  1  0.164316  0.835684  0.750000  1
