# generated using pymatgen
data_Ti16Pd5Pt3O4
_symmetry_space_group_name_H-M   'P 1'
_cell_length_a   8.31374488
_cell_length_b   8.28537774
_cell_length_c   8.29461800
_cell_angle_alpha   59.96310098
_cell_angle_beta   60.07607519
_cell_angle_gamma   60.01777580
_symmetry_Int_Tables_number   1
_chemical_formula_structural   Ti16Pd5Pt3O4
_chemical_formula_sum   'Ti16 Pd5 Pt3 O4'
_cell_volume   404.18148759
_cell_formula_units_Z   1
loop_
 _symmetry_equiv_pos_site_id
 _symmetry_equiv_pos_as_xyz
  1  'x, y, z'
loop_
 _atom_site_type_symbol
 _atom_site_label
 _atom_site_symmetry_multiplicity
 _atom_site_fract_x
 _atom_site_fract_y
 _atom_site_fract_z
 _atom_site_occupancy
  Ti  Ti0  1  0.820726  0.180719  0.820872  1
  Ti  Ti1  1  0.182701  0.819300  0.178638  1
  Ti  Ti2  1  0.430711  0.071080  0.429974  1
  Ti  Ti3  1  0.430711  0.071080  0.068235  1
  Ti  Ti4  1  0.070416  0.427999  0.429068  1
  Ti  Ti5  1  0.070416  0.427999  0.072517  1
  Ti  Ti6  1  0.179102  0.176767  0.822066  1
  Ti  Ti7  1  0.428346  0.427570  0.072042  1
  Ti  Ti8  1  0.123595  0.623258  0.626573  1
  Ti  Ti9  1  0.624313  0.622880  0.126915  1
  Ti  Ti10  1  0.624313  0.622880  0.625893  1
  Ti  Ti11  1  0.625494  0.121356  0.626575  1
  Ti  Ti12  1  0.182701  0.819300  0.819360  1
  Ti  Ti13  1  0.820726  0.180719  0.177684  1
  Ti  Ti14  1  0.065531  0.068867  0.432801  1
  Ti  Ti15  1  0.817677  0.819078  0.181622  1
  Pd  Pd16  1  0.488067  0.836423  0.837755  1
  Pd  Pd17  1  0.411362  0.410553  0.413444  1
  Pd  Pd18  1  0.411362  0.410553  0.764642  1
  Pd  Pd19  1  0.837674  0.485839  0.838243  1
  Pd  Pd20  1  0.762678  0.410721  0.413301  1
  Pt  Pt21  1  0.405761  0.779631  0.407304  1
  Pt  Pt22  1  0.842335  0.841512  0.471666  1
  Pt  Pt23  1  0.842335  0.841512  0.844487  1
  O  O24  1  0.125145  0.125780  0.624672  1
  O  O25  1  0.624335  0.126893  0.124387  1
  O  O26  1  0.125145  0.125780  0.124403  1
  O  O27  1  0.126325  0.623952  0.124861  1
