# generated using pymatgen
data_Er2Al4Fe13C
_symmetry_space_group_name_H-M   'P 1'
_cell_length_a   6.45541677
_cell_length_b   6.45541636
_cell_length_c   6.48341069
_cell_angle_alpha   84.03075990
_cell_angle_beta   84.03075429
_cell_angle_gamma   82.62246360
_symmetry_Int_Tables_number   1
_chemical_formula_structural   Er2Al4Fe13C
_chemical_formula_sum   'Er2 Al4 Fe13 C1'
_cell_volume   265.36220564
_cell_formula_units_Z   1
loop_
 _symmetry_equiv_pos_site_id
 _symmetry_equiv_pos_as_xyz
  1  'x, y, z'
loop_
 _atom_site_type_symbol
 _atom_site_label
 _atom_site_symmetry_multiplicity
 _atom_site_fract_x
 _atom_site_fract_y
 _atom_site_fract_z
 _atom_site_occupancy
  Er  Er0  1  0.660457  0.660457  0.667391  1
  Er  Er1  1  0.339543  0.339543  0.332609  1
  Al  Al2  1  0.349033  0.855635  0.341165  1
  Al  Al3  1  0.855635  0.349033  0.341165  1
  Al  Al4  1  0.650967  0.144365  0.658835  1
  Al  Al5  1  0.144365  0.650967  0.658835  1
  Fe  Fe6  1  0.905495  0.905495  0.903270  1
  Fe  Fe7  1  0.094505  0.094505  0.096730  1
  Fe  Fe8  1  0.340797  0.340797  0.857066  1
  Fe  Fe9  1  0.659203  0.659203  0.142934  1
  Fe  Fe10  1  0.282511  0.717489  0.000000  1
  Fe  Fe11  1  0.714225  0.995170  0.288130  1
  Fe  Fe12  1  0.004830  0.285775  0.711870  1
  Fe  Fe13  1  0.285775  0.004830  0.711870  1
  Fe  Fe14  1  0.995170  0.714225  0.288130  1
  Fe  Fe15  1  0.717489  0.282511  0.000000  1
  Fe  Fe16  1  0.000000  0.000000  0.500000  1
  Fe  Fe17  1  0.000000  0.500000  0.000000  1
  Fe  Fe18  1  0.500000  0.000000  0.000000  1
  C  C19  1  0.500000  0.500000  0.000000  1
