# generated using pymatgen
data_Yb3Zr2Pa3Sb10
_symmetry_space_group_name_H-M   'P 1'
_cell_length_a   9.25082294
_cell_length_b   9.35486646
_cell_length_c   6.30896400
_cell_angle_alpha   90.00000000
_cell_angle_beta   90.00000000
_cell_angle_gamma   119.84390589
_symmetry_Int_Tables_number   1
_chemical_formula_structural   Yb3Zr2Pa3Sb10
_chemical_formula_sum   'Yb3 Zr2 Pa3 Sb10'
_cell_volume   473.57372684
_cell_formula_units_Z   1
loop_
 _symmetry_equiv_pos_site_id
 _symmetry_equiv_pos_as_xyz
  1  'x, y, z'
loop_
 _atom_site_type_symbol
 _atom_site_label
 _atom_site_symmetry_multiplicity
 _atom_site_fract_x
 _atom_site_fract_y
 _atom_site_fract_z
 _atom_site_occupancy
  Yb  Yb0  1  0.613687  0.001121  0.250000  1
  Yb  Yb1  1  0.382674  0.998594  0.750000  1
  Yb  Yb2  1  0.006885  0.625737  0.250000  1
  Zr  Zr3  1  0.999066  0.997841  0.002311  1
  Zr  Zr4  1  0.999066  0.997841  0.497689  1
  Pa  Pa5  1  0.988693  0.380354  0.750000  1
  Pa  Pa6  1  0.395495  0.380704  0.250000  1
  Pa  Pa7  1  0.614471  0.619322  0.750000  1
  Sb  Sb8  1  0.270662  0.003891  0.250000  1
  Sb  Sb9  1  0.731032  0.999514  0.750000  1
  Sb  Sb10  1  0.005610  0.274954  0.250000  1
  Sb  Sb11  1  0.998132  0.731098  0.750000  1
  Sb  Sb12  1  0.727982  0.731118  0.250000  1
  Sb  Sb13  1  0.266389  0.270793  0.750000  1
  Sb  Sb14  1  0.328876  0.649217  0.000505  1
  Sb  Sb15  1  0.671203  0.344342  0.997572  1
  Sb  Sb16  1  0.671203  0.344342  0.502428  1
  Sb  Sb17  1  0.328876  0.649217  0.499495  1
