# generated using pymatgen
data_Ce3NpB16
_symmetry_space_group_name_H-M   'P 1'
_cell_length_a   7.14871397
_cell_length_b   7.14871397
_cell_length_c   4.05676500
_cell_angle_alpha   90.00000000
_cell_angle_beta   90.00000000
_cell_angle_gamma   90.29049007
_symmetry_Int_Tables_number   1
_chemical_formula_structural   Ce3NpB16
_chemical_formula_sum   'Ce3 Np1 B16'
_cell_volume   207.31470603
_cell_formula_units_Z   1
loop_
 _symmetry_equiv_pos_site_id
 _symmetry_equiv_pos_as_xyz
  1  'x, y, z'
loop_
 _atom_site_type_symbol
 _atom_site_label
 _atom_site_symmetry_multiplicity
 _atom_site_fract_x
 _atom_site_fract_y
 _atom_site_fract_z
 _atom_site_occupancy
  Ce  Ce0  1  0.812975  0.313140  0.000000  1
  Ce  Ce1  1  0.186860  0.687025  0.000000  1
  Ce  Ce2  1  0.313783  0.186217  0.000000  1
  Np  Np3  1  0.688097  0.811903  0.000000  1
  B  B4  1  0.500786  0.500948  0.798170  1
  B  B5  1  0.999052  0.999214  0.798170  1
  B  B6  1  0.500786  0.500948  0.201830  1
  B  B7  1  0.999052  0.999214  0.201830  1
  B  B8  1  0.412855  0.911857  0.500000  1
  B  B9  1  0.588143  0.087145  0.500000  1
  B  B10  1  0.912272  0.587728  0.500000  1
  B  B11  1  0.087778  0.412222  0.500000  1
  B  B12  1  0.677115  0.541405  0.500000  1
  B  B13  1  0.324186  0.461741  0.500000  1
  B  B14  1  0.175618  0.961527  0.500000  1
  B  B15  1  0.822015  0.036700  0.500000  1
  B  B16  1  0.463300  0.677985  0.500000  1
  B  B17  1  0.538473  0.324382  0.500000  1
  B  B18  1  0.038259  0.175814  0.500000  1
  B  B19  1  0.958595  0.822885  0.500000  1
