# generated using pymatgen
data_Y7Er6Th3(CdNi)4
_symmetry_space_group_name_H-M   'P 1'
_cell_length_a   9.58767569
_cell_length_b   9.60026028
_cell_length_c   9.60576900
_cell_angle_alpha   59.98101326
_cell_angle_beta   59.93755070
_cell_angle_gamma   60.01973677
_symmetry_Int_Tables_number   1
_chemical_formula_structural   Y7Er6Th3(CdNi)4
_chemical_formula_sum   'Y7 Er6 Th3 Cd4 Ni4'
_cell_volume   624.89989863
_cell_formula_units_Z   1
loop_
 _symmetry_equiv_pos_site_id
 _symmetry_equiv_pos_as_xyz
  1  'x, y, z'
loop_
 _atom_site_type_symbol
 _atom_site_label
 _atom_site_symmetry_multiplicity
 _atom_site_fract_x
 _atom_site_fract_y
 _atom_site_fract_z
 _atom_site_occupancy
  Y  Y0  1  0.063456  0.061687  0.437429  1
  Y  Y1  1  0.187404  0.814119  0.815907  1
  Y  Y2  1  0.812580  0.186459  0.184852  1
  Y  Y3  1  0.812580  0.186459  0.816108  1
  Y  Y4  1  0.187404  0.814119  0.182570  1
  Y  Y5  1  0.814023  0.814863  0.185557  1
  Y  Y6  1  0.186546  0.183822  0.814815  1
  Er  Er7  1  0.198989  0.600166  0.600423  1
  Er  Er8  1  0.063566  0.438022  0.437404  1
  Er  Er9  1  0.438892  0.063021  0.062444  1
  Er  Er10  1  0.438892  0.063021  0.435642  1
  Er  Er11  1  0.063566  0.438022  0.061009  1
  Er  Er12  1  0.438671  0.436750  0.062290  1
  Th  Th13  1  0.592597  0.599057  0.599635  1
  Th  Th14  1  0.592597  0.599057  0.208710  1
  Th  Th15  1  0.591786  0.207960  0.600127  1
  Cd  Cd16  1  0.834755  0.830185  0.831073  1
  Cd  Cd17  1  0.834755  0.830185  0.503986  1
  Cd  Cd18  1  0.834678  0.504220  0.830550  1
  Cd  Cd19  1  0.505157  0.830925  0.831959  1
  Ni  Ni20  1  0.396039  0.390682  0.390992  1
  Ni  Ni21  1  0.396039  0.390682  0.822288  1
  Ni  Ni22  1  0.397477  0.820551  0.390987  1
  Ni  Ni23  1  0.817551  0.395964  0.393243  1
