# generated using pymatgen
data_La2PrSn3RuPt2
_symmetry_space_group_name_H-M   'P 1'
_cell_length_a   7.66578101
_cell_length_b   7.66647106
_cell_length_c   4.20362500
_cell_angle_alpha   90.00000000
_cell_angle_beta   90.00000000
_cell_angle_gamma   120.00297017
_symmetry_Int_Tables_number   1
_chemical_formula_structural   La2PrSn3RuPt2
_chemical_formula_sum   'La2 Pr1 Sn3 Ru1 Pt2'
_cell_volume   213.94074708
_cell_formula_units_Z   1
loop_
 _symmetry_equiv_pos_site_id
 _symmetry_equiv_pos_as_xyz
  1  'x, y, z'
loop_
 _atom_site_type_symbol
 _atom_site_label
 _atom_site_symmetry_multiplicity
 _atom_site_fract_x
 _atom_site_fract_y
 _atom_site_fract_z
 _atom_site_occupancy
  La  La0  1  0.590393  0.590476  0.000000  1
  La  La1  1  0.409607  0.000083  0.000000  1
  Pr  Pr2  1  0.000000  0.408303  0.000000  1
  Sn  Sn3  1  0.000000  0.753172  0.500000  1
  Sn  Sn4  1  0.245060  0.246284  0.500000  1
  Sn  Sn5  1  0.754940  0.001224  0.500000  1
  Ru  Ru6  1  0.000000  0.999763  0.000000  1
  Pt  Pt7  1  0.666121  0.333408  0.500000  1
  Pt  Pt8  1  0.333879  0.667287  0.500000  1
