# generated using pymatgen
data_TbEr5Al19Si5Os8
_symmetry_space_group_name_H-M   'P 1'
_cell_length_a   8.69578900
_cell_length_b   8.67927007
_cell_length_c   9.57588500
_cell_angle_alpha   90.00000000
_cell_angle_beta   90.00000000
_cell_angle_gamma   120.06297559
_symmetry_Int_Tables_number   1
_chemical_formula_structural   TbEr5Al19Si5Os8
_chemical_formula_sum   'Tb1 Er5 Al19 Si5 Os8'
_cell_volume   625.49782379
_cell_formula_units_Z   1
loop_
 _symmetry_equiv_pos_site_id
 _symmetry_equiv_pos_as_xyz
  1  'x, y, z'
loop_
 _atom_site_type_symbol
 _atom_site_label
 _atom_site_symmetry_multiplicity
 _atom_site_fract_x
 _atom_site_fract_y
 _atom_site_fract_z
 _atom_site_occupancy
  Tb  Tb0  1  0.806475  0.612948  0.750000  1
  Er  Er1  1  0.195322  0.390647  0.250000  1
  Er  Er2  1  0.606860  0.805695  0.250000  1
  Er  Er3  1  0.390669  0.195645  0.750000  1
  Er  Er4  1  0.198834  0.805695  0.250000  1
  Er  Er5  1  0.804977  0.195645  0.750000  1
  Al  Al6  1  0.164549  0.329098  0.578263  1
  Al  Al7  1  0.834749  0.669496  0.421259  1
  Al  Al8  1  0.669695  0.835555  0.576737  1
  Al  Al9  1  0.834749  0.669496  0.078741  1
  Al  Al10  1  0.328885  0.165306  0.421858  1
  Al  Al11  1  0.164549  0.329098  0.921737  1
  Al  Al12  1  0.165860  0.835555  0.576737  1
  Al  Al13  1  0.328885  0.165306  0.078142  1
  Al  Al14  1  0.836421  0.165306  0.421858  1
  Al  Al15  1  0.669695  0.835555  0.923263  1
  Al  Al16  1  0.836421  0.165306  0.078142  1
  Al  Al17  1  0.165860  0.835555  0.923263  1
  Al  Al18  1  0.437421  0.874841  0.750000  1
  Al  Al19  1  0.873134  0.433550  0.250000  1
  Al  Al20  1  0.127951  0.564177  0.750000  1
  Al  Al21  1  0.560415  0.433550  0.250000  1
  Al  Al22  1  0.436225  0.564177  0.750000  1
  Al  Al23  1  0.999782  0.999564  0.250000  1
  Al  Al24  1  0.001269  0.002538  0.750000  1
  Si  Si25  1  0.332459  0.664918  0.038457  1
  Si  Si26  1  0.666896  0.333789  0.960987  1
  Si  Si27  1  0.666896  0.333789  0.539013  1
  Si  Si28  1  0.332459  0.664918  0.461543  1
  Si  Si29  1  0.563515  0.127031  0.250000  1
  Os  Os30  1  0.500614  0.001228  0.006456  1
  Os  Os31  1  0.999226  0.498822  0.000793  1
  Os  Os32  1  0.500614  0.001228  0.493544  1
  Os  Os33  1  0.499596  0.498822  0.000793  1
  Os  Os34  1  0.999226  0.498822  0.499207  1
  Os  Os35  1  0.499596  0.498822  0.499207  1
  Os  Os36  1  0.999627  0.999253  0.000082  1
  Os  Os37  1  0.999627  0.999253  0.499918  1
