# generated using pymatgen
data_Zr16NbNi4Ir3
_symmetry_space_group_name_H-M   'P 1'
_cell_length_a   8.74745659
_cell_length_b   8.74745639
_cell_length_c   8.78125400
_cell_angle_alpha   60.12724027
_cell_angle_beta   60.12724102
_cell_angle_gamma   60.00000084
_symmetry_Int_Tables_number   1
_chemical_formula_structural   Zr16NbNi4Ir3
_chemical_formula_sum   'Zr16 Nb1 Ni4 Ir3'
_cell_volume   476.03370947
_cell_formula_units_Z   1
loop_
 _symmetry_equiv_pos_site_id
 _symmetry_equiv_pos_as_xyz
  1  'x, y, z'
loop_
 _atom_site_type_symbol
 _atom_site_label
 _atom_site_symmetry_multiplicity
 _atom_site_fract_x
 _atom_site_fract_y
 _atom_site_fract_z
 _atom_site_occupancy
  Zr  Zr0  1  0.196234  0.600850  0.602068  1
  Zr  Zr1  1  0.600850  0.196234  0.602068  1
  Zr  Zr2  1  0.600850  0.600850  0.602068  1
  Zr  Zr3  1  0.606170  0.606170  0.181491  1
  Zr  Zr4  1  0.452733  0.452733  0.047354  1
  Zr  Zr5  1  0.052211  0.052211  0.446174  1
  Zr  Zr6  1  0.452733  0.047179  0.047354  1
  Zr  Zr7  1  0.052211  0.449406  0.446174  1
  Zr  Zr8  1  0.047179  0.452733  0.047354  1
  Zr  Zr9  1  0.449406  0.052211  0.446174  1
  Zr  Zr10  1  0.814745  0.814745  0.191009  1
  Zr  Zr11  1  0.184272  0.184272  0.816411  1
  Zr  Zr12  1  0.814745  0.179501  0.191009  1
  Zr  Zr13  1  0.184272  0.815043  0.816411  1
  Zr  Zr14  1  0.179501  0.814745  0.191009  1
  Zr  Zr15  1  0.815043  0.184272  0.816411  1
  Nb  Nb16  1  0.828395  0.828395  0.514814  1
  Ni  Ni17  1  0.825753  0.393442  0.387362  1
  Ni  Ni18  1  0.393442  0.825753  0.387362  1
  Ni  Ni19  1  0.393442  0.393442  0.387362  1
  Ni  Ni20  1  0.389946  0.389946  0.830161  1
  Ir  Ir21  1  0.496202  0.834833  0.834134  1
  Ir  Ir22  1  0.834833  0.496202  0.834134  1
  Ir  Ir23  1  0.834833  0.834833  0.834134  1
