# generated using pymatgen
data_Ho4Er5Sc11Bi12
_symmetry_space_group_name_H-M   'P 1'
_cell_length_a   7.94454717
_cell_length_b   9.17431360
_cell_length_c   11.80330869
_cell_angle_alpha   90.03906754
_cell_angle_beta   89.91741830
_cell_angle_gamma   89.98584371
_symmetry_Int_Tables_number   1
_chemical_formula_structural   Ho4Er5Sc11Bi12
_chemical_formula_sum   'Ho4 Er5 Sc11 Bi12'
_cell_volume   860.29208855
_cell_formula_units_Z   1
loop_
 _symmetry_equiv_pos_site_id
 _symmetry_equiv_pos_as_xyz
  1  'x, y, z'
loop_
 _atom_site_type_symbol
 _atom_site_label
 _atom_site_symmetry_multiplicity
 _atom_site_fract_x
 _atom_site_fract_y
 _atom_site_fract_z
 _atom_site_occupancy
  Ho  Ho0  1  0.317365  0.250362  0.219210  1
  Ho  Ho1  1  0.816727  0.249508  0.281313  1
  Ho  Ho2  1  0.683498  0.750766  0.780499  1
  Ho  Ho3  1  0.183600  0.750611  0.718088  1
  Er  Er4  1  0.349752  0.750670  0.219203  1
  Er  Er5  1  0.852380  0.752019  0.282294  1
  Er  Er6  1  0.649866  0.250868  0.781005  1
  Er  Er7  1  0.150213  0.250498  0.719103  1
  Er  Er8  1  0.689668  0.563680  0.058982  1
  Sc  Sc9  1  0.191115  0.933033  0.441547  1
  Sc  Sc10  1  0.306545  0.067139  0.940623  1
  Sc  Sc11  1  0.809059  0.432670  0.558630  1
  Sc  Sc12  1  0.308290  0.432561  0.941394  1
  Sc  Sc13  1  0.808894  0.066942  0.558384  1
  Sc  Sc14  1  0.691624  0.931603  0.058666  1
  Sc  Sc15  1  0.191360  0.567304  0.441555  1
  Sc  Sc16  1  0.482382  0.250111  0.490810  1
  Sc  Sc17  1  0.982122  0.249588  0.010035  1
  Sc  Sc18  1  0.517635  0.750315  0.510035  1
  Sc  Sc19  1  0.019786  0.751899  0.989415  1
  Bi  Bi20  1  0.397593  0.752865  0.958655  1
  Bi  Bi21  1  0.901140  0.749839  0.540078  1
  Bi  Bi22  1  0.596362  0.241505  0.038655  1
  Bi  Bi23  1  0.098942  0.250266  0.460545  1
  Bi  Bi24  1  0.564346  0.995991  0.332940  1
  Bi  Bi25  1  0.066947  0.504268  0.168434  1
  Bi  Bi26  1  0.435631  0.496149  0.667862  1
  Bi  Bi27  1  0.935490  0.004917  0.831800  1
  Bi  Bi28  1  0.435740  0.004818  0.667610  1
  Bi  Bi29  1  0.936903  0.496155  0.831231  1
  Bi  Bi30  1  0.564273  0.504350  0.333834  1
  Bi  Bi31  1  0.064750  0.996728  0.167565  1
