# generated using pymatgen
data_CaLa2Pa(Al3Rh)6
_symmetry_space_group_name_H-M   'P 1'
_cell_length_a   7.63302167
_cell_length_b   7.63309691
_cell_length_c   9.54686800
_cell_angle_alpha   90.00000000
_cell_angle_beta   90.00000000
_cell_angle_gamma   119.22825636
_symmetry_Int_Tables_number   1
_chemical_formula_structural   CaLa2Pa(Al3Rh)6
_chemical_formula_sum   'Ca1 La2 Pa1 Al18 Rh6'
_cell_volume   485.41578757
_cell_formula_units_Z   1
loop_
 _symmetry_equiv_pos_site_id
 _symmetry_equiv_pos_as_xyz
  1  'x, y, z'
loop_
 _atom_site_type_symbol
 _atom_site_label
 _atom_site_symmetry_multiplicity
 _atom_site_fract_x
 _atom_site_fract_y
 _atom_site_fract_z
 _atom_site_occupancy
  Ca  Ca0  1  0.674192  0.993754  0.250000  1
  La  La1  1  0.004482  0.328261  0.750000  1
  La  La2  1  0.329249  0.004949  0.750000  1
  Pa  Pa3  1  0.997799  0.674625  0.250000  1
  Al  Al4  1  0.132749  0.128717  0.250000  1
  Al  Al5  1  0.866522  0.868408  0.750000  1
  Al  Al6  1  0.999839  0.333965  0.080767  1
  Al  Al7  1  0.994454  0.663628  0.927304  1
  Al  Al8  1  0.994454  0.663628  0.572696  1
  Al  Al9  1  0.340182  0.003282  0.419222  1
  Al  Al10  1  0.999839  0.333965  0.419233  1
  Al  Al11  1  0.664500  0.995877  0.568670  1
  Al  Al12  1  0.664500  0.995877  0.931330  1
  Al  Al13  1  0.340182  0.003282  0.080778  1
  Al  Al14  1  0.334163  0.334507  0.539270  1
  Al  Al15  1  0.664860  0.666230  0.447998  1
  Al  Al16  1  0.664860  0.666230  0.052002  1
  Al  Al17  1  0.334163  0.334507  0.960730  1
  Al  Al18  1  0.336920  0.549017  0.250000  1
  Al  Al19  1  0.659222  0.453752  0.750000  1
  Al  Al20  1  0.552823  0.347807  0.250000  1
  Al  Al21  1  0.455043  0.660993  0.750000  1
  Rh  Rh22  1  0.672944  0.331402  0.003271  1
  Rh  Rh23  1  0.325800  0.670633  0.003937  1
  Rh  Rh24  1  0.325800  0.670633  0.496063  1
  Rh  Rh25  1  0.672944  0.331402  0.496729  1
  Rh  Rh26  1  0.998755  0.995335  0.005450  1
  Rh  Rh27  1  0.998755  0.995335  0.494550  1
