# generated using pymatgen
data_Dy4Si10Ir5Pt
_symmetry_space_group_name_H-M   'P 1'
_cell_length_a   8.15346004
_cell_length_b   8.17023470
_cell_length_c   8.17023598
_cell_angle_alpha   138.30815559
_cell_angle_beta   104.04464555
_cell_angle_gamma   90.63658552
_symmetry_Int_Tables_number   1
_chemical_formula_structural   Dy4Si10Ir5Pt
_chemical_formula_sum   'Dy4 Si10 Ir5 Pt1'
_cell_volume   335.21974399
_cell_formula_units_Z   1
loop_
 _symmetry_equiv_pos_site_id
 _symmetry_equiv_pos_as_xyz
  1  'x, y, z'
loop_
 _atom_site_type_symbol
 _atom_site_label
 _atom_site_symmetry_multiplicity
 _atom_site_fract_x
 _atom_site_fract_y
 _atom_site_fract_z
 _atom_site_occupancy
  Dy  Dy0  1  0.600391  0.369731  0.230661  1
  Dy  Dy1  1  0.399882  0.629907  0.769974  1
  Dy  Dy2  1  0.138570  0.869692  0.268878  1
  Dy  Dy3  1  0.861968  0.130780  0.731189  1
  Si  Si4  1  0.504261  0.247229  0.747758  1
  Si  Si5  1  0.504261  0.756503  0.257032  1
  Si  Si6  1  0.226574  0.475859  0.253092  1
  Si  Si7  1  0.773356  0.023235  0.249102  1
  Si  Si8  1  0.773356  0.524255  0.750122  1
  Si  Si9  1  0.226574  0.973482  0.750715  1
  Si  Si10  1  0.950228  0.606285  0.343944  1
  Si  Si11  1  0.045627  0.393602  0.652024  1
  Si  Si12  1  0.261904  0.106445  0.155459  1
  Si  Si13  1  0.736632  0.893386  0.843246  1
  Ir  Ir14  1  0.999124  0.750732  0.750201  1
  Ir  Ir15  1  0.999124  0.248923  0.248392  1
  Ir  Ir16  1  0.524465  0.138996  0.385468  1
  Ir  Ir17  1  0.473725  0.860624  0.613102  1
  Ir  Ir18  1  0.753760  0.639423  0.114337  1
  Pt  Pt19  1  0.246219  0.360912  0.885306  1
