# generated using pymatgen
data_Ho2Tm8Si5Ge
_symmetry_space_group_name_H-M   'P 1'
_cell_length_a   8.34703882
_cell_length_b   8.34703919
_cell_length_c   6.25408300
_cell_angle_alpha   90.00000000
_cell_angle_beta   90.00000000
_cell_angle_gamma   120.08704243
_symmetry_Int_Tables_number   1
_chemical_formula_structural   Ho2Tm8Si5Ge
_chemical_formula_sum   'Ho2 Tm8 Si5 Ge1'
_cell_volume   377.03144348
_cell_formula_units_Z   1
loop_
 _symmetry_equiv_pos_site_id
 _symmetry_equiv_pos_as_xyz
  1  'x, y, z'
loop_
 _atom_site_type_symbol
 _atom_site_label
 _atom_site_symmetry_multiplicity
 _atom_site_fract_x
 _atom_site_fract_y
 _atom_site_fract_z
 _atom_site_occupancy
  Ho  Ho0  1  0.758800  0.758800  0.250000  1
  Ho  Ho1  1  0.241890  0.241890  0.750000  1
  Tm  Tm2  1  0.667834  0.333006  0.500739  1
  Tm  Tm3  1  0.333006  0.667834  0.500739  1
  Tm  Tm4  1  0.333006  0.667834  0.999261  1
  Tm  Tm5  1  0.667834  0.333006  0.999261  1
  Tm  Tm6  1  0.242629  0.998458  0.250000  1
  Tm  Tm7  1  0.998458  0.242629  0.250000  1
  Tm  Tm8  1  0.756971  0.999999  0.750000  1
  Tm  Tm9  1  0.999999  0.756971  0.750000  1
  Si  Si10  1  0.605627  0.000259  0.250000  1
  Si  Si11  1  0.000259  0.605627  0.250000  1
  Si  Si12  1  0.606600  0.606600  0.750000  1
  Si  Si13  1  0.394254  0.999771  0.750000  1
  Si  Si14  1  0.999771  0.394254  0.750000  1
  Ge  Ge15  1  0.393063  0.393063  0.250000  1
