# generated using pymatgen
data_Zr12AlZn3(Cu2N)4
_symmetry_space_group_name_H-M   'P 1'
_cell_length_a   8.50288279
_cell_length_b   8.50286204
_cell_length_c   8.50285401
_cell_angle_alpha   60.19669556
_cell_angle_beta   60.19637780
_cell_angle_gamma   60.19663699
_symmetry_Int_Tables_number   1
_chemical_formula_structural   Zr12AlZn3(Cu2N)4
_chemical_formula_sum   'Zr12 Al1 Zn3 Cu8 N4'
_cell_volume   436.62629136
_cell_formula_units_Z   1
loop_
 _symmetry_equiv_pos_site_id
 _symmetry_equiv_pos_as_xyz
  1  'x, y, z'
loop_
 _atom_site_type_symbol
 _atom_site_label
 _atom_site_symmetry_multiplicity
 _atom_site_fract_x
 _atom_site_fract_y
 _atom_site_fract_z
 _atom_site_occupancy
  Zr  Zr0  1  0.811297  0.189070  0.189072  1
  Zr  Zr1  1  0.189071  0.811299  0.189068  1
  Zr  Zr2  1  0.810855  0.810856  0.188498  1
  Zr  Zr3  1  0.188499  0.810857  0.810855  1
  Zr  Zr4  1  0.810856  0.188497  0.810855  1
  Zr  Zr5  1  0.189072  0.189068  0.811298  1
  Zr  Zr6  1  0.438703  0.060930  0.060928  1
  Zr  Zr7  1  0.060929  0.438701  0.060932  1
  Zr  Zr8  1  0.439145  0.439144  0.061502  1
  Zr  Zr9  1  0.061501  0.439143  0.439145  1
  Zr  Zr10  1  0.439144  0.061503  0.439145  1
  Zr  Zr11  1  0.060928  0.060932  0.438702  1
  Al  Al12  1  0.625000  0.625000  0.625000  1
  Zn  Zn13  1  0.625000  0.625000  0.125000  1
  Zn  Zn14  1  0.125000  0.625000  0.625000  1
  Zn  Zn15  1  0.625000  0.125000  0.625000  1
  Cu  Cu16  1  0.419443  0.419438  0.741987  1
  Cu  Cu17  1  0.419507  0.419506  0.419500  1
  Cu  Cu18  1  0.741980  0.419434  0.419442  1
  Cu  Cu19  1  0.419438  0.741993  0.419433  1
  Cu  Cu20  1  0.830557  0.830562  0.508013  1
  Cu  Cu21  1  0.830493  0.830494  0.830500  1
  Cu  Cu22  1  0.508020  0.830566  0.830558  1
  Cu  Cu23  1  0.830562  0.508007  0.830567  1
  N  N24  1  0.125000  0.125000  0.625000  1
  N  N25  1  0.125000  0.125000  0.125000  1
  N  N26  1  0.625000  0.125000  0.125000  1
  N  N27  1  0.125000  0.625000  0.125000  1
