# generated using pymatgen
data_Yb5PrTm2(Cu2Sn5)2
_symmetry_space_group_name_H-M   'P 1'
_cell_length_a   4.45033000
_cell_length_b   8.81578600
_cell_length_c   14.04562000
_cell_angle_alpha   90.00000000
_cell_angle_beta   90.00000000
_cell_angle_gamma   90.00000000
_symmetry_Int_Tables_number   1
_chemical_formula_structural   Yb5PrTm2(Cu2Sn5)2
_chemical_formula_sum   'Yb5 Pr1 Tm2 Cu4 Sn10'
_cell_volume   551.05401335
_cell_formula_units_Z   1
loop_
 _symmetry_equiv_pos_site_id
 _symmetry_equiv_pos_as_xyz
  1  'x, y, z'
loop_
 _atom_site_type_symbol
 _atom_site_label
 _atom_site_symmetry_multiplicity
 _atom_site_fract_x
 _atom_site_fract_y
 _atom_site_fract_z
 _atom_site_occupancy
  Yb  Yb0  1  0.500000  0.790952  0.741966  1
  Yb  Yb1  1  0.000000  0.207025  0.755086  1
  Yb  Yb2  1  0.000000  0.207025  0.244914  1
  Yb  Yb3  1  0.000000  0.865474  0.500000  1
  Yb  Yb4  1  0.500000  0.790952  0.258034  1
  Pr  Pr5  1  0.500000  0.137180  0.000000  1
  Tm  Tm6  1  0.500000  0.695120  0.000000  1
  Tm  Tm7  1  0.000000  0.299323  0.500000  1
  Cu  Cu8  1  0.500000  0.378621  0.642336  1
  Cu  Cu9  1  0.000000  0.622977  0.855332  1
  Cu  Cu10  1  0.000000  0.622977  0.144668  1
  Cu  Cu11  1  0.500000  0.378621  0.357664  1
  Sn  Sn12  1  0.500000  0.085473  0.395987  1
  Sn  Sn13  1  0.000000  0.553241  0.662671  1
  Sn  Sn14  1  0.000000  0.413386  0.000000  1
  Sn  Sn15  1  0.500000  0.445573  0.164012  1
  Sn  Sn16  1  0.500000  0.593887  0.500000  1
  Sn  Sn17  1  0.500000  0.445573  0.835988  1
  Sn  Sn18  1  0.000000  0.913953  0.895878  1
  Sn  Sn19  1  0.000000  0.553241  0.337329  1
  Sn  Sn20  1  0.500000  0.085473  0.604013  1
  Sn  Sn21  1  0.000000  0.913953  0.104122  1
