# generated using pymatgen
data_CaNp9O20
_symmetry_space_group_name_H-M   'P 1'
_cell_length_a   6.59347643
_cell_length_b   7.62788777
_cell_length_c   8.51779484
_cell_angle_alpha   102.94983581
_cell_angle_beta   97.39528348
_cell_angle_gamma   106.80912643
_symmetry_Int_Tables_number   1
_chemical_formula_structural   CaNp9O20
_chemical_formula_sum   'Ca1 Np9 O20'
_cell_volume   390.96962882
_cell_formula_units_Z   1
loop_
 _symmetry_equiv_pos_site_id
 _symmetry_equiv_pos_as_xyz
  1  'x, y, z'
loop_
 _atom_site_type_symbol
 _atom_site_label
 _atom_site_symmetry_multiplicity
 _atom_site_fract_x
 _atom_site_fract_y
 _atom_site_fract_z
 _atom_site_occupancy
  Ca  Ca0  1  0.000000  0.000000  0.000000  1
  Np  Np1  1  0.800799  0.601874  0.602305  1
  Np  Np2  1  0.000000  0.500000  0.000000  1
  Np  Np3  1  0.599777  0.198500  0.197705  1
  Np  Np4  1  0.799331  0.099651  0.602747  1
  Np  Np5  1  0.604805  0.701931  0.199227  1
  Np  Np6  1  0.199201  0.398126  0.397695  1
  Np  Np7  1  0.395195  0.298069  0.800773  1
  Np  Np8  1  0.200669  0.900349  0.397253  1
  Np  Np9  1  0.400223  0.801500  0.802295  1
  O  O10  1  0.849131  0.325209  0.454515  1
  O  O11  1  0.636250  0.920735  0.054159  1
  O  O12  1  0.853697  0.827048  0.451355  1
  O  O13  1  0.950824  0.764438  0.155679  1
  O  O14  1  0.444484  0.520868  0.649236  1
  O  O15  1  0.646816  0.425950  0.048706  1
  O  O16  1  0.741992  0.373427  0.751044  1
  O  O17  1  0.263306  0.130909  0.260342  1
  O  O18  1  0.947342  0.288715  0.157207  1
  O  O19  1  0.554840  0.974485  0.353172  1
  O  O20  1  0.052658  0.711285  0.842793  1
  O  O21  1  0.445160  0.025515  0.646828  1
  O  O22  1  0.736694  0.869091  0.739658  1
  O  O23  1  0.353184  0.574050  0.951294  1
  O  O24  1  0.258008  0.626573  0.248956  1
  O  O25  1  0.049176  0.235562  0.844321  1
  O  O26  1  0.555516  0.479132  0.350764  1
  O  O27  1  0.146303  0.172952  0.548645  1
  O  O28  1  0.363750  0.079265  0.945841  1
  O  O29  1  0.150869  0.674791  0.545485  1
