# generated using pymatgen
data_Pr3NdSi3Ge
_symmetry_space_group_name_H-M   'P 1'
_cell_length_a   4.00642700
_cell_length_b   5.96515612
_cell_length_c   8.31738143
_cell_angle_alpha   90.10095651
_cell_angle_beta   90.00000000
_cell_angle_gamma   90.00000000
_symmetry_Int_Tables_number   1
_chemical_formula_structural   Pr3NdSi3Ge
_chemical_formula_sum   'Pr3 Nd1 Si3 Ge1'
_cell_volume   198.77647872
_cell_formula_units_Z   1
loop_
 _symmetry_equiv_pos_site_id
 _symmetry_equiv_pos_as_xyz
  1  'x, y, z'
loop_
 _atom_site_type_symbol
 _atom_site_label
 _atom_site_symmetry_multiplicity
 _atom_site_fract_x
 _atom_site_fract_y
 _atom_site_fract_z
 _atom_site_occupancy
  Pr  Pr0  1  0.250000  0.384446  0.681979  1
  Pr  Pr1  1  0.750000  0.886513  0.821796  1
  Pr  Pr2  1  0.250000  0.114481  0.180045  1
  Nd  Nd3  1  0.750000  0.613482  0.316598  1
  Si  Si4  1  0.750000  0.127720  0.462730  1
  Si  Si5  1  0.750000  0.380447  0.965513  1
  Si  Si6  1  0.250000  0.619948  0.035404  1
  Ge  Ge7  1  0.250000  0.872963  0.535936  1
