# generated using pymatgen
data_Ho6Al13V3Os7
_symmetry_space_group_name_H-M   'P 1'
_cell_length_a   8.95377021
_cell_length_b   8.95377126
_cell_length_c   8.95377255
_cell_angle_alpha   59.49178134
_cell_angle_beta   59.49177961
_cell_angle_gamma   59.49178102
_symmetry_Int_Tables_number   1
_chemical_formula_structural   Ho6Al13V3Os7
_chemical_formula_sum   'Ho6 Al13 V3 Os7'
_cell_volume   501.71122557
_cell_formula_units_Z   1
loop_
 _symmetry_equiv_pos_site_id
 _symmetry_equiv_pos_as_xyz
  1  'x, y, z'
loop_
 _atom_site_type_symbol
 _atom_site_label
 _atom_site_symmetry_multiplicity
 _atom_site_fract_x
 _atom_site_fract_y
 _atom_site_fract_z
 _atom_site_occupancy
  Ho  Ho0  1  0.710274  0.710274  0.285674  1
  Ho  Ho1  1  0.289590  0.713056  0.289590  1
  Ho  Ho2  1  0.713056  0.289590  0.289590  1
  Ho  Ho3  1  0.289590  0.289590  0.713056  1
  Ho  Ho4  1  0.710274  0.285674  0.710274  1
  Ho  Ho5  1  0.285674  0.710274  0.710274  1
  Al  Al6  1  0.881097  0.881097  0.881097  1
  Al  Al7  1  0.120867  0.120867  0.642843  1
  Al  Al8  1  0.120867  0.642843  0.120867  1
  Al  Al9  1  0.642843  0.120867  0.120867  1
  Al  Al10  1  0.120763  0.120763  0.120763  1
  Al  Al11  1  0.668714  0.668714  0.991846  1
  Al  Al12  1  0.668714  0.991846  0.668714  1
  Al  Al13  1  0.991846  0.668714  0.668714  1
  Al  Al14  1  0.668104  0.668104  0.668104  1
  Al  Al15  1  0.331618  0.331618  0.007556  1
  Al  Al16  1  0.331618  0.007556  0.331618  1
  Al  Al17  1  0.007556  0.331618  0.331618  1
  Al  Al18  1  0.332432  0.332432  0.332432  1
  V  V19  1  0.877136  0.877136  0.361052  1
  V  V20  1  0.877136  0.361052  0.877136  1
  V  V21  1  0.361052  0.877136  0.877136  1
  Os  Os22  1  0.004662  0.004662  0.004662  1
  Os  Os23  1  0.997677  0.997677  0.497888  1
  Os  Os24  1  0.502888  0.995500  0.502888  1
  Os  Os25  1  0.995500  0.502888  0.502888  1
  Os  Os26  1  0.502888  0.502888  0.995500  1
  Os  Os27  1  0.997677  0.497888  0.997677  1
  Os  Os28  1  0.497888  0.997677  0.997677  1
