# generated using pymatgen
data_Er3BiIrRh3O14
_symmetry_space_group_name_H-M   'P 1'
_cell_length_a   7.21247666
_cell_length_b   7.21247682
_cell_length_c   7.25111320
_cell_angle_alpha   60.17610356
_cell_angle_beta   60.17610426
_cell_angle_gamma   60.00000030
_symmetry_Int_Tables_number   1
_chemical_formula_structural   Er3BiIrRh3O14
_chemical_formula_sum   'Er3 Bi1 Ir1 Rh3 O14'
_cell_volume   267.42957551
_cell_formula_units_Z   1
loop_
 _symmetry_equiv_pos_site_id
 _symmetry_equiv_pos_as_xyz
  1  'x, y, z'
loop_
 _atom_site_type_symbol
 _atom_site_label
 _atom_site_symmetry_multiplicity
 _atom_site_fract_x
 _atom_site_fract_y
 _atom_site_fract_z
 _atom_site_occupancy
  Er  Er0  1  0.125000  0.125000  0.125000  1
  Er  Er1  1  0.125000  0.625000  0.125000  1
  Er  Er2  1  0.625000  0.125000  0.125000  1
  Bi  Bi3  1  0.125000  0.125000  0.625000  1
  Ir  Ir4  1  0.625000  0.625000  0.125000  1
  Rh  Rh5  1  0.625000  0.625000  0.625000  1
  Rh  Rh6  1  0.125000  0.625000  0.625000  1
  Rh  Rh7  1  0.625000  0.125000  0.625000  1
  O  O8  1  0.253751  0.253751  0.238745  1
  O  O9  1  0.291780  0.710203  0.287814  1
  O  O10  1  0.964460  0.964460  0.525725  1
  O  O11  1  0.545356  0.964460  0.525725  1
  O  O12  1  0.710203  0.710203  0.287814  1
  O  O13  1  0.964460  0.545356  0.525725  1
  O  O14  1  0.704644  0.285540  0.724275  1
  O  O15  1  0.285540  0.285540  0.724275  1
  O  O16  1  0.710203  0.291780  0.287814  1
  O  O17  1  0.285540  0.704644  0.724275  1
  O  O18  1  0.958220  0.539797  0.962186  1
  O  O19  1  0.539797  0.539797  0.962186  1
  O  O20  1  0.996249  0.996249  0.011255  1
  O  O21  1  0.539797  0.958220  0.962186  1
