# generated using pymatgen
data_Pr4Al23SiPt9
_symmetry_space_group_name_H-M   'P 1'
_cell_length_a   7.58078949
_cell_length_b   7.58313092
_cell_length_c   13.33616382
_cell_angle_alpha   84.64446477
_cell_angle_beta   100.79429196
_cell_angle_gamma   119.84163314
_symmetry_Int_Tables_number   1
_chemical_formula_structural   Pr4Al23SiPt9
_chemical_formula_sum   'Pr4 Al23 Si1 Pt9'
_cell_volume   653.22400777
_cell_formula_units_Z   1
loop_
 _symmetry_equiv_pos_site_id
 _symmetry_equiv_pos_as_xyz
  1  'x, y, z'
loop_
 _atom_site_type_symbol
 _atom_site_label
 _atom_site_symmetry_multiplicity
 _atom_site_fract_x
 _atom_site_fract_y
 _atom_site_fract_z
 _atom_site_occupancy
  Pr  Pr0  1  0.730990  0.998370  0.191382  1
  Pr  Pr1  1  0.263136  0.002935  0.808433  1
  Pr  Pr2  1  0.062635  0.667680  0.191534  1
  Pr  Pr3  1  0.938996  0.326983  0.808276  1
  Al  Al4  1  0.193686  0.132278  0.184981  1
  Al  Al5  1  0.979528  0.665566  0.945541  1
  Al  Al6  1  0.021574  0.334052  0.053479  1
  Al  Al7  1  0.402099  0.669547  0.814704  1
  Al  Al8  1  0.599255  0.335340  0.184523  1
  Al  Al9  1  0.880462  0.662938  0.665015  1
  Al  Al10  1  0.119644  0.334068  0.335380  1
  Al  Al11  1  0.607839  0.463270  0.814435  1
  Al  Al12  1  0.396848  0.538041  0.184725  1
  Al  Al13  1  0.230800  0.341942  0.664300  1
  Al  Al14  1  0.770785  0.659696  0.335495  1
  Al  Al15  1  0.852124  0.332357  0.558202  1
  Al  Al16  1  0.185878  0.000126  0.558366  1
  Al  Al17  1  0.813716  0.999306  0.442982  1
  Al  Al18  1  0.352037  0.003361  0.053509  1
  Al  Al19  1  0.647370  0.998346  0.945485  1
  Al  Al20  1  0.552146  0.993451  0.665363  1
  Al  Al21  1  0.444628  0.006613  0.334919  1
  Al  Al22  1  0.520199  0.666580  0.559956  1
  Al  Al23  1  0.479170  0.333065  0.439214  1
  Al  Al24  1  0.682119  0.666369  0.046945  1
  Al  Al25  1  0.323714  0.337926  0.957066  1
  Al  Al26  1  0.147315  0.666739  0.441761  1
  Si  Si27  1  0.801135  0.862200  0.815132  1
  Pt  Pt28  1  0.330057  0.672526  0.998695  1
  Pt  Pt29  1  0.545925  0.328229  0.635317  1
  Pt  Pt30  1  0.454483  0.672173  0.364987  1
  Pt  Pt31  1  0.881904  0.001974  0.639677  1
  Pt  Pt32  1  0.115775  0.995006  0.364583  1
  Pt  Pt33  1  0.672920  0.331203  0.998669  1
  Pt  Pt34  1  0.206854  0.667078  0.636297  1
  Pt  Pt35  1  0.793790  0.332868  0.364324  1
  Pt  Pt36  1  0.998465  0.999801  0.996350  1
