# generated using pymatgen
data_LiCdGaCu3
_symmetry_space_group_name_H-M   'P 1'
_cell_length_a   5.08301292
_cell_length_b   4.91401336
_cell_length_c   5.08301300
_cell_angle_alpha   58.85566241
_cell_angle_beta   59.99999294
_cell_angle_gamma   58.85566880
_symmetry_Int_Tables_number   1
_chemical_formula_structural   LiCdGaCu3
_chemical_formula_sum   'Li1 Cd1 Ga1 Cu3'
_cell_volume   88.19242000
_cell_formula_units_Z   1
loop_
 _symmetry_equiv_pos_site_id
 _symmetry_equiv_pos_as_xyz
  1  'x, y, z'
loop_
 _atom_site_type_symbol
 _atom_site_label
 _atom_site_symmetry_multiplicity
 _atom_site_fract_x
 _atom_site_fract_y
 _atom_site_fract_z
 _atom_site_occupancy
  Li  Li0  1  0.750524  0.748429  0.750524  1
  Cd  Cd1  1  0.997973  0.006080  0.997973  1
  Ga  Ga2  1  0.375815  0.872556  0.375815  1
  Cu  Cu3  1  0.375594  0.374313  0.375594  1
  Cu  Cu4  1  0.874500  0.374313  0.375594  1
  Cu  Cu5  1  0.375594  0.374313  0.874500  1
