# generated using pymatgen
data_ErNp3O10
_symmetry_space_group_name_H-M   'P 1'
_cell_length_a   5.70632367
_cell_length_b   5.73899852
_cell_length_c   7.83377489
_cell_angle_alpha   69.66808201
_cell_angle_beta   70.94040330
_cell_angle_gamma   73.04309019
_symmetry_Int_Tables_number   1
_chemical_formula_structural   ErNp3O10
_chemical_formula_sum   'Er1 Np3 O10'
_cell_volume   222.73064080
_cell_formula_units_Z   1
loop_
 _symmetry_equiv_pos_site_id
 _symmetry_equiv_pos_as_xyz
  1  'x, y, z'
loop_
 _atom_site_type_symbol
 _atom_site_label
 _atom_site_symmetry_multiplicity
 _atom_site_fract_x
 _atom_site_fract_y
 _atom_site_fract_z
 _atom_site_occupancy
  Er  Er0  1  0.500000  0.500000  0.500000  1
  Np  Np1  1  0.966580  0.028991  0.266465  1
  Np  Np2  1  0.500000  0.500000  0.000000  1
  Np  Np3  1  0.033420  0.971009  0.733535  1
  O  O4  1  0.393266  0.598649  0.765503  1
  O  O5  1  0.259760  0.194119  0.631902  1
  O  O6  1  0.740240  0.805881  0.368098  1
  O  O7  1  0.195079  0.254335  0.148946  1
  O  O8  1  0.606734  0.401351  0.234497  1
  O  O9  1  0.804921  0.745665  0.851054  1
  O  O10  1  0.219879  0.796189  0.050712  1
  O  O11  1  0.824903  0.190123  0.531765  1
  O  O12  1  0.780121  0.203811  0.949288  1
  O  O13  1  0.175097  0.809877  0.468235  1
