# generated using pymatgen
data_Tb12ZnGaCo4
_symmetry_space_group_name_H-M   'P 1'
_cell_length_a   8.32368578
_cell_length_b   8.32368671
_cell_length_c   8.32368610
_cell_angle_alpha   112.01964232
_cell_angle_beta   109.35933208
_cell_angle_gamma   107.07265317
_symmetry_Int_Tables_number   1
_chemical_formula_structural   Tb12ZnGaCo4
_chemical_formula_sum   'Tb12 Zn1 Ga1 Co4'
_cell_volume   443.11049635
_cell_formula_units_Z   1
loop_
 _symmetry_equiv_pos_site_id
 _symmetry_equiv_pos_as_xyz
  1  'x, y, z'
loop_
 _atom_site_type_symbol
 _atom_site_label
 _atom_site_symmetry_multiplicity
 _atom_site_fract_x
 _atom_site_fract_y
 _atom_site_fract_z
 _atom_site_occupancy
  Tb  Tb0  1  0.039967  0.736315  0.303651  1
  Tb  Tb1  1  0.960033  0.263685  0.696349  1
  Tb  Tb2  1  0.567335  0.263685  0.303651  1
  Tb  Tb3  1  0.432665  0.736315  0.696349  1
  Tb  Tb4  1  0.673759  0.862409  0.188650  1
  Tb  Tb5  1  0.326241  0.514891  0.188650  1
  Tb  Tb6  1  0.326241  0.137591  0.811350  1
  Tb  Tb7  1  0.673759  0.485109  0.811350  1
  Tb  Tb8  1  0.179810  0.218595  0.398405  1
  Tb  Tb9  1  0.820190  0.218595  0.038785  1
  Tb  Tb10  1  0.179810  0.781405  0.961215  1
  Tb  Tb11  1  0.820190  0.781405  0.601595  1
  Zn  Zn12  1  0.000000  0.500000  0.500000  1
  Ga  Ga13  1  0.500000  0.000000  0.500000  1
  Co  Co14  1  0.661750  0.500000  0.161750  1
  Co  Co15  1  0.338250  0.500000  0.838250  1
  Co  Co16  1  0.885559  0.885559  0.000000  1
  Co  Co17  1  0.114441  0.114441  0.000000  1
