# generated using pymatgen
data_Nd16Mg2Cd2Ni3Ru
_symmetry_space_group_name_H-M   'P 1'
_cell_length_a   9.95815511
_cell_length_b   9.95815491
_cell_length_c   9.96516618
_cell_angle_alpha   59.57414737
_cell_angle_beta   59.57414979
_cell_angle_gamma   59.47042352
_symmetry_Int_Tables_number   1
_chemical_formula_structural   Nd16Mg2Cd2Ni3Ru
_chemical_formula_sum   'Nd16 Mg2 Cd2 Ni3 Ru1'
_cell_volume   691.44212749
_cell_formula_units_Z   1
loop_
 _symmetry_equiv_pos_site_id
 _symmetry_equiv_pos_as_xyz
  1  'x, y, z'
loop_
 _atom_site_type_symbol
 _atom_site_label
 _atom_site_symmetry_multiplicity
 _atom_site_fract_x
 _atom_site_fract_y
 _atom_site_fract_z
 _atom_site_occupancy
  Nd  Nd0  1  0.597382  0.597382  0.597186  1
  Nd  Nd1  1  0.597646  0.597646  0.209307  1
  Nd  Nd2  1  0.596900  0.211384  0.597378  1
  Nd  Nd3  1  0.211384  0.596900  0.597378  1
  Nd  Nd4  1  0.061514  0.438636  0.438158  1
  Nd  Nd5  1  0.436626  0.059747  0.059979  1
  Nd  Nd6  1  0.438636  0.061514  0.438158  1
  Nd  Nd7  1  0.059747  0.436626  0.059979  1
  Nd  Nd8  1  0.439881  0.439881  0.060016  1
  Nd  Nd9  1  0.061050  0.061050  0.435850  1
  Nd  Nd10  1  0.187354  0.815201  0.814664  1
  Nd  Nd11  1  0.807216  0.189402  0.187396  1
  Nd  Nd12  1  0.815201  0.187354  0.814664  1
  Nd  Nd13  1  0.189402  0.807216  0.187396  1
  Nd  Nd14  1  0.815544  0.815544  0.186032  1
  Nd  Nd15  1  0.188777  0.188777  0.806284  1
  Mg  Mg16  1  0.825854  0.825854  0.829042  1
  Mg  Mg17  1  0.825883  0.825883  0.517727  1
  Cd  Cd18  1  0.830659  0.508273  0.829961  1
  Cd  Cd19  1  0.508273  0.830659  0.829961  1
  Ni  Ni20  1  0.393796  0.393796  0.825174  1
  Ni  Ni21  1  0.393883  0.825276  0.393356  1
  Ni  Ni22  1  0.825276  0.393883  0.393356  1
  Ru  Ru23  1  0.392117  0.392117  0.391598  1
