# generated using pymatgen
data_Tb8Y3ThCo4
_symmetry_space_group_name_H-M   'P 1'
_cell_length_a   6.28541952
_cell_length_b   6.93299018
_cell_length_c   9.56127895
_cell_angle_alpha   89.97796211
_cell_angle_beta   90.04647132
_cell_angle_gamma   91.20772835
_symmetry_Int_Tables_number   1
_chemical_formula_structural   Tb8Y3ThCo4
_chemical_formula_sum   'Tb8 Y3 Th1 Co4'
_cell_volume   416.55675633
_cell_formula_units_Z   1
loop_
 _symmetry_equiv_pos_site_id
 _symmetry_equiv_pos_as_xyz
  1  'x, y, z'
loop_
 _atom_site_type_symbol
 _atom_site_label
 _atom_site_symmetry_multiplicity
 _atom_site_fract_x
 _atom_site_fract_y
 _atom_site_fract_z
 _atom_site_occupancy
  Tb  Tb0  1  0.823928  0.827343  0.930062  1
  Tb  Tb1  1  0.677219  0.325543  0.931273  1
  Tb  Tb2  1  0.823765  0.826962  0.570027  1
  Tb  Tb3  1  0.326381  0.674155  0.432690  1
  Tb  Tb4  1  0.171838  0.175784  0.069827  1
  Tb  Tb5  1  0.640767  0.046220  0.249879  1
  Tb  Tb6  1  0.143011  0.453119  0.749773  1
  Tb  Tb7  1  0.359707  0.955022  0.749952  1
  Y  Y8  1  0.327000  0.674209  0.066777  1
  Y  Y9  1  0.172109  0.175694  0.430639  1
  Y  Y10  1  0.676571  0.325268  0.568374  1
  Th  Th11  1  0.846150  0.557488  0.249908  1
  Co  Co12  1  0.042914  0.869896  0.249851  1
  Co  Co13  1  0.469027  0.391004  0.250361  1
  Co  Co14  1  0.952808  0.111542  0.749910  1
  Co  Co15  1  0.546806  0.610752  0.750697  1
