# generated using pymatgen
data_Ho5Th3MgZnRu2
_symmetry_space_group_name_H-M   'P 1'
_cell_length_a   9.63367082
_cell_length_b   9.70380755
_cell_length_c   9.72137325
_cell_angle_alpha   59.46306418
_cell_angle_beta   60.17775831
_cell_angle_gamma   60.22430639
_symmetry_Int_Tables_number   1
_chemical_formula_structural   Ho5Th3MgZnRu2
_chemical_formula_sum   'Ho10 Th6 Mg2 Zn2 Ru4'
_cell_volume   641.88254697
_cell_formula_units_Z   2
loop_
 _symmetry_equiv_pos_site_id
 _symmetry_equiv_pos_as_xyz
  1  'x, y, z'
loop_
 _atom_site_type_symbol
 _atom_site_label
 _atom_site_symmetry_multiplicity
 _atom_site_fract_x
 _atom_site_fract_y
 _atom_site_fract_z
 _atom_site_occupancy
  Ho  Ho0  1  0.190820  0.808943  0.191194  1
  Ho  Ho1  1  0.808943  0.190820  0.809043  1
  Ho  Ho2  1  0.189834  0.189834  0.810166  1
  Ho  Ho3  1  0.806268  0.806268  0.193732  1
  Ho  Ho4  1  0.927988  0.567059  0.568937  1
  Ho  Ho5  1  0.567059  0.927988  0.936017  1
  Ho  Ho6  1  0.561949  0.933150  0.564175  1
  Ho  Ho7  1  0.933150  0.561949  0.940726  1
  Ho  Ho8  1  0.562899  0.562899  0.937101  1
  Ho  Ho9  1  0.936695  0.936695  0.563305  1
  Th  Th10  1  0.342673  0.352420  0.349414  1
  Th  Th11  1  0.352420  0.342673  0.955493  1
  Th  Th12  1  0.355201  0.950107  0.343089  1
  Th  Th13  1  0.950107  0.355201  0.351603  1
  Th  Th14  1  0.815257  0.184942  0.185629  1
  Th  Th15  1  0.184942  0.815257  0.814172  1
  Mg  Mg16  1  0.577916  0.269246  0.578232  1
  Mg  Mg17  1  0.269246  0.577916  0.574607  1
  Zn  Zn18  1  0.585954  0.581177  0.582427  1
  Zn  Zn19  1  0.581177  0.585954  0.250442  1
  Ru  Ru20  1  0.128761  0.148154  0.149173  1
  Ru  Ru21  1  0.148154  0.128761  0.573910  1
  Ru  Ru22  1  0.147663  0.574921  0.128211  1
  Ru  Ru23  1  0.574921  0.147663  0.149203  1
