# generated using pymatgen
data_TbSm5Zn4Pd13
_symmetry_space_group_name_H-M   'P 1'
_cell_length_a   8.33433280
_cell_length_b   8.33431815
_cell_length_c   8.33431803
_cell_angle_alpha   109.48079976
_cell_angle_beta   109.46640776
_cell_angle_gamma   109.46640887
_symmetry_Int_Tables_number   1
_chemical_formula_structural   TbSm5Zn4Pd13
_chemical_formula_sum   'Tb1 Sm5 Zn4 Pd13'
_cell_volume   445.64529769
_cell_formula_units_Z   1
loop_
 _symmetry_equiv_pos_site_id
 _symmetry_equiv_pos_as_xyz
  1  'x, y, z'
loop_
 _atom_site_type_symbol
 _atom_site_label
 _atom_site_symmetry_multiplicity
 _atom_site_fract_x
 _atom_site_fract_y
 _atom_site_fract_z
 _atom_site_occupancy
  Tb  Tb0  1  0.000000  0.697347  0.697347  1
  Sm  Sm1  1  0.698359  0.698235  0.999876  1
  Sm  Sm2  1  0.301641  0.999877  0.301518  1
  Sm  Sm3  1  0.000000  0.302071  0.302071  1
  Sm  Sm4  1  0.301641  0.301518  0.999877  1
  Sm  Sm5  1  0.698359  0.999876  0.698235  1
  Zn  Zn6  1  0.000000  0.999891  0.500137  1
  Zn  Zn7  1  0.000000  0.500137  0.999891  1
  Zn  Zn8  1  0.499755  0.999892  0.999892  1
  Zn  Zn9  1  0.500246  0.500137  0.500137  1
  Pd  Pd10  1  0.333060  0.333025  0.666086  1
  Pd  Pd11  1  0.666941  0.999966  0.333025  1
  Pd  Pd12  1  0.000000  0.667003  0.333849  1
  Pd  Pd13  1  0.666941  0.333025  0.999966  1
  Pd  Pd14  1  0.333060  0.666086  0.333025  1
  Pd  Pd15  1  0.000000  0.333849  0.667003  1
  Pd  Pd16  1  0.332614  0.667060  0.999673  1
  Pd  Pd17  1  0.332614  0.999673  0.667060  1
  Pd  Pd18  1  0.666847  0.333849  0.333849  1
  Pd  Pd19  1  0.667385  0.667059  0.334444  1
  Pd  Pd20  1  0.667385  0.334444  0.667059  1
  Pd  Pd21  1  0.333153  0.667003  0.667003  1
  Pd  Pd22  1  0.000000  0.998978  0.998978  1
