# generated using pymatgen
data_Th4CuRu3Pb2
_symmetry_space_group_name_H-M   'P 1'
_cell_length_a   7.89241700
_cell_length_b   7.89241749
_cell_length_c   3.82855100
_cell_angle_alpha   90.00000000
_cell_angle_beta   90.00000000
_cell_angle_gamma   88.64299616
_symmetry_Int_Tables_number   1
_chemical_formula_structural   Th4CuRu3Pb2
_chemical_formula_sum   'Th4 Cu1 Ru3 Pb2'
_cell_volume   238.41451484
_cell_formula_units_Z   1
loop_
 _symmetry_equiv_pos_site_id
 _symmetry_equiv_pos_as_xyz
  1  'x, y, z'
loop_
 _atom_site_type_symbol
 _atom_site_label
 _atom_site_symmetry_multiplicity
 _atom_site_fract_x
 _atom_site_fract_y
 _atom_site_fract_z
 _atom_site_occupancy
  Th  Th0  1  0.652018  0.152018  0.500000  1
  Th  Th1  1  0.189389  0.340050  0.500000  1
  Th  Th2  1  0.840050  0.689389  0.500000  1
  Th  Th3  1  0.326023  0.826023  0.500000  1
  Cu  Cu4  1  0.871164  0.371164  0.000000  1
  Ru  Ru5  1  0.361310  0.133355  0.000000  1
  Ru  Ru6  1  0.111813  0.611813  0.000000  1
  Ru  Ru7  1  0.633355  0.861310  0.000000  1
  Pb  Pb8  1  0.001367  0.013510  0.000000  1
  Pb  Pb9  1  0.513510  0.501367  0.000000  1
