# generated using pymatgen
data_YLu2Zn3Si2Pd
_symmetry_space_group_name_H-M   'P 1'
_cell_length_a   6.78645699
_cell_length_b   6.76369184
_cell_length_c   4.24820400
_cell_angle_alpha   90.00000000
_cell_angle_beta   90.00000000
_cell_angle_gamma   119.88909959
_symmetry_Int_Tables_number   1
_chemical_formula_structural   YLu2Zn3Si2Pd
_chemical_formula_sum   'Y1 Lu2 Zn3 Si2 Pd1'
_cell_volume   169.06244746
_cell_formula_units_Z   1
loop_
 _symmetry_equiv_pos_site_id
 _symmetry_equiv_pos_as_xyz
  1  'x, y, z'
loop_
 _atom_site_type_symbol
 _atom_site_label
 _atom_site_symmetry_multiplicity
 _atom_site_fract_x
 _atom_site_fract_y
 _atom_site_fract_z
 _atom_site_occupancy
  Y  Y0  1  0.000000  0.418513  0.000000  1
  Lu  Lu1  1  0.583206  0.583714  0.000000  1
  Lu  Lu2  1  0.416794  0.000509  0.000000  1
  Zn  Zn3  1  0.243560  0.242448  0.500000  1
  Zn  Zn4  1  0.756440  0.998888  0.500000  1
  Zn  Zn5  1  0.000000  0.758113  0.500000  1
  Si  Si6  1  0.337367  0.669261  0.500000  1
  Si  Si7  1  0.662633  0.331893  0.500000  1
  Pd  Pd8  1  0.000000  0.996661  0.000000  1
