# generated using pymatgen
data_Lu5Al2PbO
_symmetry_space_group_name_H-M   'P 1'
_cell_length_a   8.84004654
_cell_length_b   8.84004706
_cell_length_c   8.84004698
_cell_angle_alpha   127.57332922
_cell_angle_beta   127.57332211
_cell_angle_gamma   77.31724695
_symmetry_Int_Tables_number   1
_chemical_formula_structural   Lu5Al2PbO
_chemical_formula_sum   'Lu10 Al4 Pb2 O2'
_cell_volume   421.01024417
_cell_formula_units_Z   2
loop_
 _symmetry_equiv_pos_site_id
 _symmetry_equiv_pos_as_xyz
  1  'x, y, z'
loop_
 _atom_site_type_symbol
 _atom_site_label
 _atom_site_symmetry_multiplicity
 _atom_site_fract_x
 _atom_site_fract_y
 _atom_site_fract_z
 _atom_site_occupancy
  Lu  Lu0  1  0.497918  0.300736  0.500000  1
  Lu  Lu1  1  0.800736  0.997918  0.500000  1
  Lu  Lu2  1  0.997918  0.497918  0.197183  1
  Lu  Lu3  1  0.300736  0.800736  0.802817  1
  Lu  Lu4  1  0.504365  0.701654  0.500000  1
  Lu  Lu5  1  0.201654  0.004365  0.500000  1
  Lu  Lu6  1  0.004365  0.504365  0.802711  1
  Lu  Lu7  1  0.701654  0.201654  0.197289  1
  Lu  Lu8  1  0.501174  0.501174  0.000000  1
  Lu  Lu9  1  0.001174  0.001174  0.000000  1
  Al  Al10  1  0.131965  0.370420  0.500000  1
  Al  Al11  1  0.870420  0.631965  0.500000  1
  Al  Al12  1  0.631965  0.131965  0.761544  1
  Al  Al13  1  0.370420  0.870420  0.238456  1
  Pb  Pb14  1  0.752065  0.752065  0.000000  1
  Pb  Pb15  1  0.252065  0.252065  0.000000  1
  O  O16  1  0.751123  0.251123  0.500000  1
  O  O17  1  0.251123  0.751123  0.500000  1
