# generated using pymatgen
data_Dy2Tm18(Bi3Sb)3
_symmetry_space_group_name_H-M   'P 1'
_cell_length_a   8.12490680
_cell_length_b   9.41619100
_cell_length_c   11.85834694
_cell_angle_alpha   90.00000000
_cell_angle_beta   90.06093906
_cell_angle_gamma   90.00000000
_symmetry_Int_Tables_number   1
_chemical_formula_structural   Dy2Tm18(Bi3Sb)3
_chemical_formula_sum   'Dy2 Tm18 Bi9 Sb3'
_cell_volume   907.23031542
_cell_formula_units_Z   1
loop_
 _symmetry_equiv_pos_site_id
 _symmetry_equiv_pos_as_xyz
  1  'x, y, z'
loop_
 _atom_site_type_symbol
 _atom_site_label
 _atom_site_symmetry_multiplicity
 _atom_site_fract_x
 _atom_site_fract_y
 _atom_site_fract_z
 _atom_site_occupancy
  Dy  Dy0  1  0.683609  0.750000  0.782206  1
  Dy  Dy1  1  0.184091  0.750000  0.717924  1
  Tm  Tm2  1  0.352852  0.750000  0.214245  1
  Tm  Tm3  1  0.853439  0.750000  0.285117  1
  Tm  Tm4  1  0.647072  0.250000  0.785690  1
  Tm  Tm5  1  0.148049  0.250000  0.717583  1
  Tm  Tm6  1  0.689362  0.564542  0.058149  1
  Tm  Tm7  1  0.190778  0.932092  0.441711  1
  Tm  Tm8  1  0.311024  0.064127  0.942512  1
  Tm  Tm9  1  0.808203  0.438183  0.559436  1
  Tm  Tm10  1  0.311024  0.435873  0.942512  1
  Tm  Tm11  1  0.808203  0.061817  0.559436  1
  Tm  Tm12  1  0.689362  0.935458  0.058149  1
  Tm  Tm13  1  0.190778  0.567908  0.441711  1
  Tm  Tm14  1  0.476597  0.250000  0.488249  1
  Tm  Tm15  1  0.973896  0.250000  0.011474  1
  Tm  Tm16  1  0.527763  0.750000  0.511580  1
  Tm  Tm17  1  0.026623  0.750000  0.989160  1
  Tm  Tm18  1  0.317434  0.250000  0.215041  1
  Tm  Tm19  1  0.810201  0.250000  0.279711  1
  Bi  Bi20  1  0.093724  0.250000  0.456586  1
  Bi  Bi21  1  0.565605  0.995507  0.325348  1
  Bi  Bi22  1  0.065997  0.503563  0.174707  1
  Bi  Bi23  1  0.433942  0.494449  0.674294  1
  Bi  Bi24  1  0.934218  0.005030  0.826117  1
  Bi  Bi25  1  0.433942  0.005551  0.674294  1
  Bi  Bi26  1  0.934218  0.494970  0.826117  1
  Bi  Bi27  1  0.565605  0.504493  0.325348  1
  Bi  Bi28  1  0.065997  0.996437  0.174707  1
  Sb  Sb29  1  0.405117  0.750000  0.959351  1
  Sb  Sb30  1  0.905926  0.750000  0.540320  1
  Sb  Sb31  1  0.595351  0.250000  0.041213  1
