# generated using pymatgen
data_La4YIrOs
_symmetry_space_group_name_H-M   'P 1'
_cell_length_a   6.72855486
_cell_length_b   7.35177642
_cell_length_c   9.09424568
_cell_angle_alpha   95.16224769
_cell_angle_beta   111.71159944
_cell_angle_gamma   89.99999463
_symmetry_Int_Tables_number   1
_chemical_formula_structural   La4YIrOs
_chemical_formula_sum   'La8 Y2 Ir2 Os2'
_cell_volume   415.98450366
_cell_formula_units_Z   2
loop_
 _symmetry_equiv_pos_site_id
 _symmetry_equiv_pos_as_xyz
  1  'x, y, z'
loop_
 _atom_site_type_symbol
 _atom_site_label
 _atom_site_symmetry_multiplicity
 _atom_site_fract_x
 _atom_site_fract_y
 _atom_site_fract_z
 _atom_site_occupancy
  La  La0  1  0.976360  0.910950  0.180004  1
  La  La1  1  0.796355  0.589050  0.819996  1
  La  La2  1  0.015874  0.085073  0.818493  1
  La  La3  1  0.197383  0.414927  0.181507  1
  La  La4  1  0.647765  0.817935  0.430448  1
  La  La5  1  0.217316  0.682065  0.569552  1
  La  La6  1  0.358552  0.179373  0.575250  1
  La  La7  1  0.783301  0.320627  0.424750  1
  Y  Y8  1  0.434114  0.750000  0.000000  1
  Y  Y9  1  0.565319  0.250000  0.000000  1
  Ir  Ir10  1  0.183503  0.425101  0.784750  1
  Ir  Ir11  1  0.398754  0.074899  0.215250  1
  Os  Os12  1  0.821104  0.573120  0.216801  1
  Os  Os13  1  0.604302  0.926880  0.783199  1
