# generated using pymatgen
data_Y3Sn2PtRh2Pb
_symmetry_space_group_name_H-M   'P 1'
_cell_length_a   7.69347219
_cell_length_b   7.64266825
_cell_length_c   3.87776600
_cell_angle_alpha   90.00000000
_cell_angle_beta   90.00000000
_cell_angle_gamma   120.15620171
_symmetry_Int_Tables_number   1
_chemical_formula_structural   Y3Sn2PtRh2Pb
_chemical_formula_sum   'Y3 Sn2 Pt1 Rh2 Pb1'
_cell_volume   197.14869039
_cell_formula_units_Z   1
loop_
 _symmetry_equiv_pos_site_id
 _symmetry_equiv_pos_as_xyz
  1  'x, y, z'
loop_
 _atom_site_type_symbol
 _atom_site_label
 _atom_site_symmetry_multiplicity
 _atom_site_fract_x
 _atom_site_fract_y
 _atom_site_fract_z
 _atom_site_occupancy
  Y  Y0  1  0.405620  0.004238  0.500000  1
  Y  Y1  1  0.997884  0.406336  0.500000  1
  Y  Y2  1  0.596268  0.589543  0.500000  1
  Sn  Sn3  1  0.996950  0.738669  0.000000  1
  Sn  Sn4  1  0.262768  0.257489  0.000000  1
  Pt  Pt5  1  0.325103  0.660294  0.000000  1
  Rh  Rh6  1  0.664671  0.339482  0.000000  1
  Rh  Rh7  1  0.009703  0.000067  0.500000  1
  Pb  Pb8  1  0.741032  0.003883  0.000000  1
