# generated using pymatgen
data_CeHoGaRu2
_symmetry_space_group_name_H-M   'P 1'
_cell_length_a   5.70402544
_cell_length_b   5.70402479
_cell_length_c   6.98522300
_cell_angle_alpha   86.19455348
_cell_angle_beta   93.80544609
_cell_angle_gamma   117.60903801
_symmetry_Int_Tables_number   1
_chemical_formula_structural   CeHoGaRu2
_chemical_formula_sum   'Ce2 Ho2 Ga2 Ru4'
_cell_volume   200.78426453
_cell_formula_units_Z   2
loop_
 _symmetry_equiv_pos_site_id
 _symmetry_equiv_pos_as_xyz
  1  'x, y, z'
loop_
 _atom_site_type_symbol
 _atom_site_label
 _atom_site_symmetry_multiplicity
 _atom_site_fract_x
 _atom_site_fract_y
 _atom_site_fract_z
 _atom_site_occupancy
  Ce  Ce0  1  0.168286  0.831714  0.584349  1
  Ce  Ce1  1  0.831714  0.168286  0.415651  1
  Ho  Ho2  1  0.343792  0.656208  0.087517  1
  Ho  Ho3  1  0.656208  0.343792  0.912483  1
  Ga  Ga4  1  0.000000  0.000000  0.000000  1
  Ga  Ga5  1  0.500000  0.500000  0.500000  1
  Ru  Ru6  1  0.865731  0.636197  0.263376  1
  Ru  Ru7  1  0.636197  0.865731  0.736624  1
  Ru  Ru8  1  0.134269  0.363803  0.736624  1
  Ru  Ru9  1  0.363803  0.134269  0.263376  1
