# generated using pymatgen
data_Cd(In3Te5)2
_symmetry_space_group_name_H-M   'P 1'
_cell_length_a   7.81200942
_cell_length_b   7.81200946
_cell_length_c   14.15413275
_cell_angle_alpha   89.96350552
_cell_angle_beta   89.96350631
_cell_angle_gamma   48.49551481
_symmetry_Int_Tables_number   1
_chemical_formula_structural   Cd(In3Te5)2
_chemical_formula_sum   'Cd1 In6 Te10'
_cell_volume   646.89640755
_cell_formula_units_Z   1
loop_
 _symmetry_equiv_pos_site_id
 _symmetry_equiv_pos_as_xyz
  1  'x, y, z'
loop_
 _atom_site_type_symbol
 _atom_site_label
 _atom_site_symmetry_multiplicity
 _atom_site_fract_x
 _atom_site_fract_y
 _atom_site_fract_z
 _atom_site_occupancy
  Cd  Cd0  1  0.901423  0.098577  0.500000  1
  In  In1  1  0.002163  0.189590  0.800580  1
  In  In2  1  0.717190  0.893142  0.898034  1
  In  In3  1  0.810410  0.997837  0.199420  1
  In  In4  1  0.106858  0.282810  0.101966  1
  In  In5  1  0.199815  0.398509  0.402165  1
  In  In6  1  0.601491  0.800185  0.597835  1
  Te  Te7  1  0.765067  0.511190  0.954952  1
  Te  Te8  1  0.124732  0.773036  0.842482  1
  Te  Te9  1  0.226964  0.875268  0.157518  1
  Te  Te10  1  0.488810  0.234933  0.045048  1
  Te  Te11  1  0.586188  0.337008  0.344522  1
  Te  Te12  1  0.862718  0.610714  0.253421  1
  Te  Te13  1  0.031639  0.677329  0.566965  1
  Te  Te14  1  0.322671  0.968361  0.433035  1
  Te  Te15  1  0.389286  0.137282  0.746579  1
  Te  Te16  1  0.662992  0.413812  0.655478  1
