# generated using pymatgen
data_Zn4In8CoIr3
_symmetry_space_group_name_H-M   'P 1'
_cell_length_a   6.79910006
_cell_length_b   6.79909932
_cell_length_c   7.33050500
_cell_angle_alpha   90.00000000
_cell_angle_beta   90.00000000
_cell_angle_gamma   89.99012359
_symmetry_Int_Tables_number   1
_chemical_formula_structural   Zn4In8CoIr3
_chemical_formula_sum   'Zn4 In8 Co1 Ir3'
_cell_volume   338.87279576
_cell_formula_units_Z   1
loop_
 _symmetry_equiv_pos_site_id
 _symmetry_equiv_pos_as_xyz
  1  'x, y, z'
loop_
 _atom_site_type_symbol
 _atom_site_label
 _atom_site_symmetry_multiplicity
 _atom_site_fract_x
 _atom_site_fract_y
 _atom_site_fract_z
 _atom_site_occupancy
  Zn  Zn0  1  0.005404  0.495516  0.000000  1
  Zn  Zn1  1  0.495516  0.005404  0.000000  1
  Zn  Zn2  1  0.999379  0.498865  0.500000  1
  Zn  Zn3  1  0.498865  0.999379  0.500000  1
  In  In4  1  0.330001  0.330001  0.261981  1
  In  In5  1  0.167672  0.841553  0.771910  1
  In  In6  1  0.167672  0.841553  0.228090  1
  In  In7  1  0.841553  0.167672  0.228090  1
  In  In8  1  0.841553  0.167672  0.771910  1
  In  In9  1  0.662848  0.662848  0.267077  1
  In  In10  1  0.662848  0.662848  0.732923  1
  In  In11  1  0.330001  0.330001  0.738019  1
  Co  Co12  1  0.154465  0.154465  0.000000  1
  Ir  Ir13  1  0.654751  0.341488  0.500000  1
  Ir  Ir14  1  0.341488  0.654751  0.500000  1
  Ir  Ir15  1  0.845987  0.845987  0.000000  1
