# generated using pymatgen
data_Dy(Tm3In2)3
_symmetry_space_group_name_H-M   'P 1'
_cell_length_a   9.04586702
_cell_length_b   9.04586640
_cell_length_c   9.04833269
_cell_angle_alpha   96.43500274
_cell_angle_beta   96.46230858
_cell_angle_gamma   140.83343738
_symmetry_Int_Tables_number   1
_chemical_formula_structural   Dy(Tm3In2)3
_chemical_formula_sum   'Dy1 Tm9 In6'
_cell_volume   440.58797832
_cell_formula_units_Z   1
loop_
 _symmetry_equiv_pos_site_id
 _symmetry_equiv_pos_as_xyz
  1  'x, y, z'
loop_
 _atom_site_type_symbol
 _atom_site_label
 _atom_site_symmetry_multiplicity
 _atom_site_fract_x
 _atom_site_fract_y
 _atom_site_fract_z
 _atom_site_occupancy
  Dy  Dy0  1  0.081935  0.781828  0.863763  1
  Tm  Tm1  1  0.717726  0.418945  0.136671  1
  Tm  Tm2  1  0.282691  0.581066  0.863757  1
  Tm  Tm3  1  0.581607  0.717662  0.299268  1
  Tm  Tm4  1  0.217445  0.081728  0.299172  1
  Tm  Tm5  1  0.917998  0.217705  0.135703  1
  Tm  Tm6  1  0.750032  0.249737  0.499711  1
  Tm  Tm7  1  0.249974  0.749679  0.499711  1
  Tm  Tm8  1  0.782276  0.918812  0.701089  1
  Tm  Tm9  1  0.417992  0.282584  0.700577  1
  In  In10  1  0.837757  0.661625  0.499383  1
  In  In11  1  0.338935  0.838328  0.177263  1
  In  In12  1  0.749861  0.750396  0.000303  1
  In  In13  1  0.662007  0.161517  0.823524  1
  In  In14  1  0.161857  0.337946  0.499803  1
  In  In15  1  0.249907  0.250442  0.000303  1
