# generated using pymatgen
data_TaGa2Sb(SeO3)8
_symmetry_space_group_name_H-M   'P 1'
_cell_length_a   8.22930327
_cell_length_b   8.18496511
_cell_length_c   8.21717640
_cell_angle_alpha   89.05270677
_cell_angle_beta   90.24475966
_cell_angle_gamma   90.20382093
_symmetry_Int_Tables_number   1
_chemical_formula_structural   TaGa2Sb(SeO3)8
_chemical_formula_sum   'Ta1 Ga2 Sb1 Se8 O24'
_cell_volume   553.39667576
_cell_formula_units_Z   1
loop_
 _symmetry_equiv_pos_site_id
 _symmetry_equiv_pos_as_xyz
  1  'x, y, z'
loop_
 _atom_site_type_symbol
 _atom_site_label
 _atom_site_symmetry_multiplicity
 _atom_site_fract_x
 _atom_site_fract_y
 _atom_site_fract_z
 _atom_site_occupancy
  Ta  Ta0  1  0.000000  0.000000  0.500000  1
  Ga  Ga1  1  0.000000  0.500000  0.000000  1
  Ga  Ga2  1  0.500000  0.500000  0.500000  1
  Sb  Sb3  1  0.500000  0.000000  0.000000  1
  Se  Se4  1  0.326127  0.658568  0.173982  1
  Se  Se5  1  0.817320  0.352085  0.319944  1
  Se  Se6  1  0.656171  0.814658  0.673328  1
  Se  Se7  1  0.171501  0.187934  0.844337  1
  Se  Se8  1  0.673873  0.341432  0.826018  1
  Se  Se9  1  0.182680  0.647915  0.680056  1
  Se  Se10  1  0.343829  0.185342  0.326672  1
  Se  Se11  1  0.828499  0.812066  0.155663  1
  O  O12  1  0.239092  0.533550  0.033774  1
  O  O13  1  0.738564  0.476137  0.465177  1
  O  O14  1  0.767895  0.956105  0.556859  1
  O  O15  1  0.257915  0.031383  0.971506  1
  O  O16  1  0.522508  0.960617  0.758319  1
  O  O17  1  0.463560  0.526851  0.261215  1
  O  O18  1  0.963436  0.479432  0.238987  1
  O  O19  1  0.046185  0.059276  0.731502  1
  O  O20  1  0.944919  0.228778  0.447424  1
  O  O21  1  0.529379  0.743219  0.527908  1
  O  O22  1  0.469201  0.759819  0.038244  1
  O  O23  1  0.035892  0.257684  0.980880  1
  O  O24  1  0.760908  0.466450  0.966226  1
  O  O25  1  0.261436  0.523863  0.534823  1
  O  O26  1  0.232105  0.043895  0.443141  1
  O  O27  1  0.742085  0.968617  0.028494  1
  O  O28  1  0.477492  0.039383  0.241681  1
  O  O29  1  0.536440  0.473149  0.738785  1
  O  O30  1  0.036564  0.520568  0.761013  1
  O  O31  1  0.953815  0.940724  0.268498  1
  O  O32  1  0.055081  0.771222  0.552576  1
  O  O33  1  0.470621  0.256781  0.472092  1
  O  O34  1  0.530799  0.240181  0.961756  1
  O  O35  1  0.964108  0.742316  0.019120  1
