# generated using pymatgen
data_Tb4CoTc3B16
_symmetry_space_group_name_H-M   'P 1'
_cell_length_a   3.56617900
_cell_length_b   5.97010818
_cell_length_c   11.55812528
_cell_angle_alpha   89.92808052
_cell_angle_beta   90.00000000
_cell_angle_gamma   90.00000000
_symmetry_Int_Tables_number   1
_chemical_formula_structural   Tb4CoTc3B16
_chemical_formula_sum   'Tb4 Co1 Tc3 B16'
_cell_volume   246.07777650
_cell_formula_units_Z   1
loop_
 _symmetry_equiv_pos_site_id
 _symmetry_equiv_pos_as_xyz
  1  'x, y, z'
loop_
 _atom_site_type_symbol
 _atom_site_label
 _atom_site_symmetry_multiplicity
 _atom_site_fract_x
 _atom_site_fract_y
 _atom_site_fract_z
 _atom_site_occupancy
  Tb  Tb0  1  0.500000  0.374913  0.146915  1
  Tb  Tb1  1  0.500000  0.628043  0.851659  1
  Tb  Tb2  1  0.500000  0.127261  0.652273  1
  Tb  Tb3  1  0.500000  0.872853  0.346879  1
  Co  Co4  1  0.500000  0.862806  0.091746  1
  Tc  Tc5  1  0.500000  0.367624  0.412223  1
  Tc  Tc6  1  0.500000  0.631103  0.585783  1
  Tc  Tc7  1  0.500000  0.132230  0.913912  1
  B  B8  1  0.000000  0.111864  0.047469  1
  B  B9  1  0.000000  0.886441  0.954210  1
  B  B10  1  0.000000  0.386726  0.546649  1
  B  B11  1  0.000000  0.613452  0.452231  1
  B  B12  1  0.000000  0.135588  0.468197  1
  B  B13  1  0.000000  0.864189  0.531061  1
  B  B14  1  0.000000  0.364697  0.969867  1
  B  B15  1  0.000000  0.638743  0.032538  1
  B  B16  1  0.000000  0.024031  0.190637  1
  B  B17  1  0.000000  0.973650  0.809350  1
  B  B18  1  0.000000  0.476408  0.692442  1
  B  B19  1  0.000000  0.526214  0.306405  1
  B  B20  1  0.000000  0.213227  0.313506  1
  B  B21  1  0.000000  0.785150  0.685749  1
  B  B22  1  0.000000  0.285381  0.816077  1
  B  B23  1  0.000000  0.717407  0.182222  1
