# generated using pymatgen
data_TaNb5Co4(ReC)2
_symmetry_space_group_name_H-M   'P 1'
_cell_length_a   8.16248977
_cell_length_b   8.16248947
_cell_length_c   8.16619077
_cell_angle_alpha   60.02564832
_cell_angle_beta   60.02564810
_cell_angle_gamma   60.03049962
_symmetry_Int_Tables_number   1
_chemical_formula_structural   TaNb5Co4(ReC)2
_chemical_formula_sum   'Ta2 Nb10 Co8 Re4 C4'
_cell_volume   384.96225160
_cell_formula_units_Z   2
loop_
 _symmetry_equiv_pos_site_id
 _symmetry_equiv_pos_as_xyz
  1  'x, y, z'
loop_
 _atom_site_type_symbol
 _atom_site_label
 _atom_site_symmetry_multiplicity
 _atom_site_fract_x
 _atom_site_fract_y
 _atom_site_fract_z
 _atom_site_occupancy
  Ta  Ta0  1  0.693757  0.305951  0.693843  1
  Ta  Ta1  1  0.944049  0.556243  0.556157  1
  Nb  Nb2  1  0.556230  0.943519  0.943778  1
  Nb  Nb3  1  0.943151  0.556659  0.943276  1
  Nb  Nb4  1  0.556768  0.556586  0.943561  1
  Nb  Nb5  1  0.943426  0.943163  0.556509  1
  Nb  Nb6  1  0.693414  0.693232  0.306439  1
  Nb  Nb7  1  0.306737  0.693050  0.693439  1
  Nb  Nb8  1  0.693341  0.306849  0.306724  1
  Nb  Nb9  1  0.306837  0.306574  0.693491  1
  Nb  Nb10  1  0.556950  0.943263  0.556561  1
  Nb  Nb11  1  0.306481  0.693770  0.306222  1
  Co  Co12  1  0.325353  0.326310  0.326039  1
  Co  Co13  1  0.227615  0.924199  0.924091  1
  Co  Co14  1  0.923826  0.228444  0.923313  1
  Co  Co15  1  0.924038  0.923499  0.228325  1
  Co  Co16  1  0.325801  0.022385  0.325909  1
  Co  Co17  1  0.326501  0.325962  0.021675  1
  Co  Co18  1  0.021556  0.326174  0.326687  1
  Co  Co19  1  0.923690  0.924647  0.923961  1
  Re  Re20  1  0.125330  0.124670  0.125000  1
  Re  Re21  1  0.624674  0.125368  0.124461  1
  Re  Re22  1  0.124632  0.625326  0.125539  1
  Re  Re23  1  0.124004  0.125996  0.625000  1
  C  C24  1  0.627131  0.622869  0.625000  1
  C  C25  1  0.124062  0.624537  0.624727  1
  C  C26  1  0.625463  0.125938  0.625273  1
  C  C27  1  0.625182  0.624818  0.125000  1
