# generated using pymatgen
data_Pr10Nd2Ir3AuBr12
_symmetry_space_group_name_H-M   'P 1'
_cell_length_a   10.65019670
_cell_length_b   10.65418034
_cell_length_c   10.65466939
_cell_angle_alpha   109.89164453
_cell_angle_beta   109.72157449
_cell_angle_gamma   109.77006473
_symmetry_Int_Tables_number   1
_chemical_formula_structural   Pr10Nd2Ir3AuBr12
_chemical_formula_sum   'Pr10 Nd2 Ir3 Au1 Br12'
_cell_volume   919.36311684
_cell_formula_units_Z   1
loop_
 _symmetry_equiv_pos_site_id
 _symmetry_equiv_pos_as_xyz
  1  'x, y, z'
loop_
 _atom_site_type_symbol
 _atom_site_label
 _atom_site_symmetry_multiplicity
 _atom_site_fract_x
 _atom_site_fract_y
 _atom_site_fract_z
 _atom_site_occupancy
  Pr  Pr0  1  0.750009  0.014462  0.485554  1
  Pr  Pr1  1  0.230728  0.471912  0.493258  1
  Pr  Pr2  1  0.266301  0.749670  0.233573  1
  Pr  Pr3  1  0.028209  0.269367  0.006781  1
  Pr  Pr4  1  0.006457  0.028094  0.269131  1
  Pr  Pr5  1  0.485651  0.750098  0.014648  1
  Pr  Pr6  1  0.493444  0.230887  0.471840  1
  Pr  Pr7  1  0.014130  0.485351  0.749529  1
  Pr  Pr8  1  0.269471  0.006940  0.028227  1
  Pr  Pr9  1  0.234001  0.266555  0.750420  1
  Nd  Nd10  1  0.471247  0.493020  0.230267  1
  Nd  Nd11  1  0.749979  0.233203  0.266720  1
  Ir  Ir12  1  0.501644  0.999424  0.250014  1
  Ir  Ir13  1  0.998311  0.249987  0.500599  1
  Ir  Ir14  1  0.250560  0.501136  0.999464  1
  Au  Au15  1  0.250581  0.250588  0.250018  1
  Br  Br16  1  0.249942  0.755573  0.744419  1
  Br  Br17  1  0.506885  0.502357  0.752275  1
  Br  Br18  1  0.993158  0.747741  0.997654  1
  Br  Br19  1  0.744430  0.250012  0.755515  1
  Br  Br20  1  0.997737  0.993167  0.747759  1
  Br  Br21  1  0.249962  0.997889  0.502062  1
  Br  Br22  1  0.751895  0.506392  0.501376  1
  Br  Br23  1  0.502562  0.250639  0.998916  1
  Br  Br24  1  0.755071  0.743936  0.250074  1
  Br  Br25  1  0.747741  0.998222  0.993623  1
  Br  Br26  1  0.997525  0.501693  0.250002  1
  Br  Br27  1  0.502368  0.751683  0.506286  1
