# generated using pymatgen
data_Cs4K2YErBi4
_symmetry_space_group_name_H-M   'P 1'
_cell_length_a   10.61819908
_cell_length_b   10.61820145
_cell_length_c   10.61820095
_cell_angle_alpha   132.97298746
_cell_angle_beta   66.09153797
_cell_angle_gamma   136.35444314
_symmetry_Int_Tables_number   1
_chemical_formula_structural   Cs4K2YErBi4
_chemical_formula_sum   'Cs4 K2 Y1 Er1 Bi4'
_cell_volume   595.31857464
_cell_formula_units_Z   1
loop_
 _symmetry_equiv_pos_site_id
 _symmetry_equiv_pos_as_xyz
  1  'x, y, z'
loop_
 _atom_site_type_symbol
 _atom_site_label
 _atom_site_symmetry_multiplicity
 _atom_site_fract_x
 _atom_site_fract_y
 _atom_site_fract_z
 _atom_site_occupancy
  Cs  Cs0  1  0.819909  0.258143  0.075545  1
  Cs  Cs1  1  0.680091  0.755635  0.438235  1
  Cs  Cs2  1  0.317401  0.241856  0.561765  1
  Cs  Cs3  1  0.182599  0.744364  0.924455  1
  K  K4  1  0.250001  0.250001  0.000000  1
  K  K5  1  0.750000  0.750000  0.000000  1
  Y  Y6  1  0.750001  0.250001  0.500000  1
  Er  Er7  1  0.250001  0.750001  0.500000  1
  Bi  Bi8  1  0.401502  0.794665  0.199581  1
  Bi  Bi9  1  0.098498  0.298080  0.393163  1
  Bi  Bi10  1  0.904917  0.705335  0.606837  1
  Bi  Bi11  1  0.595083  0.201920  0.800419  1
