# generated using pymatgen
data_NdEr5Al24Os5Pt3
_symmetry_space_group_name_H-M   'P 1'
_cell_length_a   8.82548465
_cell_length_b   8.83075580
_cell_length_c   9.55146567
_cell_angle_alpha   90.12505056
_cell_angle_beta   89.73912065
_cell_angle_gamma   119.54614619
_symmetry_Int_Tables_number   1
_chemical_formula_structural   NdEr5Al24Os5Pt3
_chemical_formula_sum   'Nd1 Er5 Al24 Os5 Pt3'
_cell_volume   647.59076639
_cell_formula_units_Z   1
loop_
 _symmetry_equiv_pos_site_id
 _symmetry_equiv_pos_as_xyz
  1  'x, y, z'
loop_
 _atom_site_type_symbol
 _atom_site_label
 _atom_site_symmetry_multiplicity
 _atom_site_fract_x
 _atom_site_fract_y
 _atom_site_fract_z
 _atom_site_occupancy
  Nd  Nd0  1  0.186361  0.377235  0.249755  1
  Er  Er1  1  0.812539  0.615968  0.748934  1
  Er  Er2  1  0.609768  0.813284  0.252326  1
  Er  Er3  1  0.388267  0.186620  0.747780  1
  Er  Er4  1  0.196664  0.809173  0.251874  1
  Er  Er5  1  0.804789  0.192214  0.748304  1
  Al  Al6  1  0.335403  0.672085  0.027310  1
  Al  Al7  1  0.665138  0.329249  0.968398  1
  Al  Al8  1  0.669196  0.331957  0.530023  1
  Al  Al9  1  0.330367  0.669065  0.473684  1
  Al  Al10  1  0.157894  0.325678  0.577295  1
  Al  Al11  1  0.841970  0.674776  0.426081  1
  Al  Al12  1  0.673829  0.841181  0.575678  1
  Al  Al13  1  0.837088  0.676379  0.077181  1
  Al  Al14  1  0.327247  0.158568  0.426254  1
  Al  Al15  1  0.163465  0.323768  0.919415  1
  Al  Al16  1  0.163659  0.835639  0.577164  1
  Al  Al17  1  0.326437  0.157947  0.074705  1
  Al  Al18  1  0.834231  0.164206  0.425248  1
  Al  Al19  1  0.675089  0.841681  0.923204  1
  Al  Al20  1  0.829905  0.158357  0.076677  1
  Al  Al21  1  0.168432  0.841455  0.921323  1
  Al  Al22  1  0.560605  0.125332  0.249967  1
  Al  Al23  1  0.440338  0.876124  0.750116  1
  Al  Al24  1  0.873415  0.438818  0.253125  1
  Al  Al25  1  0.126222  0.562824  0.747637  1
  Al  Al26  1  0.564623  0.437321  0.249841  1
  Al  Al27  1  0.438913  0.564032  0.750203  1
  Al  Al28  1  0.992950  0.993964  0.250298  1
  Al  Al29  1  0.001994  0.997908  0.749806  1
  Os  Os30  1  0.500329  0.000817  0.999658  1
  Os  Os31  1  0.500140  0.000564  0.500310  1
  Os  Os32  1  0.998891  0.500931  0.501935  1
  Os  Os33  1  0.000220  0.000382  0.999727  1
  Os  Os34  1  0.000103  0.000581  0.500379  1
  Pt  Pt35  1  0.999041  0.501178  0.998340  1
  Pt  Pt36  1  0.502620  0.501407  0.998755  1
  Pt  Pt37  1  0.501857  0.501333  0.501288  1
