# generated using pymatgen
data_Pr5Er3(Si3Pt)4
_symmetry_space_group_name_H-M   'P 1'
_cell_length_a   8.21397700
_cell_length_b   8.21397747
_cell_length_c   8.45613300
_cell_angle_alpha   90.00000000
_cell_angle_beta   90.00000000
_cell_angle_gamma   120.00000214
_symmetry_Int_Tables_number   1
_chemical_formula_structural   Pr5Er3(Si3Pt)4
_chemical_formula_sum   'Pr5 Er3 Si12 Pt4'
_cell_volume   494.09381446
_cell_formula_units_Z   1
loop_
 _symmetry_equiv_pos_site_id
 _symmetry_equiv_pos_as_xyz
  1  'x, y, z'
loop_
 _atom_site_type_symbol
 _atom_site_label
 _atom_site_symmetry_multiplicity
 _atom_site_fract_x
 _atom_site_fract_y
 _atom_site_fract_z
 _atom_site_occupancy
  Pr  Pr0  1  0.000000  0.000000  0.250000  1
  Pr  Pr1  1  0.000000  0.000000  0.750000  1
  Pr  Pr2  1  0.498365  0.501635  0.250000  1
  Pr  Pr3  1  0.498365  0.996730  0.250000  1
  Pr  Pr4  1  0.003270  0.501635  0.250000  1
  Er  Er5  1  0.502046  0.497954  0.750000  1
  Er  Er6  1  0.995909  0.497954  0.750000  1
  Er  Er7  1  0.502046  0.004091  0.750000  1
  Si  Si8  1  0.833558  0.166442  0.504601  1
  Si  Si9  1  0.833558  0.667118  0.504601  1
  Si  Si10  1  0.332882  0.166442  0.504601  1
  Si  Si11  1  0.833558  0.166442  0.995399  1
  Si  Si12  1  0.833558  0.667118  0.995399  1
  Si  Si13  1  0.332882  0.166442  0.995399  1
  Si  Si14  1  0.166349  0.833651  0.994680  1
  Si  Si15  1  0.667303  0.833651  0.994680  1
  Si  Si16  1  0.166349  0.332697  0.994680  1
  Si  Si17  1  0.166349  0.833651  0.505320  1
  Si  Si18  1  0.667303  0.833651  0.505320  1
  Si  Si19  1  0.166349  0.332697  0.505320  1
  Pt  Pt20  1  0.666667  0.333333  0.514472  1
  Pt  Pt21  1  0.666667  0.333333  0.985528  1
  Pt  Pt22  1  0.333333  0.666667  0.974391  1
  Pt  Pt23  1  0.333333  0.666667  0.525609  1
