# generated using pymatgen
data_Lu7Sc(Si4W3)4
_symmetry_space_group_name_H-M   'P 1'
_cell_length_a   6.68076015
_cell_length_b   6.87284393
_cell_length_c   12.79537984
_cell_angle_alpha   90.05800567
_cell_angle_beta   89.98017591
_cell_angle_gamma   90.01359975
_symmetry_Int_Tables_number   1
_chemical_formula_structural   Lu7Sc(Si4W3)4
_chemical_formula_sum   'Lu7 Sc1 Si16 W12'
_cell_volume   587.51002763
_cell_formula_units_Z   1
loop_
 _symmetry_equiv_pos_site_id
 _symmetry_equiv_pos_as_xyz
  1  'x, y, z'
loop_
 _atom_site_type_symbol
 _atom_site_label
 _atom_site_symmetry_multiplicity
 _atom_site_fract_x
 _atom_site_fract_y
 _atom_site_fract_z
 _atom_site_occupancy
  Lu  Lu0  1  0.494412  0.668932  0.592631  1
  Lu  Lu1  1  0.994621  0.831381  0.907333  1
  Lu  Lu2  1  0.505339  0.331531  0.092894  1
  Lu  Lu3  1  0.005305  0.167968  0.408386  1
  Lu  Lu4  1  0.505123  0.331142  0.407967  1
  Lu  Lu5  1  0.005396  0.168526  0.092822  1
  Lu  Lu6  1  0.494552  0.669038  0.906191  1
  Sc  Sc7  1  0.993006  0.830586  0.593981  1
  Si  Si8  1  0.665000  0.959866  0.454799  1
  Si  Si9  1  0.163909  0.539546  0.046296  1
  Si  Si10  1  0.336611  0.040097  0.953337  1
  Si  Si11  1  0.837562  0.462996  0.546862  1
  Si  Si12  1  0.331740  0.037299  0.546721  1
  Si  Si13  1  0.835967  0.459871  0.953377  1
  Si  Si14  1  0.663649  0.960115  0.046317  1
  Si  Si15  1  0.163355  0.541856  0.454771  1
  Si  Si16  1  0.464361  0.374439  0.749959  1
  Si  Si17  1  0.964912  0.123560  0.748519  1
  Si  Si18  1  0.536105  0.625640  0.250165  1
  Si  Si19  1  0.035770  0.874430  0.250143  1
  Si  Si20  1  0.699585  0.862410  0.748698  1
  Si  Si21  1  0.194871  0.639242  0.748410  1
  Si  Si22  1  0.302923  0.137534  0.250341  1
  Si  Si23  1  0.803326  0.362694  0.250516  1
  W  W24  1  0.668182  0.163367  0.624797  1
  W  W25  1  0.167914  0.335929  0.874274  1
  W  W26  1  0.331671  0.836767  0.124689  1
  W  W27  1  0.832210  0.664268  0.375794  1
  W  W28  1  0.332065  0.836172  0.374945  1
  W  W29  1  0.831674  0.663684  0.125023  1
  W  W30  1  0.669179  0.162656  0.874777  1
  W  W31  1  0.169045  0.336641  0.624720  1
  W  W32  1  0.832206  0.502547  0.749610  1
  W  W33  1  0.332436  0.997085  0.749059  1
  W  W34  1  0.168101  0.497893  0.250177  1
  W  W35  1  0.667918  0.002295  0.250699  1
