# generated using pymatgen
data_Y4Os6RuW
_symmetry_space_group_name_H-M   'P 1'
_cell_length_a   5.25381157
_cell_length_b   5.25381181
_cell_length_c   9.06488801
_cell_angle_alpha   89.99606783
_cell_angle_beta   90.00393303
_cell_angle_gamma   117.82631450
_symmetry_Int_Tables_number   1
_chemical_formula_structural   Y4Os6RuW
_chemical_formula_sum   'Y4 Os6 Ru1 W1'
_cell_volume   221.28084385
_cell_formula_units_Z   1
loop_
 _symmetry_equiv_pos_site_id
 _symmetry_equiv_pos_as_xyz
  1  'x, y, z'
loop_
 _atom_site_type_symbol
 _atom_site_label
 _atom_site_symmetry_multiplicity
 _atom_site_fract_x
 _atom_site_fract_y
 _atom_site_fract_z
 _atom_site_occupancy
  Y  Y0  1  0.328664  0.671336  0.437491  1
  Y  Y1  1  0.666090  0.333910  0.566964  1
  Y  Y2  1  0.666343  0.333657  0.933388  1
  Y  Y3  1  0.329168  0.670832  0.062715  1
  Os  Os4  1  0.992521  0.007479  0.997161  1
  Os  Os5  1  0.826610  0.650661  0.249127  1
  Os  Os6  1  0.349339  0.173390  0.249127  1
  Os  Os7  1  0.174916  0.825084  0.751674  1
  Os  Os8  1  0.170919  0.336521  0.750224  1
  Os  Os9  1  0.663479  0.829081  0.750224  1
  Ru  Ru10  1  0.991214  0.008786  0.501993  1
  W  W11  1  0.840738  0.159262  0.249911  1
