# generated using pymatgen
data_U2Zn16Ru
_symmetry_space_group_name_H-M   'P 1'
_cell_length_a   6.79491933
_cell_length_b   6.79491856
_cell_length_c   6.79653317
_cell_angle_alpha   83.39321775
_cell_angle_beta   83.39322152
_cell_angle_gamma   84.99495140
_symmetry_Int_Tables_number   1
_chemical_formula_structural   U2Zn16Ru
_chemical_formula_sum   'U2 Zn16 Ru1'
_cell_volume   308.77614496
_cell_formula_units_Z   1
loop_
 _symmetry_equiv_pos_site_id
 _symmetry_equiv_pos_as_xyz
  1  'x, y, z'
loop_
 _atom_site_type_symbol
 _atom_site_label
 _atom_site_symmetry_multiplicity
 _atom_site_fract_x
 _atom_site_fract_y
 _atom_site_fract_z
 _atom_site_occupancy
  U  U0  1  0.627271  0.627271  0.664323  1
  U  U1  1  0.346157  0.346157  0.349172  1
  Zn  Zn2  1  0.350091  0.843235  0.352168  1
  Zn  Zn3  1  0.843235  0.350091  0.352168  1
  Zn  Zn4  1  0.140936  0.655383  0.647923  1
  Zn  Zn5  1  0.649837  0.649837  0.153951  1
  Zn  Zn6  1  0.655383  0.140936  0.647923  1
  Zn  Zn7  1  0.885721  0.885721  0.896585  1
  Zn  Zn8  1  0.104473  0.104473  0.101315  1
  Zn  Zn9  1  0.019472  0.489638  0.003020  1
  Zn  Zn10  1  0.489638  0.019472  0.003020  1
  Zn  Zn11  1  0.999422  0.999422  0.502489  1
  Zn  Zn12  1  0.700821  0.994612  0.299985  1
  Zn  Zn13  1  0.008455  0.297766  0.704754  1
  Zn  Zn14  1  0.296535  0.710020  0.003348  1
  Zn  Zn15  1  0.297766  0.008455  0.704754  1
  Zn  Zn16  1  0.994612  0.700821  0.299985  1
  Zn  Zn17  1  0.710020  0.296535  0.003348  1
  Ru  Ru18  1  0.380154  0.380154  0.809773  1
