# generated using pymatgen
data_Li19IrRh4N9
_symmetry_space_group_name_H-M   'P 1'
_cell_length_a   7.50390383
_cell_length_b   7.50403003
_cell_length_c   11.37625105
_cell_angle_alpha   58.91605815
_cell_angle_beta   58.92052653
_cell_angle_gamma   50.17500277
_symmetry_Int_Tables_number   1
_chemical_formula_structural   Li19IrRh4N9
_chemical_formula_sum   'Li19 Ir1 Rh4 N9'
_cell_volume   404.21764954
_cell_formula_units_Z   1
loop_
 _symmetry_equiv_pos_site_id
 _symmetry_equiv_pos_as_xyz
  1  'x, y, z'
loop_
 _atom_site_type_symbol
 _atom_site_label
 _atom_site_symmetry_multiplicity
 _atom_site_fract_x
 _atom_site_fract_y
 _atom_site_fract_z
 _atom_site_occupancy
  Li  Li0  1  0.276791  0.012405  0.059682  1
  Li  Li1  1  0.630009  0.993445  0.125548  1
  Li  Li2  1  0.779475  0.220140  0.189697  1
  Li  Li3  1  0.242054  0.993949  0.430812  1
  Li  Li4  1  0.671093  0.658134  0.044094  1
  Li  Li5  1  0.345271  0.321047  0.266535  1
  Li  Li6  1  0.704687  0.295279  0.500096  1
  Li  Li7  1  0.984554  0.729944  0.260947  1
  Li  Li8  1  0.270071  0.015483  0.739073  1
  Li  Li9  1  0.641176  0.682824  0.387311  1
  Li  Li10  1  0.317129  0.358748  0.612735  1
  Li  Li11  1  0.368364  0.600354  0.344711  1
  Li  Li12  1  0.780035  0.220447  0.810226  1
  Li  Li13  1  0.006065  0.757724  0.569321  1
  Li  Li14  1  0.678993  0.654628  0.733502  1
  Li  Li15  1  0.342054  0.328888  0.955767  1
  Li  Li16  1  0.399601  0.631649  0.655349  1
  Li  Li17  1  0.006523  0.370023  0.874422  1
  Li  Li18  1  0.987594  0.723444  0.940179  1
  Ir  Ir19  1  0.345968  0.654046  0.000012  1
  Rh  Rh20  1  0.994367  0.370211  0.216805  1
  Rh  Rh21  1  0.607915  0.989702  0.470428  1
  Rh  Rh22  1  0.010330  0.391731  0.529639  1
  Rh  Rh23  1  0.630011  0.005556  0.783150  1
  N  N24  1  0.639150  0.001343  0.288514  1
  N  N25  1  0.003221  0.364680  0.047075  1
  N  N26  1  0.354497  0.647375  0.158917  1
  N  N27  1  0.616159  0.001598  0.626581  1
  N  N28  1  0.998345  0.383922  0.373380  1
  N  N29  1  0.359660  0.640293  0.500033  1
  N  N30  1  0.635341  0.996854  0.952877  1
  N  N31  1  0.998695  0.360796  0.711497  1
  N  N32  1  0.352615  0.645524  0.841083  1
