# generated using pymatgen
data_Na2HfSi4O11
_symmetry_space_group_name_H-M   'P 1'
_cell_length_a   7.54389842
_cell_length_b   7.54389908
_cell_length_c   8.65503294
_cell_angle_alpha   82.45100149
_cell_angle_beta   82.45100443
_cell_angle_gamma   84.83982787
_symmetry_Int_Tables_number   1
_chemical_formula_structural   Na2HfSi4O11
_chemical_formula_sum   'Na4 Hf2 Si8 O22'
_cell_volume   482.73462533
_cell_formula_units_Z   2
loop_
 _symmetry_equiv_pos_site_id
 _symmetry_equiv_pos_as_xyz
  1  'x, y, z'
loop_
 _atom_site_type_symbol
 _atom_site_label
 _atom_site_symmetry_multiplicity
 _atom_site_fract_x
 _atom_site_fract_y
 _atom_site_fract_z
 _atom_site_occupancy
  Na  Na0  1  0.924104  0.075896  0.250000  1
  Na  Na1  1  0.075896  0.924104  0.750000  1
  Na  Na2  1  0.605684  0.394316  0.250000  1
  Na  Na3  1  0.394316  0.605684  0.750000  1
  Hf  Hf4  1  0.500000  0.000000  0.500000  1
  Hf  Hf5  1  0.000000  0.500000  0.000000  1
  Si  Si6  1  0.807140  0.664457  0.640457  1
  Si  Si7  1  0.192860  0.335543  0.359543  1
  Si  Si8  1  0.664457  0.807140  0.140457  1
  Si  Si9  1  0.266693  0.832068  0.072767  1
  Si  Si10  1  0.167932  0.733307  0.427233  1
  Si  Si11  1  0.733307  0.167932  0.927233  1
  Si  Si12  1  0.832068  0.266693  0.572767  1
  Si  Si13  1  0.335543  0.192860  0.859543  1
  O  O14  1  0.373099  0.202252  0.355122  1
  O  O15  1  0.797748  0.626901  0.144878  1
  O  O16  1  0.626901  0.797748  0.644878  1
  O  O17  1  0.202252  0.373099  0.855122  1
  O  O18  1  0.374133  0.105097  0.696700  1
  O  O19  1  0.894903  0.625867  0.803300  1
  O  O20  1  0.625867  0.894903  0.303300  1
  O  O21  1  0.105097  0.374133  0.196700  1
  O  O22  1  0.289166  0.826441  0.530036  1
  O  O23  1  0.173559  0.710834  0.969964  1
  O  O24  1  0.710834  0.173559  0.469964  1
  O  O25  1  0.826441  0.289166  0.030036  1
  O  O26  1  0.474452  0.754060  0.085665  1
  O  O27  1  0.245940  0.525548  0.414335  1
  O  O28  1  0.841209  0.158791  0.750000  1
  O  O29  1  0.158791  0.841209  0.250000  1
  O  O30  1  0.040703  0.245437  0.494612  1
  O  O31  1  0.754563  0.959297  0.005388  1
  O  O32  1  0.959297  0.754563  0.505388  1
  O  O33  1  0.245437  0.040703  0.994612  1
  O  O34  1  0.754060  0.474452  0.585665  1
  O  O35  1  0.525548  0.245940  0.914335  1
