# generated using pymatgen
data_Dy5ZnSe4
_symmetry_space_group_name_H-M   'P 1'
_cell_length_a   7.10001877
_cell_length_b   7.10001878
_cell_length_c   7.10001900
_cell_angle_alpha   99.56031415
_cell_angle_beta   99.56030598
_cell_angle_gamma   131.89970511
_symmetry_Int_Tables_number   1
_chemical_formula_structural   Dy5ZnSe4
_chemical_formula_sum   'Dy5 Zn1 Se4'
_cell_volume   243.27415244
_cell_formula_units_Z   1
loop_
 _symmetry_equiv_pos_site_id
 _symmetry_equiv_pos_as_xyz
  1  'x, y, z'
loop_
 _atom_site_type_symbol
 _atom_site_label
 _atom_site_symmetry_multiplicity
 _atom_site_fract_x
 _atom_site_fract_y
 _atom_site_fract_z
 _atom_site_occupancy
  Dy  Dy0  1  0.402317  0.794793  0.197110  1
  Dy  Dy1  1  0.000000  0.000000  0.000000  1
  Dy  Dy2  1  0.597683  0.205207  0.802890  1
  Dy  Dy3  1  0.205207  0.402317  0.607523  1
  Dy  Dy4  1  0.794793  0.597683  0.392477  1
  Zn  Zn5  1  0.500000  0.500000  0.000000  1
  Se  Se6  1  0.096352  0.697211  0.793562  1
  Se  Se7  1  0.697211  0.903648  0.600861  1
  Se  Se8  1  0.302789  0.096352  0.399139  1
  Se  Se9  1  0.903648  0.302789  0.206438  1
