# generated using pymatgen
data_SrLu(TaS2)6
_symmetry_space_group_name_H-M   'P 1'
_cell_length_a   5.83867700
_cell_length_b   5.83867759
_cell_length_c   14.27764000
_cell_angle_alpha   90.00000000
_cell_angle_beta   90.00000000
_cell_angle_gamma   120.00000232
_symmetry_Int_Tables_number   1
_chemical_formula_structural   SrLu(TaS2)6
_chemical_formula_sum   'Sr1 Lu1 Ta6 S12'
_cell_volume   421.51787260
_cell_formula_units_Z   1
loop_
 _symmetry_equiv_pos_site_id
 _symmetry_equiv_pos_as_xyz
  1  'x, y, z'
loop_
 _atom_site_type_symbol
 _atom_site_label
 _atom_site_symmetry_multiplicity
 _atom_site_fract_x
 _atom_site_fract_y
 _atom_site_fract_z
 _atom_site_occupancy
  Sr  Sr0  1  0.000000  0.000000  0.500000  1
  Lu  Lu1  1  0.000000  0.000000  0.000000  1
  Ta  Ta2  1  0.000000  0.000000  0.765481  1
  Ta  Ta3  1  0.000000  0.000000  0.234519  1
  Ta  Ta4  1  0.333333  0.666667  0.234166  1
  Ta  Ta5  1  0.666667  0.333333  0.765834  1
  Ta  Ta6  1  0.666667  0.333333  0.234166  1
  Ta  Ta7  1  0.333333  0.666667  0.765834  1
  S  S8  1  0.337490  0.000000  0.124386  1
  S  S9  1  0.000000  0.337490  0.124386  1
  S  S10  1  0.662510  0.662510  0.124386  1
  S  S11  1  0.336649  0.336649  0.656547  1
  S  S12  1  0.663351  0.663351  0.343453  1
  S  S13  1  0.663351  0.000000  0.656547  1
  S  S14  1  0.000000  0.663351  0.656547  1
  S  S15  1  0.000000  0.662510  0.875614  1
  S  S16  1  0.337490  0.337490  0.875614  1
  S  S17  1  0.000000  0.336649  0.343453  1
  S  S18  1  0.336649  0.000000  0.343453  1
  S  S19  1  0.662510  0.000000  0.875614  1
