# generated using pymatgen
data_Y8Lu2Ir5Ru
_symmetry_space_group_name_H-M   'P 1'
_cell_length_a   10.85464600
_cell_length_b   10.85464600
_cell_length_c   6.40903000
_cell_angle_alpha   90.00000000
_cell_angle_beta   90.00000000
_cell_angle_gamma   90.00000000
_symmetry_Int_Tables_number   1
_chemical_formula_structural   Y8Lu2Ir5Ru
_chemical_formula_sum   'Y16 Lu4 Ir10 Ru2'
_cell_volume   755.13331938
_cell_formula_units_Z   2
loop_
 _symmetry_equiv_pos_site_id
 _symmetry_equiv_pos_as_xyz
  1  'x, y, z'
loop_
 _atom_site_type_symbol
 _atom_site_label
 _atom_site_symmetry_multiplicity
 _atom_site_fract_x
 _atom_site_fract_y
 _atom_site_fract_z
 _atom_site_occupancy
  Y  Y0  1  0.292700  0.086453  0.378566  1
  Y  Y1  1  0.292700  0.913547  0.878566  1
  Y  Y2  1  0.707300  0.086453  0.878566  1
  Y  Y3  1  0.707300  0.913547  0.378566  1
  Y  Y4  1  0.586453  0.792700  0.878566  1
  Y  Y5  1  0.586453  0.207300  0.378566  1
  Y  Y6  1  0.413547  0.792700  0.378566  1
  Y  Y7  1  0.413547  0.207300  0.878566  1
  Y  Y8  1  0.210402  0.412112  0.621176  1
  Y  Y9  1  0.210402  0.587888  0.121176  1
  Y  Y10  1  0.789598  0.412112  0.121176  1
  Y  Y11  1  0.789598  0.587888  0.621176  1
  Y  Y12  1  0.912112  0.710402  0.121176  1
  Y  Y13  1  0.912112  0.289598  0.621176  1
  Y  Y14  1  0.087888  0.710402  0.621176  1
  Y  Y15  1  0.087888  0.289598  0.121176  1
  Lu  Lu16  1  0.000000  0.000000  0.499475  1
  Lu  Lu17  1  0.000000  0.000000  0.999475  1
  Lu  Lu18  1  0.500000  0.500000  0.999475  1
  Lu  Lu19  1  0.500000  0.500000  0.499475  1
  Ir  Ir20  1  0.850884  0.150229  0.249806  1
  Ir  Ir21  1  0.850884  0.849771  0.749806  1
  Ir  Ir22  1  0.149116  0.150229  0.749806  1
  Ir  Ir23  1  0.149116  0.849771  0.249806  1
  Ir  Ir24  1  0.650229  0.350884  0.749806  1
  Ir  Ir25  1  0.650229  0.649116  0.249806  1
  Ir  Ir26  1  0.349771  0.350884  0.249806  1
  Ir  Ir27  1  0.349771  0.649116  0.749806  1
  Ir  Ir28  1  0.000000  0.500000  0.876886  1
  Ir  Ir29  1  0.000000  0.500000  0.376886  1
  Ru  Ru30  1  0.500000  0.000000  0.125972  1
  Ru  Ru31  1  0.500000  0.000000  0.625972  1
