# generated using pymatgen
data_Th10InSi2Sb5
_symmetry_space_group_name_H-M   'P 1'
_cell_length_a   9.52935500
_cell_length_b   9.53207412
_cell_length_c   6.50507700
_cell_angle_alpha   90.00000000
_cell_angle_beta   90.00000000
_cell_angle_gamma   119.99055370
_symmetry_Int_Tables_number   1
_chemical_formula_structural   Th10InSi2Sb5
_chemical_formula_sum   'Th10 In1 Si2 Sb5'
_cell_volume   511.77058654
_cell_formula_units_Z   1
loop_
 _symmetry_equiv_pos_site_id
 _symmetry_equiv_pos_as_xyz
  1  'x, y, z'
loop_
 _atom_site_type_symbol
 _atom_site_label
 _atom_site_symmetry_multiplicity
 _atom_site_fract_x
 _atom_site_fract_y
 _atom_site_fract_z
 _atom_site_occupancy
  Th  Th0  1  0.257774  0.000000  0.250000  1
  Th  Th1  1  0.260502  0.260745  0.750000  1
  Th  Th2  1  0.999757  0.739255  0.750000  1
  Th  Th3  1  0.001271  0.262575  0.250000  1
  Th  Th4  1  0.738696  0.737425  0.250000  1
  Th  Th5  1  0.741939  0.000000  0.750000  1
  Th  Th6  1  0.331758  0.664064  0.001244  1
  Th  Th7  1  0.667695  0.335936  0.498756  1
  Th  Th8  1  0.667695  0.335936  0.001244  1
  Th  Th9  1  0.331758  0.664064  0.498756  1
  In  In10  1  0.611711  0.000000  0.250000  1
  Si  Si11  1  0.999749  0.000000  0.998955  1
  Si  Si12  1  0.999749  0.000000  0.501045  1
  Sb  Sb13  1  0.610477  0.612225  0.750000  1
  Sb  Sb14  1  0.998252  0.387775  0.750000  1
  Sb  Sb15  1  0.999998  0.611843  0.250000  1
  Sb  Sb16  1  0.388155  0.388157  0.250000  1
  Sb  Sb17  1  0.393065  0.000000  0.750000  1
