# generated using pymatgen
data_Y2Ru3W
_symmetry_space_group_name_H-M   'P 1'
_cell_length_a   5.21728788
_cell_length_b   5.21728775
_cell_length_c   5.21728839
_cell_angle_alpha   65.08284048
_cell_angle_beta   65.08284116
_cell_angle_gamma   65.08283827
_symmetry_Int_Tables_number   1
_chemical_formula_structural   Y2Ru3W
_chemical_formula_sum   'Y2 Ru3 W1'
_cell_volume   111.55771590
_cell_formula_units_Z   1
loop_
 _symmetry_equiv_pos_site_id
 _symmetry_equiv_pos_as_xyz
  1  'x, y, z'
loop_
 _atom_site_type_symbol
 _atom_site_label
 _atom_site_symmetry_multiplicity
 _atom_site_fract_x
 _atom_site_fract_y
 _atom_site_fract_z
 _atom_site_occupancy
  Y  Y0  1  0.127589  0.127589  0.127589  1
  Y  Y1  1  0.872411  0.872411  0.872411  1
  Ru  Ru2  1  0.500000  0.000000  0.500000  1
  Ru  Ru3  1  0.000000  0.500000  0.500000  1
  Ru  Ru4  1  0.500000  0.500000  0.000000  1
  W  W5  1  0.500000  0.500000  0.500000  1
