# generated using pymatgen
data_Hf8Al15Ir7
_symmetry_space_group_name_H-M   'P 1'
_cell_length_a   8.87585569
_cell_length_b   8.87584943
_cell_length_c   8.87584826
_cell_angle_alpha   120.29865672
_cell_angle_beta   119.77912194
_cell_angle_gamma   89.93343388
_symmetry_Int_Tables_number   1
_chemical_formula_structural   Hf8Al15Ir7
_chemical_formula_sum   'Hf8 Al15 Ir7'
_cell_volume   494.13709767
_cell_formula_units_Z   1
loop_
 _symmetry_equiv_pos_site_id
 _symmetry_equiv_pos_as_xyz
  1  'x, y, z'
loop_
 _atom_site_type_symbol
 _atom_site_label
 _atom_site_symmetry_multiplicity
 _atom_site_fract_x
 _atom_site_fract_y
 _atom_site_fract_z
 _atom_site_occupancy
  Hf  Hf0  1  0.800879  0.295074  0.081820  1
  Hf  Hf1  1  0.213253  0.295076  0.494197  1
  Hf  Hf2  1  0.197243  0.697244  0.500000  1
  Hf  Hf3  1  0.213251  0.719056  0.918180  1
  Hf  Hf4  1  0.800879  0.719058  0.505803  1
  Hf  Hf5  1  0.779780  0.279774  0.500004  1
  Hf  Hf6  1  0.378955  0.120474  0.741513  1
  Hf  Hf7  1  0.378959  0.637442  0.258485  1
  Al  Al8  1  0.988333  0.488334  0.499999  1
  Al  Al9  1  0.158831  0.334619  0.175783  1
  Al  Al10  1  0.158834  0.983048  0.824216  1
  Al  Al11  1  0.150481  0.344626  0.805856  1
  Al  Al12  1  0.538770  0.344623  0.194145  1
  Al  Al13  1  0.840145  0.656859  0.816715  1
  Al  Al14  1  0.840143  0.023431  0.183284  1
  Al  Al15  1  0.838299  0.660239  0.178057  1
  Al  Al16  1  0.482181  0.660243  0.821943  1
  Al  Al17  1  0.379148  0.121953  0.257194  1
  Al  Al18  1  0.864759  0.121952  0.742807  1
  Al  Al19  1  0.622066  0.875621  0.253557  1
  Al  Al20  1  0.622064  0.368510  0.746443  1
  Al  Al21  1  0.622278  0.878407  0.743870  1
  Al  Al22  1  0.134536  0.878408  0.256130  1
  Ir  Ir23  1  0.998562  0.998961  0.501523  1
  Ir  Ir24  1  0.497440  0.998961  0.000400  1
  Ir  Ir25  1  0.498668  0.498668  0.000000  1
  Ir  Ir26  1  0.497436  0.497039  0.498477  1
  Ir  Ir27  1  0.998561  0.497040  0.999598  1
  Ir  Ir28  1  0.998750  0.998750  0.000000  1
  Ir  Ir29  1  0.506509  0.006510  0.500001  1
