# generated using pymatgen
data_Ca19Yb(SiSb2)4
_symmetry_space_group_name_H-M   'P 1'
_cell_length_a   8.03757534
_cell_length_b   9.46578400
_cell_length_c   12.83007953
_cell_angle_alpha   89.99994900
_cell_angle_beta   90.03315658
_cell_angle_gamma   89.99996046
_symmetry_Int_Tables_number   1
_chemical_formula_structural   Ca19Yb(SiSb2)4
_chemical_formula_sum   'Ca19 Yb1 Si4 Sb8'
_cell_volume   976.13733229
_cell_formula_units_Z   1
loop_
 _symmetry_equiv_pos_site_id
 _symmetry_equiv_pos_as_xyz
  1  'x, y, z'
loop_
 _atom_site_type_symbol
 _atom_site_label
 _atom_site_symmetry_multiplicity
 _atom_site_fract_x
 _atom_site_fract_y
 _atom_site_fract_z
 _atom_site_occupancy
  Ca  Ca0  1  0.445858  0.750002  0.001253  1
  Ca  Ca1  1  0.946415  0.250000  0.498876  1
  Ca  Ca2  1  0.553513  0.250000  0.999310  1
  Ca  Ca3  1  0.053724  0.750000  0.500359  1
  Ca  Ca4  1  0.648289  0.750004  0.305364  1
  Ca  Ca5  1  0.148529  0.250001  0.194544  1
  Ca  Ca6  1  0.351391  0.249998  0.694501  1
  Ca  Ca7  1  0.851552  0.750001  0.805654  1
  Ca  Ca8  1  0.327281  0.750000  0.716101  1
  Ca  Ca9  1  0.827087  0.250005  0.783643  1
  Ca  Ca10  1  0.672872  0.250001  0.283690  1
  Ca  Ca11  1  0.327203  0.473297  0.421446  1
  Ca  Ca12  1  0.827189  0.527024  0.078500  1
  Ca  Ca13  1  0.672805  0.972995  0.578246  1
  Ca  Ca14  1  0.172865  0.026954  0.921953  1
  Ca  Ca15  1  0.672803  0.527003  0.578248  1
  Ca  Ca16  1  0.172865  0.473045  0.921955  1
  Ca  Ca17  1  0.327199  0.026702  0.421449  1
  Ca  Ca18  1  0.827190  0.972972  0.078502  1
  Yb  Yb19  1  0.173488  0.750000  0.216099  1
  Si  Si20  1  0.057364  0.749999  0.993855  1
  Si  Si21  1  0.556956  0.249999  0.506789  1
  Si  Si22  1  0.942799  0.249996  0.006855  1
  Si  Si23  1  0.443029  0.749997  0.493020  1
  Sb  Sb24  1  0.447327  0.006489  0.169164  1
  Sb  Sb25  1  0.947990  0.992943  0.330508  1
  Sb  Sb26  1  0.552281  0.506806  0.831153  1
  Sb  Sb27  1  0.052267  0.493464  0.669070  1
  Sb  Sb28  1  0.552281  0.993194  0.831153  1
  Sb  Sb29  1  0.052267  0.006537  0.669070  1
  Sb  Sb30  1  0.447330  0.493514  0.169163  1
  Sb  Sb31  1  0.947990  0.507058  0.330508  1
