# generated using pymatgen
data_Lu2VPt9
_symmetry_space_group_name_H-M   'P 1'
_cell_length_a   4.02910400
_cell_length_b   4.02910400
_cell_length_c   12.07212100
_cell_angle_alpha   90.00000000
_cell_angle_beta   90.00000000
_cell_angle_gamma   90.00000000
_symmetry_Int_Tables_number   1
_chemical_formula_structural   Lu2VPt9
_chemical_formula_sum   'Lu2 V1 Pt9'
_cell_volume   195.97493768
_cell_formula_units_Z   1
loop_
 _symmetry_equiv_pos_site_id
 _symmetry_equiv_pos_as_xyz
  1  'x, y, z'
loop_
 _atom_site_type_symbol
 _atom_site_label
 _atom_site_symmetry_multiplicity
 _atom_site_fract_x
 _atom_site_fract_y
 _atom_site_fract_z
 _atom_site_occupancy
  Lu  Lu0  1  0.000000  0.000000  0.331631  1
  Lu  Lu1  1  0.000000  0.000000  0.668369  1
  V  V2  1  0.000000  0.000000  0.000000  1
  Pt  Pt3  1  0.500000  0.500000  0.000000  1
  Pt  Pt4  1  0.500000  0.500000  0.327508  1
  Pt  Pt5  1  0.500000  0.500000  0.672492  1
  Pt  Pt6  1  0.500000  0.000000  0.154121  1
  Pt  Pt7  1  0.500000  0.000000  0.500000  1
  Pt  Pt8  1  0.500000  0.000000  0.845879  1
  Pt  Pt9  1  0.000000  0.500000  0.154121  1
  Pt  Pt10  1  0.000000  0.500000  0.500000  1
  Pt  Pt11  1  0.000000  0.500000  0.845879  1
