# generated using pymatgen
data_Na3LiRh2F12
_symmetry_space_group_name_H-M   'P 1'
_cell_length_a   5.25861400
_cell_length_b   5.25861400
_cell_length_c   18.45566700
_cell_angle_alpha   90.00000000
_cell_angle_beta   90.00000000
_cell_angle_gamma   90.00000000
_symmetry_Int_Tables_number   1
_chemical_formula_structural   Na3LiRh2F12
_chemical_formula_sum   'Na6 Li2 Rh4 F24'
_cell_volume   510.35495083
_cell_formula_units_Z   2
loop_
 _symmetry_equiv_pos_site_id
 _symmetry_equiv_pos_as_xyz
  1  'x, y, z'
loop_
 _atom_site_type_symbol
 _atom_site_label
 _atom_site_symmetry_multiplicity
 _atom_site_fract_x
 _atom_site_fract_y
 _atom_site_fract_z
 _atom_site_occupancy
  Na  Na0  1  0.000000  0.500000  0.306356  1
  Na  Na1  1  0.500000  0.000000  0.693644  1
  Na  Na2  1  0.500000  0.000000  0.193644  1
  Na  Na3  1  0.000000  0.500000  0.806356  1
  Na  Na4  1  0.000000  0.000000  0.500000  1
  Na  Na5  1  0.500000  0.500000  0.000000  1
  Li  Li6  1  0.000000  0.000000  0.000000  1
  Li  Li7  1  0.500000  0.500000  0.500000  1
  Rh  Rh8  1  0.000000  0.500000  0.122842  1
  Rh  Rh9  1  0.500000  0.000000  0.877158  1
  Rh  Rh10  1  0.500000  0.000000  0.377158  1
  Rh  Rh11  1  0.000000  0.500000  0.622842  1
  F  F12  1  0.201064  0.212063  0.381414  1
  F  F13  1  0.798936  0.787937  0.381414  1
  F  F14  1  0.212063  0.798936  0.618586  1
  F  F15  1  0.298936  0.712063  0.118586  1
  F  F16  1  0.787937  0.201064  0.618586  1
  F  F17  1  0.701064  0.287937  0.118586  1
  F  F18  1  0.287937  0.298936  0.881414  1
  F  F19  1  0.712063  0.701064  0.881414  1
  F  F20  1  0.150760  0.290711  0.198704  1
  F  F21  1  0.849240  0.709289  0.198704  1
  F  F22  1  0.290711  0.849240  0.801296  1
  F  F23  1  0.349240  0.790711  0.301296  1
  F  F24  1  0.709289  0.150760  0.801296  1
  F  F25  1  0.650760  0.209289  0.301296  1
  F  F26  1  0.209289  0.349240  0.698704  1
  F  F27  1  0.790711  0.650760  0.698704  1
  F  F28  1  0.155015  0.282130  0.047396  1
  F  F29  1  0.844985  0.717870  0.047396  1
  F  F30  1  0.282130  0.844985  0.952604  1
  F  F31  1  0.344985  0.782130  0.452604  1
  F  F32  1  0.717870  0.155015  0.952604  1
  F  F33  1  0.655015  0.217870  0.452604  1
  F  F34  1  0.217870  0.344985  0.547396  1
  F  F35  1  0.782130  0.655015  0.547396  1
