# generated using pymatgen
data_Sr2Ge5N8
_symmetry_space_group_name_H-M   'P 1'
_cell_length_a   8.24295796
_cell_length_b   8.24295774
_cell_length_c   10.37210730
_cell_angle_alpha   68.98528040
_cell_angle_beta   68.98528086
_cell_angle_gamma   42.96359914
_symmetry_Int_Tables_number   1
_chemical_formula_structural   Sr2Ge5N8
_chemical_formula_sum   'Sr4 Ge10 N16'
_cell_volume   443.20894296
_cell_formula_units_Z   2
loop_
 _symmetry_equiv_pos_site_id
 _symmetry_equiv_pos_as_xyz
  1  'x, y, z'
loop_
 _atom_site_type_symbol
 _atom_site_label
 _atom_site_symmetry_multiplicity
 _atom_site_fract_x
 _atom_site_fract_y
 _atom_site_fract_z
 _atom_site_occupancy
  Sr  Sr0  1  0.357046  0.870202  0.297315  1
  Sr  Sr1  1  0.870202  0.357046  0.797315  1
  Sr  Sr2  1  0.761663  0.232582  0.504237  1
  Sr  Sr3  1  0.232582  0.761663  0.004237  1
  Ge  Ge4  1  0.855541  0.853763  0.373169  1
  Ge  Ge5  1  0.853763  0.855541  0.873169  1
  Ge  Ge6  1  0.573711  0.153830  0.130871  1
  Ge  Ge7  1  0.153830  0.573711  0.630871  1
  Ge  Ge8  1  0.250841  0.260329  0.437275  1
  Ge  Ge9  1  0.260329  0.250841  0.937275  1
  Ge  Ge10  1  0.964727  0.542467  0.183615  1
  Ge  Ge11  1  0.542467  0.964727  0.683615  1
  Ge  Ge12  1  0.864066  0.251688  0.147435  1
  Ge  Ge13  1  0.251688  0.864066  0.647435  1
  N  N14  1  0.279008  0.317607  0.082217  1
  N  N15  1  0.317607  0.279008  0.582217  1
  N  N16  1  0.783146  0.470771  0.235877  1
  N  N17  1  0.470771  0.783146  0.735877  1
  N  N18  1  0.846433  0.819198  0.565192  1
  N  N19  1  0.819198  0.846433  0.065192  1
  N  N20  1  0.985990  0.977765  0.282534  1
  N  N21  1  0.977765  0.985990  0.782534  1
  N  N22  1  0.550993  0.044614  0.323864  1
  N  N23  1  0.044614  0.550993  0.823864  1
  N  N24  1  0.045379  0.553033  0.325273  1
  N  N25  1  0.553033  0.045379  0.825273  1
  N  N26  1  0.129733  0.127283  0.505010  1
  N  N27  1  0.127283  0.129733  0.005010  1
  N  N28  1  0.348041  0.631351  0.564216  1
  N  N29  1  0.631351  0.348041  0.064216  1
