# generated using pymatgen
data_Na3Sc2Tc3(P3Ir4)4
_symmetry_space_group_name_H-M   'P 1'
_cell_length_a   12.57827800
_cell_length_b   12.57827775
_cell_length_c   3.96192200
_cell_angle_alpha   90.00000000
_cell_angle_beta   90.00000000
_cell_angle_gamma   120.00000065
_symmetry_Int_Tables_number   1
_chemical_formula_structural   Na3Sc2Tc3(P3Ir4)4
_chemical_formula_sum   'Na3 Sc2 Tc3 P12 Ir16'
_cell_volume   542.84884700
_cell_formula_units_Z   1
loop_
 _symmetry_equiv_pos_site_id
 _symmetry_equiv_pos_as_xyz
  1  'x, y, z'
loop_
 _atom_site_type_symbol
 _atom_site_label
 _atom_site_symmetry_multiplicity
 _atom_site_fract_x
 _atom_site_fract_y
 _atom_site_fract_z
 _atom_site_occupancy
  Na  Na0  1  0.820620  0.000000  0.500000  1
  Na  Na1  1  0.000000  0.820620  0.500000  1
  Na  Na2  1  0.179380  0.179380  0.500000  1
  Sc  Sc3  1  0.333333  0.666667  0.000000  1
  Sc  Sc4  1  0.666667  0.333333  0.000000  1
  Tc  Tc5  1  0.457332  0.000000  0.000000  1
  Tc  Tc6  1  0.000000  0.457332  0.000000  1
  Tc  Tc7  1  0.542668  0.542668  0.000000  1
  P  P8  1  0.178019  0.000000  0.000000  1
  P  P9  1  0.000000  0.178019  0.000000  1
  P  P10  1  0.821981  0.821981  0.000000  1
  P  P11  1  0.169595  0.483097  0.500000  1
  P  P12  1  0.516903  0.686497  0.500000  1
  P  P13  1  0.313503  0.830405  0.500000  1
  P  P14  1  0.686497  0.516903  0.500000  1
  P  P15  1  0.830405  0.313503  0.500000  1
  P  P16  1  0.483097  0.169595  0.500000  1
  P  P17  1  0.641133  0.000000  0.000000  1
  P  P18  1  0.000000  0.641133  0.000000  1
  P  P19  1  0.358867  0.358867  0.000000  1
  Ir  Ir20  1  0.359500  0.493941  0.500000  1
  Ir  Ir21  1  0.506059  0.865559  0.500000  1
  Ir  Ir22  1  0.134441  0.640500  0.500000  1
  Ir  Ir23  1  0.865559  0.506059  0.500000  1
  Ir  Ir24  1  0.640500  0.134441  0.500000  1
  Ir  Ir25  1  0.493941  0.359500  0.500000  1
  Ir  Ir26  1  0.181491  0.379647  0.000000  1
  Ir  Ir27  1  0.620353  0.801846  0.000000  1
  Ir  Ir28  1  0.198154  0.818509  0.000000  1
  Ir  Ir29  1  0.801846  0.620353  0.000000  1
  Ir  Ir30  1  0.818509  0.198154  0.000000  1
  Ir  Ir31  1  0.379647  0.181491  0.000000  1
  Ir  Ir32  1  0.287911  0.000000  0.500000  1
  Ir  Ir33  1  0.000000  0.287911  0.500000  1
  Ir  Ir34  1  0.712089  0.712089  0.500000  1
  Ir  Ir35  1  0.000000  0.000000  0.000000  1
