# generated using pymatgen
data_Tm5Tl2Os
_symmetry_space_group_name_H-M   'P 1'
_cell_length_a   7.74112800
_cell_length_b   8.86870200
_cell_length_c   12.10931800
_cell_angle_alpha   90.00000000
_cell_angle_beta   90.00000000
_cell_angle_gamma   90.00000000
_symmetry_Int_Tables_number   1
_chemical_formula_structural   Tm5Tl2Os
_chemical_formula_sum   'Tm20 Tl8 Os4'
_cell_volume   831.35017996
_cell_formula_units_Z   4
loop_
 _symmetry_equiv_pos_site_id
 _symmetry_equiv_pos_as_xyz
  1  'x, y, z'
loop_
 _atom_site_type_symbol
 _atom_site_label
 _atom_site_symmetry_multiplicity
 _atom_site_fract_x
 _atom_site_fract_y
 _atom_site_fract_z
 _atom_site_occupancy
  Tm  Tm0  1  0.326541  0.537923  0.427720  1
  Tm  Tm1  1  0.885342  0.250000  0.807581  1
  Tm  Tm2  1  0.173459  0.537923  0.927720  1
  Tm  Tm3  1  0.326541  0.962077  0.427720  1
  Tm  Tm4  1  0.114658  0.750000  0.192419  1
  Tm  Tm5  1  0.845515  0.750000  0.779161  1
  Tm  Tm6  1  0.385342  0.750000  0.692419  1
  Tm  Tm7  1  0.953695  0.750000  0.500528  1
  Tm  Tm8  1  0.453695  0.250000  0.999472  1
  Tm  Tm9  1  0.673459  0.462077  0.572280  1
  Tm  Tm10  1  0.826541  0.037923  0.072280  1
  Tm  Tm11  1  0.654485  0.750000  0.279161  1
  Tm  Tm12  1  0.546305  0.750000  0.000528  1
  Tm  Tm13  1  0.046305  0.250000  0.499472  1
  Tm  Tm14  1  0.673459  0.037923  0.572280  1
  Tm  Tm15  1  0.173459  0.962077  0.927720  1
  Tm  Tm16  1  0.614658  0.250000  0.307581  1
  Tm  Tm17  1  0.345515  0.250000  0.720839  1
  Tm  Tm18  1  0.826541  0.462077  0.072280  1
  Tm  Tm19  1  0.154485  0.250000  0.220839  1
  Tl  Tl20  1  0.918358  0.492537  0.332691  1
  Tl  Tl21  1  0.418358  0.507463  0.167309  1
  Tl  Tl22  1  0.418358  0.992537  0.167309  1
  Tl  Tl23  1  0.581642  0.492537  0.832691  1
  Tl  Tl24  1  0.081642  0.507463  0.667309  1
  Tl  Tl25  1  0.581642  0.007463  0.832691  1
  Tl  Tl26  1  0.918358  0.007463  0.332691  1
  Tl  Tl27  1  0.081642  0.992537  0.667309  1
  Os  Os28  1  0.920139  0.750000  0.002049  1
  Os  Os29  1  0.579861  0.750000  0.502049  1
  Os  Os30  1  0.079861  0.250000  0.997951  1
  Os  Os31  1  0.420139  0.250000  0.497951  1
