# generated using pymatgen
data_Y2Lu3Ga4
_symmetry_space_group_name_H-M   'P 1'
_cell_length_a   7.36866900
_cell_length_b   7.80290100
_cell_length_c   14.99179600
_cell_angle_alpha   90.00000000
_cell_angle_beta   90.00000000
_cell_angle_gamma   90.00000000
_symmetry_Int_Tables_number   1
_chemical_formula_structural   Y2Lu3Ga4
_chemical_formula_sum   'Y8 Lu12 Ga16'
_cell_volume   861.98321529
_cell_formula_units_Z   4
loop_
 _symmetry_equiv_pos_site_id
 _symmetry_equiv_pos_as_xyz
  1  'x, y, z'
loop_
 _atom_site_type_symbol
 _atom_site_label
 _atom_site_symmetry_multiplicity
 _atom_site_fract_x
 _atom_site_fract_y
 _atom_site_fract_z
 _atom_site_occupancy
  Y  Y0  1  0.990416  0.818861  0.405616  1
  Y  Y1  1  0.490416  0.681139  0.094384  1
  Y  Y2  1  0.509584  0.318861  0.594384  1
  Y  Y3  1  0.009584  0.181139  0.905616  1
  Y  Y4  1  0.009584  0.181139  0.594384  1
  Y  Y5  1  0.509584  0.318861  0.905616  1
  Y  Y6  1  0.490416  0.681139  0.405616  1
  Y  Y7  1  0.990416  0.818861  0.094384  1
  Lu  Lu8  1  0.668579  0.990014  0.250000  1
  Lu  Lu9  1  0.168579  0.509986  0.250000  1
  Lu  Lu10  1  0.831421  0.490014  0.750000  1
  Lu  Lu11  1  0.331421  0.009986  0.750000  1
  Lu  Lu12  1  0.668753  0.823426  0.622176  1
  Lu  Lu13  1  0.168753  0.676574  0.877824  1
  Lu  Lu14  1  0.831247  0.323426  0.377824  1
  Lu  Lu15  1  0.331247  0.176574  0.122176  1
  Lu  Lu16  1  0.331247  0.176574  0.377824  1
  Lu  Lu17  1  0.831247  0.323426  0.122176  1
  Lu  Lu18  1  0.168753  0.676574  0.622176  1
  Lu  Lu19  1  0.668753  0.823426  0.877824  1
  Ga  Ga20  1  0.781665  0.628093  0.250000  1
  Ga  Ga21  1  0.281665  0.871907  0.250000  1
  Ga  Ga22  1  0.718335  0.128093  0.750000  1
  Ga  Ga23  1  0.218335  0.371907  0.750000  1
  Ga  Ga24  1  0.537657  0.385755  0.250000  1
  Ga  Ga25  1  0.037657  0.114245  0.250000  1
  Ga  Ga26  1  0.962343  0.885755  0.750000  1
  Ga  Ga27  1  0.462343  0.614245  0.750000  1
  Ga  Ga28  1  0.838331  0.529402  0.539966  1
  Ga  Ga29  1  0.338331  0.970598  0.960034  1
  Ga  Ga30  1  0.661669  0.029402  0.460034  1
  Ga  Ga31  1  0.161669  0.470598  0.039966  1
  Ga  Ga32  1  0.161669  0.470598  0.460034  1
  Ga  Ga33  1  0.661669  0.029402  0.039966  1
  Ga  Ga34  1  0.338331  0.970598  0.539966  1
  Ga  Ga35  1  0.838331  0.529402  0.960034  1
