# generated using pymatgen
data_AcGd3(TcB4)4
_symmetry_space_group_name_H-M   'P 1'
_cell_length_a   3.66821300
_cell_length_b   6.06233017
_cell_length_c   11.71580312
_cell_angle_alpha   90.25489699
_cell_angle_beta   90.00000000
_cell_angle_gamma   90.00000000
_symmetry_Int_Tables_number   1
_chemical_formula_structural   AcGd3(TcB4)4
_chemical_formula_sum   'Ac1 Gd3 Tc4 B16'
_cell_volume   260.53249490
_cell_formula_units_Z   1
loop_
 _symmetry_equiv_pos_site_id
 _symmetry_equiv_pos_as_xyz
  1  'x, y, z'
loop_
 _atom_site_type_symbol
 _atom_site_label
 _atom_site_symmetry_multiplicity
 _atom_site_fract_x
 _atom_site_fract_y
 _atom_site_fract_z
 _atom_site_occupancy
  Ac  Ac0  1  0.000000  0.873784  0.848517  1
  Gd  Gd1  1  0.000000  0.626185  0.349455  1
  Gd  Gd2  1  0.000000  0.374489  0.647590  1
  Gd  Gd3  1  0.000000  0.126167  0.152754  1
  Tc  Tc4  1  0.000000  0.628296  0.090910  1
  Tc  Tc5  1  0.000000  0.369326  0.916485  1
  Tc  Tc6  1  0.000000  0.133301  0.411221  1
  Tc  Tc7  1  0.000000  0.867926  0.582136  1
  B  B8  1  0.500000  0.784622  0.186792  1
  B  B9  1  0.500000  0.223370  0.815847  1
  B  B10  1  0.500000  0.285156  0.315245  1
  B  B11  1  0.500000  0.714679  0.677839  1
  B  B12  1  0.500000  0.858607  0.037655  1
  B  B13  1  0.500000  0.141590  0.972316  1
  B  B14  1  0.500000  0.362861  0.466270  1
  B  B15  1  0.500000  0.636987  0.528326  1
  B  B16  1  0.500000  0.888045  0.451235  1
  B  B17  1  0.500000  0.114413  0.543301  1
  B  B18  1  0.500000  0.385584  0.050441  1
  B  B19  1  0.500000  0.605983  0.958672  1
  B  B20  1  0.500000  0.976854  0.308105  1
  B  B21  1  0.500000  0.027957  0.684661  1
  B  B22  1  0.500000  0.476455  0.193958  1
  B  B23  1  0.500000  0.517365  0.810269  1
