# generated using pymatgen
data_Zr5Fe16Co2CuP12
_symmetry_space_group_name_H-M   'P 1'
_cell_length_a   11.76546068
_cell_length_b   11.78650593
_cell_length_c   3.64310400
_cell_angle_alpha   90.00000000
_cell_angle_beta   90.00000000
_cell_angle_gamma   119.85106502
_symmetry_Int_Tables_number   1
_chemical_formula_structural   Zr5Fe16Co2CuP12
_chemical_formula_sum   'Zr5 Fe16 Co2 Cu1 P12'
_cell_volume   438.17342814
_cell_formula_units_Z   1
loop_
 _symmetry_equiv_pos_site_id
 _symmetry_equiv_pos_as_xyz
  1  'x, y, z'
loop_
 _atom_site_type_symbol
 _atom_site_label
 _atom_site_symmetry_multiplicity
 _atom_site_fract_x
 _atom_site_fract_y
 _atom_site_fract_z
 _atom_site_occupancy
  Zr  Zr0  1  0.334099  0.666085  0.500000  1
  Zr  Zr1  1  0.665497  0.334167  0.500000  1
  Zr  Zr2  1  0.810749  0.999606  0.000000  1
  Zr  Zr3  1  0.000460  0.810988  0.000000  1
  Zr  Zr4  1  0.189464  0.189574  0.000000  1
  Fe  Fe5  1  0.624149  0.803556  0.500000  1
  Fe  Fe6  1  0.197696  0.820262  0.500000  1
  Fe  Fe7  1  0.179684  0.376455  0.500000  1
  Fe  Fe8  1  0.376756  0.180740  0.500000  1
  Fe  Fe9  1  0.804769  0.621722  0.500000  1
  Fe  Fe10  1  0.816792  0.196046  0.500000  1
  Fe  Fe11  1  0.284977  0.999872  0.000000  1
  Fe  Fe12  1  0.998756  0.284493  0.000000  1
  Fe  Fe13  1  0.716654  0.715432  0.000000  1
  Fe  Fe14  1  0.445572  0.002510  0.500000  1
  Fe  Fe15  1  0.997687  0.443354  0.500000  1
  Fe  Fe16  1  0.556887  0.556605  0.500000  1
  Fe  Fe17  1  0.514336  0.875237  0.000000  1
  Fe  Fe18  1  0.124691  0.638473  0.000000  1
  Fe  Fe19  1  0.361756  0.485611  0.000000  1
  Fe  Fe20  1  0.485837  0.361795  0.000000  1
  Co  Co21  1  0.875024  0.513190  0.000000  1
  Co  Co22  1  0.637409  0.124564  0.000000  1
  Cu  Cu23  1  0.000007  0.000318  0.500000  1
  P  P24  1  0.184691  0.000229  0.500000  1
  P  P25  1  0.998969  0.184496  0.500000  1
  P  P26  1  0.816553  0.815212  0.500000  1
  P  P27  1  0.519994  0.687756  0.000000  1
  P  P28  1  0.312287  0.830766  0.000000  1
  P  P29  1  0.168506  0.480254  0.000000  1
  P  P30  1  0.479222  0.168835  0.000000  1
  P  P31  1  0.686788  0.519776  0.000000  1
  P  P32  1  0.830801  0.311517  0.000000  1
  P  P33  1  0.631315  0.997353  0.500000  1
  P  P34  1  0.002800  0.634123  0.500000  1
  P  P35  1  0.368368  0.369027  0.500000  1
