# generated using pymatgen
data_Ho4Er8IrOs3
_symmetry_space_group_name_H-M   'P 1'
_cell_length_a   6.32758401
_cell_length_b   7.32809721
_cell_length_c   8.97078500
_cell_angle_alpha   90.00000000
_cell_angle_beta   90.00000000
_cell_angle_gamma   90.09290063
_symmetry_Int_Tables_number   1
_chemical_formula_structural   Ho4Er8IrOs3
_chemical_formula_sum   'Ho4 Er8 Ir1 Os3'
_cell_volume   415.96713498
_cell_formula_units_Z   1
loop_
 _symmetry_equiv_pos_site_id
 _symmetry_equiv_pos_as_xyz
  1  'x, y, z'
loop_
 _atom_site_type_symbol
 _atom_site_label
 _atom_site_symmetry_multiplicity
 _atom_site_fract_x
 _atom_site_fract_y
 _atom_site_fract_z
 _atom_site_occupancy
  Ho  Ho0  1  0.872769  0.537877  0.250000  1
  Ho  Ho1  1  0.628449  0.038987  0.250000  1
  Ho  Ho2  1  0.127723  0.462011  0.750000  1
  Ho  Ho3  1  0.370465  0.961801  0.750000  1
  Er  Er4  1  0.332157  0.673577  0.061688  1
  Er  Er5  1  0.170206  0.176545  0.438552  1
  Er  Er6  1  0.669647  0.325029  0.562555  1
  Er  Er7  1  0.827744  0.824472  0.935663  1
  Er  Er8  1  0.669647  0.325029  0.937445  1
  Er  Er9  1  0.827744  0.824472  0.564337  1
  Er  Er10  1  0.332157  0.673577  0.438312  1
  Er  Er11  1  0.170206  0.176545  0.061448  1
  Ir  Ir12  1  0.039530  0.884095  0.250000  1
  Os  Os13  1  0.462372  0.383750  0.250000  1
  Os  Os14  1  0.962691  0.115715  0.750000  1
  Os  Os15  1  0.536492  0.616522  0.750000  1
