# generated using pymatgen
data_Na4Mg3Cd(CoH6)4
_symmetry_space_group_name_H-M   'P 1'
_cell_length_a   6.73941000
_cell_length_b   6.69919600
_cell_length_c   6.69919600
_cell_angle_alpha   90.00000000
_cell_angle_beta   90.00000000
_cell_angle_gamma   90.00000000
_symmetry_Int_Tables_number   1
_chemical_formula_structural   Na4Mg3Cd(CoH6)4
_chemical_formula_sum   'Na4 Mg3 Cd1 Co4 H24'
_cell_volume   302.45951155
_cell_formula_units_Z   1
loop_
 _symmetry_equiv_pos_site_id
 _symmetry_equiv_pos_as_xyz
  1  'x, y, z'
loop_
 _atom_site_type_symbol
 _atom_site_label
 _atom_site_symmetry_multiplicity
 _atom_site_fract_x
 _atom_site_fract_y
 _atom_site_fract_z
 _atom_site_occupancy
  Na  Na0  1  0.000000  0.000000  0.500000  1
  Na  Na1  1  0.000000  0.500000  0.000000  1
  Na  Na2  1  0.500000  0.000000  0.000000  1
  Na  Na3  1  0.000000  0.000000  0.000000  1
  Mg  Mg4  1  0.500000  0.500000  0.500000  1
  Mg  Mg5  1  0.500000  0.000000  0.500000  1
  Mg  Mg6  1  0.500000  0.500000  0.000000  1
  Cd  Cd7  1  0.000000  0.500000  0.500000  1
  Co  Co8  1  0.272065  0.732663  0.732663  1
  Co  Co9  1  0.727935  0.267337  0.732663  1
  Co  Co10  1  0.727935  0.732663  0.267337  1
  Co  Co11  1  0.272065  0.267337  0.267337  1
  H  H12  1  0.726922  0.744213  0.494602  1
  H  H13  1  0.273078  0.255787  0.494602  1
  H  H14  1  0.043834  0.741163  0.741163  1
  H  H15  1  0.267135  0.961799  0.734609  1
  H  H16  1  0.732865  0.038201  0.734609  1
  H  H17  1  0.956166  0.258837  0.741163  1
  H  H18  1  0.726922  0.494602  0.744213  1
  H  H19  1  0.497544  0.738729  0.738729  1
  H  H20  1  0.502456  0.261271  0.738729  1
  H  H21  1  0.273078  0.505398  0.744213  1
  H  H22  1  0.267135  0.734609  0.961799  1
  H  H23  1  0.732865  0.265391  0.961799  1
  H  H24  1  0.732865  0.734609  0.038201  1
  H  H25  1  0.267135  0.265391  0.038201  1
  H  H26  1  0.273078  0.494602  0.255787  1
  H  H27  1  0.502456  0.738729  0.261271  1
  H  H28  1  0.497544  0.261271  0.261271  1
  H  H29  1  0.726922  0.505398  0.255787  1
  H  H30  1  0.956166  0.741163  0.258837  1
  H  H31  1  0.732865  0.961799  0.265391  1
  H  H32  1  0.267135  0.038201  0.265391  1
  H  H33  1  0.043834  0.258837  0.258837  1
  H  H34  1  0.273078  0.744213  0.505398  1
  H  H35  1  0.726922  0.255787  0.505398  1
