# generated using pymatgen
data_LaTm2U(Al3Ir)6
_symmetry_space_group_name_H-M   'P 1'
_cell_length_a   7.60264491
_cell_length_b   7.57942829
_cell_length_c   9.46742000
_cell_angle_alpha   90.00000000
_cell_angle_beta   90.00000000
_cell_angle_gamma   119.44160945
_symmetry_Int_Tables_number   1
_chemical_formula_structural   LaTm2U(Al3Ir)6
_chemical_formula_sum   'La1 Tm2 U1 Al18 Ir6'
_cell_volume   475.09415169
_cell_formula_units_Z   1
loop_
 _symmetry_equiv_pos_site_id
 _symmetry_equiv_pos_as_xyz
  1  'x, y, z'
loop_
 _atom_site_type_symbol
 _atom_site_label
 _atom_site_symmetry_multiplicity
 _atom_site_fract_x
 _atom_site_fract_y
 _atom_site_fract_z
 _atom_site_occupancy
  La  La0  1  0.671545  0.994401  0.250000  1
  Tm  Tm1  1  0.005287  0.328629  0.750000  1
  Tm  Tm2  1  0.327392  0.003000  0.750000  1
  U  U3  1  0.996044  0.672553  0.250000  1
  Al  Al4  1  0.135499  0.132055  0.250000  1
  Al  Al5  1  0.874702  0.873569  0.750000  1
  Al  Al6  1  0.003322  0.336946  0.071748  1
  Al  Al7  1  0.999621  0.664047  0.923859  1
  Al  Al8  1  0.999621  0.664047  0.576141  1
  Al  Al9  1  0.335187  0.003225  0.428273  1
  Al  Al10  1  0.003322  0.336946  0.428252  1
  Al  Al11  1  0.664499  0.999933  0.581001  1
  Al  Al12  1  0.664499  0.999933  0.918999  1
  Al  Al13  1  0.335187  0.003225  0.071727  1
  Al  Al14  1  0.331845  0.331803  0.556567  1
  Al  Al15  1  0.664454  0.664036  0.454575  1
  Al  Al16  1  0.664454  0.664036  0.045425  1
  Al  Al17  1  0.331845  0.331803  0.943433  1
  Al  Al18  1  0.335121  0.543855  0.250000  1
  Al  Al19  1  0.660272  0.448444  0.750000  1
  Al  Al20  1  0.548550  0.346239  0.250000  1
  Al  Al21  1  0.449035  0.659064  0.750000  1
  Ir  Ir22  1  0.671689  0.328455  0.999158  1
  Ir  Ir23  1  0.326503  0.671114  0.999152  1
  Ir  Ir24  1  0.326503  0.671114  0.500848  1
  Ir  Ir25  1  0.671689  0.328455  0.500842  1
  Ir  Ir26  1  0.001157  0.999535  0.999859  1
  Ir  Ir27  1  0.001157  0.999535  0.500141  1
