# generated using pymatgen
data_Ho3Er5B24(IrRu)2
_symmetry_space_group_name_H-M   'P 1'
_cell_length_a   3.63502700
_cell_length_b   9.14291925
_cell_length_c   11.46338900
_cell_angle_alpha   90.06098359
_cell_angle_beta   90.00000000
_cell_angle_gamma   90.00000000
_symmetry_Int_Tables_number   1
_chemical_formula_structural   Ho3Er5B24(IrRu)2
_chemical_formula_sum   'Ho3 Er5 B24 Ir2 Ru2'
_cell_volume   380.98274721
_cell_formula_units_Z   1
loop_
 _symmetry_equiv_pos_site_id
 _symmetry_equiv_pos_as_xyz
  1  'x, y, z'
loop_
 _atom_site_type_symbol
 _atom_site_label
 _atom_site_symmetry_multiplicity
 _atom_site_fract_x
 _atom_site_fract_y
 _atom_site_fract_z
 _atom_site_occupancy
  Ho  Ho0  1  0.000000  0.319127  0.411943  1
  Ho  Ho1  1  0.000000  0.680869  0.588055  1
  Ho  Ho2  1  0.000000  0.823225  0.085184  1
  Er  Er3  1  0.000000  0.176809  0.914921  1
  Er  Er4  1  0.000000  0.945797  0.372973  1
  Er  Er5  1  0.000000  0.054269  0.627086  1
  Er  Er6  1  0.000000  0.442508  0.125575  1
  Er  Er7  1  0.000000  0.557399  0.874350  1
  B  B8  1  0.500000  0.553127  0.433867  1
  B  B9  1  0.500000  0.446862  0.566153  1
  B  B10  1  0.500000  0.054113  0.066666  1
  B  B11  1  0.500000  0.946125  0.933213  1
  B  B12  1  0.500000  0.750441  0.420441  1
  B  B13  1  0.500000  0.249564  0.579591  1
  B  B14  1  0.500000  0.248143  0.079712  1
  B  B15  1  0.500000  0.751827  0.920096  1
  B  B16  1  0.500000  0.793088  0.265716  1
  B  B17  1  0.500000  0.206848  0.734429  1
  B  B18  1  0.500000  0.292170  0.234065  1
  B  B19  1  0.500000  0.707836  0.765918  1
  B  B20  1  0.500000  0.631855  0.184011  1
  B  B21  1  0.500000  0.367969  0.816060  1
  B  B22  1  0.500000  0.132082  0.314772  1
  B  B23  1  0.500000  0.867945  0.685232  1
  B  B24  1  0.500000  0.983537  0.212901  1
  B  B25  1  0.500000  0.016672  0.787168  1
  B  B26  1  0.500000  0.481826  0.286517  1
  B  B27  1  0.500000  0.518123  0.713480  1
  B  B28  1  0.500000  0.609860  0.030488  1
  B  B29  1  0.500000  0.389868  0.969445  1
  B  B30  1  0.500000  0.109458  0.470276  1
  B  B31  1  0.500000  0.890540  0.529722  1
  Ir  Ir32  1  0.000000  0.637664  0.321840  1
  Ir  Ir33  1  0.000000  0.362273  0.678210  1
  Ru  Ru34  1  0.000000  0.138232  0.179019  1
  Ru  Ru35  1  0.000000  0.861949  0.820906  1
