# generated using pymatgen
data_U(NbS2)5
_symmetry_space_group_name_H-M   'P 1'
_cell_length_a   5.85350698
_cell_length_b   7.69640503
_cell_length_c   8.44439039
_cell_angle_alpha   113.13676315
_cell_angle_beta   96.89501355
_cell_angle_gamma   104.39547365
_symmetry_Int_Tables_number   1
_chemical_formula_structural   U(NbS2)5
_chemical_formula_sum   'U1 Nb5 S10'
_cell_volume   328.56567967
_cell_formula_units_Z   1
loop_
 _symmetry_equiv_pos_site_id
 _symmetry_equiv_pos_as_xyz
  1  'x, y, z'
loop_
 _atom_site_type_symbol
 _atom_site_label
 _atom_site_symmetry_multiplicity
 _atom_site_fract_x
 _atom_site_fract_y
 _atom_site_fract_z
 _atom_site_occupancy
  U  U0  1  0.669270  0.509821  0.990106  1
  Nb  Nb1  1  0.005038  0.997013  0.000809  1
  Nb  Nb2  1  0.597050  0.203520  0.205308  1
  Nb  Nb3  1  0.195796  0.398441  0.397932  1
  Nb  Nb4  1  0.797871  0.600448  0.603030  1
  Nb  Nb5  1  0.402286  0.795191  0.797418  1
  S  S6  1  0.234039  0.058968  0.295676  1
  S  S7  1  0.051501  0.655862  0.895093  1
  S  S8  1  0.834739  0.259305  0.494504  1
  S  S9  1  0.637091  0.868140  0.104109  1
  S  S10  1  0.422503  0.443278  0.682410  1
  S  S11  1  0.896866  0.547918  0.310172  1
  S  S12  1  0.699350  0.138944  0.906361  1
  S  S13  1  0.496910  0.740255  0.506323  1
  S  S14  1  0.293337  0.342095  0.104605  1
  S  S15  1  0.099152  0.938400  0.707745  1
