# generated using pymatgen
data_Pr2ZnAu3
_symmetry_space_group_name_H-M   'P 1'
_cell_length_a   5.97307045
_cell_length_b   6.00625907
_cell_length_c   6.00625943
_cell_angle_alpha   134.68197339
_cell_angle_beta   104.34170509
_cell_angle_gamma   92.91038509
_symmetry_Int_Tables_number   1
_chemical_formula_structural   Pr2ZnAu3
_chemical_formula_sum   'Pr2 Zn1 Au3'
_cell_volume   140.29805318
_cell_formula_units_Z   1
loop_
 _symmetry_equiv_pos_site_id
 _symmetry_equiv_pos_as_xyz
  1  'x, y, z'
loop_
 _atom_site_type_symbol
 _atom_site_label
 _atom_site_symmetry_multiplicity
 _atom_site_fract_x
 _atom_site_fract_y
 _atom_site_fract_z
 _atom_site_occupancy
  Pr  Pr0  1  0.726254  0.469956  0.256297  1
  Pr  Pr1  1  0.283510  0.532570  0.750939  1
  Zn  Zn2  1  0.286898  0.831040  0.455859  1
  Au  Au3  1  0.672164  0.144050  0.528113  1
  Au  Au4  1  0.876865  0.841535  0.035330  1
  Au  Au5  1  0.154310  0.180848  0.973462  1
