# generated using pymatgen
data_Zn6Fe5Rh12W
_symmetry_space_group_name_H-M   'P 1'
_cell_length_a   4.30087800
_cell_length_b   6.04770800
_cell_length_c   12.85053700
_cell_angle_alpha   90.00000000
_cell_angle_beta   90.00122815
_cell_angle_gamma   90.00000000
_symmetry_Int_Tables_number   1
_chemical_formula_structural   Zn6Fe5Rh12W
_chemical_formula_sum   'Zn6 Fe5 Rh12 W1'
_cell_volume   334.24830517
_cell_formula_units_Z   1
loop_
 _symmetry_equiv_pos_site_id
 _symmetry_equiv_pos_as_xyz
  1  'x, y, z'
loop_
 _atom_site_type_symbol
 _atom_site_label
 _atom_site_symmetry_multiplicity
 _atom_site_fract_x
 _atom_site_fract_y
 _atom_site_fract_z
 _atom_site_occupancy
  Zn  Zn0  1  0.000000  0.000000  0.000000  1
  Zn  Zn1  1  0.499706  0.500000  0.168963  1
  Zn  Zn2  1  0.999703  0.000000  0.334977  1
  Zn  Zn3  1  0.500001  0.500000  0.500000  1
  Zn  Zn4  1  0.000296  0.000000  0.665023  1
  Zn  Zn5  1  0.500293  0.500000  0.831037  1
  Fe  Fe6  1  0.499700  0.000000  0.171076  1
  Fe  Fe7  1  0.999711  0.500000  0.335486  1
  Fe  Fe8  1  0.500001  0.000000  0.500000  1
  Fe  Fe9  1  0.000288  0.500000  0.664513  1
  Fe  Fe10  1  0.500301  0.000000  0.828925  1
  Rh  Rh11  1  0.499999  0.248236  0.000000  1
  Rh  Rh12  1  0.499999  0.751766  0.000000  1
  Rh  Rh13  1  0.999725  0.249401  0.165291  1
  Rh  Rh14  1  0.999725  0.750599  0.165291  1
  Rh  Rh15  1  0.499726  0.249350  0.333017  1
  Rh  Rh16  1  0.499726  0.750648  0.333017  1
  Rh  Rh17  1  0.000000  0.251008  0.500000  1
  Rh  Rh18  1  0.000000  0.748992  0.500000  1
  Rh  Rh19  1  0.500275  0.249350  0.666983  1
  Rh  Rh20  1  0.500275  0.750648  0.666983  1
  Rh  Rh21  1  0.000274  0.249401  0.834709  1
  Rh  Rh22  1  0.000274  0.750599  0.834709  1
  W  W23  1  0.000000  0.500000  0.000000  1
