# generated using pymatgen
data_Rb2Hg3I8
_symmetry_space_group_name_H-M   'P 1'
_cell_length_a   11.75284471
_cell_length_b   11.75284503
_cell_length_c   8.14068107
_cell_angle_alpha   84.11495620
_cell_angle_beta   84.11495372
_cell_angle_gamma   142.44046854
_symmetry_Int_Tables_number   1
_chemical_formula_structural   Rb2Hg3I8
_chemical_formula_sum   'Rb2 Hg3 I8'
_cell_volume   649.76360047
_cell_formula_units_Z   1
loop_
 _symmetry_equiv_pos_site_id
 _symmetry_equiv_pos_as_xyz
  1  'x, y, z'
loop_
 _atom_site_type_symbol
 _atom_site_label
 _atom_site_symmetry_multiplicity
 _atom_site_fract_x
 _atom_site_fract_y
 _atom_site_fract_z
 _atom_site_occupancy
  Rb  Rb0  1  0.662564  0.938633  0.522476  1
  Rb  Rb1  1  0.938633  0.662564  0.522476  1
  Hg  Hg2  1  0.953427  0.953427  0.033924  1
  Hg  Hg3  1  0.940665  0.324382  0.908029  1
  Hg  Hg4  1  0.324382  0.940665  0.908029  1
  I  I5  1  0.642646  0.642646  0.325719  1
  I  I6  1  0.999154  0.999154  0.685204  1
  I  I7  1  0.533043  0.915636  0.024996  1
  I  I8  1  0.915636  0.533043  0.024996  1
  I  I9  1  0.104867  0.481764  0.549908  1
  I  I10  1  0.481764  0.104867  0.549908  1
  I  I11  1  0.304702  0.112902  0.104342  1
  I  I12  1  0.112902  0.304702  0.104342  1
