# generated using pymatgen
data_Tb6YbY13(Cd3Ru)2
_symmetry_space_group_name_H-M   'P 1'
_cell_length_a   9.66598900
_cell_length_b   9.66598786
_cell_length_c   9.87281300
_cell_angle_alpha   90.00000000
_cell_angle_beta   90.00000000
_cell_angle_gamma   120.00000048
_symmetry_Int_Tables_number   1
_chemical_formula_structural   Tb6YbY13(Cd3Ru)2
_chemical_formula_sum   'Tb6 Yb1 Y13 Cd6 Ru2'
_cell_volume   798.84787217
_cell_formula_units_Z   1
loop_
 _symmetry_equiv_pos_site_id
 _symmetry_equiv_pos_as_xyz
  1  'x, y, z'
loop_
 _atom_site_type_symbol
 _atom_site_label
 _atom_site_symmetry_multiplicity
 _atom_site_fract_x
 _atom_site_fract_y
 _atom_site_fract_z
 _atom_site_occupancy
  Tb  Tb0  1  0.210539  0.789461  0.439266  1
  Tb  Tb1  1  0.210539  0.421079  0.439266  1
  Tb  Tb2  1  0.578921  0.789461  0.439266  1
  Tb  Tb3  1  0.789461  0.210539  0.560734  1
  Tb  Tb4  1  0.789461  0.578921  0.560734  1
  Tb  Tb5  1  0.421079  0.210539  0.560734  1
  Yb  Yb6  1  0.000000  0.000000  0.500000  1
  Y  Y7  1  0.000000  0.000000  0.000000  1
  Y  Y8  1  0.789919  0.210081  0.940628  1
  Y  Y9  1  0.789919  0.579838  0.940628  1
  Y  Y10  1  0.420162  0.210081  0.940628  1
  Y  Y11  1  0.210081  0.789919  0.059372  1
  Y  Y12  1  0.210081  0.420162  0.059372  1
  Y  Y13  1  0.579838  0.789919  0.059372  1
  Y  Y14  1  0.541657  0.458343  0.251005  1
  Y  Y15  1  0.541657  0.083315  0.251005  1
  Y  Y16  1  0.916685  0.458343  0.251005  1
  Y  Y17  1  0.458343  0.541657  0.748995  1
  Y  Y18  1  0.458343  0.916685  0.748995  1
  Y  Y19  1  0.083315  0.541657  0.748995  1
  Cd  Cd20  1  0.884918  0.115082  0.249761  1
  Cd  Cd21  1  0.884918  0.769836  0.249761  1
  Cd  Cd22  1  0.230164  0.115082  0.249761  1
  Cd  Cd23  1  0.115082  0.884918  0.750239  1
  Cd  Cd24  1  0.115082  0.230164  0.750239  1
  Cd  Cd25  1  0.769836  0.884918  0.750239  1
  Ru  Ru26  1  0.333333  0.666667  0.252385  1
  Ru  Ru27  1  0.666667  0.333333  0.747615  1
