# generated using pymatgen
data_Li4Dy4Pt3Rh
_symmetry_space_group_name_H-M   'P 1'
_cell_length_a   3.98543200
_cell_length_b   7.04814374
_cell_length_c   8.34903492
_cell_angle_alpha   89.94204878
_cell_angle_beta   90.00000000
_cell_angle_gamma   90.00000000
_symmetry_Int_Tables_number   1
_chemical_formula_structural   Li4Dy4Pt3Rh
_chemical_formula_sum   'Li4 Dy4 Pt3 Rh1'
_cell_volume   234.52341597
_cell_formula_units_Z   1
loop_
 _symmetry_equiv_pos_site_id
 _symmetry_equiv_pos_as_xyz
  1  'x, y, z'
loop_
 _atom_site_type_symbol
 _atom_site_label
 _atom_site_symmetry_multiplicity
 _atom_site_fract_x
 _atom_site_fract_y
 _atom_site_fract_z
 _atom_site_occupancy
  Li  Li0  1  0.250000  0.129110  0.941976  1
  Li  Li1  1  0.750000  0.870379  0.057157  1
  Li  Li2  1  0.250000  0.629522  0.558474  1
  Li  Li3  1  0.750000  0.372223  0.440577  1
  Dy  Dy4  1  0.250000  0.546162  0.177232  1
  Dy  Dy5  1  0.750000  0.462070  0.820118  1
  Dy  Dy6  1  0.250000  0.043898  0.319505  1
  Dy  Dy7  1  0.750000  0.953657  0.684676  1
  Pt  Pt8  1  0.750000  0.752766  0.376156  1
  Pt  Pt9  1  0.250000  0.246441  0.624049  1
  Pt  Pt10  1  0.750000  0.251865  0.124467  1
  Rh  Rh11  1  0.250000  0.741908  0.875613  1
