# generated using pymatgen
data_La6YbPtI12
_symmetry_space_group_name_H-M   'P 1'
_cell_length_a   10.18704012
_cell_length_b   10.18703951
_cell_length_c   10.18704167
_cell_angle_alpha   106.99025702
_cell_angle_beta   106.99025607
_cell_angle_gamma   106.99025300
_symmetry_Int_Tables_number   1
_chemical_formula_structural   La6YbPtI12
_chemical_formula_sum   'La6 Yb1 Pt1 I12'
_cell_volume   880.65372384
_cell_formula_units_Z   1
loop_
 _symmetry_equiv_pos_site_id
 _symmetry_equiv_pos_as_xyz
  1  'x, y, z'
loop_
 _atom_site_type_symbol
 _atom_site_label
 _atom_site_symmetry_multiplicity
 _atom_site_fract_x
 _atom_site_fract_y
 _atom_site_fract_z
 _atom_site_occupancy
  La  La0  1  0.103143  0.028255  0.309847  1
  La  La1  1  0.309847  0.103143  0.028255  1
  La  La2  1  0.028255  0.309847  0.103143  1
  La  La3  1  0.896857  0.971745  0.690153  1
  La  La4  1  0.690153  0.896857  0.971745  1
  La  La5  1  0.971745  0.690153  0.896857  1
  Yb  Yb6  1  0.500000  0.500000  0.500000  1
  Pt  Pt7  1  0.000000  0.000000  0.000000  1
  I  I8  1  0.073857  0.680577  0.226597  1
  I  I9  1  0.226597  0.073857  0.680577  1
  I  I10  1  0.680577  0.226597  0.073857  1
  I  I11  1  0.926143  0.319423  0.773403  1
  I  I12  1  0.773403  0.926143  0.319423  1
  I  I13  1  0.319423  0.773403  0.926143  1
  I  I14  1  0.464746  0.165793  0.387998  1
  I  I15  1  0.387998  0.464746  0.165793  1
  I  I16  1  0.165793  0.387998  0.464746  1
  I  I17  1  0.535254  0.834207  0.612002  1
  I  I18  1  0.612002  0.535254  0.834207  1
  I  I19  1  0.834207  0.612002  0.535254  1
