# generated using pymatgen
data_DyEr5Rh18
_symmetry_space_group_name_H-M   'P 1'
_cell_length_a   5.24862000
_cell_length_b   5.24884504
_cell_length_c   17.51296600
_cell_angle_alpha   90.00000000
_cell_angle_beta   90.00000000
_cell_angle_gamma   119.99963198
_symmetry_Int_Tables_number   1
_chemical_formula_structural   DyEr5Rh18
_chemical_formula_sum   'Dy1 Er5 Rh18'
_cell_volume   417.83116416
_cell_formula_units_Z   1
loop_
 _symmetry_equiv_pos_site_id
 _symmetry_equiv_pos_as_xyz
  1  'x, y, z'
loop_
 _atom_site_type_symbol
 _atom_site_label
 _atom_site_symmetry_multiplicity
 _atom_site_fract_x
 _atom_site_fract_y
 _atom_site_fract_z
 _atom_site_occupancy
  Dy  Dy0  1  0.666674  0.333339  0.250000  1
  Er  Er1  1  0.333340  0.666668  0.542041  1
  Er  Er2  1  0.666661  0.333332  0.041347  1
  Er  Er3  1  0.666661  0.333332  0.458653  1
  Er  Er4  1  0.333340  0.666668  0.957959  1
  Er  Er5  1  0.333323  0.666658  0.750000  1
  Rh  Rh6  1  0.167453  0.334889  0.124760  1
  Rh  Rh7  1  0.832548  0.665104  0.625420  1
  Rh  Rh8  1  0.665114  0.832558  0.124758  1
  Rh  Rh9  1  0.167440  0.832565  0.124763  1
  Rh  Rh10  1  0.832545  0.167445  0.625421  1
  Rh  Rh11  1  0.334901  0.167450  0.625418  1
  Rh  Rh12  1  0.832548  0.665104  0.874580  1
  Rh  Rh13  1  0.832545  0.167445  0.874579  1
  Rh  Rh14  1  0.334901  0.167450  0.874582  1
  Rh  Rh15  1  0.665114  0.832558  0.375242  1
  Rh  Rh16  1  0.167440  0.832565  0.375237  1
  Rh  Rh17  1  0.167453  0.334889  0.375240  1
  Rh  Rh18  1  0.000011  0.000005  0.250000  1
  Rh  Rh19  1  0.999998  0.000002  0.750000  1
  Rh  Rh20  1  0.333320  0.666660  0.250000  1
  Rh  Rh21  1  0.666669  0.333318  0.750000  1
  Rh  Rh22  1  0.000000  0.999997  0.999694  1
  Rh  Rh23  1  0.000000  0.999997  0.500306  1
