# generated using pymatgen
data_Nd10Tl3Tc
_symmetry_space_group_name_H-M   'P 1'
_cell_length_a   10.15071800
_cell_length_b   10.15071780
_cell_length_c   10.03488900
_cell_angle_alpha   90.00000000
_cell_angle_beta   90.00000000
_cell_angle_gamma   119.99999414
_symmetry_Int_Tables_number   1
_chemical_formula_structural   Nd10Tl3Tc
_chemical_formula_sum   'Nd20 Tl6 Tc2'
_cell_volume   895.44052847
_cell_formula_units_Z   2
loop_
 _symmetry_equiv_pos_site_id
 _symmetry_equiv_pos_as_xyz
  1  'x, y, z'
loop_
 _atom_site_type_symbol
 _atom_site_label
 _atom_site_symmetry_multiplicity
 _atom_site_fract_x
 _atom_site_fract_y
 _atom_site_fract_z
 _atom_site_occupancy
  Nd  Nd0  1  0.000000  0.000000  0.500000  1
  Nd  Nd1  1  0.000000  0.000000  0.000000  1
  Nd  Nd2  1  0.208800  0.791200  0.439122  1
  Nd  Nd3  1  0.208800  0.417599  0.439122  1
  Nd  Nd4  1  0.582401  0.791200  0.439122  1
  Nd  Nd5  1  0.791200  0.208800  0.560878  1
  Nd  Nd6  1  0.791200  0.582401  0.560878  1
  Nd  Nd7  1  0.417599  0.208800  0.560878  1
  Nd  Nd8  1  0.791200  0.208800  0.939122  1
  Nd  Nd9  1  0.791200  0.582401  0.939122  1
  Nd  Nd10  1  0.417599  0.208800  0.939122  1
  Nd  Nd11  1  0.208800  0.791200  0.060878  1
  Nd  Nd12  1  0.208800  0.417599  0.060878  1
  Nd  Nd13  1  0.582401  0.791200  0.060878  1
  Nd  Nd14  1  0.534461  0.465539  0.250000  1
  Nd  Nd15  1  0.534461  0.068922  0.250000  1
  Nd  Nd16  1  0.931078  0.465539  0.250000  1
  Nd  Nd17  1  0.465539  0.534461  0.750000  1
  Nd  Nd18  1  0.465539  0.931078  0.750000  1
  Nd  Nd19  1  0.068922  0.534461  0.750000  1
  Tl  Tl20  1  0.879383  0.120617  0.250000  1
  Tl  Tl21  1  0.879383  0.758766  0.250000  1
  Tl  Tl22  1  0.241234  0.120617  0.250000  1
  Tl  Tl23  1  0.120617  0.879383  0.750000  1
  Tl  Tl24  1  0.120617  0.241234  0.750000  1
  Tl  Tl25  1  0.758766  0.879383  0.750000  1
  Tc  Tc26  1  0.333333  0.666667  0.250000  1
  Tc  Tc27  1  0.666667  0.333333  0.750000  1
