# generated using pymatgen
data_YbPa3(SnPd2)2
_symmetry_space_group_name_H-M   'P 1'
_cell_length_a   7.77776299
_cell_length_b   7.77392899
_cell_length_c   3.68689300
_cell_angle_alpha   90.00000000
_cell_angle_beta   90.00000000
_cell_angle_gamma   90.08192958
_symmetry_Int_Tables_number   1
_chemical_formula_structural   YbPa3(SnPd2)2
_chemical_formula_sum   'Yb1 Pa3 Sn2 Pd4'
_cell_volume   222.92324880
_cell_formula_units_Z   1
loop_
 _symmetry_equiv_pos_site_id
 _symmetry_equiv_pos_as_xyz
  1  'x, y, z'
loop_
 _atom_site_type_symbol
 _atom_site_label
 _atom_site_symmetry_multiplicity
 _atom_site_fract_x
 _atom_site_fract_y
 _atom_site_fract_z
 _atom_site_occupancy
  Yb  Yb0  1  0.825461  0.674540  0.500000  1
  Pa  Pa1  1  0.676502  0.174974  0.500000  1
  Pa  Pa2  1  0.325055  0.823478  0.500000  1
  Pa  Pa3  1  0.171957  0.328102  0.500000  1
  Sn  Sn4  1  0.995556  0.991638  0.000000  1
  Sn  Sn5  1  0.508335  0.504493  0.000000  1
  Pd  Pd6  1  0.136752  0.623863  0.000000  1
  Pd  Pd7  1  0.876227  0.363277  0.000000  1
  Pd  Pd8  1  0.617424  0.882474  0.000000  1
  Pd  Pd9  1  0.366730  0.133163  0.000000  1
