# generated using pymatgen
data_Er4Ga18Ir3OsPd2
_symmetry_space_group_name_H-M   'P 1'
_cell_length_a   7.60215162
_cell_length_b   7.60215219
_cell_length_c   9.48031215
_cell_angle_alpha   90.05834937
_cell_angle_beta   90.05834930
_cell_angle_gamma   119.86533352
_symmetry_Int_Tables_number   1
_chemical_formula_structural   Er4Ga18Ir3OsPd2
_chemical_formula_sum   'Er4 Ga18 Ir3 Os1 Pd2'
_cell_volume   475.13080997
_cell_formula_units_Z   1
loop_
 _symmetry_equiv_pos_site_id
 _symmetry_equiv_pos_as_xyz
  1  'x, y, z'
loop_
 _atom_site_type_symbol
 _atom_site_label
 _atom_site_symmetry_multiplicity
 _atom_site_fract_x
 _atom_site_fract_y
 _atom_site_fract_z
 _atom_site_occupancy
  Er  Er0  1  0.996288  0.668424  0.749274  1
  Er  Er1  1  0.003002  0.331022  0.250440  1
  Er  Er2  1  0.668978  0.996998  0.749560  1
  Er  Er3  1  0.331576  0.003712  0.250726  1
  Ga  Ga4  1  0.127830  0.128483  0.750054  1
  Ga  Ga5  1  0.871517  0.872170  0.249946  1
  Ga  Ga6  1  0.997757  0.337107  0.581074  1
  Ga  Ga7  1  0.999917  0.661508  0.419047  1
  Ga  Ga8  1  0.001104  0.663359  0.082100  1
  Ga  Ga9  1  0.336641  0.998896  0.917900  1
  Ga  Ga10  1  0.998951  0.337021  0.918236  1
  Ga  Ga11  1  0.662979  0.001049  0.081764  1
  Ga  Ga12  1  0.662893  0.002243  0.418926  1
  Ga  Ga13  1  0.338492  0.000083  0.580953  1
  Ga  Ga14  1  0.334859  0.335172  0.068867  1
  Ga  Ga15  1  0.664828  0.665141  0.931133  1
  Ga  Ga16  1  0.664609  0.662956  0.567315  1
  Ga  Ga17  1  0.337044  0.335391  0.432685  1
  Ga  Ga18  1  0.336368  0.546039  0.749692  1
  Ga  Ga19  1  0.663095  0.452623  0.251088  1
  Ga  Ga20  1  0.547377  0.336905  0.748912  1
  Ga  Ga21  1  0.453961  0.663632  0.250308  1
  Ir  Ir22  1  0.328052  0.671948  0.500000  1
  Ir  Ir23  1  0.328195  0.671805  0.000000  1
  Ir  Ir24  1  0.671502  0.328498  0.000000  1
  Os  Os25  1  0.672417  0.327583  0.500000  1
  Pd  Pd26  1  0.999791  0.000209  0.500000  1
  Pd  Pd27  1  0.999975  0.000025  0.000000  1
