# generated using pymatgen
data_K3Li2HfSb3
_symmetry_space_group_name_H-M   'P 1'
_cell_length_a   11.02914983
_cell_length_b   11.02914885
_cell_length_c   16.09121800
_cell_angle_alpha   90.00000000
_cell_angle_beta   90.00000000
_cell_angle_gamma   143.31538321
_symmetry_Int_Tables_number   1
_chemical_formula_structural   K3Li2HfSb3
_chemical_formula_sum   'K12 Li8 Hf4 Sb12'
_cell_volume   1169.35220408
_cell_formula_units_Z   4
loop_
 _symmetry_equiv_pos_site_id
 _symmetry_equiv_pos_as_xyz
  1  'x, y, z'
loop_
 _atom_site_type_symbol
 _atom_site_label
 _atom_site_symmetry_multiplicity
 _atom_site_fract_x
 _atom_site_fract_y
 _atom_site_fract_z
 _atom_site_occupancy
  K  K0  1  0.600151  0.942965  0.828721  1
  K  K1  1  0.276347  0.276347  0.323286  1
  K  K2  1  0.223653  0.223653  0.823286  1
  K  K3  1  0.723653  0.723653  0.676714  1
  K  K4  1  0.442965  0.100151  0.671279  1
  K  K5  1  0.899849  0.557035  0.328721  1
  K  K6  1  0.057035  0.399849  0.171279  1
  K  K7  1  0.399849  0.057035  0.171279  1
  K  K8  1  0.557035  0.899849  0.328721  1
  K  K9  1  0.100151  0.442965  0.671279  1
  K  K10  1  0.942965  0.600151  0.828721  1
  K  K11  1  0.776347  0.776347  0.176714  1
  Li  Li12  1  0.084106  0.915894  0.000000  1
  Li  Li13  1  0.584106  0.415894  0.500000  1
  Li  Li14  1  0.915894  0.084106  0.000000  1
  Li  Li15  1  0.749819  0.250181  0.000000  1
  Li  Li16  1  0.750181  0.249819  0.500000  1
  Li  Li17  1  0.250181  0.749819  0.000000  1
  Li  Li18  1  0.249819  0.750181  0.500000  1
  Li  Li19  1  0.415894  0.584106  0.500000  1
  Hf  Hf20  1  0.086627  0.913373  0.500000  1
  Hf  Hf21  1  0.413373  0.586627  0.000000  1
  Hf  Hf22  1  0.913373  0.086627  0.500000  1
  Hf  Hf23  1  0.586627  0.413373  0.000000  1
  Sb  Sb24  1  0.073186  0.400211  0.403319  1
  Sb  Sb25  1  0.900211  0.573186  0.096681  1
  Sb  Sb26  1  0.426814  0.099789  0.903319  1
  Sb  Sb27  1  0.599789  0.926814  0.596681  1
  Sb  Sb28  1  0.926814  0.599789  0.596681  1
  Sb  Sb29  1  0.099789  0.426814  0.903319  1
  Sb  Sb30  1  0.573186  0.900211  0.096681  1
  Sb  Sb31  1  0.400211  0.073186  0.403319  1
  Sb  Sb32  1  0.233319  0.233319  0.593800  1
  Sb  Sb33  1  0.733319  0.733319  0.906200  1
  Sb  Sb34  1  0.266681  0.266681  0.093800  1
  Sb  Sb35  1  0.766681  0.766681  0.406200  1
