# generated using pymatgen
data_Tm3Lu(AlRh)4
_symmetry_space_group_name_H-M   'P 1'
_cell_length_a   4.16945100
_cell_length_b   6.80532862
_cell_length_c   7.93820872
_cell_angle_alpha   90.04877806
_cell_angle_beta   90.00000000
_cell_angle_gamma   90.00000000
_symmetry_Int_Tables_number   1
_chemical_formula_structural   Tm3Lu(AlRh)4
_chemical_formula_sum   'Tm3 Lu1 Al4 Rh4'
_cell_volume   225.24249630
_cell_formula_units_Z   1
loop_
 _symmetry_equiv_pos_site_id
 _symmetry_equiv_pos_as_xyz
  1  'x, y, z'
loop_
 _atom_site_type_symbol
 _atom_site_label
 _atom_site_symmetry_multiplicity
 _atom_site_fract_x
 _atom_site_fract_y
 _atom_site_fract_z
 _atom_site_occupancy
  Tm  Tm0  1  0.750000  0.535984  0.821808  1
  Tm  Tm1  1  0.250000  0.464036  0.178367  1
  Tm  Tm2  1  0.750000  0.035922  0.677915  1
  Lu  Lu3  1  0.250000  0.963788  0.321732  1
  Al  Al4  1  0.750000  0.637147  0.440759  1
  Al  Al5  1  0.750000  0.136617  0.059384  1
  Al  Al6  1  0.250000  0.363044  0.559016  1
  Al  Al7  1  0.250000  0.863271  0.941200  1
  Rh  Rh8  1  0.750000  0.764309  0.123973  1
  Rh  Rh9  1  0.750000  0.262974  0.376348  1
  Rh  Rh10  1  0.250000  0.236337  0.876465  1
  Rh  Rh11  1  0.250000  0.736571  0.623033  1
