# generated using pymatgen
data_Sr11Sm(GeAu)12
_symmetry_space_group_name_H-M   'P 1'
_cell_length_a   4.65711400
_cell_length_b   7.97159888
_cell_length_c   23.23864941
_cell_angle_alpha   90.13058947
_cell_angle_beta   90.00000000
_cell_angle_gamma   90.00000000
_symmetry_Int_Tables_number   1
_chemical_formula_structural   Sr11Sm(GeAu)12
_chemical_formula_sum   'Sr11 Sm1 Ge12 Au12'
_cell_volume   862.72436299
_cell_formula_units_Z   1
loop_
 _symmetry_equiv_pos_site_id
 _symmetry_equiv_pos_as_xyz
  1  'x, y, z'
loop_
 _atom_site_type_symbol
 _atom_site_label
 _atom_site_symmetry_multiplicity
 _atom_site_fract_x
 _atom_site_fract_y
 _atom_site_fract_z
 _atom_site_occupancy
  Sr  Sr0  1  0.250000  0.794808  0.166806  1
  Sr  Sr1  1  0.250000  0.784266  0.502025  1
  Sr  Sr2  1  0.250000  0.705236  0.332558  1
  Sr  Sr3  1  0.750000  0.218138  0.499088  1
  Sr  Sr4  1  0.750000  0.290867  0.667725  1
  Sr  Sr5  1  0.750000  0.278232  0.999254  1
  Sr  Sr6  1  0.250000  0.788915  0.831309  1
  Sr  Sr7  1  0.250000  0.728184  0.999538  1
  Sr  Sr8  1  0.750000  0.209524  0.167497  1
  Sr  Sr9  1  0.750000  0.295772  0.333411  1
  Sr  Sr10  1  0.250000  0.707223  0.667767  1
  Sm  Sm11  1  0.750000  0.209496  0.834051  1
  Ge  Ge12  1  0.250000  0.410304  0.893492  1
  Ge  Ge13  1  0.750000  0.917980  0.730164  1
  Ge  Ge14  1  0.750000  0.582694  0.225195  1
  Ge  Ge15  1  0.250000  0.090318  0.068259  1
  Ge  Ge16  1  0.750000  0.914406  0.916718  1
  Ge  Ge17  1  0.750000  0.917257  0.607209  1
  Ge  Ge18  1  0.250000  0.409803  0.571087  1
  Ge  Ge19  1  0.250000  0.083172  0.393576  1
  Ge  Ge20  1  0.250000  0.081757  0.274843  1
  Ge  Ge21  1  0.750000  0.590853  0.432506  1
  Ge  Ge22  1  0.250000  0.409783  0.775278  1
  Ge  Ge23  1  0.750000  0.583778  0.105590  1
  Au  Au24  1  0.750000  0.579400  0.903508  1
  Au  Au25  1  0.250000  0.418576  0.429965  1
  Au  Au26  1  0.750000  0.582751  0.570700  1
  Au  Au27  1  0.750000  0.915834  0.404405  1
  Au  Au28  1  0.250000  0.417812  0.093618  1
  Au  Au29  1  0.250000  0.415707  0.237416  1
  Au  Au30  1  0.750000  0.916076  0.262533  1
  Au  Au31  1  0.250000  0.084896  0.742408  1
  Au  Au32  1  0.250000  0.085345  0.925897  1
  Au  Au33  1  0.750000  0.918097  0.074394  1
  Au  Au34  1  0.250000  0.084503  0.596453  1
  Au  Au35  1  0.750000  0.578240  0.763754  1
