# generated using pymatgen
data_Hf2Fe9P6Os
_symmetry_space_group_name_H-M   'P 1'
_cell_length_a   3.63792200
_cell_length_b   10.09779100
_cell_length_c   11.63996700
_cell_angle_alpha   90.00000000
_cell_angle_beta   90.00000000
_cell_angle_gamma   90.00000000
_symmetry_Int_Tables_number   1
_chemical_formula_structural   Hf2Fe9P6Os
_chemical_formula_sum   'Hf4 Fe18 P12 Os2'
_cell_volume   427.59390874
_cell_formula_units_Z   2
loop_
 _symmetry_equiv_pos_site_id
 _symmetry_equiv_pos_as_xyz
  1  'x, y, z'
loop_
 _atom_site_type_symbol
 _atom_site_label
 _atom_site_symmetry_multiplicity
 _atom_site_fract_x
 _atom_site_fract_y
 _atom_site_fract_z
 _atom_site_occupancy
  Hf  Hf0  1  0.250000  0.578385  0.702333  1
  Hf  Hf1  1  0.250000  0.921615  0.202333  1
  Hf  Hf2  1  0.750000  0.420627  0.295364  1
  Hf  Hf3  1  0.750000  0.079373  0.795364  1
  Fe  Fe4  1  0.750000  0.290955  0.008843  1
  Fe  Fe5  1  0.750000  0.209045  0.508843  1
  Fe  Fe6  1  0.250000  0.404276  0.486418  1
  Fe  Fe7  1  0.250000  0.095724  0.986418  1
  Fe  Fe8  1  0.750000  0.592199  0.516018  1
  Fe  Fe9  1  0.750000  0.907801  0.016018  1
  Fe  Fe10  1  0.250000  0.223529  0.173776  1
  Fe  Fe11  1  0.250000  0.276471  0.673776  1
  Fe  Fe12  1  0.750000  0.773770  0.825644  1
  Fe  Fe13  1  0.750000  0.726230  0.325644  1
  Fe  Fe14  1  0.250000  0.883861  0.703619  1
  Fe  Fe15  1  0.250000  0.616139  0.203619  1
  Fe  Fe16  1  0.750000  0.120897  0.297507  1
  Fe  Fe17  1  0.750000  0.379103  0.797507  1
  Fe  Fe18  1  0.250000  0.460443  0.933205  1
  Fe  Fe19  1  0.250000  0.039557  0.433205  1
  Fe  Fe20  1  0.750000  0.534518  0.067181  1
  Fe  Fe21  1  0.750000  0.965482  0.567181  1
  P  P22  1  0.250000  0.421583  0.116832  1
  P  P23  1  0.250000  0.078417  0.616832  1
  P  P24  1  0.750000  0.573325  0.882364  1
  P  P25  1  0.750000  0.926675  0.382364  1
  P  P26  1  0.250000  0.262927  0.864382  1
  P  P27  1  0.250000  0.237073  0.364382  1
  P  P28  1  0.750000  0.734665  0.137648  1
  P  P29  1  0.750000  0.765335  0.637648  1
  P  P30  1  0.250000  0.593978  0.390432  1
  P  P31  1  0.250000  0.906022  0.890432  1
  P  P32  1  0.750000  0.398391  0.607859  1
  P  P33  1  0.750000  0.101609  0.107859  1
  Os  Os34  1  0.250000  0.709401  0.990574  1
  Os  Os35  1  0.250000  0.790599  0.490574  1
