# generated using pymatgen
data_Tb3YbOs8
_symmetry_space_group_name_H-M   'P 1'
_cell_length_a   5.34322500
_cell_length_b   5.34322424
_cell_length_c   8.79790400
_cell_angle_alpha   90.00000000
_cell_angle_beta   90.00000000
_cell_angle_gamma   119.99999851
_symmetry_Int_Tables_number   1
_chemical_formula_structural   Tb3YbOs8
_chemical_formula_sum   'Tb3 Yb1 Os8'
_cell_volume   217.52877802
_cell_formula_units_Z   1
loop_
 _symmetry_equiv_pos_site_id
 _symmetry_equiv_pos_as_xyz
  1  'x, y, z'
loop_
 _atom_site_type_symbol
 _atom_site_label
 _atom_site_symmetry_multiplicity
 _atom_site_fract_x
 _atom_site_fract_y
 _atom_site_fract_z
 _atom_site_occupancy
  Tb  Tb0  1  0.333333  0.666667  0.429590  1
  Tb  Tb1  1  0.666667  0.333333  0.565659  1
  Tb  Tb2  1  0.666667  0.333333  0.938965  1
  Yb  Yb3  1  0.333333  0.666667  0.063379  1
  Os  Os4  1  0.000000  0.000000  0.500842  1
  Os  Os5  1  0.000000  0.000000  0.000829  1
  Os  Os6  1  0.828073  0.171927  0.250062  1
  Os  Os7  1  0.828073  0.656146  0.250062  1
  Os  Os8  1  0.343854  0.171927  0.250062  1
  Os  Os9  1  0.172863  0.827137  0.750182  1
  Os  Os10  1  0.172863  0.345725  0.750182  1
  Os  Os11  1  0.654275  0.827137  0.750182  1
