# generated using pymatgen
data_VInP3(HO3)3
_symmetry_space_group_name_H-M   'P 1'
_cell_length_a   8.31189418
_cell_length_b   8.32791586
_cell_length_c   7.68954100
_cell_angle_alpha   90.00000000
_cell_angle_beta   90.00000000
_cell_angle_gamma   120.00358681
_symmetry_Int_Tables_number   1
_chemical_formula_structural   VInP3(HO3)3
_chemical_formula_sum   'V2 In2 P6 H6 O18'
_cell_volume   460.94773483
_cell_formula_units_Z   2
loop_
 _symmetry_equiv_pos_site_id
 _symmetry_equiv_pos_as_xyz
  1  'x, y, z'
loop_
 _atom_site_type_symbol
 _atom_site_label
 _atom_site_symmetry_multiplicity
 _atom_site_fract_x
 _atom_site_fract_y
 _atom_site_fract_z
 _atom_site_occupancy
  V  V0  1  0.666557  0.332812  0.049360  1
  V  V1  1  0.333443  0.667188  0.549360  1
  In  In2  1  0.334499  0.667166  0.953868  1
  In  In3  1  0.665501  0.332834  0.453868  1
  P  P4  1  0.353863  0.044560  0.750630  1
  P  P5  1  0.308999  0.353855  0.249237  1
  P  P6  1  0.044799  0.689918  0.249731  1
  P  P7  1  0.955201  0.310082  0.749731  1
  P  P8  1  0.691001  0.646145  0.749237  1
  P  P9  1  0.646137  0.955440  0.250630  1
  H  H10  1  0.816155  0.837264  0.763150  1
  H  H11  1  0.979285  0.815331  0.265239  1
  H  H12  1  0.837068  0.019749  0.266593  1
  H  H13  1  0.162932  0.980251  0.766593  1
  H  H14  1  0.020715  0.184669  0.765239  1
  H  H15  1  0.183845  0.162736  0.263150  1
  O  O16  1  0.554349  0.845200  0.415374  1
  O  O17  1  0.712460  0.556716  0.913276  1
  O  O18  1  0.845602  0.290635  0.915322  1
  O  O19  1  0.154398  0.709365  0.415322  1
  O  O20  1  0.507450  0.375365  0.238274  1
  O  O21  1  0.131493  0.507992  0.738673  1
  O  O22  1  0.376614  0.869335  0.740821  1
  O  O23  1  0.623386  0.130665  0.240821  1
  O  O24  1  0.868507  0.492008  0.238673  1
  O  O25  1  0.492550  0.624635  0.738274  1
  O  O26  1  0.586579  0.845658  0.080665  1
  O  O27  1  0.739800  0.585276  0.579035  1
  O  O28  1  0.843859  0.259164  0.580752  1
  O  O29  1  0.156141  0.740836  0.080752  1
  O  O30  1  0.260200  0.414724  0.079035  1
  O  O31  1  0.413421  0.154342  0.580665  1
  O  O32  1  0.445651  0.154800  0.915374  1
  O  O33  1  0.287540  0.443284  0.413276  1
