# generated using pymatgen
data_Y15Th(AlNi)4
_symmetry_space_group_name_H-M   'P 1'
_cell_length_a   9.51667053
_cell_length_b   9.51666986
_cell_length_c   9.51667001
_cell_angle_alpha   59.86843810
_cell_angle_beta   59.86843387
_cell_angle_gamma   59.86844316
_symmetry_Int_Tables_number   1
_chemical_formula_structural   Y15Th(AlNi)4
_chemical_formula_sum   'Y15 Th1 Al4 Ni4'
_cell_volume   607.63336987
_cell_formula_units_Z   1
loop_
 _symmetry_equiv_pos_site_id
 _symmetry_equiv_pos_as_xyz
  1  'x, y, z'
loop_
 _atom_site_type_symbol
 _atom_site_label
 _atom_site_symmetry_multiplicity
 _atom_site_fract_x
 _atom_site_fract_y
 _atom_site_fract_z
 _atom_site_occupancy
  Y  Y0  1  0.601226  0.601226  0.194185  1
  Y  Y1  1  0.601226  0.194185  0.601226  1
  Y  Y2  1  0.194185  0.601226  0.601226  1
  Y  Y3  1  0.058755  0.441878  0.441878  1
  Y  Y4  1  0.442962  0.058607  0.058607  1
  Y  Y5  1  0.441878  0.058755  0.441878  1
  Y  Y6  1  0.058607  0.442962  0.058607  1
  Y  Y7  1  0.441878  0.441878  0.058755  1
  Y  Y8  1  0.058607  0.058607  0.442962  1
  Y  Y9  1  0.187603  0.813648  0.813648  1
  Y  Y10  1  0.814288  0.185662  0.185662  1
  Y  Y11  1  0.813648  0.187603  0.813648  1
  Y  Y12  1  0.185662  0.814288  0.185662  1
  Y  Y13  1  0.813648  0.813648  0.187603  1
  Y  Y14  1  0.185662  0.185662  0.814288  1
  Th  Th15  1  0.597025  0.597025  0.597025  1
  Al  Al16  1  0.828174  0.828174  0.828174  1
  Al  Al17  1  0.827789  0.827789  0.516574  1
  Al  Al18  1  0.827789  0.516574  0.827789  1
  Al  Al19  1  0.516574  0.827789  0.827789  1
  Ni  Ni20  1  0.392934  0.392934  0.392934  1
  Ni  Ni21  1  0.394728  0.394728  0.820425  1
  Ni  Ni22  1  0.394728  0.820425  0.394728  1
  Ni  Ni23  1  0.820425  0.394728  0.394728  1
