# generated using pymatgen
data_CePrTh(SnIr)3
_symmetry_space_group_name_H-M   'P 1'
_cell_length_a   7.58220950
_cell_length_b   7.60866793
_cell_length_c   4.11135500
_cell_angle_alpha   90.00000000
_cell_angle_beta   90.00000000
_cell_angle_gamma   120.48048213
_symmetry_Int_Tables_number   1
_chemical_formula_structural   CePrTh(SnIr)3
_chemical_formula_sum   'Ce1 Pr1 Th1 Sn3 Ir3'
_cell_volume   204.40752892
_cell_formula_units_Z   1
loop_
 _symmetry_equiv_pos_site_id
 _symmetry_equiv_pos_as_xyz
  1  'x, y, z'
loop_
 _atom_site_type_symbol
 _atom_site_label
 _atom_site_symmetry_multiplicity
 _atom_site_fract_x
 _atom_site_fract_y
 _atom_site_fract_z
 _atom_site_occupancy
  Ce  Ce0  1  0.587713  0.000849  0.000000  1
  Pr  Pr1  1  0.410471  0.410292  0.000000  1
  Th  Th2  1  0.001008  0.587037  0.000000  1
  Sn  Sn3  1  0.254572  0.006676  0.500000  1
  Sn  Sn4  1  0.003078  0.247749  0.500000  1
  Sn  Sn5  1  0.740579  0.744034  0.500000  1
  Ir  Ir6  1  0.330518  0.682743  0.500000  1
  Ir  Ir7  1  0.682328  0.331806  0.500000  1
  Ir  Ir8  1  0.989731  0.988814  0.000000  1
