# generated using pymatgen
data_Y9Mg(HgPt2)2
_symmetry_space_group_name_H-M   'P 1'
_cell_length_a   8.70570234
_cell_length_b   8.70570250
_cell_length_c   8.70570136
_cell_angle_alpha   126.80683914
_cell_angle_beta   126.80683855
_cell_angle_gamma   78.56603530
_symmetry_Int_Tables_number   1
_chemical_formula_structural   Y9Mg(HgPt2)2
_chemical_formula_sum   'Y9 Mg1 Hg2 Pt4'
_cell_volume   409.46171949
_cell_formula_units_Z   1
loop_
 _symmetry_equiv_pos_site_id
 _symmetry_equiv_pos_as_xyz
  1  'x, y, z'
loop_
 _atom_site_type_symbol
 _atom_site_label
 _atom_site_symmetry_multiplicity
 _atom_site_fract_x
 _atom_site_fract_y
 _atom_site_fract_z
 _atom_site_occupancy
  Y  Y0  1  0.000000  0.000000  0.000000  1
  Y  Y1  1  0.783126  0.314776  0.826474  1
  Y  Y2  1  0.216874  0.685224  0.173526  1
  Y  Y3  1  0.488302  0.956652  0.173526  1
  Y  Y4  1  0.314776  0.488302  0.531649  1
  Y  Y5  1  0.043348  0.216874  0.531649  1
  Y  Y6  1  0.511698  0.043348  0.826474  1
  Y  Y7  1  0.685224  0.511698  0.468351  1
  Y  Y8  1  0.956652  0.783126  0.468351  1
  Mg  Mg9  1  0.500000  0.500000  0.000000  1
  Hg  Hg10  1  0.242720  0.242720  0.000000  1
  Hg  Hg11  1  0.757280  0.757280  0.000000  1
  Pt  Pt12  1  0.131012  0.639787  0.770801  1
  Pt  Pt13  1  0.868988  0.360213  0.229199  1
  Pt  Pt14  1  0.639787  0.868988  0.508775  1
  Pt  Pt15  1  0.360213  0.131012  0.491225  1
