# generated using pymatgen
data_Sc8Al3B24Rh
_symmetry_space_group_name_H-M   'P 1'
_cell_length_a   8.94142654
_cell_length_b   11.23060196
_cell_length_c   3.43346200
_cell_angle_alpha   90.00000000
_cell_angle_beta   90.00000000
_cell_angle_gamma   90.12757923
_symmetry_Int_Tables_number   1
_chemical_formula_structural   Sc8Al3B24Rh
_chemical_formula_sum   'Sc8 Al3 B24 Rh1'
_cell_volume   344.77916740
_cell_formula_units_Z   1
loop_
 _symmetry_equiv_pos_site_id
 _symmetry_equiv_pos_as_xyz
  1  'x, y, z'
loop_
 _atom_site_type_symbol
 _atom_site_label
 _atom_site_symmetry_multiplicity
 _atom_site_fract_x
 _atom_site_fract_y
 _atom_site_fract_z
 _atom_site_occupancy
  Sc  Sc0  1  0.681189  0.086972  0.000000  1
  Sc  Sc1  1  0.055827  0.128927  0.000000  1
  Sc  Sc2  1  0.556266  0.371325  0.000000  1
  Sc  Sc3  1  0.180713  0.413870  0.000000  1
  Sc  Sc4  1  0.818694  0.586784  0.000000  1
  Sc  Sc5  1  0.442869  0.626572  0.000000  1
  Sc  Sc6  1  0.945143  0.872118  0.000000  1
  Sc  Sc7  1  0.320382  0.912822  0.000000  1
  Al  Al8  1  0.859493  0.318940  0.000000  1
  Al  Al9  1  0.140563  0.680064  0.000000  1
  Al  Al10  1  0.639562  0.821373  0.000000  1
  B  B11  1  0.899164  0.027445  0.500000  1
  B  B12  1  0.448536  0.064515  0.500000  1
  B  B13  1  0.246777  0.078615  0.500000  1
  B  B14  1  0.869012  0.179742  0.500000  1
  B  B15  1  0.521480  0.211200  0.500000  1
  B  B16  1  0.204142  0.237891  0.500000  1
  B  B17  1  0.702443  0.262281  0.500000  1
  B  B18  1  0.021903  0.288641  0.500000  1
  B  B19  1  0.368606  0.318528  0.500000  1
  B  B20  1  0.747612  0.423097  0.500000  1
  B  B21  1  0.948461  0.437044  0.500000  1
  B  B22  1  0.399753  0.472015  0.500000  1
  B  B23  1  0.601312  0.527761  0.500000  1
  B  B24  1  0.051567  0.563326  0.500000  1
  B  B25  1  0.252606  0.577779  0.500000  1
  B  B26  1  0.630530  0.680848  0.500000  1
  B  B27  1  0.978275  0.711682  0.500000  1
  B  B28  1  0.297570  0.738115  0.500000  1
  B  B29  1  0.796908  0.762057  0.500000  1
  B  B30  1  0.478016  0.787814  0.500000  1
  B  B31  1  0.130724  0.819052  0.500000  1
  B  B32  1  0.753725  0.922017  0.500000  1
  B  B33  1  0.551614  0.935876  0.500000  1
  B  B34  1  0.100306  0.972577  0.500000  1
  Rh  Rh35  1  0.358263  0.180313  0.000000  1
