# generated using pymatgen
data_Sc17Pa2Al3Os8
_symmetry_space_group_name_H-M   'P 1'
_cell_length_a   9.46631957
_cell_length_b   9.42531771
_cell_length_c   9.44926759
_cell_angle_alpha   59.08711282
_cell_angle_beta   60.08700578
_cell_angle_gamma   59.80103976
_symmetry_Int_Tables_number   1
_chemical_formula_structural   Sc17Pa2Al3Os8
_chemical_formula_sum   'Sc17 Pa2 Al3 Os8'
_cell_volume   591.43315261
_cell_formula_units_Z   1
loop_
 _symmetry_equiv_pos_site_id
 _symmetry_equiv_pos_as_xyz
  1  'x, y, z'
loop_
 _atom_site_type_symbol
 _atom_site_label
 _atom_site_symmetry_multiplicity
 _atom_site_fract_x
 _atom_site_fract_y
 _atom_site_fract_z
 _atom_site_occupancy
  Sc  Sc0  1  0.839428  0.457700  0.864322  1
  Sc  Sc1  1  0.467758  0.840595  0.849792  1
  Sc  Sc2  1  0.160347  0.160764  0.140351  1
  Sc  Sc3  1  0.165484  0.792557  0.218223  1
  Sc  Sc4  1  0.199734  0.805647  0.800651  1
  Sc  Sc5  1  0.801700  0.172565  0.240662  1
  Sc  Sc6  1  0.828703  0.782874  0.219691  1
  Sc  Sc7  1  0.194925  0.206336  0.763210  1
  Sc  Sc8  1  0.830283  0.211823  0.758935  1
  Sc  Sc9  1  0.370600  0.389143  0.379774  1
  Sc  Sc10  1  0.142037  0.615847  0.613243  1
  Sc  Sc11  1  0.611364  0.153185  0.615421  1
  Sc  Sc12  1  0.608184  0.615844  0.161507  1
  Sc  Sc13  1  0.375446  0.852126  0.389879  1
  Sc  Sc14  1  0.378900  0.394801  0.843816  1
  Sc  Sc15  1  0.863936  0.384485  0.374795  1
  Sc  Sc16  1  0.623111  0.619549  0.618236  1
  Pa  Pa17  1  0.846714  0.839445  0.843723  1
  Pa  Pa18  1  0.542768  0.161093  0.149717  1
  Al  Al19  1  0.170791  0.168698  0.483434  1
  Al  Al20  1  0.166939  0.503455  0.162725  1
  Al  Al21  1  0.823762  0.824860  0.519128  1
  Os  Os22  1  0.491553  0.498689  0.005007  1
  Os  Os23  1  0.990391  0.001221  0.504919  1
  Os  Os24  1  0.499138  0.009230  0.489205  1
  Os  Os25  1  0.001485  0.497446  0.499985  1
  Os  Os26  1  0.515895  0.002712  0.996486  1
  Os  Os27  1  0.998467  0.519343  0.996377  1
  Os  Os28  1  0.499773  0.500721  0.500995  1
  Os  Os29  1  0.990383  0.017248  0.995791  1
