# generated using pymatgen
data_Ag6Rh2SeF18
_symmetry_space_group_name_H-M   'P 1'
_cell_length_a   9.75121676
_cell_length_b   9.75373941
_cell_length_c   5.22154300
_cell_angle_alpha   89.97670865
_cell_angle_beta   89.96552693
_cell_angle_gamma   119.99133192
_symmetry_Int_Tables_number   1
_chemical_formula_structural   Ag6Rh2SeF18
_chemical_formula_sum   'Ag6 Rh2 Se1 F18'
_cell_volume   430.12744374
_cell_formula_units_Z   1
loop_
 _symmetry_equiv_pos_site_id
 _symmetry_equiv_pos_as_xyz
  1  'x, y, z'
loop_
 _atom_site_type_symbol
 _atom_site_label
 _atom_site_symmetry_multiplicity
 _atom_site_fract_x
 _atom_site_fract_y
 _atom_site_fract_z
 _atom_site_occupancy
  Ag  Ag0  1  0.008924  0.631853  0.000619  1
  Ag  Ag1  1  0.002214  0.289752  0.499079  1
  Ag  Ag2  1  0.368218  0.377249  0.000691  1
  Ag  Ag3  1  0.287661  0.997857  0.498733  1
  Ag  Ag4  1  0.710123  0.712323  0.499253  1
  Ag  Ag5  1  0.622737  0.990891  0.000393  1
  Rh  Rh6  1  0.333288  0.666731  0.500468  1
  Rh  Rh7  1  0.000016  0.000015  0.997681  1
  Se  Se8  1  0.666673  0.333320  0.503209  1
  F  F9  1  0.087475  0.892634  0.788470  1
  F  F10  1  0.219957  0.746023  0.287131  1
  F  F11  1  0.141210  0.543762  0.713348  1
  F  F12  1  0.402335  0.858730  0.713070  1
  F  F13  1  0.254120  0.474070  0.287449  1
  F  F14  1  0.107501  0.194861  0.788377  1
  F  F15  1  0.195213  0.108001  0.206181  1
  F  F16  1  0.456247  0.597635  0.713437  1
  F  F17  1  0.526125  0.780083  0.286991  1
  F  F18  1  0.477119  0.259393  0.717112  1
  F  F19  1  0.599250  0.455469  0.287579  1
  F  F20  1  0.805272  0.912603  0.788451  1
  F  F21  1  0.544666  0.143710  0.287635  1
  F  F22  1  0.782090  0.522595  0.717132  1
  F  F23  1  0.912605  0.804631  0.206275  1
  F  F24  1  0.740432  0.217613  0.717295  1
  F  F25  1  0.856570  0.400879  0.287718  1
  F  F26  1  0.891961  0.087315  0.206223  1
