# generated using pymatgen
data_NiTe29
_symmetry_space_group_name_H-M   'P 1'
_cell_length_a   8.27134666
_cell_length_b   10.74111057
_cell_length_c   12.81065700
_cell_angle_alpha   74.37305194
_cell_angle_beta   80.55192640
_cell_angle_gamma   67.50955817
_symmetry_Int_Tables_number   1
_chemical_formula_structural   NiTe29
_chemical_formula_sum   'Ni1 Te29'
_cell_volume   1010.31775351
_cell_formula_units_Z   1
loop_
 _symmetry_equiv_pos_site_id
 _symmetry_equiv_pos_as_xyz
  1  'x, y, z'
loop_
 _atom_site_type_symbol
 _atom_site_label
 _atom_site_symmetry_multiplicity
 _atom_site_fract_x
 _atom_site_fract_y
 _atom_site_fract_z
 _atom_site_occupancy
  Ni  Ni0  1  0.000000  0.000000  0.000000  1
  Te  Te1  1  0.500000  0.000000  0.000000  1
  Te  Te2  1  0.100689  0.197061  0.198426  1
  Te  Te3  1  0.700874  0.400272  0.398529  1
  Te  Te4  1  0.299126  0.599728  0.601471  1
  Te  Te5  1  0.602825  0.197790  0.198745  1
  Te  Te6  1  0.899311  0.802939  0.801574  1
  Te  Te7  1  0.201284  0.397281  0.399250  1
  Te  Te8  1  0.798716  0.602719  0.600750  1
  Te  Te9  1  0.397175  0.802210  0.801255  1
  Te  Te10  1  0.208352  0.088214  0.846475  1
  Te  Te11  1  0.653245  0.702018  0.977120  1
  Te  Te12  1  0.867928  0.257483  0.016384  1
  Te  Te13  1  0.217803  0.911333  0.153705  1
  Te  Te14  1  0.449153  0.497029  0.221464  1
  Te  Te15  1  0.782197  0.088667  0.846295  1
  Te  Te16  1  0.854787  0.100637  0.377129  1
  Te  Te17  1  0.132072  0.742517  0.983616  1
  Te  Te18  1  0.048158  0.694938  0.422832  1
  Te  Te19  1  0.346755  0.297982  0.022880  1
  Te  Te20  1  0.791648  0.911786  0.153525  1
  Te  Te21  1  0.453464  0.302641  0.577061  1
  Te  Te22  1  0.642309  0.905290  0.623933  1
  Te  Te23  1  0.945556  0.496385  0.221239  1
  Te  Te24  1  0.054444  0.503615  0.778761  1
  Te  Te25  1  0.357691  0.094710  0.376067  1
  Te  Te26  1  0.546536  0.697359  0.422939  1
  Te  Te27  1  0.951842  0.305062  0.577168  1
  Te  Te28  1  0.145213  0.899363  0.622871  1
  Te  Te29  1  0.550847  0.502971  0.778536  1
