# generated using pymatgen
data_Tb3Bi(PS4)4
_symmetry_space_group_name_H-M   'P 1'
_cell_length_a   6.62487283
_cell_length_b   8.92021086
_cell_length_c   12.85638363
_cell_angle_alpha   59.11069687
_cell_angle_beta   90.14507366
_cell_angle_gamma   89.99365781
_symmetry_Int_Tables_number   1
_chemical_formula_structural   Tb3Bi(PS4)4
_chemical_formula_sum   'Tb3 Bi1 P4 S16'
_cell_volume   651.98584405
_cell_formula_units_Z   1
loop_
 _symmetry_equiv_pos_site_id
 _symmetry_equiv_pos_as_xyz
  1  'x, y, z'
loop_
 _atom_site_type_symbol
 _atom_site_label
 _atom_site_symmetry_multiplicity
 _atom_site_fract_x
 _atom_site_fract_y
 _atom_site_fract_z
 _atom_site_occupancy
  Tb  Tb0  1  0.318000  0.555509  0.836106  1
  Tb  Tb1  1  0.817840  0.443806  0.665049  1
  Tb  Tb2  1  0.682204  0.443476  0.163857  1
  Bi  Bi3  1  0.174365  0.559809  0.335863  1
  P  P4  1  0.232493  0.685846  0.038655  1
  P  P5  1  0.729243  0.310540  0.460896  1
  P  P6  1  0.770070  0.314434  0.960215  1
  P  P7  1  0.270542  0.686525  0.541578  1
  S  S8  1  0.231232  0.425955  0.592053  1
  S  S9  1  0.731297  0.574064  0.911053  1
  S  S10  1  0.761717  0.571195  0.413058  1
  S  S11  1  0.268935  0.425880  0.088306  1
  S  S12  1  0.258196  0.845795  0.359862  1
  S  S13  1  0.755496  0.157922  0.141073  1
  S  S14  1  0.747203  0.157760  0.642229  1
  S  S15  1  0.243884  0.841560  0.857597  1
  S  S16  1  0.536058  0.716909  0.613773  1
  S  S17  1  0.035684  0.284104  0.887570  1
  S  S18  1  0.468551  0.277787  0.387101  1
  S  S19  1  0.963941  0.719893  0.108551  1
  S  S20  1  0.051996  0.737640  0.633262  1
  S  S21  1  0.552383  0.263927  0.866795  1
  S  S22  1  0.945655  0.259983  0.367202  1
  S  S23  1  0.453015  0.739682  0.128294  1
