# generated using pymatgen
data_Dy8Tm11LuPb16
_symmetry_space_group_name_H-M   'P 1'
_cell_length_a   8.15622605
_cell_length_b   8.22648108
_cell_length_c   15.51471400
_cell_angle_alpha   90.00000000
_cell_angle_beta   90.00000000
_cell_angle_gamma   89.96581702
_symmetry_Int_Tables_number   1
_chemical_formula_structural   Dy8Tm11LuPb16
_chemical_formula_sum   'Dy8 Tm11 Lu1 Pb16'
_cell_volume   1040.99118982
_cell_formula_units_Z   1
loop_
 _symmetry_equiv_pos_site_id
 _symmetry_equiv_pos_as_xyz
  1  'x, y, z'
loop_
 _atom_site_type_symbol
 _atom_site_label
 _atom_site_symmetry_multiplicity
 _atom_site_fract_x
 _atom_site_fract_y
 _atom_site_fract_z
 _atom_site_occupancy
  Dy  Dy0  1  0.536373  0.323806  0.900062  1
  Dy  Dy1  1  0.036694  0.176744  0.599937  1
  Dy  Dy2  1  0.463473  0.676420  0.400167  1
  Dy  Dy3  1  0.963425  0.823573  0.099982  1
  Dy  Dy4  1  0.463473  0.676420  0.099833  1
  Dy  Dy5  1  0.963425  0.823573  0.400018  1
  Dy  Dy6  1  0.536373  0.323806  0.599938  1
  Dy  Dy7  1  0.036694  0.176744  0.900063  1
  Tm  Tm8  1  0.376356  0.841347  0.878720  1
  Tm  Tm9  1  0.877006  0.658312  0.621325  1
  Tm  Tm10  1  0.623316  0.158568  0.378739  1
  Tm  Tm11  1  0.123341  0.341414  0.121106  1
  Tm  Tm12  1  0.623316  0.158568  0.121261  1
  Tm  Tm13  1  0.123341  0.341414  0.378894  1
  Tm  Tm14  1  0.376356  0.841347  0.621280  1
  Tm  Tm15  1  0.877006  0.658312  0.878675  1
  Tm  Tm16  1  0.708140  0.995202  0.750000  1
  Tm  Tm17  1  0.791762  0.495253  0.250000  1
  Tm  Tm18  1  0.291767  0.004889  0.250000  1
  Lu  Lu19  1  0.208384  0.505062  0.750000  1
  Pb  Pb20  1  0.281981  0.033715  0.042873  1
  Pb  Pb21  1  0.781951  0.466097  0.457158  1
  Pb  Pb22  1  0.718096  0.966169  0.542943  1
  Pb  Pb23  1  0.217990  0.533620  0.956782  1
  Pb  Pb24  1  0.718096  0.966169  0.957057  1
  Pb  Pb25  1  0.217990  0.533620  0.543218  1
  Pb  Pb26  1  0.281981  0.033715  0.457127  1
  Pb  Pb27  1  0.781951  0.466097  0.042842  1
  Pb  Pb28  1  0.570810  0.626916  0.750000  1
  Pb  Pb29  1  0.071535  0.872298  0.750000  1
  Pb  Pb30  1  0.428585  0.372734  0.250000  1
  Pb  Pb31  1  0.928586  0.127451  0.250000  1
  Pb  Pb32  1  0.347795  0.154614  0.750000  1
  Pb  Pb33  1  0.848125  0.346321  0.750000  1
  Pb  Pb34  1  0.652187  0.846121  0.250000  1
  Pb  Pb35  1  0.152318  0.653561  0.250000  1
