# generated using pymatgen
data_Rh2OF5
_symmetry_space_group_name_H-M   'P 1'
_cell_length_a   5.39188447
_cell_length_b   5.43686006
_cell_length_c   5.39427264
_cell_angle_alpha   54.86445022
_cell_angle_beta   56.47121176
_cell_angle_gamma   54.85759147
_symmetry_Int_Tables_number   1
_chemical_formula_structural   Rh2OF5
_chemical_formula_sum   'Rh2 O1 F5'
_cell_volume   99.80160031
_cell_formula_units_Z   1
loop_
 _symmetry_equiv_pos_site_id
 _symmetry_equiv_pos_as_xyz
  1  'x, y, z'
loop_
 _atom_site_type_symbol
 _atom_site_label
 _atom_site_symmetry_multiplicity
 _atom_site_fract_x
 _atom_site_fract_y
 _atom_site_fract_z
 _atom_site_occupancy
  Rh  Rh0  1  0.015222  0.985859  0.011503  1
  Rh  Rh1  1  0.488529  0.514057  0.484955  1
  O  O2  1  0.406056  0.750095  0.093706  1
  F  F3  1  0.903816  0.592269  0.253057  1
  F  F4  1  0.747945  0.093389  0.408097  1
  F  F5  1  0.246893  0.907791  0.596223  1
  F  F6  1  0.091871  0.406533  0.752133  1
  F  F7  1  0.599666  0.250005  0.900326  1
