# generated using pymatgen
data_Tb3DyPa(MnB3)2
_symmetry_space_group_name_H-M   'P 1'
_cell_length_a   5.43721279
_cell_length_b   5.43721196
_cell_length_c   8.03340679
_cell_angle_alpha   70.21981439
_cell_angle_beta   70.21981731
_cell_angle_gamma   59.99998541
_symmetry_Int_Tables_number   1
_chemical_formula_structural   Tb3DyPa(MnB3)2
_chemical_formula_sum   'Tb3 Dy1 Pa1 Mn2 B6'
_cell_volume   189.32248966
_cell_formula_units_Z   1
loop_
 _symmetry_equiv_pos_site_id
 _symmetry_equiv_pos_as_xyz
  1  'x, y, z'
loop_
 _atom_site_type_symbol
 _atom_site_label
 _atom_site_symmetry_multiplicity
 _atom_site_fract_x
 _atom_site_fract_y
 _atom_site_fract_z
 _atom_site_occupancy
  Tb  Tb0  1  0.253258  0.253258  0.240230  1
  Tb  Tb1  1  0.746763  0.746763  0.759708  1
  Tb  Tb2  1  0.413798  0.413798  0.758606  1
  Dy  Dy3  1  0.585740  0.585740  0.242781  1
  Pa  Pa4  1  0.999918  0.999918  0.000248  1
  Mn  Mn5  1  0.108327  0.108327  0.675022  1
  Mn  Mn6  1  0.891722  0.891722  0.324833  1
  B  B7  1  0.166198  0.834081  0.499763  1
  B  B8  1  0.834081  0.499959  0.499763  1
  B  B9  1  0.499959  0.166198  0.499763  1
  B  B10  1  0.166198  0.499959  0.499763  1
  B  B11  1  0.499959  0.834081  0.499763  1
  B  B12  1  0.834081  0.166198  0.499763  1
