# generated using pymatgen
data_Tb4HgPd(PtPb)2
_symmetry_space_group_name_H-M   'P 1'
_cell_length_a   8.16770009
_cell_length_b   8.16770107
_cell_length_c   3.61355500
_cell_angle_alpha   90.00000000
_cell_angle_beta   90.00000000
_cell_angle_gamma   90.71452111
_symmetry_Int_Tables_number   1
_chemical_formula_structural   Tb4HgPd(PtPb)2
_chemical_formula_sum   'Tb4 Hg1 Pd1 Pt2 Pb2'
_cell_volume   241.04632489
_cell_formula_units_Z   1
loop_
 _symmetry_equiv_pos_site_id
 _symmetry_equiv_pos_as_xyz
  1  'x, y, z'
loop_
 _atom_site_type_symbol
 _atom_site_label
 _atom_site_symmetry_multiplicity
 _atom_site_fract_x
 _atom_site_fract_y
 _atom_site_fract_z
 _atom_site_occupancy
  Tb  Tb0  1  0.691620  0.168532  0.500000  1
  Tb  Tb1  1  0.149786  0.350214  0.500000  1
  Tb  Tb2  1  0.833738  0.666262  0.500000  1
  Tb  Tb3  1  0.331468  0.808380  0.500000  1
  Hg  Hg4  1  0.375318  0.124682  0.000000  1
  Pd  Pd5  1  0.624217  0.875783  0.000000  1
  Pt  Pt6  1  0.122177  0.630410  0.000000  1
  Pt  Pt7  1  0.869590  0.377823  0.000000  1
  Pb  Pb8  1  0.996488  0.994401  0.000000  1
  Pb  Pb9  1  0.505599  0.503512  0.000000  1
