# generated using pymatgen
data_CaEr3(Ga2Ag)4
_symmetry_space_group_name_H-M   'P 1'
_cell_length_a   4.35026400
_cell_length_b   6.96116292
_cell_length_c   10.28343427
_cell_angle_alpha   90.39777760
_cell_angle_beta   90.00000000
_cell_angle_gamma   90.00000000
_symmetry_Int_Tables_number   1
_chemical_formula_structural   CaEr3(Ga2Ag)4
_chemical_formula_sum   'Ca1 Er3 Ga8 Ag4'
_cell_volume   311.40467042
_cell_formula_units_Z   1
loop_
 _symmetry_equiv_pos_site_id
 _symmetry_equiv_pos_as_xyz
  1  'x, y, z'
loop_
 _atom_site_type_symbol
 _atom_site_label
 _atom_site_symmetry_multiplicity
 _atom_site_fract_x
 _atom_site_fract_y
 _atom_site_fract_z
 _atom_site_occupancy
  Ca  Ca0  1  0.250000  0.275573  0.672458  1
  Er  Er1  1  0.250000  0.778680  0.827365  1
  Er  Er2  1  0.750000  0.223820  0.172628  1
  Er  Er3  1  0.750000  0.722156  0.327878  1
  Ga  Ga4  1  0.250000  0.705430  0.536048  1
  Ga  Ga5  1  0.750000  0.297005  0.462793  1
  Ga  Ga6  1  0.750000  0.794070  0.037355  1
  Ga  Ga7  1  0.250000  0.201676  0.964971  1
  Ga  Ga8  1  0.250000  0.927400  0.154231  1
  Ga  Ga9  1  0.750000  0.070314  0.849189  1
  Ga  Ga10  1  0.750000  0.573788  0.651272  1
  Ga  Ga11  1  0.250000  0.428778  0.345116  1
  Ag  Ag12  1  0.250000  0.542766  0.098039  1
  Ag  Ag13  1  0.750000  0.457604  0.901894  1
  Ag  Ag14  1  0.750000  0.957808  0.597879  1
  Ag  Ag15  1  0.250000  0.043134  0.400885  1
