# generated using pymatgen
data_TmSc4P12Ru18Rh
_symmetry_space_group_name_H-M   'P 1'
_cell_length_a   12.42594200
_cell_length_b   12.42594199
_cell_length_c   3.93712400
_cell_angle_alpha   90.00000000
_cell_angle_beta   90.00000000
_cell_angle_gamma   119.99999471
_symmetry_Int_Tables_number   1
_chemical_formula_structural   TmSc4P12Ru18Rh
_chemical_formula_sum   'Tm1 Sc4 P12 Ru18 Rh1'
_cell_volume   526.46365167
_cell_formula_units_Z   1
loop_
 _symmetry_equiv_pos_site_id
 _symmetry_equiv_pos_as_xyz
  1  'x, y, z'
loop_
 _atom_site_type_symbol
 _atom_site_label
 _atom_site_symmetry_multiplicity
 _atom_site_fract_x
 _atom_site_fract_y
 _atom_site_fract_z
 _atom_site_occupancy
  Tm  Tm0  1  0.666667  0.333333  0.500000  1
  Sc  Sc1  1  0.333333  0.666667  0.500000  1
  Sc  Sc2  1  0.186547  0.186575  0.000000  1
  Sc  Sc3  1  0.813425  0.999971  0.000000  1
  Sc  Sc4  1  0.000029  0.813453  0.000000  1
  P  P5  1  0.306884  0.828582  0.000000  1
  P  P6  1  0.171418  0.478302  0.000000  1
  P  P7  1  0.521698  0.693116  0.000000  1
  P  P8  1  0.830257  0.307069  0.000000  1
  P  P9  1  0.476811  0.169743  0.000000  1
  P  P10  1  0.692931  0.523189  0.000000  1
  P  P11  1  0.372189  0.372340  0.500000  1
  P  P12  1  0.627660  0.999849  0.500000  1
  P  P13  1  0.000151  0.627811  0.500000  1
  P  P14  1  0.817806  0.818757  0.500000  1
  P  P15  1  0.181243  0.999049  0.500000  1
  P  P16  1  0.000951  0.182194  0.500000  1
  Ru  Ru17  1  0.189644  0.814229  0.500000  1
  Ru  Ru18  1  0.185771  0.375416  0.500000  1
  Ru  Ru19  1  0.624584  0.810356  0.500000  1
  Ru  Ru20  1  0.815496  0.188582  0.500000  1
  Ru  Ru21  1  0.373086  0.184504  0.500000  1
  Ru  Ru22  1  0.811418  0.626914  0.500000  1
  Ru  Ru23  1  0.128124  0.634475  0.000000  1
  Ru  Ru24  1  0.365525  0.493648  0.000000  1
  Ru  Ru25  1  0.506352  0.871876  0.000000  1
  Ru  Ru26  1  0.634817  0.126074  0.000000  1
  Ru  Ru27  1  0.491256  0.365183  0.000000  1
  Ru  Ru28  1  0.873926  0.508744  0.000000  1
  Ru  Ru29  1  0.556156  0.556009  0.500000  1
  Ru  Ru30  1  0.443991  0.000148  0.500000  1
  Ru  Ru31  1  0.999852  0.443844  0.500000  1
  Ru  Ru32  1  0.721325  0.722025  0.000000  1
  Ru  Ru33  1  0.277975  0.999299  0.000000  1
  Ru  Ru34  1  0.000701  0.278675  0.000000  1
  Rh  Rh35  1  0.000000  0.000000  0.500000  1
