# generated using pymatgen
data_Tb3Pr5(AsBr6)2
_symmetry_space_group_name_H-M   'P 1'
_cell_length_a   4.17623400
_cell_length_b   13.69238957
_cell_length_c   14.39373912
_cell_angle_alpha   90.40185457
_cell_angle_beta   90.00000000
_cell_angle_gamma   90.00000000
_symmetry_Int_Tables_number   1
_chemical_formula_structural   Tb3Pr5(AsBr6)2
_chemical_formula_sum   'Tb3 Pr5 As2 Br12'
_cell_volume   823.05151115
_cell_formula_units_Z   1
loop_
 _symmetry_equiv_pos_site_id
 _symmetry_equiv_pos_as_xyz
  1  'x, y, z'
loop_
 _atom_site_type_symbol
 _atom_site_label
 _atom_site_symmetry_multiplicity
 _atom_site_fract_x
 _atom_site_fract_y
 _atom_site_fract_z
 _atom_site_occupancy
  Tb  Tb0  1  0.500000  0.880684  0.660277  1
  Tb  Tb1  1  0.500000  0.617538  0.157664  1
  Tb  Tb2  1  0.500000  0.382637  0.842127  1
  Pr  Pr3  1  0.500000  0.117932  0.341873  1
  Pr  Pr4  1  0.000000  0.121429  0.579904  1
  Pr  Pr5  1  0.000000  0.879975  0.418205  1
  Pr  Pr6  1  0.000000  0.620416  0.919690  1
  Pr  Pr7  1  0.000000  0.380736  0.079613  1
  As  As8  1  0.500000  0.996708  0.504495  1
  As  As9  1  0.500000  0.500668  0.999509  1
  Br  Br10  1  0.500000  0.240536  0.162746  1
  Br  Br11  1  0.500000  0.762026  0.831375  1
  Br  Br12  1  0.500000  0.737008  0.331274  1
  Br  Br13  1  0.500000  0.262232  0.669870  1
  Br  Br14  1  0.000000  0.258913  0.412881  1
  Br  Br15  1  0.000000  0.750055  0.594256  1
  Br  Br16  1  0.000000  0.749537  0.094613  1
  Br  Br17  1  0.000000  0.250509  0.905176  1
  Br  Br18  1  0.000000  0.999177  0.240059  1
  Br  Br19  1  0.000000  0.991104  0.754605  1
  Br  Br20  1  0.000000  0.509504  0.254140  1
  Br  Br21  1  0.000000  0.490676  0.745648  1
