# generated using pymatgen
data_NaLaSiSe4
_symmetry_space_group_name_H-M   'P 1'
_cell_length_a   6.86997421
_cell_length_b   7.10650400
_cell_length_c   8.45561127
_cell_angle_alpha   90.00000000
_cell_angle_beta   106.44328547
_cell_angle_gamma   90.00000000
_symmetry_Int_Tables_number   1
_chemical_formula_structural   NaLaSiSe4
_chemical_formula_sum   'Na2 La2 Si2 Se8'
_cell_volume   395.93162524
_cell_formula_units_Z   2
loop_
 _symmetry_equiv_pos_site_id
 _symmetry_equiv_pos_as_xyz
  1  'x, y, z'
loop_
 _atom_site_type_symbol
 _atom_site_label
 _atom_site_symmetry_multiplicity
 _atom_site_fract_x
 _atom_site_fract_y
 _atom_site_fract_z
 _atom_site_occupancy
  Na  Na0  1  0.245304  0.976007  0.059320  1
  Na  Na1  1  0.754695  0.476008  0.940679  1
  La  La2  1  0.774597  0.505733  0.446709  1
  La  La3  1  0.225403  0.005732  0.553292  1
  Si  Si4  1  0.228539  0.544366  0.308342  1
  Si  Si5  1  0.771460  0.044367  0.691657  1
  Se  Se6  1  0.430502  0.568804  0.139233  1
  Se  Se7  1  0.979851  0.772039  0.248452  1
  Se  Se8  1  0.036345  0.273854  0.266084  1
  Se  Se9  1  0.590944  0.092199  0.420637  1
  Se  Se10  1  0.409055  0.592198  0.579362  1
  Se  Se11  1  0.963656  0.773854  0.733917  1
  Se  Se12  1  0.020148  0.272038  0.751548  1
  Se  Se13  1  0.569498  0.068804  0.860766  1
