# generated using pymatgen
data_Er6Zr4SnSb5
_symmetry_space_group_name_H-M   'P 1'
_cell_length_a   8.77895430
_cell_length_b   8.77895560
_cell_length_c   5.99686100
_cell_angle_alpha   90.00000000
_cell_angle_beta   90.00000000
_cell_angle_gamma   120.02973878
_symmetry_Int_Tables_number   1
_chemical_formula_structural   Er6Zr4SnSb5
_chemical_formula_sum   'Er6 Zr4 Sn1 Sb5'
_cell_volume   400.13821720
_cell_formula_units_Z   1
loop_
 _symmetry_equiv_pos_site_id
 _symmetry_equiv_pos_as_xyz
  1  'x, y, z'
loop_
 _atom_site_type_symbol
 _atom_site_label
 _atom_site_symmetry_multiplicity
 _atom_site_fract_x
 _atom_site_fract_y
 _atom_site_fract_z
 _atom_site_occupancy
  Er  Er0  1  0.751754  0.751754  0.750000  1
  Er  Er1  1  0.249032  0.001354  0.750000  1
  Er  Er2  1  0.001354  0.249032  0.750000  1
  Er  Er3  1  0.247036  0.247036  0.250000  1
  Er  Er4  1  0.750641  0.998991  0.250000  1
  Er  Er5  1  0.998991  0.750641  0.250000  1
  Zr  Zr6  1  0.667329  0.332922  0.999820  1
  Zr  Zr7  1  0.332922  0.667329  0.999820  1
  Zr  Zr8  1  0.332922  0.667329  0.500180  1
  Zr  Zr9  1  0.667329  0.332922  0.500180  1
  Sn  Sn10  1  0.395717  0.395717  0.750000  1
  Sb  Sb11  1  0.607051  0.000155  0.750000  1
  Sb  Sb12  1  0.000155  0.607051  0.750000  1
  Sb  Sb13  1  0.604566  0.604566  0.250000  1
  Sb  Sb14  1  0.393063  0.000140  0.250000  1
  Sb  Sb15  1  0.000140  0.393063  0.250000  1
