# generated using pymatgen
data_Hf16FeCu3Re4
_symmetry_space_group_name_H-M   'P 1'
_cell_length_a   8.70155074
_cell_length_b   8.70155108
_cell_length_c   8.70155300
_cell_angle_alpha   59.95399421
_cell_angle_beta   59.95399290
_cell_angle_gamma   59.95399648
_symmetry_Int_Tables_number   1
_chemical_formula_structural   Hf16FeCu3Re4
_chemical_formula_sum   'Hf16 Fe1 Cu3 Re4'
_cell_volume   465.39502975
_cell_formula_units_Z   1
loop_
 _symmetry_equiv_pos_site_id
 _symmetry_equiv_pos_as_xyz
  1  'x, y, z'
loop_
 _atom_site_type_symbol
 _atom_site_label
 _atom_site_symmetry_multiplicity
 _atom_site_fract_x
 _atom_site_fract_y
 _atom_site_fract_z
 _atom_site_occupancy
  Hf  Hf0  1  0.680211  0.103218  0.103218  1
  Hf  Hf1  1  0.103218  0.680211  0.103218  1
  Hf  Hf2  1  0.103218  0.103218  0.680211  1
  Hf  Hf3  1  0.115227  0.115227  0.115227  1
  Hf  Hf4  1  0.314167  0.314167  0.684142  1
  Hf  Hf5  1  0.683956  0.683956  0.312935  1
  Hf  Hf6  1  0.314167  0.684142  0.314167  1
  Hf  Hf7  1  0.683956  0.312935  0.683956  1
  Hf  Hf8  1  0.684142  0.314167  0.314167  1
  Hf  Hf9  1  0.312935  0.683956  0.683956  1
  Hf  Hf10  1  0.948975  0.948975  0.560342  1
  Hf  Hf11  1  0.541089  0.541089  0.955955  1
  Hf  Hf12  1  0.948975  0.560342  0.948975  1
  Hf  Hf13  1  0.541089  0.955955  0.541089  1
  Hf  Hf14  1  0.560342  0.948975  0.948975  1
  Hf  Hf15  1  0.955955  0.541089  0.541089  1
  Fe  Fe16  1  0.892995  0.892995  0.892995  1
  Cu  Cu17  1  0.316897  0.897559  0.897559  1
  Cu  Cu18  1  0.897559  0.316897  0.897559  1
  Cu  Cu19  1  0.897559  0.897559  0.316897  1
  Re  Re20  1  0.998299  0.335370  0.335370  1
  Re  Re21  1  0.335370  0.998299  0.335370  1
  Re  Re22  1  0.335370  0.335370  0.998299  1
  Re  Re23  1  0.334320  0.334320  0.334320  1
