# generated using pymatgen
data_Ni2Pd3(PtO4)3
_symmetry_space_group_name_H-M   'P 1'
_cell_length_a   3.18940900
_cell_length_b   7.21037502
_cell_length_c   10.00605203
_cell_angle_alpha   90.00827018
_cell_angle_beta   90.00000000
_cell_angle_gamma   90.00000000
_symmetry_Int_Tables_number   1
_chemical_formula_structural   Ni2Pd3(PtO4)3
_chemical_formula_sum   'Ni2 Pd3 Pt3 O12'
_cell_volume   230.10752483
_cell_formula_units_Z   1
loop_
 _symmetry_equiv_pos_site_id
 _symmetry_equiv_pos_as_xyz
  1  'x, y, z'
loop_
 _atom_site_type_symbol
 _atom_site_label
 _atom_site_symmetry_multiplicity
 _atom_site_fract_x
 _atom_site_fract_y
 _atom_site_fract_z
 _atom_site_occupancy
  Ni  Ni0  1  0.000000  0.001372  0.001960  1
  Ni  Ni1  1  0.000000  0.499430  0.498656  1
  Pd  Pd2  1  0.000000  0.000949  0.499067  1
  Pd  Pd3  1  0.000000  0.498912  0.000559  1
  Pd  Pd4  1  0.500000  0.242183  0.246134  1
  Pt  Pt5  1  0.500000  0.757571  0.753798  1
  Pt  Pt6  1  0.500000  0.257333  0.746142  1
  Pt  Pt7  1  0.500000  0.742504  0.253824  1
  O  O8  1  0.500000  0.989308  0.146684  1
  O  O9  1  0.500000  0.008695  0.853752  1
  O  O10  1  0.500000  0.508449  0.646296  1
  O  O11  1  0.500000  0.493554  0.353998  1
  O  O12  1  0.000000  0.202186  0.368352  1
  O  O13  1  0.000000  0.797616  0.632579  1
  O  O14  1  0.000000  0.296162  0.867260  1
  O  O15  1  0.000000  0.702648  0.132706  1
  O  O16  1  0.000000  0.281542  0.120571  1
  O  O17  1  0.000000  0.718626  0.877995  1
  O  O18  1  0.000000  0.219599  0.621881  1
  O  O19  1  0.000000  0.781362  0.377787  1
