# generated using pymatgen
data_Y2Al9CoPtRh
_symmetry_space_group_name_H-M   'P 1'
_cell_length_a   7.53121244
_cell_length_b   7.53121300
_cell_length_c   9.45542700
_cell_angle_alpha   90.00000000
_cell_angle_beta   90.00000000
_cell_angle_gamma   119.21925724
_symmetry_Int_Tables_number   1
_chemical_formula_structural   Y2Al9CoPtRh
_chemical_formula_sum   'Y4 Al18 Co2 Pt2 Rh2'
_cell_volume   468.06357071
_cell_formula_units_Z   2
loop_
 _symmetry_equiv_pos_site_id
 _symmetry_equiv_pos_as_xyz
  1  'x, y, z'
loop_
 _atom_site_type_symbol
 _atom_site_label
 _atom_site_symmetry_multiplicity
 _atom_site_fract_x
 _atom_site_fract_y
 _atom_site_fract_z
 _atom_site_occupancy
  Y  Y0  1  0.995225  0.673830  0.250297  1
  Y  Y1  1  0.004775  0.326170  0.750297  1
  Y  Y2  1  0.673830  0.995225  0.249703  1
  Y  Y3  1  0.326170  0.004775  0.749703  1
  Al  Al4  1  0.131656  0.131656  0.250000  1
  Al  Al5  1  0.868344  0.868344  0.750000  1
  Al  Al6  1  0.336845  0.330706  0.549402  1
  Al  Al7  1  0.663155  0.669294  0.049402  1
  Al  Al8  1  0.330706  0.336845  0.950598  1
  Al  Al9  1  0.669294  0.663155  0.450598  1
  Al  Al10  1  0.341460  0.552386  0.242460  1
  Al  Al11  1  0.658540  0.447614  0.742460  1
  Al  Al12  1  0.552386  0.341460  0.257540  1
  Al  Al13  1  0.447614  0.658540  0.757540  1
  Al  Al14  1  0.008917  0.341047  0.074263  1
  Al  Al15  1  0.991083  0.658953  0.574263  1
  Al  Al16  1  0.341047  0.008917  0.425737  1
  Al  Al17  1  0.658953  0.991083  0.925737  1
  Al  Al18  1  0.009931  0.667156  0.925677  1
  Al  Al19  1  0.990069  0.332844  0.425677  1
  Al  Al20  1  0.667156  0.009931  0.574323  1
  Al  Al21  1  0.332844  0.990069  0.074323  1
  Co  Co22  1  0.329771  0.670229  0.000000  1
  Co  Co23  1  0.670229  0.329771  0.500000  1
  Pt  Pt24  1  0.672499  0.327501  0.000000  1
  Pt  Pt25  1  0.327501  0.672499  0.500000  1
  Rh  Rh26  1  0.000672  0.999328  0.000000  1
  Rh  Rh27  1  0.999328  0.000672  0.500000  1
