# generated using pymatgen
data_Ti3Mn(Co2B)2
_symmetry_space_group_name_H-M   'P 1'
_cell_length_a   8.55671054
_cell_length_b   8.60869853
_cell_length_c   2.96087600
_cell_angle_alpha   90.00000000
_cell_angle_beta   90.00000000
_cell_angle_gamma   89.18788172
_symmetry_Int_Tables_number   1
_chemical_formula_structural   Ti3Mn(Co2B)2
_chemical_formula_sum   'Ti6 Mn2 Co8 B4'
_cell_volume   218.08255792
_cell_formula_units_Z   2
loop_
 _symmetry_equiv_pos_site_id
 _symmetry_equiv_pos_as_xyz
  1  'x, y, z'
loop_
 _atom_site_type_symbol
 _atom_site_label
 _atom_site_symmetry_multiplicity
 _atom_site_fract_x
 _atom_site_fract_y
 _atom_site_fract_z
 _atom_site_occupancy
  Ti  Ti0  1  0.999967  0.001151  0.000000  1
  Ti  Ti1  1  0.501982  0.499125  0.000000  1
  Ti  Ti2  1  0.832564  0.320967  0.000000  1
  Ti  Ti3  1  0.322947  0.170073  0.000000  1
  Ti  Ti4  1  0.669186  0.830322  0.000000  1
  Ti  Ti5  1  0.175021  0.673199  0.000000  1
  Mn  Mn6  1  0.498598  0.999177  0.500000  1
  Mn  Mn7  1  0.070910  0.220856  0.500000  1
  Co  Co8  1  0.001170  0.505108  0.500000  1
  Co  Co9  1  0.216806  0.921405  0.500000  1
  Co  Co10  1  0.780710  0.072618  0.500000  1
  Co  Co11  1  0.926640  0.780761  0.500000  1
  Co  Co12  1  0.427677  0.716435  0.500000  1
  Co  Co13  1  0.573534  0.282318  0.500000  1
  Co  Co14  1  0.721481  0.571635  0.500000  1
  Co  Co15  1  0.281303  0.433914  0.500000  1
  B  B16  1  0.621492  0.122528  0.000000  1
  B  B17  1  0.122158  0.377397  0.000000  1
  B  B18  1  0.878612  0.624514  0.000000  1
  B  B19  1  0.377243  0.876497  0.000000  1
