# generated using pymatgen
data_Dy4TmIr2Os
_symmetry_space_group_name_H-M   'P 1'
_cell_length_a   10.84849700
_cell_length_b   10.84849700
_cell_length_c   6.40149800
_cell_angle_alpha   90.00000000
_cell_angle_beta   90.00000000
_cell_angle_gamma   90.00000000
_symmetry_Int_Tables_number   1
_chemical_formula_structural   Dy4TmIr2Os
_chemical_formula_sum   'Dy16 Tm4 Ir8 Os4'
_cell_volume   753.39157727
_cell_formula_units_Z   4
loop_
 _symmetry_equiv_pos_site_id
 _symmetry_equiv_pos_as_xyz
  1  'x, y, z'
loop_
 _atom_site_type_symbol
 _atom_site_label
 _atom_site_symmetry_multiplicity
 _atom_site_fract_x
 _atom_site_fract_y
 _atom_site_fract_z
 _atom_site_occupancy
  Dy  Dy0  1  0.293315  0.086470  0.377782  1
  Dy  Dy1  1  0.293315  0.913530  0.877782  1
  Dy  Dy2  1  0.706685  0.086470  0.877782  1
  Dy  Dy3  1  0.706685  0.913530  0.377782  1
  Dy  Dy4  1  0.586470  0.793315  0.877782  1
  Dy  Dy5  1  0.586470  0.206685  0.377782  1
  Dy  Dy6  1  0.413530  0.793315  0.377782  1
  Dy  Dy7  1  0.413530  0.206685  0.877782  1
  Dy  Dy8  1  0.206685  0.413530  0.622218  1
  Dy  Dy9  1  0.206685  0.586470  0.122218  1
  Dy  Dy10  1  0.793315  0.413530  0.122218  1
  Dy  Dy11  1  0.793315  0.586470  0.622218  1
  Dy  Dy12  1  0.913530  0.706685  0.122218  1
  Dy  Dy13  1  0.913530  0.293315  0.622218  1
  Dy  Dy14  1  0.086470  0.706685  0.622218  1
  Dy  Dy15  1  0.086470  0.293315  0.122218  1
  Tm  Tm16  1  0.000000  0.000000  0.500000  1
  Tm  Tm17  1  0.000000  0.000000  0.000000  1
  Tm  Tm18  1  0.500000  0.500000  0.000000  1
  Tm  Tm19  1  0.500000  0.500000  0.500000  1
  Ir  Ir20  1  0.848928  0.151072  0.250000  1
  Ir  Ir21  1  0.848928  0.848928  0.750000  1
  Ir  Ir22  1  0.151072  0.151072  0.750000  1
  Ir  Ir23  1  0.151072  0.848928  0.250000  1
  Ir  Ir24  1  0.651072  0.348928  0.750000  1
  Ir  Ir25  1  0.651072  0.651072  0.250000  1
  Ir  Ir26  1  0.348928  0.348928  0.250000  1
  Ir  Ir27  1  0.348928  0.651072  0.750000  1
  Os  Os28  1  0.500000  0.000000  0.123931  1
  Os  Os29  1  0.500000  0.000000  0.623931  1
  Os  Os30  1  0.000000  0.500000  0.876069  1
  Os  Os31  1  0.000000  0.500000  0.376069  1
