# generated using pymatgen
data_Ho18Tm2Si15Au
_symmetry_space_group_name_H-M   'P 1'
_cell_length_a   7.39419444
_cell_length_b   7.64906202
_cell_length_c   14.54677253
_cell_angle_alpha   89.87454305
_cell_angle_beta   89.47049643
_cell_angle_gamma   90.17624939
_symmetry_Int_Tables_number   1
_chemical_formula_structural   Ho18Tm2Si15Au
_chemical_formula_sum   'Ho18 Tm2 Si15 Au1'
_cell_volume   822.70479211
_cell_formula_units_Z   1
loop_
 _symmetry_equiv_pos_site_id
 _symmetry_equiv_pos_as_xyz
  1  'x, y, z'
loop_
 _atom_site_type_symbol
 _atom_site_label
 _atom_site_symmetry_multiplicity
 _atom_site_fract_x
 _atom_site_fract_y
 _atom_site_fract_z
 _atom_site_occupancy
  Ho  Ho0  1  0.847205  0.488620  0.751020  1
  Ho  Ho1  1  0.349385  0.011367  0.750353  1
  Ho  Ho2  1  0.975668  0.820665  0.100716  1
  Ho  Ho3  1  0.472181  0.683805  0.401182  1
  Ho  Ho4  1  0.522923  0.318099  0.900328  1
  Ho  Ho5  1  0.028814  0.182243  0.598073  1
  Ho  Ho6  1  0.028023  0.178808  0.900478  1
  Ho  Ho7  1  0.528514  0.316786  0.597823  1
  Ho  Ho8  1  0.475887  0.681910  0.100850  1
  Ho  Ho9  1  0.970318  0.817067  0.400410  1
  Ho  Ho10  1  0.676179  0.822265  0.877208  1
  Ho  Ho11  1  0.180654  0.680314  0.621586  1
  Ho  Ho12  1  0.820108  0.326167  0.123649  1
  Ho  Ho13  1  0.318059  0.177873  0.376868  1
  Ho  Ho14  1  0.322679  0.178187  0.124149  1
  Ho  Ho15  1  0.820166  0.320850  0.377119  1
  Ho  Ho16  1  0.179800  0.675009  0.877255  1
  Ho  Ho17  1  0.681238  0.821216  0.622204  1
  Tm  Tm18  1  0.649325  0.991621  0.249968  1
  Tm  Tm19  1  0.151551  0.511104  0.248322  1
  Si  Si20  1  0.768204  0.630920  0.252562  1
  Si  Si21  1  0.268423  0.871259  0.251342  1
  Si  Si22  1  0.732633  0.125613  0.748442  1
  Si  Si23  1  0.230159  0.372710  0.746655  1
  Si  Si24  1  0.020595  0.104710  0.250246  1
  Si  Si25  1  0.522972  0.395809  0.252424  1
  Si  Si26  1  0.474281  0.605184  0.747169  1
  Si  Si27  1  0.976895  0.893172  0.748108  1
  Si  Si28  1  0.353556  0.971626  0.540041  1
  Si  Si29  1  0.650407  0.028573  0.042094  1
  Si  Si30  1  0.147904  0.470110  0.459726  1
  Si  Si31  1  0.160174  0.471333  0.042779  1
  Si  Si32  1  0.646416  0.029026  0.459018  1
  Si  Si33  1  0.350273  0.968370  0.961563  1
  Si  Si34  1  0.854048  0.529839  0.539231  1
  Au  Au35  1  0.844383  0.527769  0.959033  1
