# generated using pymatgen
data_Tb2Y6Hf11Si16Tc
_symmetry_space_group_name_H-M   'P 1'
_cell_length_a   7.25529060
_cell_length_b   7.25459300
_cell_length_c   13.29108200
_cell_angle_alpha   89.95531382
_cell_angle_beta   90.04501589
_cell_angle_gamma   90.05676455
_symmetry_Int_Tables_number   1
_chemical_formula_structural   Tb2Y6Hf11Si16Tc
_chemical_formula_sum   'Tb2 Y6 Hf11 Si16 Tc1'
_cell_volume   699.56443604
_cell_formula_units_Z   1
loop_
 _symmetry_equiv_pos_site_id
 _symmetry_equiv_pos_as_xyz
  1  'x, y, z'
loop_
 _atom_site_type_symbol
 _atom_site_label
 _atom_site_symmetry_multiplicity
 _atom_site_fract_x
 _atom_site_fract_y
 _atom_site_fract_z
 _atom_site_occupancy
  Tb  Tb0  1  0.342763  0.998922  0.787802  1
  Tb  Tb1  1  0.656017  0.004388  0.283030  1
  Y  Y2  1  0.998898  0.342803  0.212213  1
  Y  Y3  1  0.004375  0.655977  0.716990  1
  Y  Y4  1  0.156405  0.495441  0.465454  1
  Y  Y5  1  0.501125  0.845613  0.033594  1
  Y  Y6  1  0.845618  0.501103  0.966371  1
  Y  Y7  1  0.495394  0.156426  0.534525  1
  Hf  Hf8  1  0.825173  0.825177  0.499952  1
  Hf  Hf9  1  0.324353  0.674582  0.248608  1
  Hf  Hf10  1  0.674600  0.324367  0.751400  1
  Hf  Hf11  1  0.148459  0.997046  0.373107  1
  Hf  Hf12  1  0.853185  0.004970  0.877587  1
  Hf  Hf13  1  0.503599  0.648039  0.625093  1
  Hf  Hf14  1  0.350043  0.493996  0.877148  1
  Hf  Hf15  1  0.493940  0.350071  0.122874  1
  Hf  Hf16  1  0.648101  0.503587  0.374951  1
  Hf  Hf17  1  0.997171  0.148384  0.626924  1
  Hf  Hf18  1  0.004887  0.853295  0.122432  1
  Si  Si19  1  0.361868  0.295130  0.316055  1
  Si  Si20  1  0.637273  0.705030  0.818117  1
  Si  Si21  1  0.205279  0.862361  0.567348  1
  Si  Si22  1  0.136753  0.795275  0.932493  1
  Si  Si23  1  0.795422  0.136795  0.067555  1
  Si  Si24  1  0.862356  0.205333  0.432718  1
  Si  Si25  1  0.295077  0.362006  0.683912  1
  Si  Si26  1  0.705079  0.637142  0.181838  1
  Si  Si27  1  0.293706  0.052509  0.181833  1
  Si  Si28  1  0.704156  0.951531  0.685840  1
  Si  Si29  1  0.450155  0.796082  0.435025  1
  Si  Si30  1  0.205128  0.547957  0.064421  1
  Si  Si31  1  0.548097  0.205168  0.935578  1
  Si  Si32  1  0.796119  0.450231  0.564976  1
  Si  Si33  1  0.052458  0.293815  0.818115  1
  Si  Si34  1  0.951590  0.704086  0.314111  1
  Tc  Tc35  1  0.175379  0.175364  0.000009  1
