# generated using pymatgen
data_Zr2Co12Si2P5
_symmetry_space_group_name_H-M   'P 1'
_cell_length_a   8.97046616
_cell_length_b   8.97056006
_cell_length_c   3.55936000
_cell_angle_alpha   90.00000000
_cell_angle_beta   90.00000000
_cell_angle_gamma   120.23020831
_symmetry_Int_Tables_number   1
_chemical_formula_structural   Zr2Co12Si2P5
_chemical_formula_sum   'Zr2 Co12 Si2 P5'
_cell_volume   247.47138541
_cell_formula_units_Z   1
loop_
 _symmetry_equiv_pos_site_id
 _symmetry_equiv_pos_as_xyz
  1  'x, y, z'
loop_
 _atom_site_type_symbol
 _atom_site_label
 _atom_site_symmetry_multiplicity
 _atom_site_fract_x
 _atom_site_fract_y
 _atom_site_fract_z
 _atom_site_occupancy
  Zr  Zr0  1  0.333670  0.666391  0.000000  1
  Zr  Zr1  1  0.668003  0.333250  0.500000  1
  Co  Co2  1  0.437368  0.055757  0.000000  1
  Co  Co3  1  0.935797  0.374773  0.000000  1
  Co  Co4  1  0.629582  0.567303  0.000000  1
  Co  Co5  1  0.385086  0.442317  0.500000  1
  Co  Co6  1  0.562200  0.946443  0.500000  1
  Co  Co7  1  0.051971  0.613330  0.500000  1
  Co  Co8  1  0.155311  0.284059  0.000000  1
  Co  Co9  1  0.717226  0.878519  0.000000  1
  Co  Co10  1  0.123019  0.838385  0.000000  1
  Co  Co11  1  0.230212  0.098742  0.500000  1
  Co  Co12  1  0.898691  0.131988  0.500000  1
  Co  Co13  1  0.870427  0.770221  0.500000  1
  Si  Si14  1  0.001709  0.000718  0.000000  1
  Si  Si15  1  0.406688  0.289662  0.000000  1
  P  P16  1  0.116107  0.406409  0.500000  1
  P  P17  1  0.595555  0.710512  0.500000  1
  P  P18  1  0.290132  0.883888  0.500000  1
  P  P19  1  0.707554  0.116190  0.000000  1
  P  P20  1  0.883691  0.591146  0.000000  1
