# generated using pymatgen
data_Dy5Y3(AlCo)2
_symmetry_space_group_name_H-M   'P 1'
_cell_length_a   9.41431256
_cell_length_b   9.41431324
_cell_length_c   9.41431300
_cell_angle_alpha   60.00000435
_cell_angle_beta   60.00000197
_cell_angle_gamma   60.00000369
_symmetry_Int_Tables_number   1
_chemical_formula_structural   Dy5Y3(AlCo)2
_chemical_formula_sum   'Dy10 Y6 Al4 Co4'
_cell_volume   589.99852480
_cell_formula_units_Z   2
loop_
 _symmetry_equiv_pos_site_id
 _symmetry_equiv_pos_as_xyz
  1  'x, y, z'
loop_
 _atom_site_type_symbol
 _atom_site_label
 _atom_site_symmetry_multiplicity
 _atom_site_fract_x
 _atom_site_fract_y
 _atom_site_fract_z
 _atom_site_occupancy
  Dy  Dy0  1  0.349004  0.349004  0.349004  1
  Dy  Dy1  1  0.349004  0.349004  0.952988  1
  Dy  Dy2  1  0.349004  0.952988  0.349004  1
  Dy  Dy3  1  0.952988  0.349004  0.349004  1
  Dy  Dy4  1  0.808454  0.191546  0.191546  1
  Dy  Dy5  1  0.191546  0.808454  0.808454  1
  Dy  Dy6  1  0.191546  0.808454  0.191546  1
  Dy  Dy7  1  0.808454  0.191546  0.808454  1
  Dy  Dy8  1  0.191546  0.191546  0.808454  1
  Dy  Dy9  1  0.808454  0.808454  0.191546  1
  Y  Y10  1  0.938275  0.561725  0.561725  1
  Y  Y11  1  0.561725  0.938275  0.938275  1
  Y  Y12  1  0.561725  0.938275  0.561725  1
  Y  Y13  1  0.938275  0.561725  0.938275  1
  Y  Y14  1  0.561725  0.561725  0.938275  1
  Y  Y15  1  0.938275  0.938275  0.561725  1
  Al  Al16  1  0.577343  0.577343  0.577343  1
  Al  Al17  1  0.577343  0.577343  0.267969  1
  Al  Al18  1  0.577343  0.267969  0.577343  1
  Al  Al19  1  0.267969  0.577343  0.577343  1
  Co  Co20  1  0.140590  0.140590  0.140590  1
  Co  Co21  1  0.140590  0.140590  0.578232  1
  Co  Co22  1  0.140590  0.578232  0.140590  1
  Co  Co23  1  0.578232  0.140590  0.140590  1
