# generated using pymatgen
data_Zr10CdSnPb6
_symmetry_space_group_name_H-M   'P 1'
_cell_length_a   8.94960200
_cell_length_b   8.94960141
_cell_length_c   6.02547700
_cell_angle_alpha   90.00000000
_cell_angle_beta   90.00000000
_cell_angle_gamma   120.00000220
_symmetry_Int_Tables_number   1
_chemical_formula_structural   Zr10CdSnPb6
_chemical_formula_sum   'Zr10 Cd1 Sn1 Pb6'
_cell_volume   417.95494754
_cell_formula_units_Z   1
loop_
 _symmetry_equiv_pos_site_id
 _symmetry_equiv_pos_as_xyz
  1  'x, y, z'
loop_
 _atom_site_type_symbol
 _atom_site_label
 _atom_site_symmetry_multiplicity
 _atom_site_fract_x
 _atom_site_fract_y
 _atom_site_fract_z
 _atom_site_occupancy
  Zr  Zr0  1  0.666667  0.333333  0.000000  1
  Zr  Zr1  1  0.333333  0.666667  0.000000  1
  Zr  Zr2  1  0.333333  0.666667  0.500000  1
  Zr  Zr3  1  0.666667  0.333333  0.500000  1
  Zr  Zr4  1  0.720522  0.720522  0.753185  1
  Zr  Zr5  1  0.279478  0.000000  0.753185  1
  Zr  Zr6  1  0.000000  0.279478  0.753185  1
  Zr  Zr7  1  0.279478  0.279478  0.246815  1
  Zr  Zr8  1  0.720522  0.000000  0.246815  1
  Zr  Zr9  1  0.000000  0.720522  0.246815  1
  Cd  Cd10  1  0.000000  0.000000  0.500000  1
  Sn  Sn11  1  0.000000  0.000000  0.000000  1
  Pb  Pb12  1  0.382441  0.382441  0.748176  1
  Pb  Pb13  1  0.617559  0.000000  0.748176  1
  Pb  Pb14  1  0.000000  0.617559  0.748176  1
  Pb  Pb15  1  0.617559  0.617559  0.251824  1
  Pb  Pb16  1  0.382441  0.000000  0.251824  1
  Pb  Pb17  1  0.000000  0.382441  0.251824  1
