# generated using pymatgen
data_ZrScCo4
_symmetry_space_group_name_H-M   'P 1'
_cell_length_a   4.85589023
_cell_length_b   4.85588988
_cell_length_c   4.85589077
_cell_angle_alpha   60.08479184
_cell_angle_beta   60.08479390
_cell_angle_gamma   60.08478472
_symmetry_Int_Tables_number   1
_chemical_formula_structural   ZrScCo4
_chemical_formula_sum   'Zr1 Sc1 Co4'
_cell_volume   81.11949591
_cell_formula_units_Z   1
loop_
 _symmetry_equiv_pos_site_id
 _symmetry_equiv_pos_as_xyz
  1  'x, y, z'
loop_
 _atom_site_type_symbol
 _atom_site_label
 _atom_site_symmetry_multiplicity
 _atom_site_fract_x
 _atom_site_fract_y
 _atom_site_fract_z
 _atom_site_occupancy
  Zr  Zr0  1  0.999755  0.999755  0.999755  1
  Sc  Sc1  1  0.250138  0.250138  0.250138  1
  Co  Co2  1  0.624714  0.624714  0.624714  1
  Co  Co3  1  0.624749  0.125897  0.624749  1
  Co  Co4  1  0.125897  0.624749  0.624749  1
  Co  Co5  1  0.624749  0.624749  0.125897  1
