# generated using pymatgen
data_Dy10In3Bi2Pb
_symmetry_space_group_name_H-M   'P 1'
_cell_length_a   9.04347133
_cell_length_b   9.06215862
_cell_length_c   6.64407700
_cell_angle_alpha   90.00000000
_cell_angle_beta   90.00000000
_cell_angle_gamma   119.96279539
_symmetry_Int_Tables_number   1
_chemical_formula_structural   Dy10In3Bi2Pb
_chemical_formula_sum   'Dy10 In3 Bi2 Pb1'
_cell_volume   471.73142482
_cell_formula_units_Z   1
loop_
 _symmetry_equiv_pos_site_id
 _symmetry_equiv_pos_as_xyz
  1  'x, y, z'
loop_
 _atom_site_type_symbol
 _atom_site_label
 _atom_site_symmetry_multiplicity
 _atom_site_fract_x
 _atom_site_fract_y
 _atom_site_fract_z
 _atom_site_occupancy
  Dy  Dy0  1  0.243227  0.234234  0.750000  1
  Dy  Dy1  1  0.238144  0.996852  0.250000  1
  Dy  Dy2  1  0.341546  0.676695  0.998434  1
  Dy  Dy3  1  0.662871  0.329782  0.998799  1
  Dy  Dy4  1  0.001160  0.766643  0.750000  1
  Dy  Dy5  1  0.762045  0.768018  0.250000  1
  Dy  Dy6  1  0.991500  0.232952  0.250000  1
  Dy  Dy7  1  0.757131  0.992187  0.750000  1
  Dy  Dy8  1  0.341546  0.676695  0.501566  1
  Dy  Dy9  1  0.662871  0.329782  0.501201  1
  In  In10  1  0.602701  0.002076  0.250000  1
  In  In11  1  0.604356  0.601860  0.750000  1
  In  In12  1  0.398158  0.000669  0.750000  1
  Bi  Bi13  1  0.002641  0.393227  0.750000  1
  Bi  Bi14  1  0.391278  0.394419  0.250000  1
  Pb  Pb15  1  0.998823  0.603909  0.250000  1
