# generated using pymatgen
data_Nd16InHg3Rh4
_symmetry_space_group_name_H-M   'P 1'
_cell_length_a   9.94292244
_cell_length_b   9.94292228
_cell_length_c   9.94292360
_cell_angle_alpha   59.92041900
_cell_angle_beta   59.92042029
_cell_angle_gamma   59.92042210
_symmetry_Int_Tables_number   1
_chemical_formula_structural   Nd16InHg3Rh4
_chemical_formula_sum   'Nd16 In1 Hg3 Rh4'
_cell_volume   693.81313539
_cell_formula_units_Z   1
loop_
 _symmetry_equiv_pos_site_id
 _symmetry_equiv_pos_as_xyz
  1  'x, y, z'
loop_
 _atom_site_type_symbol
 _atom_site_label
 _atom_site_symmetry_multiplicity
 _atom_site_fract_x
 _atom_site_fract_y
 _atom_site_fract_z
 _atom_site_occupancy
  Nd  Nd0  1  0.599446  0.599446  0.599446  1
  Nd  Nd1  1  0.600730  0.600730  0.199900  1
  Nd  Nd2  1  0.600730  0.199900  0.600730  1
  Nd  Nd3  1  0.199900  0.600730  0.600730  1
  Nd  Nd4  1  0.059333  0.440224  0.440224  1
  Nd  Nd5  1  0.440433  0.058261  0.058261  1
  Nd  Nd6  1  0.440224  0.059333  0.440224  1
  Nd  Nd7  1  0.058261  0.440433  0.058261  1
  Nd  Nd8  1  0.440224  0.440224  0.059333  1
  Nd  Nd9  1  0.058261  0.058261  0.440433  1
  Nd  Nd10  1  0.190346  0.812802  0.812802  1
  Nd  Nd11  1  0.812534  0.188437  0.188437  1
  Nd  Nd12  1  0.812802  0.190346  0.812802  1
  Nd  Nd13  1  0.188437  0.812534  0.188437  1
  Nd  Nd14  1  0.812802  0.812802  0.190346  1
  Nd  Nd15  1  0.188437  0.188437  0.812534  1
  In  In16  1  0.829638  0.829638  0.829638  1
  Hg  Hg17  1  0.834207  0.834207  0.497691  1
  Hg  Hg18  1  0.834207  0.497691  0.834207  1
  Hg  Hg19  1  0.497691  0.834207  0.834207  1
  Rh  Rh20  1  0.391933  0.391933  0.391933  1
  Rh  Rh21  1  0.392849  0.392849  0.823725  1
  Rh  Rh22  1  0.392849  0.823725  0.392849  1
  Rh  Rh23  1  0.823725  0.392849  0.392849  1
