# generated using pymatgen
data_La8MgTc2Hg
_symmetry_space_group_name_H-M   'P 1'
_cell_length_a   10.09539268
_cell_length_b   10.09946439
_cell_length_c   10.09539243
_cell_angle_alpha   59.98666358
_cell_angle_beta   60.24158489
_cell_angle_gamma   59.98665952
_symmetry_Int_Tables_number   1
_chemical_formula_structural   La8MgTc2Hg
_chemical_formula_sum   'La16 Mg2 Tc4 Hg2'
_cell_volume   729.00165326
_cell_formula_units_Z   2
loop_
 _symmetry_equiv_pos_site_id
 _symmetry_equiv_pos_as_xyz
  1  'x, y, z'
loop_
 _atom_site_type_symbol
 _atom_site_label
 _atom_site_symmetry_multiplicity
 _atom_site_fract_x
 _atom_site_fract_y
 _atom_site_fract_z
 _atom_site_occupancy
  La  La0  1  0.557996  0.942004  0.557996  1
  La  La1  1  0.187931  0.187928  0.811706  1
  La  La2  1  0.555909  0.557259  0.939904  1
  La  La3  1  0.964044  0.345332  0.345293  1
  La  La4  1  0.809958  0.190042  0.809958  1
  La  La5  1  0.187696  0.812304  0.187696  1
  La  La6  1  0.345293  0.345332  0.964044  1
  La  La7  1  0.344449  0.966887  0.344449  1
  La  La8  1  0.939904  0.946929  0.555909  1
  La  La9  1  0.939904  0.557259  0.555909  1
  La  La10  1  0.344449  0.344215  0.344449  1
  La  La11  1  0.811706  0.812435  0.187931  1
  La  La12  1  0.811706  0.187928  0.187931  1
  La  La13  1  0.555909  0.946929  0.939904  1
  La  La14  1  0.943522  0.556478  0.943522  1
  La  La15  1  0.187931  0.812435  0.811706  1
  Mg  Mg16  1  0.577579  0.572232  0.277958  1
  Mg  Mg17  1  0.277958  0.572232  0.577579  1
  Tc  Tc18  1  0.133257  0.601046  0.133257  1
  Tc  Tc19  1  0.599242  0.133853  0.133052  1
  Tc  Tc20  1  0.133052  0.133853  0.599242  1
  Tc  Tc21  1  0.133257  0.132440  0.133257  1
  Hg  Hg22  1  0.578676  0.587775  0.578676  1
  Hg  Hg23  1  0.578676  0.254874  0.578676  1
