# generated using pymatgen
data_U2Mn7Fe5P7
_symmetry_space_group_name_H-M   'P 1'
_cell_length_a   9.15677400
_cell_length_b   9.13144173
_cell_length_c   3.58008100
_cell_angle_alpha   90.00000000
_cell_angle_beta   90.00000000
_cell_angle_gamma   120.09132580
_symmetry_Int_Tables_number   1
_chemical_formula_structural   U2Mn7Fe5P7
_chemical_formula_sum   'U2 Mn7 Fe5 P7'
_cell_volume   259.00308217
_cell_formula_units_Z   1
loop_
 _symmetry_equiv_pos_site_id
 _symmetry_equiv_pos_as_xyz
  1  'x, y, z'
loop_
 _atom_site_type_symbol
 _atom_site_label
 _atom_site_symmetry_multiplicity
 _atom_site_fract_x
 _atom_site_fract_y
 _atom_site_fract_z
 _atom_site_occupancy
  U  U0  1  0.328759  0.662978  0.000000  1
  U  U1  1  0.000801  0.001339  0.500000  1
  Mn  Mn2  1  0.729984  0.962370  0.000000  1
  Mn  Mn3  1  0.107656  0.391354  0.500000  1
  Mn  Mn4  1  0.281491  0.893088  0.500000  1
  Mn  Mn5  1  0.611552  0.717695  0.500000  1
  Mn  Mn6  1  0.777389  0.211078  0.500000  1
  Mn  Mn7  1  0.435101  0.224092  0.500000  1
  Mn  Mn8  1  0.790824  0.566253  0.500000  1
  Fe  Fe9  1  0.233278  0.267803  0.000000  1
  Fe  Fe10  1  0.037565  0.768591  0.000000  1
  Fe  Fe11  1  0.940206  0.456276  0.000000  1
  Fe  Fe12  1  0.514510  0.059007  0.000000  1
  Fe  Fe13  1  0.544576  0.485231  0.000000  1
  P  P14  1  0.967919  0.227841  0.000000  1
  P  P15  1  0.259965  0.036017  0.000000  1
  P  P16  1  0.779400  0.738415  0.000000  1
  P  P17  1  0.067151  0.621928  0.500000  1
  P  P18  1  0.548475  0.930052  0.500000  1
  P  P19  1  0.376524  0.444870  0.500000  1
  P  P20  1  0.666882  0.333720  0.000000  1
