# generated using pymatgen
data_Tb8Hf9Nb2Si16W
_symmetry_space_group_name_H-M   'P 1'
_cell_length_a   7.23570196
_cell_length_b   7.23499776
_cell_length_c   13.25594904
_cell_angle_alpha   90.00580111
_cell_angle_beta   90.09041561
_cell_angle_gamma   90.09601326
_symmetry_Int_Tables_number   1
_chemical_formula_structural   Tb8Hf9Nb2Si16W
_chemical_formula_sum   'Tb8 Hf9 Nb2 Si16 W1'
_cell_volume   693.95090082
_cell_formula_units_Z   1
loop_
 _symmetry_equiv_pos_site_id
 _symmetry_equiv_pos_as_xyz
  1  'x, y, z'
loop_
 _atom_site_type_symbol
 _atom_site_label
 _atom_site_symmetry_multiplicity
 _atom_site_fract_x
 _atom_site_fract_y
 _atom_site_fract_z
 _atom_site_occupancy
  Tb  Tb0  1  0.999354  0.343418  0.213783  1
  Tb  Tb1  1  0.003185  0.656902  0.714990  1
  Tb  Tb2  1  0.155859  0.497799  0.464470  1
  Tb  Tb3  1  0.500975  0.844231  0.035185  1
  Tb  Tb4  1  0.844998  0.501948  0.967108  1
  Tb  Tb5  1  0.496905  0.155684  0.533235  1
  Tb  Tb6  1  0.342662  0.997572  0.786676  1
  Tb  Tb7  1  0.655831  0.001569  0.284456  1
  Hf  Hf8  1  0.675295  0.324109  0.750541  1
  Hf  Hf9  1  0.147779  0.993820  0.374119  1
  Hf  Hf10  1  0.853606  0.005258  0.877245  1
  Hf  Hf11  1  0.506364  0.649675  0.622871  1
  Hf  Hf12  1  0.348642  0.492343  0.878210  1
  Hf  Hf13  1  0.492288  0.351092  0.124233  1
  Hf  Hf14  1  0.647641  0.506855  0.374705  1
  Hf  Hf15  1  0.995887  0.146806  0.624350  1
  Hf  Hf16  1  0.007139  0.852635  0.124349  1
  Nb  Nb17  1  0.824582  0.824479  0.499409  1
  Nb  Nb18  1  0.323534  0.675609  0.249403  1
  Si  Si19  1  0.362318  0.295862  0.316576  1
  Si  Si20  1  0.636988  0.704494  0.817416  1
  Si  Si21  1  0.204683  0.862424  0.566271  1
  Si  Si22  1  0.137948  0.797269  0.933763  1
  Si  Si23  1  0.797294  0.137427  0.067133  1
  Si  Si24  1  0.862701  0.204790  0.432712  1
  Si  Si25  1  0.295598  0.363063  0.683300  1
  Si  Si26  1  0.704136  0.637464  0.182980  1
  Si  Si27  1  0.294977  0.050572  0.183553  1
  Si  Si28  1  0.704662  0.949895  0.684389  1
  Si  Si29  1  0.450076  0.796061  0.434060  1
  Si  Si30  1  0.204086  0.548260  0.065595  1
  Si  Si31  1  0.546405  0.203465  0.936459  1
  Si  Si32  1  0.796831  0.451757  0.563754  1
  Si  Si33  1  0.051270  0.294515  0.817756  1
  Si  Si34  1  0.950916  0.704407  0.314405  1
  W  W35  1  0.176586  0.176474  0.000539  1
