# generated using pymatgen
data_Zr3Si2Tc3P
_symmetry_space_group_name_H-M   'P 1'
_cell_length_a   6.93569900
_cell_length_b   6.93569879
_cell_length_c   3.46125400
_cell_angle_alpha   90.00000000
_cell_angle_beta   90.00000000
_cell_angle_gamma   120.00000575
_symmetry_Int_Tables_number   1
_chemical_formula_structural   Zr3Si2Tc3P
_chemical_formula_sum   'Zr3 Si2 Tc3 P1'
_cell_volume   144.19311979
_cell_formula_units_Z   1
loop_
 _symmetry_equiv_pos_site_id
 _symmetry_equiv_pos_as_xyz
  1  'x, y, z'
loop_
 _atom_site_type_symbol
 _atom_site_label
 _atom_site_symmetry_multiplicity
 _atom_site_fract_x
 _atom_site_fract_y
 _atom_site_fract_z
 _atom_site_occupancy
  Zr  Zr0  1  0.404351  0.997355  0.500000  1
  Zr  Zr1  1  0.002645  0.406995  0.500000  1
  Zr  Zr2  1  0.593005  0.595649  0.500000  1
  Si  Si3  1  0.666667  0.333333  0.000000  1
  Si  Si4  1  0.000000  0.000000  0.500000  1
  Tc  Tc5  1  0.746843  0.998426  0.000000  1
  Tc  Tc6  1  0.001574  0.748417  0.000000  1
  Tc  Tc7  1  0.251583  0.253157  0.000000  1
  P  P8  1  0.333333  0.666667  0.000000  1
