# generated using pymatgen
data_Dy20Co3TcSb8
_symmetry_space_group_name_H-M   'P 1'
_cell_length_a   7.90061101
_cell_length_b   8.82482800
_cell_length_c   12.21956508
_cell_angle_alpha   90.00000000
_cell_angle_beta   90.27058367
_cell_angle_gamma   90.00000000
_symmetry_Int_Tables_number   1
_chemical_formula_structural   Dy20Co3TcSb8
_chemical_formula_sum   'Dy20 Co3 Tc1 Sb8'
_cell_volume   851.95731328
_cell_formula_units_Z   1
loop_
 _symmetry_equiv_pos_site_id
 _symmetry_equiv_pos_as_xyz
  1  'x, y, z'
loop_
 _atom_site_type_symbol
 _atom_site_label
 _atom_site_symmetry_multiplicity
 _atom_site_fract_x
 _atom_site_fract_y
 _atom_site_fract_z
 _atom_site_occupancy
  Dy  Dy0  1  0.157776  0.750000  0.206507  1
  Dy  Dy1  1  0.344182  0.750000  0.709612  1
  Dy  Dy2  1  0.845171  0.250000  0.796838  1
  Dy  Dy3  1  0.655466  0.250000  0.295033  1
  Dy  Dy4  1  0.453206  0.750000  0.997549  1
  Dy  Dy5  1  0.047812  0.750000  0.497231  1
  Dy  Dy6  1  0.545382  0.250000  0.002759  1
  Dy  Dy7  1  0.950851  0.250000  0.503275  1
  Dy  Dy8  1  0.624842  0.750000  0.301724  1
  Dy  Dy9  1  0.877595  0.750000  0.807302  1
  Dy  Dy10  1  0.377418  0.250000  0.694822  1
  Dy  Dy11  1  0.123622  0.250000  0.193195  1
  Dy  Dy12  1  0.822224  0.535783  0.064768  1
  Dy  Dy13  1  0.677486  0.965616  0.564236  1
  Dy  Dy14  1  0.178578  0.036496  0.935141  1
  Dy  Dy15  1  0.320001  0.457622  0.434065  1
  Dy  Dy16  1  0.178578  0.463504  0.935141  1
  Dy  Dy17  1  0.320001  0.042378  0.434065  1
  Dy  Dy18  1  0.822224  0.964217  0.064768  1
  Dy  Dy19  1  0.677486  0.534384  0.564236  1
  Co  Co20  1  0.067215  0.750000  0.990868  1
  Co  Co21  1  0.573891  0.250000  0.511703  1
  Co  Co22  1  0.935141  0.250000  0.009810  1
  Tc  Tc23  1  0.422758  0.750000  0.486399  1
  Sb  Sb24  1  0.928003  0.507110  0.326733  1
  Sb  Sb25  1  0.572923  0.992723  0.828315  1
  Sb  Sb26  1  0.071537  0.008264  0.672806  1
  Sb  Sb27  1  0.428086  0.491757  0.171622  1
  Sb  Sb28  1  0.071537  0.491736  0.672806  1
  Sb  Sb29  1  0.428086  0.008243  0.171622  1
  Sb  Sb30  1  0.928003  0.992890  0.326733  1
  Sb  Sb31  1  0.572923  0.507277  0.828315  1
