# generated using pymatgen
data_La6In5GaSn4
_symmetry_space_group_name_H-M   'P 1'
_cell_length_a   6.74033308
_cell_length_b   6.74033418
_cell_length_c   10.52064400
_cell_angle_alpha   90.00000000
_cell_angle_beta   90.00000000
_cell_angle_gamma   103.11323671
_symmetry_Int_Tables_number   1
_chemical_formula_structural   La6In5GaSn4
_chemical_formula_sum   'La6 In5 Ga1 Sn4'
_cell_volume   465.51104782
_cell_formula_units_Z   1
loop_
 _symmetry_equiv_pos_site_id
 _symmetry_equiv_pos_as_xyz
  1  'x, y, z'
loop_
 _atom_site_type_symbol
 _atom_site_label
 _atom_site_symmetry_multiplicity
 _atom_site_fract_x
 _atom_site_fract_y
 _atom_site_fract_z
 _atom_site_occupancy
  La  La0  1  0.639159  0.639159  0.250000  1
  La  La1  1  0.351168  0.351168  0.750000  1
  La  La2  1  0.202448  0.798215  0.504271  1
  La  La3  1  0.202448  0.798215  0.995729  1
  La  La4  1  0.798215  0.202448  0.504271  1
  La  La5  1  0.798215  0.202448  0.995729  1
  In  In6  1  0.025531  0.025531  0.250000  1
  In  In7  1  0.309753  0.309753  0.050122  1
  In  In8  1  0.691560  0.691560  0.949299  1
  In  In9  1  0.309753  0.309753  0.449878  1
  In  In10  1  0.691560  0.691560  0.550701  1
  Ga  Ga11  1  0.968101  0.968101  0.750000  1
  Sn  Sn12  1  0.498503  0.081677  0.250000  1
  Sn  Sn13  1  0.920220  0.511689  0.750000  1
  Sn  Sn14  1  0.511689  0.920220  0.750000  1
  Sn  Sn15  1  0.081677  0.498503  0.250000  1
