# generated using pymatgen
data_ErMn4FeP3
_symmetry_space_group_name_H-M   'P 1'
_cell_length_a   3.57618400
_cell_length_b   10.55726500
_cell_length_c   12.19511000
_cell_angle_alpha   90.00000000
_cell_angle_beta   90.00000000
_cell_angle_gamma   90.00000000
_symmetry_Int_Tables_number   1
_chemical_formula_structural   ErMn4FeP3
_chemical_formula_sum   'Er4 Mn16 Fe4 P12'
_cell_volume   460.42298997
_cell_formula_units_Z   4
loop_
 _symmetry_equiv_pos_site_id
 _symmetry_equiv_pos_as_xyz
  1  'x, y, z'
loop_
 _atom_site_type_symbol
 _atom_site_label
 _atom_site_symmetry_multiplicity
 _atom_site_fract_x
 _atom_site_fract_y
 _atom_site_fract_z
 _atom_site_occupancy
  Er  Er0  1  0.250000  0.582710  0.707773  1
  Er  Er1  1  0.250000  0.917290  0.207773  1
  Er  Er2  1  0.750000  0.417290  0.292227  1
  Er  Er3  1  0.750000  0.082710  0.792227  1
  Mn  Mn4  1  0.250000  0.709485  0.987239  1
  Mn  Mn5  1  0.250000  0.790515  0.487239  1
  Mn  Mn6  1  0.750000  0.290515  0.012761  1
  Mn  Mn7  1  0.750000  0.209485  0.512761  1
  Mn  Mn8  1  0.250000  0.407996  0.492312  1
  Mn  Mn9  1  0.250000  0.092005  0.992312  1
  Mn  Mn10  1  0.750000  0.592004  0.507688  1
  Mn  Mn11  1  0.750000  0.907996  0.007688  1
  Mn  Mn12  1  0.250000  0.219410  0.174472  1
  Mn  Mn13  1  0.250000  0.280590  0.674472  1
  Mn  Mn14  1  0.750000  0.780590  0.825528  1
  Mn  Mn15  1  0.750000  0.719410  0.325528  1
  Mn  Mn16  1  0.250000  0.876363  0.699373  1
  Mn  Mn17  1  0.250000  0.623637  0.199373  1
  Mn  Mn18  1  0.750000  0.123637  0.300627  1
  Mn  Mn19  1  0.750000  0.376363  0.800627  1
  Fe  Fe20  1  0.250000  0.462685  0.932067  1
  Fe  Fe21  1  0.250000  0.037315  0.432067  1
  Fe  Fe22  1  0.750000  0.537315  0.067933  1
  Fe  Fe23  1  0.750000  0.962685  0.567933  1
  P  P24  1  0.250000  0.423309  0.111104  1
  P  P25  1  0.250000  0.076691  0.611104  1
  P  P26  1  0.750000  0.576691  0.888896  1
  P  P27  1  0.750000  0.923309  0.388896  1
  P  P28  1  0.250000  0.264155  0.870817  1
  P  P29  1  0.250000  0.235845  0.370817  1
  P  P30  1  0.750000  0.735845  0.129183  1
  P  P31  1  0.750000  0.764155  0.629183  1
  P  P32  1  0.250000  0.593467  0.386955  1
  P  P33  1  0.250000  0.906533  0.886955  1
  P  P34  1  0.750000  0.406533  0.613045  1
  P  P35  1  0.750000  0.093467  0.113045  1
