# generated using pymatgen
data_Gd2B8OsRh
_symmetry_space_group_name_H-M   'P 1'
_cell_length_a   5.98758581
_cell_length_b   11.61127737
_cell_length_c   3.59232400
_cell_angle_alpha   90.00000000
_cell_angle_beta   90.00000000
_cell_angle_gamma   89.88938093
_symmetry_Int_Tables_number   1
_chemical_formula_structural   Gd2B8OsRh
_chemical_formula_sum   'Gd4 B16 Os2 Rh2'
_cell_volume   249.75054264
_cell_formula_units_Z   2
loop_
 _symmetry_equiv_pos_site_id
 _symmetry_equiv_pos_as_xyz
  1  'x, y, z'
loop_
 _atom_site_type_symbol
 _atom_site_label
 _atom_site_symmetry_multiplicity
 _atom_site_fract_x
 _atom_site_fract_y
 _atom_site_fract_z
 _atom_site_occupancy
  Gd  Gd0  1  0.629534  0.350654  0.000000  1
  Gd  Gd1  1  0.370466  0.649346  0.000000  1
  Gd  Gd2  1  0.128723  0.149300  0.000000  1
  Gd  Gd3  1  0.871277  0.850700  0.000000  1
  B  B4  1  0.787321  0.186588  0.500000  1
  B  B5  1  0.212679  0.813412  0.500000  1
  B  B6  1  0.287675  0.313933  0.500000  1
  B  B7  1  0.712325  0.686067  0.500000  1
  B  B8  1  0.862395  0.030617  0.500000  1
  B  B9  1  0.137605  0.969383  0.500000  1
  B  B10  1  0.362808  0.469717  0.500000  1
  B  B11  1  0.637192  0.530283  0.500000  1
  B  B12  1  0.888001  0.453759  0.500000  1
  B  B13  1  0.111999  0.546241  0.500000  1
  B  B14  1  0.387957  0.047152  0.500000  1
  B  B15  1  0.612043  0.952848  0.500000  1
  B  B16  1  0.974092  0.309096  0.500000  1
  B  B17  1  0.025908  0.690904  0.500000  1
  B  B18  1  0.477626  0.192368  0.500000  1
  B  B19  1  0.522374  0.807632  0.500000  1
  Os  Os20  1  0.141616  0.407245  0.000000  1
  Os  Os21  1  0.858384  0.592755  0.000000  1
  Rh  Rh22  1  0.640560  0.094409  0.000000  1
  Rh  Rh23  1  0.359440  0.905591  0.000000  1
