# generated using pymatgen
data_Zr6Si5AsRu6
_symmetry_space_group_name_H-M   'P 1'
_cell_length_a   7.66660634
_cell_length_b   7.66999549
_cell_length_c   7.67072006
_cell_angle_alpha   128.01585270
_cell_angle_beta   121.44105224
_cell_angle_gamma   82.11185598
_symmetry_Int_Tables_number   1
_chemical_formula_structural   Zr6Si5AsRu6
_chemical_formula_sum   'Zr6 Si5 As1 Ru6'
_cell_volume   291.60511007
_cell_formula_units_Z   1
loop_
 _symmetry_equiv_pos_site_id
 _symmetry_equiv_pos_as_xyz
  1  'x, y, z'
loop_
 _atom_site_type_symbol
 _atom_site_label
 _atom_site_symmetry_multiplicity
 _atom_site_fract_x
 _atom_site_fract_y
 _atom_site_fract_z
 _atom_site_occupancy
  Zr  Zr0  1  0.467045  0.699978  0.727504  1
  Zr  Zr1  1  0.527036  0.255494  0.224206  1
  Zr  Zr2  1  0.747078  0.833924  0.581909  1
  Zr  Zr3  1  0.256361  0.837458  0.087161  1
  Zr  Zr4  1  0.052463  0.252783  0.704152  1
  Zr  Zr5  1  0.949169  0.653786  0.208922  1
  Si  Si6  1  0.274741  0.269565  0.494886  1
  Si  Si7  1  0.724589  0.220393  0.994328  1
  Si  Si8  1  0.328181  0.587227  0.250081  1
  Si  Si9  1  0.673885  0.922292  0.259789  1
  Si  Si10  1  0.161029  0.922111  0.749946  1
  As  As11  1  0.838765  0.587727  0.760513  1
  Ru  Ru12  1  0.499021  0.496759  0.995892  1
  Ru  Ru13  1  0.002651  0.497662  0.494499  1
  Ru  Ru14  1  0.097115  0.253507  0.104918  1
  Ru  Ru15  1  0.903819  0.013620  0.162050  1
  Ru  Ru16  1  0.350754  0.007875  0.605227  1
  Ru  Ru17  1  0.646295  0.247437  0.653619  1
