# generated using pymatgen
data_Nb12SiPt7N4
_symmetry_space_group_name_H-M   'P 1'
_cell_length_a   7.06293929
_cell_length_b   7.06293917
_cell_length_c   7.06294040
_cell_angle_alpha   89.85591964
_cell_angle_beta   89.85591654
_cell_angle_gamma   89.85591834
_symmetry_Int_Tables_number   1
_chemical_formula_structural   Nb12SiPt7N4
_chemical_formula_sum   'Nb12 Si1 Pt7 N4'
_cell_volume   352.33222623
_cell_formula_units_Z   1
loop_
 _symmetry_equiv_pos_site_id
 _symmetry_equiv_pos_as_xyz
  1  'x, y, z'
loop_
 _atom_site_type_symbol
 _atom_site_label
 _atom_site_symmetry_multiplicity
 _atom_site_fract_x
 _atom_site_fract_y
 _atom_site_fract_z
 _atom_site_occupancy
  Nb  Nb0  1  0.622091  0.704969  0.952385  1
  Nb  Nb1  1  0.460094  0.869998  0.300261  1
  Nb  Nb2  1  0.704969  0.952385  0.622091  1
  Nb  Nb3  1  0.547634  0.376286  0.206772  1
  Nb  Nb4  1  0.376286  0.206772  0.547634  1
  Nb  Nb5  1  0.206772  0.547634  0.376286  1
  Nb  Nb6  1  0.869998  0.300261  0.460094  1
  Nb  Nb7  1  0.044648  0.120173  0.792044  1
  Nb  Nb8  1  0.300261  0.460094  0.869998  1
  Nb  Nb9  1  0.120173  0.792044  0.044648  1
  Nb  Nb10  1  0.792044  0.044648  0.120173  1
  Nb  Nb11  1  0.952385  0.622091  0.704969  1
  Si  Si12  1  0.183429  0.183429  0.183429  1
  Pt  Pt13  1  0.310526  0.818805  0.686483  1
  Pt  Pt14  1  0.417061  0.072111  0.955621  1
  Pt  Pt15  1  0.818805  0.686483  0.310526  1
  Pt  Pt16  1  0.686483  0.310526  0.818805  1
  Pt  Pt17  1  0.563505  0.563505  0.563505  1
  Pt  Pt18  1  0.072111  0.955621  0.417061  1
  Pt  Pt19  1  0.955621  0.417061  0.072111  1
  N  N20  1  0.374595  0.625331  0.123758  1
  N  N21  1  0.871419  0.871419  0.871419  1
  N  N22  1  0.123758  0.374595  0.625331  1
  N  N23  1  0.625331  0.123758  0.374595  1
