# generated using pymatgen
data_Ca2Zn5Si3
_symmetry_space_group_name_H-M   'P 1'
_cell_length_a   4.16993800
_cell_length_b   4.16993800
_cell_length_c   10.57142100
_cell_angle_alpha   90.00000000
_cell_angle_beta   90.00000000
_cell_angle_gamma   90.00000000
_symmetry_Int_Tables_number   1
_chemical_formula_structural   Ca2Zn5Si3
_chemical_formula_sum   'Ca2 Zn5 Si3'
_cell_volume   183.81991640
_cell_formula_units_Z   1
loop_
 _symmetry_equiv_pos_site_id
 _symmetry_equiv_pos_as_xyz
  1  'x, y, z'
loop_
 _atom_site_type_symbol
 _atom_site_label
 _atom_site_symmetry_multiplicity
 _atom_site_fract_x
 _atom_site_fract_y
 _atom_site_fract_z
 _atom_site_occupancy
  Ca  Ca0  1  0.000000  0.000000  0.995067  1
  Ca  Ca1  1  0.500000  0.500000  0.502898  1
  Zn  Zn2  1  0.000000  0.500000  0.253930  1
  Zn  Zn3  1  0.500000  0.000000  0.748257  1
  Zn  Zn4  1  0.500000  0.000000  0.253930  1
  Zn  Zn5  1  0.000000  0.500000  0.748257  1
  Zn  Zn6  1  0.500000  0.500000  0.112139  1
  Si  Si7  1  0.000000  0.000000  0.611855  1
  Si  Si8  1  0.000000  0.000000  0.388049  1
  Si  Si9  1  0.500000  0.500000  0.885619  1
