# generated using pymatgen
data_Pr5MnRhO12
_symmetry_space_group_name_H-M   'P 1'
_cell_length_a   7.10273017
_cell_length_b   7.10273028
_cell_length_c   7.65170104
_cell_angle_alpha   74.43941656
_cell_angle_beta   74.43942772
_cell_angle_gamma   50.46278555
_symmetry_Int_Tables_number   1
_chemical_formula_structural   Pr5MnRhO12
_chemical_formula_sum   'Pr5 Mn1 Rh1 O12'
_cell_volume   284.31075288
_cell_formula_units_Z   1
loop_
 _symmetry_equiv_pos_site_id
 _symmetry_equiv_pos_as_xyz
  1  'x, y, z'
loop_
 _atom_site_type_symbol
 _atom_site_label
 _atom_site_symmetry_multiplicity
 _atom_site_fract_x
 _atom_site_fract_y
 _atom_site_fract_z
 _atom_site_occupancy
  Pr  Pr0  1  0.313559  0.300004  0.356475  1
  Pr  Pr1  1  0.699996  0.686441  0.643525  1
  Pr  Pr2  1  0.693080  0.692696  0.164881  1
  Pr  Pr3  1  0.307304  0.306920  0.835119  1
  Pr  Pr4  1  0.999988  0.000012  0.500000  1
  Mn  Mn5  1  0.750834  0.249166  0.000000  1
  Rh  Rh6  1  0.239132  0.760868  0.000000  1
  O  O7  1  0.098447  0.596218  0.576600  1
  O  O8  1  0.988480  0.009999  0.171199  1
  O  O9  1  0.403782  0.901553  0.423400  1
  O  O10  1  0.506316  0.494566  0.171164  1
  O  O11  1  0.100096  0.584501  0.078289  1
  O  O12  1  0.908073  0.402853  0.420671  1
  O  O13  1  0.990001  0.011520  0.828801  1
  O  O14  1  0.597147  0.091926  0.579329  1
  O  O15  1  0.505434  0.493684  0.828836  1
  O  O16  1  0.584155  0.101325  0.077135  1
  O  O17  1  0.415499  0.899904  0.921711  1
  O  O18  1  0.898675  0.415845  0.922865  1
