# generated using pymatgen
data_Nb8Fe7Si14Ir
_symmetry_space_group_name_H-M   'P 1'
_cell_length_a   9.28850152
_cell_length_b   9.29791815
_cell_length_c   9.28636525
_cell_angle_alpha   94.33302879
_cell_angle_beta   94.28323658
_cell_angle_gamma   148.19805470
_symmetry_Int_Tables_number   1
_chemical_formula_structural   Nb8Fe7Si14Ir
_chemical_formula_sum   'Nb8 Fe7 Si14 Ir1'
_cell_volume   406.44720223
_cell_formula_units_Z   1
loop_
 _symmetry_equiv_pos_site_id
 _symmetry_equiv_pos_as_xyz
  1  'x, y, z'
loop_
 _atom_site_type_symbol
 _atom_site_label
 _atom_site_symmetry_multiplicity
 _atom_site_fract_x
 _atom_site_fract_y
 _atom_site_fract_z
 _atom_site_occupancy
  Nb  Nb0  1  0.135128  0.135137  0.270253  1
  Nb  Nb1  1  0.864882  0.864900  0.729794  1
  Nb  Nb2  1  0.865799  0.133925  0.001507  1
  Nb  Nb3  1  0.135708  0.867588  0.001514  1
  Nb  Nb4  1  0.501348  0.691780  0.193056  1
  Nb  Nb5  1  0.498703  0.308874  0.808421  1
  Nb  Nb6  1  0.309697  0.499550  0.808409  1
  Nb  Nb7  1  0.691701  0.501282  0.193051  1
  Fe  Fe8  1  0.103986  0.603945  0.207958  1
  Fe  Fe9  1  0.102080  0.898861  0.500861  1
  Fe  Fe10  1  0.398764  0.601991  0.500842  1
  Fe  Fe11  1  0.596374  0.399757  0.497042  1
  Fe  Fe12  1  0.900671  0.097287  0.497057  1
  Fe  Fe13  1  0.899989  0.400001  0.800006  1
  Fe  Fe14  1  0.599211  0.099206  0.198407  1
  Si  Si15  1  0.290485  0.290510  0.580996  1
  Si  Si16  1  0.709362  0.709387  0.418742  1
  Si  Si17  1  0.724877  0.309117  0.005458  1
  Si  Si18  1  0.280589  0.696332  0.005453  1
  Si  Si19  1  0.998390  0.294982  0.297316  1
  Si  Si20  1  0.981778  0.690752  0.701201  1
  Si  Si21  1  0.719356  0.010397  0.701126  1
  Si  Si22  1  0.298902  0.002301  0.297272  1
  Si  Si23  1  0.507439  0.910556  0.406576  1
  Si  Si24  1  0.517673  0.116275  0.587666  1
  Si  Si25  1  0.070062  0.471414  0.587672  1
  Si  Si26  1  0.899159  0.495986  0.406578  1
  Si  Si27  1  0.751433  0.751507  0.000335  1
  Si  Si28  1  0.248895  0.248840  0.000337  1
  Ir  Ir29  1  0.397558  0.897556  0.795095  1
