# generated using pymatgen
data_Cd(Sn2Rh)3
_symmetry_space_group_name_H-M   'P 1'
_cell_length_a   8.23859601
_cell_length_b   8.23859563
_cell_length_c   8.23290029
_cell_angle_alpha   108.94570363
_cell_angle_beta   108.94570751
_cell_angle_gamma   110.55490284
_symmetry_Int_Tables_number   1
_chemical_formula_structural   Cd(Sn2Rh)3
_chemical_formula_sum   'Cd2 Sn12 Rh6'
_cell_volume   429.90867433
_cell_formula_units_Z   2
loop_
 _symmetry_equiv_pos_site_id
 _symmetry_equiv_pos_as_xyz
  1  'x, y, z'
loop_
 _atom_site_type_symbol
 _atom_site_label
 _atom_site_symmetry_multiplicity
 _atom_site_fract_x
 _atom_site_fract_y
 _atom_site_fract_z
 _atom_site_occupancy
  Cd  Cd0  1  0.252225  0.503032  0.755257  1
  Cd  Cd1  1  0.496968  0.747775  0.244743  1
  Sn  Sn2  1  0.747443  0.503222  0.250665  1
  Sn  Sn3  1  0.496778  0.252557  0.749335  1
  Sn  Sn4  1  0.752436  0.247564  0.500000  1
  Sn  Sn5  1  0.252436  0.747564  0.500000  1
  Sn  Sn6  1  0.003960  0.674315  0.000000  1
  Sn  Sn7  1  0.670850  0.993761  0.000000  1
  Sn  Sn8  1  0.999898  0.002568  0.673982  1
  Sn  Sn9  1  0.325916  0.328585  0.326018  1
  Sn  Sn10  1  0.325685  0.996040  0.000000  1
  Sn  Sn11  1  0.006239  0.329150  0.000000  1
  Sn  Sn12  1  0.997432  0.000102  0.326018  1
  Sn  Sn13  1  0.671415  0.674084  0.673982  1
  Rh  Rh14  1  0.667908  0.653656  0.000000  1
  Rh  Rh15  1  0.657562  0.007402  0.664964  1
  Rh  Rh16  1  0.346344  0.332092  0.000000  1
  Rh  Rh17  1  0.343796  0.007892  0.351687  1
  Rh  Rh18  1  0.992108  0.656204  0.648313  1
  Rh  Rh19  1  0.992598  0.342438  0.335036  1
