# generated using pymatgen
data_CaTh3(Al3Rh)6
_symmetry_space_group_name_H-M   'P 1'
_cell_length_a   7.65788061
_cell_length_b   7.67557415
_cell_length_c   9.55692400
_cell_angle_alpha   90.00000000
_cell_angle_beta   90.00000000
_cell_angle_gamma   119.35661949
_symmetry_Int_Tables_number   1
_chemical_formula_structural   CaTh3(Al3Rh)6
_chemical_formula_sum   'Ca1 Th3 Al18 Rh6'
_cell_volume   489.60682462
_cell_formula_units_Z   1
loop_
 _symmetry_equiv_pos_site_id
 _symmetry_equiv_pos_as_xyz
  1  'x, y, z'
loop_
 _atom_site_type_symbol
 _atom_site_label
 _atom_site_symmetry_multiplicity
 _atom_site_fract_x
 _atom_site_fract_y
 _atom_site_fract_z
 _atom_site_occupancy
  Ca  Ca0  1  0.327896  0.006165  0.750000  1
  Th  Th1  1  0.995607  0.672136  0.250000  1
  Th  Th2  1  0.003957  0.328530  0.750000  1
  Th  Th3  1  0.670169  0.993783  0.250000  1
  Al  Al4  1  0.135104  0.132370  0.250000  1
  Al  Al5  1  0.869438  0.870159  0.750000  1
  Al  Al6  1  0.006247  0.335765  0.075156  1
  Al  Al7  1  0.000460  0.669602  0.921221  1
  Al  Al8  1  0.000460  0.669602  0.578779  1
  Al  Al9  1  0.335473  0.004711  0.431569  1
  Al  Al10  1  0.006247  0.335765  0.424844  1
  Al  Al11  1  0.658956  0.995397  0.578625  1
  Al  Al12  1  0.658956  0.995397  0.921375  1
  Al  Al13  1  0.335473  0.004711  0.068431  1
  Al  Al14  1  0.335955  0.332763  0.552315  1
  Al  Al15  1  0.663639  0.663284  0.457224  1
  Al  Al16  1  0.663639  0.663284  0.042776  1
  Al  Al17  1  0.335955  0.332763  0.947685  1
  Al  Al18  1  0.341560  0.544286  0.250000  1
  Al  Al19  1  0.658658  0.451152  0.750000  1
  Al  Al20  1  0.544744  0.338204  0.250000  1
  Al  Al21  1  0.451254  0.659410  0.750000  1
  Rh  Rh22  1  0.674904  0.329642  0.001013  1
  Rh  Rh23  1  0.327513  0.670585  0.001648  1
  Rh  Rh24  1  0.327513  0.670585  0.498352  1
  Rh  Rh25  1  0.674904  0.329642  0.498987  1
  Rh  Rh26  1  0.997661  0.000156  0.001286  1
  Rh  Rh27  1  0.997661  0.000156  0.498714  1
