# generated using pymatgen
data_Ho16Ni3Ag4Os
_symmetry_space_group_name_H-M   'P 1'
_cell_length_a   9.43425662
_cell_length_b   9.43425742
_cell_length_c   9.43425774
_cell_angle_alpha   59.63508575
_cell_angle_beta   59.63508424
_cell_angle_gamma   59.63508835
_symmetry_Int_Tables_number   1
_chemical_formula_structural   Ho16Ni3Ag4Os
_chemical_formula_sum   'Ho16 Ni3 Ag4 Os1'
_cell_volume   588.83258752
_cell_formula_units_Z   1
loop_
 _symmetry_equiv_pos_site_id
 _symmetry_equiv_pos_as_xyz
  1  'x, y, z'
loop_
 _atom_site_type_symbol
 _atom_site_label
 _atom_site_symmetry_multiplicity
 _atom_site_fract_x
 _atom_site_fract_y
 _atom_site_fract_z
 _atom_site_occupancy
  Ho  Ho0  1  0.348558  0.348558  0.348558  1
  Ho  Ho1  1  0.354136  0.354136  0.949136  1
  Ho  Ho2  1  0.354136  0.949136  0.354136  1
  Ho  Ho3  1  0.949136  0.354136  0.354136  1
  Ho  Ho4  1  0.809395  0.187824  0.187824  1
  Ho  Ho5  1  0.188218  0.810103  0.810103  1
  Ho  Ho6  1  0.187824  0.809395  0.187824  1
  Ho  Ho7  1  0.810103  0.188218  0.810103  1
  Ho  Ho8  1  0.187824  0.187824  0.809395  1
  Ho  Ho9  1  0.810103  0.810103  0.188218  1
  Ho  Ho10  1  0.934738  0.564811  0.564811  1
  Ho  Ho11  1  0.558045  0.938395  0.938395  1
  Ho  Ho12  1  0.564811  0.934738  0.564811  1
  Ho  Ho13  1  0.938395  0.558045  0.938395  1
  Ho  Ho14  1  0.564811  0.564811  0.934738  1
  Ho  Ho15  1  0.938395  0.938395  0.558045  1
  Ni  Ni16  1  0.142714  0.142714  0.573541  1
  Ni  Ni17  1  0.142714  0.573541  0.142714  1
  Ni  Ni18  1  0.573541  0.142714  0.142714  1
  Ag  Ag19  1  0.582108  0.582108  0.582108  1
  Ag  Ag20  1  0.581207  0.581207  0.254350  1
  Ag  Ag21  1  0.581207  0.254350  0.581207  1
  Ag  Ag22  1  0.254350  0.581207  0.581207  1
  Os  Os23  1  0.143525  0.143525  0.143525  1
