# generated using pymatgen
data_Pr6Zn3InPt13
_symmetry_space_group_name_H-M   'P 1'
_cell_length_a   8.49037038
_cell_length_b   8.47185321
_cell_length_c   8.47185400
_cell_angle_alpha   109.42690221
_cell_angle_beta   109.51550796
_cell_angle_gamma   109.51549994
_symmetry_Int_Tables_number   1
_chemical_formula_structural   Pr6Zn3InPt13
_chemical_formula_sum   'Pr6 Zn3 In1 Pt13'
_cell_volume   468.83927294
_cell_formula_units_Z   1
loop_
 _symmetry_equiv_pos_site_id
 _symmetry_equiv_pos_as_xyz
  1  'x, y, z'
loop_
 _atom_site_type_symbol
 _atom_site_label
 _atom_site_symmetry_multiplicity
 _atom_site_fract_x
 _atom_site_fract_y
 _atom_site_fract_z
 _atom_site_occupancy
  Pr  Pr0  1  0.699167  0.697315  0.000000  1
  Pr  Pr1  1  0.300833  0.000000  0.302685  1
  Pr  Pr2  1  0.001852  0.302685  0.302685  1
  Pr  Pr3  1  0.300833  0.302685  0.000000  1
  Pr  Pr4  1  0.699167  0.000000  0.697315  1
  Pr  Pr5  1  0.998148  0.697315  0.697315  1
  Zn  Zn6  1  0.000000  0.000000  0.500000  1
  Zn  Zn7  1  0.000000  0.500000  0.000000  1
  Zn  Zn8  1  0.500000  0.500000  0.500000  1
  In  In9  1  0.500000  0.000000  0.000000  1
  Pt  Pt10  1  0.328055  0.328055  0.656112  1
  Pt  Pt11  1  0.676894  0.000000  0.334617  1
  Pt  Pt12  1  0.000000  0.671945  0.328055  1
  Pt  Pt13  1  0.676894  0.334617  0.000000  1
  Pt  Pt14  1  0.328055  0.656112  0.328055  1
  Pt  Pt15  1  0.000000  0.328055  0.671945  1
  Pt  Pt16  1  0.323106  0.665383  0.000000  1
  Pt  Pt17  1  0.323106  0.000000  0.665383  1
  Pt  Pt18  1  0.657724  0.334617  0.334617  1
  Pt  Pt19  1  0.671945  0.671945  0.343888  1
  Pt  Pt20  1  0.671945  0.343888  0.671945  1
  Pt  Pt21  1  0.342276  0.665383  0.665383  1
  Pt  Pt22  1  0.000000  0.000000  0.000000  1
