# generated using pymatgen
data_Ba3MgPtO6
_symmetry_space_group_name_H-M   'P 1'
_cell_length_a   7.07139545
_cell_length_b   7.07139649
_cell_length_c   7.07139522
_cell_angle_alpha   93.29160466
_cell_angle_beta   93.29160187
_cell_angle_gamma   93.29159815
_symmetry_Int_Tables_number   1
_chemical_formula_structural   Ba3MgPtO6
_chemical_formula_sum   'Ba6 Mg2 Pt2 O12'
_cell_volume   351.78232824
_cell_formula_units_Z   2
loop_
 _symmetry_equiv_pos_site_id
 _symmetry_equiv_pos_as_xyz
  1  'x, y, z'
loop_
 _atom_site_type_symbol
 _atom_site_label
 _atom_site_symmetry_multiplicity
 _atom_site_fract_x
 _atom_site_fract_y
 _atom_site_fract_z
 _atom_site_occupancy
  Ba  Ba0  1  0.613736  0.250000  0.886264  1
  Ba  Ba1  1  0.886264  0.613736  0.250000  1
  Ba  Ba2  1  0.750000  0.113736  0.386264  1
  Ba  Ba3  1  0.386264  0.750000  0.113736  1
  Ba  Ba4  1  0.113736  0.386264  0.750000  1
  Ba  Ba5  1  0.250000  0.886264  0.613736  1
  Mg  Mg6  1  0.250000  0.250000  0.250000  1
  Mg  Mg7  1  0.750000  0.750000  0.750000  1
  Pt  Pt8  1  0.000000  0.000000  0.000000  1
  Pt  Pt9  1  0.500000  0.500000  0.500000  1
  O  O10  1  0.598850  0.778945  0.472310  1
  O  O11  1  0.472310  0.598850  0.778945  1
  O  O12  1  0.778945  0.472310  0.598850  1
  O  O13  1  0.901150  0.027690  0.721055  1
  O  O14  1  0.721055  0.901150  0.027690  1
  O  O15  1  0.027690  0.721055  0.901150  1
  O  O16  1  0.401150  0.221055  0.527690  1
  O  O17  1  0.527690  0.401150  0.221055  1
  O  O18  1  0.221055  0.527690  0.401150  1
  O  O19  1  0.098850  0.972310  0.278945  1
  O  O20  1  0.972310  0.278945  0.098850  1
  O  O21  1  0.278945  0.098850  0.972310  1
