# generated using pymatgen
data_SmTm5CoP12Rh17
_symmetry_space_group_name_H-M   'P 1'
_cell_length_a   3.87660300
_cell_length_b   11.13948900
_cell_length_c   12.73649100
_cell_angle_alpha   90.00000000
_cell_angle_beta   90.00000000
_cell_angle_gamma   90.00000000
_symmetry_Int_Tables_number   1
_chemical_formula_structural   SmTm5CoP12Rh17
_chemical_formula_sum   'Sm1 Tm5 Co1 P12 Rh17'
_cell_volume   550.00468583
_cell_formula_units_Z   1
loop_
 _symmetry_equiv_pos_site_id
 _symmetry_equiv_pos_as_xyz
  1  'x, y, z'
loop_
 _atom_site_type_symbol
 _atom_site_label
 _atom_site_symmetry_multiplicity
 _atom_site_fract_x
 _atom_site_fract_y
 _atom_site_fract_z
 _atom_site_occupancy
  Sm  Sm0  1  0.000000  0.500000  0.521364  1
  Tm  Tm1  1  0.500000  0.000000  0.478269  1
  Tm  Tm2  1  0.500000  0.818102  0.203492  1
  Tm  Tm3  1  0.500000  0.181898  0.203492  1
  Tm  Tm4  1  0.000000  0.688253  0.796937  1
  Tm  Tm5  1  0.000000  0.311747  0.796937  1
  Co  Co6  1  0.500000  0.000000  0.022886  1
  P  P7  1  0.500000  0.500000  0.879180  1
  P  P8  1  0.000000  0.000000  0.120841  1
  P  P9  1  0.500000  0.500000  0.348857  1
  P  P10  1  0.000000  0.000000  0.646215  1
  P  P11  1  0.500000  0.314937  0.620504  1
  P  P12  1  0.500000  0.685063  0.620504  1
  P  P13  1  0.000000  0.183502  0.380648  1
  P  P14  1  0.000000  0.816498  0.380648  1
  P  P15  1  0.500000  0.854979  0.895243  1
  P  P16  1  0.500000  0.145021  0.895243  1
  P  P17  1  0.000000  0.656355  0.106912  1
  P  P18  1  0.000000  0.343645  0.106912  1
  Rh  Rh19  1  0.500000  0.500000  0.166642  1
  Rh  Rh20  1  0.000000  0.000000  0.830349  1
  Rh  Rh21  1  0.500000  0.500000  0.704097  1
  Rh  Rh22  1  0.000000  0.000000  0.298696  1
  Rh  Rh23  1  0.000000  0.500000  0.979709  1
  Rh  Rh24  1  0.500000  0.330825  0.993421  1
  Rh  Rh25  1  0.500000  0.669175  0.993421  1
  Rh  Rh26  1  0.000000  0.160246  0.006427  1
  Rh  Rh27  1  0.000000  0.839754  0.006427  1
  Rh  Rh28  1  0.500000  0.291398  0.429892  1
  Rh  Rh29  1  0.500000  0.708602  0.429892  1
  Rh  Rh30  1  0.000000  0.203977  0.569207  1
  Rh  Rh31  1  0.000000  0.796023  0.569207  1
  Rh  Rh32  1  0.500000  0.872826  0.711586  1
  Rh  Rh33  1  0.500000  0.127174  0.711586  1
  Rh  Rh34  1  0.000000  0.628863  0.287180  1
  Rh  Rh35  1  0.000000  0.371137  0.287180  1
