# generated using pymatgen
data_Sc2Nb2Bi3SbRh4
_symmetry_space_group_name_H-M   'P 1'
_cell_length_a   6.35781694
_cell_length_b   4.49324700
_cell_length_c   9.00208454
_cell_angle_alpha   90.00000000
_cell_angle_beta   89.74347523
_cell_angle_gamma   90.00000000
_symmetry_Int_Tables_number   1
_chemical_formula_structural   Sc2Nb2Bi3SbRh4
_chemical_formula_sum   'Sc2 Nb2 Bi3 Sb1 Rh4'
_cell_volume   257.16214920
_cell_formula_units_Z   1
loop_
 _symmetry_equiv_pos_site_id
 _symmetry_equiv_pos_as_xyz
  1  'x, y, z'
loop_
 _atom_site_type_symbol
 _atom_site_label
 _atom_site_symmetry_multiplicity
 _atom_site_fract_x
 _atom_site_fract_y
 _atom_site_fract_z
 _atom_site_occupancy
  Sc  Sc0  1  0.008665  0.000000  0.376334  1
  Sc  Sc1  1  0.507511  0.500000  0.627900  1
  Nb  Nb2  1  0.492832  0.500000  0.121124  1
  Nb  Nb3  1  0.994796  0.000000  0.875116  1
  Bi  Bi4  1  0.987074  0.500000  0.128712  1
  Bi  Bi5  1  0.512526  0.000000  0.379148  1
  Bi  Bi6  1  0.011386  0.500000  0.621638  1
  Sb  Sb7  1  0.487067  0.000000  0.871229  1
  Rh  Rh8  1  0.731683  0.000000  0.108642  1
  Rh  Rh9  1  0.262728  0.500000  0.361141  1
  Rh  Rh10  1  0.759622  0.000000  0.643845  1
  Rh  Rh11  1  0.244111  0.500000  0.885165  1
