# generated using pymatgen
data_Sc2Mn3Si4
_symmetry_space_group_name_H-M   'P 1'
_cell_length_a   9.77459803
_cell_length_b   9.77459893
_cell_length_c   13.08729692
_cell_angle_alpha   53.68804882
_cell_angle_beta   53.68804419
_cell_angle_gamma   30.68009782
_symmetry_Int_Tables_number   1
_chemical_formula_structural   Sc2Mn3Si4
_chemical_formula_sum   'Sc8 Mn12 Si16'
_cell_volume   503.55424058
_cell_formula_units_Z   4
loop_
 _symmetry_equiv_pos_site_id
 _symmetry_equiv_pos_as_xyz
  1  'x, y, z'
loop_
 _atom_site_type_symbol
 _atom_site_label
 _atom_site_symmetry_multiplicity
 _atom_site_fract_x
 _atom_site_fract_y
 _atom_site_fract_z
 _atom_site_occupancy
  Sc  Sc0  1  0.033461  0.288246  0.647255  1
  Sc  Sc1  1  0.711677  0.966599  0.852684  1
  Sc  Sc2  1  0.966539  0.711754  0.352745  1
  Sc  Sc3  1  0.288323  0.033401  0.147316  1
  Sc  Sc4  1  0.295213  0.565103  0.641910  1
  Sc  Sc5  1  0.435008  0.704938  0.857944  1
  Sc  Sc6  1  0.704787  0.434897  0.358090  1
  Sc  Sc7  1  0.564992  0.295062  0.142056  1
  Mn  Mn8  1  0.897881  0.144274  0.585607  1
  Mn  Mn9  1  0.855761  0.102141  0.914319  1
  Mn  Mn10  1  0.102119  0.855726  0.414393  1
  Mn  Mn11  1  0.144239  0.897859  0.085681  1
  Mn  Mn12  1  0.837331  0.642714  0.775099  1
  Mn  Mn13  1  0.357216  0.162676  0.724952  1
  Mn  Mn14  1  0.162669  0.357286  0.224901  1
  Mn  Mn15  1  0.642784  0.837324  0.275048  1
  Mn  Mn16  1  0.247898  0.505505  0.941398  1
  Mn  Mn17  1  0.494671  0.751981  0.558681  1
  Mn  Mn18  1  0.752102  0.494495  0.058602  1
  Mn  Mn19  1  0.505329  0.248019  0.441319  1
  Si  Si20  1  0.966413  0.252632  0.898591  1
  Si  Si21  1  0.747079  0.033930  0.601320  1
  Si  Si22  1  0.033587  0.747368  0.101409  1
  Si  Si23  1  0.252921  0.966070  0.398680  1
  Si  Si24  1  0.134944  0.394448  0.898589  1
  Si  Si25  1  0.605174  0.865507  0.601279  1
  Si  Si26  1  0.865056  0.605552  0.101411  1
  Si  Si27  1  0.394826  0.134493  0.398721  1
  Si  Si28  1  0.086189  0.574373  0.565403  1
  Si  Si29  1  0.425336  0.914248  0.934533  1
  Si  Si30  1  0.913811  0.425627  0.434597  1
  Si  Si31  1  0.574664  0.085752  0.065467  1
  Si  Si32  1  0.612688  0.387418  0.749917  1
  Si  Si33  1  0.387312  0.612582  0.250083  1
  Si  Si34  1  0.126436  0.873627  0.749881  1
  Si  Si35  1  0.873564  0.126373  0.250119  1
