# generated using pymatgen
data_Tm10CoRu3
_symmetry_space_group_name_H-M   'P 1'
_cell_length_a   6.22015647
_cell_length_b   7.18154891
_cell_length_c   8.31910316
_cell_angle_alpha   96.68860093
_cell_angle_beta   111.76270917
_cell_angle_gamma   90.27319746
_symmetry_Int_Tables_number   1
_chemical_formula_structural   Tm10CoRu3
_chemical_formula_sum   'Tm10 Co1 Ru3'
_cell_volume   342.31863730
_cell_formula_units_Z   1
loop_
 _symmetry_equiv_pos_site_id
 _symmetry_equiv_pos_as_xyz
  1  'x, y, z'
loop_
 _atom_site_type_symbol
 _atom_site_label
 _atom_site_symmetry_multiplicity
 _atom_site_fract_x
 _atom_site_fract_y
 _atom_site_fract_z
 _atom_site_occupancy
  Tm  Tm0  1  0.790127  0.088585  0.814478  1
  Tm  Tm1  1  0.978891  0.415730  0.188784  1
  Tm  Tm2  1  0.209017  0.916605  0.184977  1
  Tm  Tm3  1  0.014731  0.584179  0.814528  1
  Tm  Tm4  1  0.208884  0.186796  0.566099  1
  Tm  Tm5  1  0.644469  0.315657  0.435418  1
  Tm  Tm6  1  0.794684  0.814971  0.436043  1
  Tm  Tm7  1  0.358286  0.680669  0.566563  1
  Tm  Tm8  1  0.420891  0.252844  0.998472  1
  Tm  Tm9  1  0.579975  0.746042  0.997485  1
  Co  Co10  1  0.602990  0.422082  0.776858  1
  Ru  Ru11  1  0.822519  0.075277  0.218787  1
  Ru  Ru12  1  0.397434  0.575485  0.221104  1
  Ru  Ru13  1  0.177102  0.925078  0.780402  1
