# generated using pymatgen
data_Tb2DyPuSe4
_symmetry_space_group_name_H-M   'P 1'
_cell_length_a   7.10286597
_cell_length_b   7.10286613
_cell_length_c   7.10286556
_cell_angle_alpha   131.66172810
_cell_angle_beta   131.65957277
_cell_angle_gamma   70.76552443
_symmetry_Int_Tables_number   1
_chemical_formula_structural   Tb2DyPuSe4
_chemical_formula_sum   'Tb2 Dy1 Pu1 Se4'
_cell_volume   195.91169139
_cell_formula_units_Z   1
loop_
 _symmetry_equiv_pos_site_id
 _symmetry_equiv_pos_as_xyz
  1  'x, y, z'
loop_
 _atom_site_type_symbol
 _atom_site_label
 _atom_site_symmetry_multiplicity
 _atom_site_fract_x
 _atom_site_fract_y
 _atom_site_fract_z
 _atom_site_occupancy
  Tb  Tb0  1  0.760070  0.760070  0.000000  1
  Tb  Tb1  1  0.509920  0.009920  0.500000  1
  Dy  Dy2  1  0.260070  0.260070  0.000000  1
  Pu  Pu3  1  0.009968  0.509968  0.500000  1
  Se  Se4  1  0.010820  0.010820  0.000000  1
  Se  Se5  1  0.758874  0.258874  0.500000  1
  Se  Se6  1  0.509324  0.509324  0.000000  1
  Se  Se7  1  0.260951  0.760951  0.500000  1
