# generated using pymatgen
data_Gd3B6(Ir3Ru)2
_symmetry_space_group_name_H-M   'P 1'
_cell_length_a   10.21541826
_cell_length_b   9.38917324
_cell_length_c   5.70681900
_cell_angle_alpha   81.21356947
_cell_angle_beta   65.27579680
_cell_angle_gamma   33.11695784
_symmetry_Int_Tables_number   1
_chemical_formula_structural   Gd3B6(Ir3Ru)2
_chemical_formula_sum   'Gd3 B6 Ir6 Ru2'
_cell_volume   249.18788867
_cell_formula_units_Z   1
loop_
 _symmetry_equiv_pos_site_id
 _symmetry_equiv_pos_as_xyz
  1  'x, y, z'
loop_
 _atom_site_type_symbol
 _atom_site_label
 _atom_site_symmetry_multiplicity
 _atom_site_fract_x
 _atom_site_fract_y
 _atom_site_fract_z
 _atom_site_occupancy
  Gd  Gd0  1  0.000000  0.000000  0.000000  1
  Gd  Gd1  1  0.822402  0.822402  0.177598  1
  Gd  Gd2  1  0.177598  0.177598  0.822402  1
  B  B3  1  0.665243  0.334757  0.676649  1
  B  B4  1  0.334757  0.665243  0.323351  1
  B  B5  1  0.173431  0.485354  0.505121  1
  B  B6  1  0.485354  0.173431  0.836092  1
  B  B7  1  0.826569  0.514646  0.494879  1
  B  B8  1  0.514646  0.826569  0.163908  1
  Ir  Ir9  1  0.914638  0.914638  0.585362  1
  Ir  Ir10  1  0.413307  0.413307  0.586693  1
  Ir  Ir11  1  0.586693  0.586693  0.413307  1
  Ir  Ir12  1  0.249405  0.249405  0.250595  1
  Ir  Ir13  1  0.750595  0.750595  0.749405  1
  Ir  Ir14  1  0.085362  0.085362  0.414638  1
  Ru  Ru15  1  0.585297  0.585297  0.914703  1
  Ru  Ru16  1  0.414703  0.414703  0.085297  1
