# generated using pymatgen
data_Dy5Tm3Cr2(OsC4)2
_symmetry_space_group_name_H-M   'P 1'
_cell_length_a   5.04045400
_cell_length_b   6.47238372
_cell_length_c   9.73013414
_cell_angle_alpha   90.33233041
_cell_angle_beta   90.00000000
_cell_angle_gamma   90.00000000
_symmetry_Int_Tables_number   1
_chemical_formula_structural   Dy5Tm3Cr2(OsC4)2
_chemical_formula_sum   'Dy5 Tm3 Cr2 Os2 C8'
_cell_volume   317.42814768
_cell_formula_units_Z   1
loop_
 _symmetry_equiv_pos_site_id
 _symmetry_equiv_pos_as_xyz
  1  'x, y, z'
loop_
 _atom_site_type_symbol
 _atom_site_label
 _atom_site_symmetry_multiplicity
 _atom_site_fract_x
 _atom_site_fract_y
 _atom_site_fract_z
 _atom_site_occupancy
  Dy  Dy0  1  0.250000  0.178148  0.945629  1
  Dy  Dy1  1  0.250000  0.531263  0.215611  1
  Dy  Dy2  1  0.750000  0.469531  0.784478  1
  Dy  Dy3  1  0.750000  0.971808  0.715116  1
  Dy  Dy4  1  0.250000  0.027626  0.285626  1
  Tm  Tm5  1  0.250000  0.679719  0.559277  1
  Tm  Tm6  1  0.750000  0.320725  0.440271  1
  Tm  Tm7  1  0.750000  0.824147  0.055925  1
  Cr  Cr8  1  0.250000  0.724971  0.861779  1
  Cr  Cr9  1  0.750000  0.274335  0.138371  1
  Os  Os10  1  0.750000  0.775401  0.363337  1
  Os  Os11  1  0.250000  0.224419  0.636065  1
  C  C12  1  0.250000  0.464164  0.762497  1
  C  C13  1  0.750000  0.536601  0.236022  1
  C  C14  1  0.750000  0.047105  0.256733  1
  C  C15  1  0.250000  0.952221  0.742673  1
  C  C16  1  0.250000  0.814072  0.040144  1
  C  C17  1  0.750000  0.183611  0.960772  1
  C  C18  1  0.750000  0.675164  0.548730  1
  C  C19  1  0.250000  0.324967  0.450942  1
