# generated using pymatgen
data_ErTm2Sn3Ir2Ru
_symmetry_space_group_name_H-M   'P 1'
_cell_length_a   7.57093934
_cell_length_b   7.56699447
_cell_length_c   3.78048000
_cell_angle_alpha   90.00000000
_cell_angle_beta   90.00000000
_cell_angle_gamma   119.98277468
_symmetry_Int_Tables_number   1
_chemical_formula_structural   ErTm2Sn3Ir2Ru
_chemical_formula_sum   'Er1 Tm2 Sn3 Ir2 Ru1'
_cell_volume   187.59709797
_cell_formula_units_Z   1
loop_
 _symmetry_equiv_pos_site_id
 _symmetry_equiv_pos_as_xyz
  1  'x, y, z'
loop_
 _atom_site_type_symbol
 _atom_site_label
 _atom_site_symmetry_multiplicity
 _atom_site_fract_x
 _atom_site_fract_y
 _atom_site_fract_z
 _atom_site_occupancy
  Er  Er0  1  0.000000  0.404050  0.500000  1
  Tm  Tm1  1  0.596208  0.596193  0.500000  1
  Tm  Tm2  1  0.403792  0.999985  0.500000  1
  Sn  Sn3  1  0.000000  0.736847  0.000000  1
  Sn  Sn4  1  0.263760  0.263373  0.000000  1
  Sn  Sn5  1  0.736240  0.999613  0.000000  1
  Ir  Ir6  1  0.334027  0.667133  0.000000  1
  Ir  Ir7  1  0.665973  0.333105  0.000000  1
  Ru  Ru8  1  0.000000  0.999701  0.500000  1
