# generated using pymatgen
data_Er9Tm3Co4BiOs
_symmetry_space_group_name_H-M   'P 1'
_cell_length_a   8.22514040
_cell_length_b   8.22834889
_cell_length_c   8.22513955
_cell_angle_alpha   110.54478624
_cell_angle_beta   111.48503667
_cell_angle_gamma   106.41275217
_symmetry_Int_Tables_number   1
_chemical_formula_structural   Er9Tm3Co4BiOs
_chemical_formula_sum   'Er9 Tm3 Co4 Bi1 Os1'
_cell_volume   427.66859878
_cell_formula_units_Z   1
loop_
 _symmetry_equiv_pos_site_id
 _symmetry_equiv_pos_as_xyz
  1  'x, y, z'
loop_
 _atom_site_type_symbol
 _atom_site_label
 _atom_site_symmetry_multiplicity
 _atom_site_fract_x
 _atom_site_fract_y
 _atom_site_fract_z
 _atom_site_occupancy
  Er  Er0  1  0.280130  0.180843  0.461196  1
  Er  Er1  1  0.720380  0.819321  0.539535  1
  Er  Er2  1  0.279786  0.819321  0.098941  1
  Er  Er3  1  0.719648  0.180843  0.900714  1
  Er  Er4  1  0.621281  0.311788  0.308835  1
  Er  Er5  1  0.379198  0.688394  0.691536  1
  Er  Er6  1  0.002952  0.311788  0.690507  1
  Er  Er7  1  0.996857  0.688394  0.309195  1
  Er  Er8  1  0.215151  0.411740  0.196591  1
  Tm  Tm9  1  0.784895  0.587997  0.803100  1
  Tm  Tm10  1  0.215402  0.018444  0.803041  1
  Tm  Tm11  1  0.784694  0.981200  0.196506  1
  Co  Co12  1  0.999773  0.374257  0.374484  1
  Co  Co13  1  0.000329  0.626467  0.626138  1
  Co  Co14  1  0.388484  0.889216  0.500733  1
  Co  Co15  1  0.611255  0.111041  0.499786  1
  Bi  Bi16  1  0.500186  0.499870  0.999684  1
  Os  Os17  1  0.999597  0.999075  0.999477  1
