# generated using pymatgen
data_Dy7Er4Lu5(CdPt)4
_symmetry_space_group_name_H-M   'P 1'
_cell_length_a   9.60161190
_cell_length_b   9.60161225
_cell_length_c   9.59372700
_cell_angle_alpha   60.02716621
_cell_angle_beta   60.02716500
_cell_angle_gamma   60.18285360
_symmetry_Int_Tables_number   1
_chemical_formula_structural   Dy7Er4Lu5(CdPt)4
_chemical_formula_sum   'Dy7 Er4 Lu5 Cd4 Pt4'
_cell_volume   626.52143323
_cell_formula_units_Z   1
loop_
 _symmetry_equiv_pos_site_id
 _symmetry_equiv_pos_as_xyz
  1  'x, y, z'
loop_
 _atom_site_type_symbol
 _atom_site_label
 _atom_site_symmetry_multiplicity
 _atom_site_fract_x
 _atom_site_fract_y
 _atom_site_fract_z
 _atom_site_occupancy
  Dy  Dy0  1  0.813131  0.813131  0.186869  1
  Dy  Dy1  1  0.937051  0.563085  0.564269  1
  Dy  Dy2  1  0.563085  0.937051  0.935594  1
  Dy  Dy3  1  0.563085  0.937051  0.564269  1
  Dy  Dy4  1  0.937051  0.563084  0.935594  1
  Dy  Dy5  1  0.565009  0.565009  0.934991  1
  Dy  Dy6  1  0.937661  0.937661  0.562338  1
  Er  Er7  1  0.351983  0.351983  0.351419  1
  Er  Er8  1  0.351983  0.351983  0.944616  1
  Er  Er9  1  0.353226  0.940639  0.353068  1
  Er  Er10  1  0.940639  0.353226  0.353068  1
  Lu  Lu11  1  0.812183  0.189409  0.187378  1
  Lu  Lu12  1  0.189409  0.812183  0.811029  1
  Lu  Lu13  1  0.189409  0.812183  0.187378  1
  Lu  Lu14  1  0.812183  0.189409  0.811029  1
  Lu  Lu15  1  0.187878  0.187878  0.812122  1
  Cd  Cd16  1  0.580530  0.580530  0.582858  1
  Cd  Cd17  1  0.580530  0.580530  0.256082  1
  Cd  Cd18  1  0.580529  0.255029  0.582220  1
  Cd  Cd19  1  0.255029  0.580529  0.582220  1
  Pt  Pt20  1  0.141477  0.141477  0.144360  1
  Pt  Pt21  1  0.141477  0.141477  0.572687  1
  Pt  Pt22  1  0.143780  0.571686  0.142268  1
  Pt  Pt23  1  0.571686  0.143780  0.142268  1
