# generated using pymatgen
data_Lu20GaHg2Bi9
_symmetry_space_group_name_H-M   'P 1'
_cell_length_a   8.04340751
_cell_length_b   9.32290200
_cell_length_c   11.75550857
_cell_angle_alpha   90.00000000
_cell_angle_beta   89.88223786
_cell_angle_gamma   90.00000000
_symmetry_Int_Tables_number   1
_chemical_formula_structural   Lu20GaHg2Bi9
_chemical_formula_sum   'Lu20 Ga1 Hg2 Bi9'
_cell_volume   881.51903865
_cell_formula_units_Z   1
loop_
 _symmetry_equiv_pos_site_id
 _symmetry_equiv_pos_as_xyz
  1  'x, y, z'
loop_
 _atom_site_type_symbol
 _atom_site_label
 _atom_site_symmetry_multiplicity
 _atom_site_fract_x
 _atom_site_fract_y
 _atom_site_fract_z
 _atom_site_occupancy
  Lu  Lu0  1  0.035339  0.250000  0.508193  1
  Lu  Lu1  1  0.967281  0.750000  0.492469  1
  Lu  Lu2  1  0.464948  0.750000  0.007582  1
  Lu  Lu3  1  0.522021  0.250000  0.990655  1
  Lu  Lu4  1  0.346537  0.250000  0.294217  1
  Lu  Lu5  1  0.656163  0.750000  0.706770  1
  Lu  Lu6  1  0.146437  0.750000  0.790585  1
  Lu  Lu7  1  0.846101  0.250000  0.216098  1
  Lu  Lu8  1  0.199344  0.250000  0.777220  1
  Lu  Lu9  1  0.812834  0.750000  0.214994  1
  Lu  Lu10  1  0.315745  0.750000  0.285549  1
  Lu  Lu11  1  0.676778  0.250000  0.707971  1
  Lu  Lu12  1  0.193184  0.056321  0.060772  1
  Lu  Lu13  1  0.811237  0.929370  0.943954  1
  Lu  Lu14  1  0.314773  0.943120  0.556792  1
  Lu  Lu15  1  0.811237  0.570630  0.943954  1
  Lu  Lu16  1  0.684175  0.063208  0.446108  1
  Lu  Lu17  1  0.193184  0.443679  0.060772  1
  Lu  Lu18  1  0.684175  0.436792  0.446108  1
  Lu  Lu19  1  0.314773  0.556880  0.556792  1
  Ga  Ga20  1  0.404365  0.250000  0.538242  1
  Hg  Hg21  1  0.592771  0.750000  0.459012  1
  Hg  Hg22  1  0.094041  0.750000  0.042216  1
  Bi  Bi23  1  0.907320  0.250000  0.953424  1
  Bi  Bi24  1  0.056689  0.000741  0.322179  1
  Bi  Bi25  1  0.942743  0.000883  0.677108  1
  Bi  Bi26  1  0.444746  0.997394  0.822319  1
  Bi  Bi27  1  0.942743  0.499117  0.677108  1
  Bi  Bi28  1  0.558440  0.002569  0.178169  1
  Bi  Bi29  1  0.056689  0.499259  0.322179  1
  Bi  Bi30  1  0.558440  0.497431  0.178169  1
  Bi  Bi31  1  0.444746  0.502606  0.822319  1
