# generated using pymatgen
data_Al3Pd6Pt
_symmetry_space_group_name_H-M   'P 1'
_cell_length_a   7.16837068
_cell_length_b   7.16837085
_cell_length_c   5.46616404
_cell_angle_alpha   75.34983661
_cell_angle_beta   75.34983868
_cell_angle_gamma   33.44356992
_symmetry_Int_Tables_number   1
_chemical_formula_structural   Al3Pd6Pt
_chemical_formula_sum   'Al3 Pd6 Pt1'
_cell_volume   149.30290990
_cell_formula_units_Z   1
loop_
 _symmetry_equiv_pos_site_id
 _symmetry_equiv_pos_as_xyz
  1  'x, y, z'
loop_
 _atom_site_type_symbol
 _atom_site_label
 _atom_site_symmetry_multiplicity
 _atom_site_fract_x
 _atom_site_fract_y
 _atom_site_fract_z
 _atom_site_occupancy
  Al  Al0  1  0.000000  0.000000  0.000000  1
  Al  Al1  1  0.191961  0.191961  0.339667  1
  Al  Al2  1  0.808039  0.808039  0.660333  1
  Pd  Pd3  1  0.206934  0.206934  0.859136  1
  Pd  Pd4  1  0.793066  0.793066  0.140864  1
  Pd  Pd5  1  0.374770  0.374770  0.384144  1
  Pd  Pd6  1  0.625230  0.625230  0.615856  1
  Pd  Pd7  1  0.417154  0.417154  0.855389  1
  Pd  Pd8  1  0.582846  0.582846  0.144611  1
  Pt  Pt9  1  0.000000  0.000000  0.500000  1
