# generated using pymatgen
data_RbTa2Cl11
_symmetry_space_group_name_H-M   'P 1'
_cell_length_a   7.29834735
_cell_length_b   7.36648756
_cell_length_c   17.97631656
_cell_angle_alpha   79.26994685
_cell_angle_beta   79.07674871
_cell_angle_gamma   88.69088019
_symmetry_Int_Tables_number   1
_chemical_formula_structural   RbTa2Cl11
_chemical_formula_sum   'Rb2 Ta4 Cl22'
_cell_volume   932.28389824
_cell_formula_units_Z   2
loop_
 _symmetry_equiv_pos_site_id
 _symmetry_equiv_pos_as_xyz
  1  'x, y, z'
loop_
 _atom_site_type_symbol
 _atom_site_label
 _atom_site_symmetry_multiplicity
 _atom_site_fract_x
 _atom_site_fract_y
 _atom_site_fract_z
 _atom_site_occupancy
  Rb  Rb0  1  0.747367  0.748332  0.503660  1
  Rb  Rb1  1  0.252633  0.251668  0.496340  1
  Ta  Ta2  1  0.323594  0.820369  0.341173  1
  Ta  Ta3  1  0.676406  0.179631  0.658827  1
  Ta  Ta4  1  0.834361  0.332472  0.085724  1
  Ta  Ta5  1  0.165639  0.667528  0.914276  1
  Cl  Cl6  1  0.254931  0.771244  0.484836  1
  Cl  Cl7  1  0.745069  0.228756  0.515164  1
  Cl  Cl8  1  0.566190  0.022955  0.346594  1
  Cl  Cl9  1  0.433810  0.977045  0.653406  1
  Cl  Cl10  1  0.532185  0.568656  0.354392  1
  Cl  Cl11  1  0.467815  0.431344  0.645608  1
  Cl  Cl12  1  0.384566  0.860802  0.209290  1
  Cl  Cl13  1  0.615434  0.139198  0.790710  1
  Cl  Cl14  1  0.073848  0.607975  0.354338  1
  Cl  Cl15  1  0.926152  0.392025  0.645662  1
  Cl  Cl16  1  0.110902  0.066688  0.343002  1
  Cl  Cl17  1  0.889098  0.933312  0.656998  1
  Cl  Cl18  1  0.898075  0.043917  0.145247  1
  Cl  Cl19  1  0.101925  0.956083  0.854753  1
  Cl  Cl20  1  0.540036  0.379739  0.147626  1
  Cl  Cl21  1  0.459964  0.620261  0.852374  1
  Cl  Cl22  1  0.728918  0.224520  0.987580  1
  Cl  Cl23  1  0.271082  0.775480  0.012420  1
  Cl  Cl24  1  0.972229  0.476751  0.166016  1
  Cl  Cl25  1  0.027771  0.523249  0.833984  1
  Cl  Cl26  1  0.160855  0.346517  0.999621  1
  Cl  Cl27  1  0.839145  0.653483  0.000379  1
