# generated using pymatgen
data_Er2Mn3Ni9As6P
_symmetry_space_group_name_H-M   'P 1'
_cell_length_a   9.40196700
_cell_length_b   9.40196838
_cell_length_c   3.78447900
_cell_angle_alpha   90.00000000
_cell_angle_beta   90.00000000
_cell_angle_gamma   120.00000568
_symmetry_Int_Tables_number   1
_chemical_formula_structural   Er2Mn3Ni9As6P
_chemical_formula_sum   'Er2 Mn3 Ni9 As6 P1'
_cell_volume   289.71715746
_cell_formula_units_Z   1
loop_
 _symmetry_equiv_pos_site_id
 _symmetry_equiv_pos_as_xyz
  1  'x, y, z'
loop_
 _atom_site_type_symbol
 _atom_site_label
 _atom_site_symmetry_multiplicity
 _atom_site_fract_x
 _atom_site_fract_y
 _atom_site_fract_z
 _atom_site_occupancy
  Er  Er0  1  0.333333  0.666667  0.000000  1
  Er  Er1  1  0.000000  0.000000  0.500000  1
  Mn  Mn2  1  0.778813  0.236931  0.500000  1
  Mn  Mn3  1  0.763069  0.541882  0.500000  1
  Mn  Mn4  1  0.458118  0.221187  0.500000  1
  Ni  Ni5  1  0.039325  0.273649  0.000000  1
  Ni  Ni6  1  0.726351  0.765676  0.000000  1
  Ni  Ni7  1  0.234324  0.960675  0.000000  1
  Ni  Ni8  1  0.544681  0.065859  0.000000  1
  Ni  Ni9  1  0.934141  0.478823  0.000000  1
  Ni  Ni10  1  0.521177  0.455319  0.000000  1
  Ni  Ni11  1  0.613984  0.902426  0.500000  1
  Ni  Ni12  1  0.097574  0.711558  0.500000  1
  Ni  Ni13  1  0.288442  0.386016  0.500000  1
  As  As14  1  0.781216  0.038492  0.000000  1
  As  As15  1  0.961508  0.742725  0.000000  1
  As  As16  1  0.257275  0.218784  0.000000  1
  As  As17  1  0.372431  0.924419  0.500000  1
  As  As18  1  0.075581  0.448013  0.500000  1
  As  As19  1  0.551987  0.627569  0.500000  1
  P  P20  1  0.666667  0.333333  0.000000  1
