# generated using pymatgen
data_Y10Si16Sn
_symmetry_space_group_name_H-M   'P 1'
_cell_length_a   11.13733006
_cell_length_b   11.08043104
_cell_length_c   11.13732921
_cell_angle_alpha   144.69669227
_cell_angle_beta   135.95602386
_cell_angle_gamma   57.76001360
_symmetry_Int_Tables_number   1
_chemical_formula_structural   Y10Si16Sn
_chemical_formula_sum   'Y10 Si16 Sn1'
_cell_volume   547.33937734
_cell_formula_units_Z   1
loop_
 _symmetry_equiv_pos_site_id
 _symmetry_equiv_pos_as_xyz
  1  'x, y, z'
loop_
 _atom_site_type_symbol
 _atom_site_label
 _atom_site_symmetry_multiplicity
 _atom_site_fract_x
 _atom_site_fract_y
 _atom_site_fract_z
 _atom_site_occupancy
  Y  Y0  1  0.756352  0.759929  0.517578  1
  Y  Y1  1  0.441069  0.971496  0.015527  1
  Y  Y2  1  0.848180  0.368881  0.018830  1
  Y  Y3  1  0.955969  0.971496  0.530427  1
  Y  Y4  1  0.150404  0.164068  0.515960  1
  Y  Y5  1  0.350052  0.368881  0.520702  1
  Y  Y6  1  0.242351  0.759929  0.003578  1
  Y  Y7  1  0.545417  0.558722  0.497675  1
  Y  Y8  1  0.061046  0.558722  0.013305  1
  Y  Y9  1  0.648108  0.164068  0.013664  1
  Si  Si10  1  0.199096  0.579480  0.380383  1
  Si  Si11  1  0.000140  0.083865  0.083724  1
  Si  Si12  1  0.697701  0.280080  0.582380  1
  Si  Si13  1  0.799802  0.177391  0.377589  1
  Si  Si14  1  0.895426  0.501529  0.606104  1
  Si  Si15  1  0.417946  0.871382  0.453435  1
  Si  Si16  1  0.103882  0.713108  0.609226  1
  Si  Si17  1  0.301270  0.894588  0.593318  1
  Si  Si18  1  0.578414  0.039037  0.460623  1
  Si  Si19  1  0.999413  0.430962  0.431549  1
  Si  Si20  1  0.882637  0.839121  0.956484  1
  Si  Si21  1  0.401323  0.499960  0.098638  1
  Si  Si22  1  0.117901  0.083511  0.965610  1
  Si  Si23  1  0.288054  0.238543  0.950490  1
  Si  Si24  1  0.499409  0.385028  0.885618  1
  Si  Si25  1  0.595741  0.705041  0.109301  1
  Sn  Sn26  1  0.722897  0.692678  0.969780  1
