# generated using pymatgen
data_Ca3Dy(ReB4)4
_symmetry_space_group_name_H-M   'P 1'
_cell_length_a   3.58528800
_cell_length_b   6.01144339
_cell_length_c   11.61613875
_cell_angle_alpha   89.95874197
_cell_angle_beta   90.00000000
_cell_angle_gamma   90.00000000
_symmetry_Int_Tables_number   1
_chemical_formula_structural   Ca3Dy(ReB4)4
_chemical_formula_sum   'Ca3 Dy1 Re4 B16'
_cell_volume   250.35973752
_cell_formula_units_Z   1
loop_
 _symmetry_equiv_pos_site_id
 _symmetry_equiv_pos_as_xyz
  1  'x, y, z'
loop_
 _atom_site_type_symbol
 _atom_site_label
 _atom_site_symmetry_multiplicity
 _atom_site_fract_x
 _atom_site_fract_y
 _atom_site_fract_z
 _atom_site_occupancy
  Ca  Ca0  1  0.000000  0.627420  0.349974  1
  Ca  Ca1  1  0.000000  0.372946  0.649173  1
  Ca  Ca2  1  0.000000  0.127660  0.151228  1
  Dy  Dy3  1  0.000000  0.871691  0.849474  1
  Re  Re4  1  0.000000  0.631909  0.083050  1
  Re  Re5  1  0.000000  0.370092  0.914996  1
  Re  Re6  1  0.000000  0.130870  0.416639  1
  Re  Re7  1  0.000000  0.870182  0.584361  1
  B  B8  1  0.500000  0.784219  0.184864  1
  B  B9  1  0.500000  0.214674  0.815441  1
  B  B10  1  0.500000  0.285098  0.315418  1
  B  B11  1  0.500000  0.714464  0.684745  1
  B  B12  1  0.500000  0.863834  0.031698  1
  B  B13  1  0.500000  0.135897  0.968203  1
  B  B14  1  0.500000  0.364703  0.467981  1
  B  B15  1  0.500000  0.634930  0.532059  1
  B  B16  1  0.500000  0.885755  0.452782  1
  B  B17  1  0.500000  0.113790  0.547744  1
  B  B18  1  0.500000  0.385845  0.047641  1
  B  B19  1  0.500000  0.612544  0.952530  1
  B  B20  1  0.500000  0.977489  0.307625  1
  B  B21  1  0.500000  0.022880  0.692530  1
  B  B22  1  0.500000  0.477736  0.192182  1
  B  B23  1  0.500000  0.523372  0.807666  1
