# generated using pymatgen
data_Nd4Bi3Sb3Rh7
_symmetry_space_group_name_H-M   'P 1'
_cell_length_a   7.87976108
_cell_length_b   7.82573243
_cell_length_c   7.82573034
_cell_angle_alpha   109.33094082
_cell_angle_beta   109.61114101
_cell_angle_gamma   109.61113695
_symmetry_Int_Tables_number   1
_chemical_formula_structural   Nd4Bi3Sb3Rh7
_chemical_formula_sum   'Nd4 Bi3 Sb3 Rh7'
_cell_volume   370.84137667
_cell_formula_units_Z   1
loop_
 _symmetry_equiv_pos_site_id
 _symmetry_equiv_pos_as_xyz
  1  'x, y, z'
loop_
 _atom_site_type_symbol
 _atom_site_label
 _atom_site_symmetry_multiplicity
 _atom_site_fract_x
 _atom_site_fract_y
 _atom_site_fract_z
 _atom_site_occupancy
  Nd  Nd0  1  0.467169  0.000000  0.000000  1
  Nd  Nd1  1  0.003008  0.512716  0.000000  1
  Nd  Nd2  1  0.003008  0.000000  0.512716  1
  Nd  Nd3  1  0.490293  0.487284  0.487284  1
  Bi  Bi4  1  0.987901  0.301232  0.301232  1
  Bi  Bi5  1  0.686670  0.000000  0.698768  1
  Bi  Bi6  1  0.686670  0.698768  0.000000  1
  Sb  Sb7  1  0.989372  0.661834  0.661834  1
  Sb  Sb8  1  0.327538  0.000000  0.338166  1
  Sb  Sb9  1  0.327538  0.338166  0.000000  1
  Rh  Rh10  1  0.070729  0.000000  0.000000  1
  Rh  Rh11  1  0.495573  0.753127  0.253541  1
  Rh  Rh12  1  0.742446  0.500414  0.246873  1
  Rh  Rh13  1  0.242033  0.746459  0.499586  1
  Rh  Rh14  1  0.242033  0.499586  0.746459  1
  Rh  Rh15  1  0.495573  0.253541  0.753127  1
  Rh  Rh16  1  0.742446  0.246873  0.500414  1
