# generated using pymatgen
data_NaLi2PuBi2
_symmetry_space_group_name_H-M   'P 1'
_cell_length_a   4.80813500
_cell_length_b   4.80813470
_cell_length_c   7.48734700
_cell_angle_alpha   90.00000000
_cell_angle_beta   90.00000000
_cell_angle_gamma   119.99999517
_symmetry_Int_Tables_number   1
_chemical_formula_structural   NaLi2PuBi2
_chemical_formula_sum   'Na1 Li2 Pu1 Bi2'
_cell_volume   149.90354139
_cell_formula_units_Z   1
loop_
 _symmetry_equiv_pos_site_id
 _symmetry_equiv_pos_as_xyz
  1  'x, y, z'
loop_
 _atom_site_type_symbol
 _atom_site_label
 _atom_site_symmetry_multiplicity
 _atom_site_fract_x
 _atom_site_fract_y
 _atom_site_fract_z
 _atom_site_occupancy
  Na  Na0  1  0.000000  0.000000  0.500000  1
  Li  Li1  1  0.666667  0.333333  0.662698  1
  Li  Li2  1  0.333333  0.666667  0.337302  1
  Pu  Pu3  1  0.000000  0.000000  0.000000  1
  Bi  Bi4  1  0.666667  0.333333  0.235511  1
  Bi  Bi5  1  0.333333  0.666667  0.764489  1
