# generated using pymatgen
data_MgBeVB2Ir5
_symmetry_space_group_name_H-M   'P 1'
_cell_length_a   9.22528129
_cell_length_b   9.22528129
_cell_length_c   2.87957500
_cell_angle_alpha   90.00000000
_cell_angle_beta   90.00000000
_cell_angle_gamma   88.70587886
_symmetry_Int_Tables_number   1
_chemical_formula_structural   MgBeVB2Ir5
_chemical_formula_sum   'Mg2 Be2 V2 B4 Ir10'
_cell_volume   245.00606757
_cell_formula_units_Z   2
loop_
 _symmetry_equiv_pos_site_id
 _symmetry_equiv_pos_as_xyz
  1  'x, y, z'
loop_
 _atom_site_type_symbol
 _atom_site_label
 _atom_site_symmetry_multiplicity
 _atom_site_fract_x
 _atom_site_fract_y
 _atom_site_fract_z
 _atom_site_occupancy
  Mg  Mg0  1  0.324077  0.175923  0.000000  1
  Mg  Mg1  1  0.675923  0.824077  0.000000  1
  Be  Be2  1  0.500000  0.500000  0.000000  1
  Be  Be3  1  0.000000  0.000000  0.000000  1
  V  V4  1  0.822710  0.322710  0.000000  1
  V  V5  1  0.177290  0.677290  0.000000  1
  B  B6  1  0.627506  0.127506  0.000000  1
  B  B7  1  0.372494  0.872494  0.000000  1
  B  B8  1  0.132450  0.367550  0.000000  1
  B  B9  1  0.867550  0.632450  0.000000  1
  Ir  Ir10  1  0.500000  0.000000  0.500000  1
  Ir  Ir11  1  0.000000  0.500000  0.500000  1
  Ir  Ir12  1  0.709901  0.559899  0.500000  1
  Ir  Ir13  1  0.290099  0.440101  0.500000  1
  Ir  Ir14  1  0.204122  0.924097  0.500000  1
  Ir  Ir15  1  0.795878  0.075903  0.500000  1
  Ir  Ir16  1  0.424097  0.704122  0.500000  1
  Ir  Ir17  1  0.575903  0.295878  0.500000  1
  Ir  Ir18  1  0.059899  0.209901  0.500000  1
  Ir  Ir19  1  0.940101  0.790099  0.500000  1
