# generated using pymatgen
data_Pu2CO
_symmetry_space_group_name_H-M   'P 1'
_cell_length_a   6.08714124
_cell_length_b   6.08714134
_cell_length_c   6.08714168
_cell_angle_alpha   33.88724454
_cell_angle_beta   33.88724167
_cell_angle_gamma   33.88724689
_symmetry_Int_Tables_number   1
_chemical_formula_structural   Pu2CO
_chemical_formula_sum   'Pu2 C1 O1'
_cell_volume   62.48898983
_cell_formula_units_Z   1
loop_
 _symmetry_equiv_pos_site_id
 _symmetry_equiv_pos_as_xyz
  1  'x, y, z'
loop_
 _atom_site_type_symbol
 _atom_site_label
 _atom_site_symmetry_multiplicity
 _atom_site_fract_x
 _atom_site_fract_y
 _atom_site_fract_z
 _atom_site_occupancy
  Pu  Pu0  1  0.249655  0.249655  0.249655  1
  Pu  Pu1  1  0.750345  0.750345  0.750345  1
  C  C2  1  0.500000  0.500000  0.500000  1
  O  O3  1  0.000000  0.000000  0.000000  1
