# generated using pymatgen
data_Ba2MoF7
_symmetry_space_group_name_H-M   'P 1'
_cell_length_a   12.41945800
_cell_length_b   5.90019141
_cell_length_c   9.24614200
_cell_angle_alpha   89.09782624
_cell_angle_beta   90.00000000
_cell_angle_gamma   90.00000000
_symmetry_Int_Tables_number   1
_chemical_formula_structural   Ba2MoF7
_chemical_formula_sum   'Ba8 Mo4 F28'
_cell_volume   677.44721684
_cell_formula_units_Z   4
loop_
 _symmetry_equiv_pos_site_id
 _symmetry_equiv_pos_as_xyz
  1  'x, y, z'
loop_
 _atom_site_type_symbol
 _atom_site_label
 _atom_site_symmetry_multiplicity
 _atom_site_fract_x
 _atom_site_fract_y
 _atom_site_fract_z
 _atom_site_occupancy
  Ba  Ba0  1  0.560349  0.230732  0.844104  1
  Ba  Ba1  1  0.060349  0.769268  0.655896  1
  Ba  Ba2  1  0.439651  0.769268  0.155896  1
  Ba  Ba3  1  0.939651  0.230732  0.344104  1
  Ba  Ba4  1  0.707218  0.765266  0.556796  1
  Ba  Ba5  1  0.207218  0.234734  0.943204  1
  Ba  Ba6  1  0.292782  0.234734  0.443204  1
  Ba  Ba7  1  0.792782  0.765266  0.056796  1
  Mo  Mo8  1  0.868626  0.306201  0.817577  1
  Mo  Mo9  1  0.368626  0.693799  0.682423  1
  Mo  Mo10  1  0.131374  0.693799  0.182423  1
  Mo  Mo11  1  0.631374  0.306201  0.317577  1
  F  F12  1  0.395288  0.105321  0.990331  1
  F  F13  1  0.895288  0.894679  0.509669  1
  F  F14  1  0.604712  0.894679  0.009669  1
  F  F15  1  0.104712  0.105321  0.490331  1
  F  F16  1  0.484500  0.131915  0.320536  1
  F  F17  1  0.984500  0.868085  0.179464  1
  F  F18  1  0.515500  0.868085  0.679464  1
  F  F19  1  0.015500  0.131915  0.820536  1
  F  F20  1  0.443410  0.391090  0.626820  1
  F  F21  1  0.943410  0.608910  0.873180  1
  F  F22  1  0.556590  0.608910  0.373180  1
  F  F23  1  0.056590  0.391090  0.126820  1
  F  F24  1  0.398410  0.580601  0.895638  1
  F  F25  1  0.898410  0.419399  0.604362  1
  F  F26  1  0.601590  0.419399  0.104362  1
  F  F27  1  0.101590  0.580601  0.395638  1
  F  F28  1  0.163944  0.762544  0.963208  1
  F  F29  1  0.663944  0.237456  0.536792  1
  F  F30  1  0.836056  0.237456  0.036792  1
  F  F31  1  0.336056  0.762544  0.463208  1
  F  F32  1  0.728009  0.511795  0.810667  1
  F  F33  1  0.228009  0.488205  0.689333  1
  F  F34  1  0.271991  0.488205  0.189333  1
  F  F35  1  0.771991  0.511795  0.310667  1
  F  F36  1  0.726468  0.013405  0.286886  1
  F  F37  1  0.226468  0.986595  0.213114  1
  F  F38  1  0.273532  0.986595  0.713114  1
  F  F39  1  0.773532  0.013405  0.786886  1
