# generated using pymatgen
data_Tm2Fe3Co3(SiB)2
_symmetry_space_group_name_H-M   'P 1'
_cell_length_a   5.10226600
_cell_length_b   5.10226602
_cell_length_c   6.50980200
_cell_angle_alpha   90.00000000
_cell_angle_beta   90.00000000
_cell_angle_gamma   119.99999985
_symmetry_Int_Tables_number   1
_chemical_formula_structural   Tm2Fe3Co3(SiB)2
_chemical_formula_sum   'Tm2 Fe3 Co3 Si2 B2'
_cell_volume   146.76571216
_cell_formula_units_Z   1
loop_
 _symmetry_equiv_pos_site_id
 _symmetry_equiv_pos_as_xyz
  1  'x, y, z'
loop_
 _atom_site_type_symbol
 _atom_site_label
 _atom_site_symmetry_multiplicity
 _atom_site_fract_x
 _atom_site_fract_y
 _atom_site_fract_z
 _atom_site_occupancy
  Tm  Tm0  1  0.000000  0.000000  0.001114  1
  Tm  Tm1  1  0.000000  0.000000  0.493624  1
  Fe  Fe2  1  0.500000  0.500000  0.718251  1
  Fe  Fe3  1  0.500000  0.000000  0.718251  1
  Fe  Fe4  1  0.000000  0.500000  0.718251  1
  Co  Co5  1  0.500000  0.500000  0.282585  1
  Co  Co6  1  0.500000  0.000000  0.282585  1
  Co  Co7  1  0.000000  0.500000  0.282585  1
  Si  Si8  1  0.666667  0.333333  0.004485  1
  Si  Si9  1  0.333333  0.666667  0.004485  1
  B  B10  1  0.666667  0.333333  0.496892  1
  B  B11  1  0.333333  0.666667  0.496892  1
