# generated using pymatgen
data_SiNi10P7
_symmetry_space_group_name_H-M   'P 1'
_cell_length_a   6.79848300
_cell_length_b   6.79848376
_cell_length_c   10.99504300
_cell_angle_alpha   90.00000000
_cell_angle_beta   90.00000000
_cell_angle_gamma   120.00001089
_symmetry_Int_Tables_number   1
_chemical_formula_structural   SiNi10P7
_chemical_formula_sum   'Si2 Ni20 P14'
_cell_volume   440.10023125
_cell_formula_units_Z   2
loop_
 _symmetry_equiv_pos_site_id
 _symmetry_equiv_pos_as_xyz
  1  'x, y, z'
loop_
 _atom_site_type_symbol
 _atom_site_label
 _atom_site_symmetry_multiplicity
 _atom_site_fract_x
 _atom_site_fract_y
 _atom_site_fract_z
 _atom_site_occupancy
  Si  Si0  1  0.666667  0.333333  0.554949  1
  Si  Si1  1  0.333333  0.666667  0.054949  1
  Ni  Ni2  1  0.921202  0.460600  0.377807  1
  Ni  Ni3  1  0.460600  0.539400  0.877807  1
  Ni  Ni4  1  0.000000  0.000000  0.200846  1
  Ni  Ni5  1  0.000000  0.000000  0.700846  1
  Ni  Ni6  1  0.539400  0.078798  0.377807  1
  Ni  Ni7  1  0.460600  0.921202  0.877807  1
  Ni  Ni8  1  0.078798  0.539400  0.877807  1
  Ni  Ni9  1  0.539400  0.460600  0.377807  1
  Ni  Ni10  1  0.792904  0.207096  0.737859  1
  Ni  Ni11  1  0.585809  0.792904  0.237859  1
  Ni  Ni12  1  0.207096  0.414191  0.237859  1
  Ni  Ni13  1  0.792904  0.585809  0.737859  1
  Ni  Ni14  1  0.414191  0.207096  0.737859  1
  Ni  Ni15  1  0.207096  0.792904  0.237859  1
  Ni  Ni16  1  0.460897  0.539103  0.589634  1
  Ni  Ni17  1  0.921795  0.460897  0.089634  1
  Ni  Ni18  1  0.539103  0.078205  0.089634  1
  Ni  Ni19  1  0.460897  0.921795  0.589634  1
  Ni  Ni20  1  0.078205  0.539103  0.589634  1
  Ni  Ni21  1  0.539103  0.460897  0.089634  1
  P  P22  1  0.000000  0.000000  0.501630  1
  P  P23  1  0.000000  0.000000  0.001630  1
  P  P24  1  0.820902  0.179098  0.943708  1
  P  P25  1  0.641804  0.820902  0.443708  1
  P  P26  1  0.179098  0.358196  0.443708  1
  P  P27  1  0.820902  0.641804  0.943708  1
  P  P28  1  0.358196  0.179098  0.943708  1
  P  P29  1  0.179098  0.820902  0.443708  1
  P  P30  1  0.181984  0.818016  0.731739  1
  P  P31  1  0.363969  0.181984  0.231739  1
  P  P32  1  0.818016  0.636031  0.231739  1
  P  P33  1  0.181984  0.363969  0.731739  1
  P  P34  1  0.636031  0.818016  0.731739  1
  P  P35  1  0.818016  0.181984  0.231739  1
