# generated using pymatgen
data_TmCu4
_symmetry_space_group_name_H-M   'P 1'
_cell_length_a   4.95513046
_cell_length_b   4.95513032
_cell_length_c   10.53003423
_cell_angle_alpha   94.83304561
_cell_angle_beta   94.83304387
_cell_angle_gamma   119.67923219
_symmetry_Int_Tables_number   1
_chemical_formula_structural   TmCu4
_chemical_formula_sum   'Tm3 Cu12'
_cell_volume   221.44782761
_cell_formula_units_Z   3
loop_
 _symmetry_equiv_pos_site_id
 _symmetry_equiv_pos_as_xyz
  1  'x, y, z'
loop_
 _atom_site_type_symbol
 _atom_site_label
 _atom_site_symmetry_multiplicity
 _atom_site_fract_x
 _atom_site_fract_y
 _atom_site_fract_z
 _atom_site_occupancy
  Tm  Tm0  1  0.000000  0.000000  0.000000  1
  Tm  Tm1  1  0.130248  0.130248  0.357239  1
  Tm  Tm2  1  0.869752  0.869752  0.642761  1
  Cu  Cu3  1  0.665271  0.334730  0.000000  1
  Cu  Cu4  1  0.334730  0.665271  0.000000  1
  Cu  Cu5  1  0.570386  0.068693  0.198665  1
  Cu  Cu6  1  0.068693  0.570386  0.198665  1
  Cu  Cu7  1  0.569232  0.569232  0.201874  1
  Cu  Cu8  1  0.806290  0.475043  0.407821  1
  Cu  Cu9  1  0.475043  0.806290  0.407821  1
  Cu  Cu10  1  0.524959  0.193711  0.592179  1
  Cu  Cu11  1  0.193711  0.524959  0.592179  1
  Cu  Cu12  1  0.430767  0.430767  0.798126  1
  Cu  Cu13  1  0.931306  0.429613  0.801336  1
  Cu  Cu14  1  0.429613  0.931306  0.801336  1
