# generated using pymatgen
data_Nd16Ni4Ag3Hg
_symmetry_space_group_name_H-M   'P 1'
_cell_length_a   9.75913833
_cell_length_b   9.79420399
_cell_length_c   9.79420400
_cell_angle_alpha   59.99999997
_cell_angle_beta   59.88106949
_cell_angle_gamma   59.88106811
_symmetry_Int_Tables_number   1
_chemical_formula_structural   Nd16Ni4Ag3Hg
_chemical_formula_sum   'Nd16 Ni4 Ag3 Hg1'
_cell_volume   660.77212870
_cell_formula_units_Z   1
loop_
 _symmetry_equiv_pos_site_id
 _symmetry_equiv_pos_as_xyz
  1  'x, y, z'
loop_
 _atom_site_type_symbol
 _atom_site_label
 _atom_site_symmetry_multiplicity
 _atom_site_fract_x
 _atom_site_fract_y
 _atom_site_fract_z
 _atom_site_occupancy
  Nd  Nd0  1  0.600696  0.599722  0.599722  1
  Nd  Nd1  1  0.600696  0.599722  0.199860  1
  Nd  Nd2  1  0.600696  0.199860  0.599722  1
  Nd  Nd3  1  0.194559  0.601814  0.601814  1
  Nd  Nd4  1  0.061966  0.439137  0.439137  1
  Nd  Nd5  1  0.443198  0.057713  0.057713  1
  Nd  Nd6  1  0.443198  0.057713  0.441374  1
  Nd  Nd7  1  0.061966  0.439137  0.059760  1
  Nd  Nd8  1  0.443198  0.441374  0.057713  1
  Nd  Nd9  1  0.061966  0.059760  0.439137  1
  Nd  Nd10  1  0.183829  0.813144  0.813144  1
  Nd  Nd11  1  0.814462  0.186637  0.186637  1
  Nd  Nd12  1  0.814462  0.186637  0.812266  1
  Nd  Nd13  1  0.183829  0.813144  0.189883  1
  Nd  Nd14  1  0.814462  0.812266  0.186637  1
  Nd  Nd15  1  0.183829  0.189883  0.813144  1
  Ni  Ni16  1  0.391275  0.394234  0.394234  1
  Ni  Ni17  1  0.391275  0.394234  0.820259  1
  Ni  Ni18  1  0.391275  0.820259  0.394234  1
  Ni  Ni19  1  0.821698  0.392767  0.392767  1
  Ag  Ag20  1  0.831416  0.831583  0.831583  1
  Ag  Ag21  1  0.831416  0.831583  0.505418  1
  Ag  Ag22  1  0.831416  0.505418  0.831583  1
  Hg  Hg23  1  0.503221  0.832259  0.832259  1
