# generated using pymatgen
data_Zr6Ti4Al12Pd4Rh3
_symmetry_space_group_name_H-M   'P 1'
_cell_length_a   8.82513923
_cell_length_b   8.81950440
_cell_length_c   8.82513861
_cell_angle_alpha   60.02110545
_cell_angle_beta   59.95778116
_cell_angle_gamma   60.02110849
_symmetry_Int_Tables_number   1
_chemical_formula_structural   Zr6Ti4Al12Pd4Rh3
_chemical_formula_sum   'Zr6 Ti4 Al12 Pd4 Rh3'
_cell_volume   485.70426256
_cell_formula_units_Z   1
loop_
 _symmetry_equiv_pos_site_id
 _symmetry_equiv_pos_as_xyz
  1  'x, y, z'
loop_
 _atom_site_type_symbol
 _atom_site_label
 _atom_site_symmetry_multiplicity
 _atom_site_fract_x
 _atom_site_fract_y
 _atom_site_fract_z
 _atom_site_occupancy
  Zr  Zr0  1  0.688879  0.688879  0.311121  1
  Zr  Zr1  1  0.308005  0.691995  0.308005  1
  Zr  Zr2  1  0.688879  0.311121  0.311121  1
  Zr  Zr3  1  0.311121  0.311121  0.688879  1
  Zr  Zr4  1  0.691995  0.308005  0.691995  1
  Zr  Zr5  1  0.311121  0.688879  0.688879  1
  Ti  Ti6  1  0.876259  0.883657  0.356426  1
  Ti  Ti7  1  0.883657  0.356426  0.883657  1
  Ti  Ti8  1  0.356426  0.883657  0.876259  1
  Ti  Ti9  1  0.883657  0.876259  0.883657  1
  Al  Al10  1  0.122388  0.118343  0.640926  1
  Al  Al11  1  0.118343  0.640926  0.118343  1
  Al  Al12  1  0.640926  0.118343  0.122388  1
  Al  Al13  1  0.118343  0.122388  0.118343  1
  Al  Al14  1  0.665527  0.665462  0.003548  1
  Al  Al15  1  0.665462  0.003548  0.665462  1
  Al  Al16  1  0.003548  0.665462  0.665527  1
  Al  Al17  1  0.665462  0.665527  0.665462  1
  Al  Al18  1  0.331430  0.335760  0.997051  1
  Al  Al19  1  0.335760  0.997051  0.335760  1
  Al  Al20  1  0.997051  0.335760  0.331430  1
  Al  Al21  1  0.335760  0.331430  0.335760  1
  Pd  Pd22  1  0.999613  0.999613  0.500387  1
  Pd  Pd23  1  0.999613  0.500387  0.500387  1
  Pd  Pd24  1  0.500387  0.500387  0.999613  1
  Pd  Pd25  1  0.500387  0.999613  0.999613  1
  Rh  Rh26  1  0.000000  0.000000  0.000000  1
  Rh  Rh27  1  0.502336  0.997664  0.502336  1
  Rh  Rh28  1  0.997664  0.502336  0.997664  1
