# generated using pymatgen
data_Sc4Co17Re3(Si5P)2
_symmetry_space_group_name_H-M   'P 1'
_cell_length_a   3.68361000
_cell_length_b   10.35939531
_cell_length_c   11.86672990
_cell_angle_alpha   90.38636897
_cell_angle_beta   90.00000000
_cell_angle_gamma   90.00000000
_symmetry_Int_Tables_number   1
_chemical_formula_structural   Sc4Co17Re3(Si5P)2
_chemical_formula_sum   'Sc4 Co17 Re3 Si10 P2'
_cell_volume   452.82378681
_cell_formula_units_Z   1
loop_
 _symmetry_equiv_pos_site_id
 _symmetry_equiv_pos_as_xyz
  1  'x, y, z'
loop_
 _atom_site_type_symbol
 _atom_site_label
 _atom_site_symmetry_multiplicity
 _atom_site_fract_x
 _atom_site_fract_y
 _atom_site_fract_z
 _atom_site_occupancy
  Sc  Sc0  1  0.250000  0.580858  0.704482  1
  Sc  Sc1  1  0.250000  0.921362  0.203666  1
  Sc  Sc2  1  0.750000  0.422534  0.296965  1
  Sc  Sc3  1  0.750000  0.072164  0.798982  1
  Co  Co4  1  0.750000  0.207103  0.507929  1
  Co  Co5  1  0.250000  0.410454  0.486317  1
  Co  Co6  1  0.250000  0.088941  0.986478  1
  Co  Co7  1  0.750000  0.593118  0.509629  1
  Co  Co8  1  0.750000  0.906016  0.011527  1
  Co  Co9  1  0.250000  0.213821  0.176332  1
  Co  Co10  1  0.250000  0.287786  0.670343  1
  Co  Co11  1  0.750000  0.785860  0.826282  1
  Co  Co12  1  0.750000  0.714597  0.326786  1
  Co  Co13  1  0.250000  0.886088  0.703064  1
  Co  Co14  1  0.250000  0.615497  0.201831  1
  Co  Co15  1  0.750000  0.117262  0.302199  1
  Co  Co16  1  0.750000  0.381838  0.798164  1
  Co  Co17  1  0.250000  0.464206  0.932015  1
  Co  Co18  1  0.250000  0.034404  0.433186  1
  Co  Co19  1  0.750000  0.533942  0.067300  1
  Co  Co20  1  0.750000  0.970125  0.569375  1
  Re  Re21  1  0.250000  0.705736  0.989980  1
  Re  Re22  1  0.250000  0.792348  0.490343  1
  Re  Re23  1  0.750000  0.295826  0.007194  1
  Si  Si24  1  0.250000  0.416704  0.118510  1
  Si  Si25  1  0.250000  0.085410  0.616082  1
  Si  Si26  1  0.750000  0.581388  0.881174  1
  Si  Si27  1  0.750000  0.919192  0.383762  1
  Si  Si28  1  0.250000  0.260517  0.860985  1
  Si  Si29  1  0.250000  0.235374  0.368422  1
  Si  Si30  1  0.750000  0.736926  0.137341  1
  Si  Si31  1  0.750000  0.766776  0.636648  1
  Si  Si32  1  0.750000  0.402281  0.605480  1
  Si  Si33  1  0.750000  0.095311  0.110781  1
  P  P34  1  0.250000  0.595494  0.389073  1
  P  P35  1  0.250000  0.902740  0.891371  1
