# generated using pymatgen
data_LaGd5(SnIr)6
_symmetry_space_group_name_H-M   'P 1'
_cell_length_a   7.38830300
_cell_length_b   7.41163858
_cell_length_c   8.11468200
_cell_angle_alpha   90.00000000
_cell_angle_beta   90.00000000
_cell_angle_gamma   119.92078015
_symmetry_Int_Tables_number   1
_chemical_formula_structural   LaGd5(SnIr)6
_chemical_formula_sum   'La1 Gd5 Sn6 Ir6'
_cell_volume   385.12986739
_cell_formula_units_Z   1
loop_
 _symmetry_equiv_pos_site_id
 _symmetry_equiv_pos_as_xyz
  1  'x, y, z'
loop_
 _atom_site_type_symbol
 _atom_site_label
 _atom_site_symmetry_multiplicity
 _atom_site_fract_x
 _atom_site_fract_y
 _atom_site_fract_z
 _atom_site_occupancy
  La  La0  1  0.415055  0.999842  0.750000  1
  Gd  Gd1  1  0.409709  0.000388  0.250000  1
  Gd  Gd2  1  0.590151  0.589911  0.750000  1
  Gd  Gd3  1  0.590033  0.589530  0.250000  1
  Gd  Gd4  1  0.999939  0.410744  0.250000  1
  Gd  Gd5  1  0.001230  0.410643  0.750000  1
  Sn  Sn6  1  0.252739  0.254166  0.499597  1
  Sn  Sn7  1  0.252739  0.254166  0.000403  1
  Sn  Sn8  1  0.747444  0.000238  0.005141  1
  Sn  Sn9  1  0.998569  0.745602  0.499923  1
  Sn  Sn10  1  0.747444  0.000238  0.494859  1
  Sn  Sn11  1  0.998569  0.745602  0.000077  1
  Ir  Ir12  1  0.668751  0.336608  0.497316  1
  Ir  Ir13  1  0.668751  0.336608  0.002684  1
  Ir  Ir14  1  0.332235  0.663163  0.003530  1
  Ir  Ir15  1  0.332235  0.663163  0.496470  1
  Ir  Ir16  1  0.993010  0.999970  0.750000  1
  Ir  Ir17  1  0.001396  0.999413  0.250000  1
