# generated using pymatgen
data_Ta16MnV3Te16
_symmetry_space_group_name_H-M   'P 1'
_cell_length_a   4.88443100
_cell_length_b   11.03903604
_cell_length_c   19.32730406
_cell_angle_alpha   89.99078123
_cell_angle_beta   90.00000000
_cell_angle_gamma   90.00000000
_symmetry_Int_Tables_number   1
_chemical_formula_structural   Ta16MnV3Te16
_chemical_formula_sum   'Ta16 Mn1 V3 Te16'
_cell_volume   1042.11681503
_cell_formula_units_Z   1
loop_
 _symmetry_equiv_pos_site_id
 _symmetry_equiv_pos_as_xyz
  1  'x, y, z'
loop_
 _atom_site_type_symbol
 _atom_site_label
 _atom_site_symmetry_multiplicity
 _atom_site_fract_x
 _atom_site_fract_y
 _atom_site_fract_z
 _atom_site_occupancy
  Ta  Ta0  1  0.499989  0.564945  0.382511  1
  Ta  Ta1  1  0.499989  0.435055  0.617489  1
  Ta  Ta2  1  0.499054  0.064382  0.116425  1
  Ta  Ta3  1  0.499054  0.935618  0.883575  1
  Ta  Ta4  1  0.500007  0.706043  0.537045  1
  Ta  Ta5  1  0.500007  0.293957  0.462955  1
  Ta  Ta6  1  0.499096  0.204313  0.963212  1
  Ta  Ta7  1  0.499096  0.795687  0.036788  1
  Ta  Ta8  1  0.000006  0.691249  0.443046  1
  Ta  Ta9  1  0.000006  0.308751  0.556954  1
  Ta  Ta10  1  0.000902  0.189983  0.056604  1
  Ta  Ta11  1  0.000902  0.810017  0.943396  1
  Ta  Ta12  1  0.000032  0.400662  0.390918  1
  Ta  Ta13  1  0.000032  0.599338  0.609082  1
  Ta  Ta14  1  0.000893  0.901349  0.108333  1
  Ta  Ta15  1  0.000893  0.098651  0.891667  1
  Mn  Mn16  1  0.250183  0.000000  0.000000  1
  V  V17  1  0.254785  0.500000  0.500000  1
  V  V18  1  0.749797  0.000000  0.000000  1
  V  V19  1  0.745237  0.500000  0.500000  1
  Te  Te20  1  0.000020  0.846357  0.562628  1
  Te  Te21  1  0.000020  0.153643  0.437372  1
  Te  Te22  1  0.001216  0.345537  0.937522  1
  Te  Te23  1  0.001216  0.654463  0.062478  1
  Te  Te24  1  0.500018  0.332235  0.316150  1
  Te  Te25  1  0.500018  0.667765  0.683850  1
  Te  Te26  1  0.498757  0.832701  0.183357  1
  Te  Te27  1  0.498757  0.167299  0.816643  1
  Te  Te28  1  0.500004  0.822831  0.404186  1
  Te  Te29  1  0.500004  0.177169  0.595814  1
  Te  Te30  1  0.498786  0.321873  0.095513  1
  Te  Te31  1  0.498786  0.678127  0.904487  1
  Te  Te32  1  0.999999  0.609045  0.302113  1
  Te  Te33  1  0.999999  0.390955  0.697887  1
  Te  Te34  1  0.001220  0.108755  0.197445  1
  Te  Te35  1  0.001220  0.891245  0.802555  1
