# generated using pymatgen
data_Tb3Nd8Dy(SiPd)12
_symmetry_space_group_name_H-M   'P 1'
_cell_length_a   4.42280300
_cell_length_b   7.51573261
_cell_length_c   21.58318200
_cell_angle_alpha   89.96244690
_cell_angle_beta   90.00000000
_cell_angle_gamma   90.00000000
_symmetry_Int_Tables_number   1
_chemical_formula_structural   Tb3Nd8Dy(SiPd)12
_chemical_formula_sum   'Tb3 Nd8 Dy1 Si12 Pd12'
_cell_volume   717.43786809
_cell_formula_units_Z   1
loop_
 _symmetry_equiv_pos_site_id
 _symmetry_equiv_pos_as_xyz
  1  'x, y, z'
loop_
 _atom_site_type_symbol
 _atom_site_label
 _atom_site_symmetry_multiplicity
 _atom_site_fract_x
 _atom_site_fract_y
 _atom_site_fract_z
 _atom_site_occupancy
  Tb  Tb0  1  0.750000  0.290566  0.998684  1
  Tb  Tb1  1  0.750000  0.210055  0.498558  1
  Tb  Tb2  1  0.250000  0.790109  0.501447  1
  Nd  Nd3  1  0.250000  0.705834  0.333539  1
  Nd  Nd4  1  0.750000  0.294173  0.666449  1
  Nd  Nd5  1  0.750000  0.205943  0.166194  1
  Nd  Nd6  1  0.250000  0.793819  0.833872  1
  Nd  Nd7  1  0.250000  0.794844  0.164860  1
  Nd  Nd8  1  0.750000  0.205012  0.835140  1
  Nd  Nd9  1  0.750000  0.295009  0.334807  1
  Nd  Nd10  1  0.250000  0.705084  0.665206  1
  Dy  Dy11  1  0.250000  0.711244  0.001373  1
  Si  Si12  1  0.250000  0.088758  0.067875  1
  Si  Si13  1  0.750000  0.910188  0.932207  1
  Si  Si14  1  0.750000  0.589165  0.432130  1
  Si  Si15  1  0.250000  0.410848  0.568100  1
  Si  Si16  1  0.250000  0.084062  0.273050  1
  Si  Si17  1  0.750000  0.915878  0.727053  1
  Si  Si18  1  0.750000  0.584212  0.226573  1
  Si  Si19  1  0.250000  0.415833  0.773274  1
  Si  Si20  1  0.250000  0.085612  0.397217  1
  Si  Si21  1  0.750000  0.914397  0.602759  1
  Si  Si22  1  0.750000  0.585911  0.102154  1
  Si  Si23  1  0.250000  0.414604  0.897815  1
  Pd  Pd24  1  0.250000  0.417049  0.236353  1
  Pd  Pd25  1  0.750000  0.582903  0.763634  1
  Pd  Pd26  1  0.750000  0.917219  0.263580  1
  Pd  Pd27  1  0.250000  0.082847  0.736489  1
  Pd  Pd28  1  0.250000  0.416003  0.440584  1
  Pd  Pd29  1  0.750000  0.584042  0.559383  1
  Pd  Pd30  1  0.750000  0.914158  0.058816  1
  Pd  Pd31  1  0.250000  0.082793  0.940824  1
  Pd  Pd32  1  0.250000  0.421927  0.090196  1
  Pd  Pd33  1  0.750000  0.579890  0.909810  1
  Pd  Pd34  1  0.750000  0.920613  0.409163  1
  Pd  Pd35  1  0.250000  0.079394  0.590831  1
