# generated using pymatgen
data_NbFeCo20B6W
_symmetry_space_group_name_H-M   'P 1'
_cell_length_a   7.41956749
_cell_length_b   7.41924116
_cell_length_c   7.41901600
_cell_angle_alpha   60.00108904
_cell_angle_beta   60.00504405
_cell_angle_gamma   60.00526596
_symmetry_Int_Tables_number   1
_chemical_formula_structural   NbFeCo20B6W
_chemical_formula_sum   'Nb1 Fe1 Co20 B6 W1'
_cell_volume   288.80638951
_cell_formula_units_Z   1
loop_
 _symmetry_equiv_pos_site_id
 _symmetry_equiv_pos_as_xyz
  1  'x, y, z'
loop_
 _atom_site_type_symbol
 _atom_site_label
 _atom_site_symmetry_multiplicity
 _atom_site_fract_x
 _atom_site_fract_y
 _atom_site_fract_z
 _atom_site_occupancy
  Nb  Nb0  1  0.249878  0.250045  0.250012  1
  Fe  Fe1  1  0.000026  0.999981  0.000001  1
  Co  Co2  1  0.618694  0.618610  0.144108  1
  Co  Co3  1  0.618688  0.144105  0.618629  1
  Co  Co4  1  0.144093  0.618633  0.618651  1
  Co  Co5  1  0.618700  0.618580  0.618612  1
  Co  Co6  1  0.384549  0.384639  0.846144  1
  Co  Co7  1  0.384545  0.846152  0.384624  1
  Co  Co8  1  0.846185  0.384608  0.384591  1
  Co  Co9  1  0.384559  0.384663  0.384647  1
  Co  Co10  1  0.999300  0.999269  0.340226  1
  Co  Co11  1  0.661225  0.999268  0.340230  1
  Co  Co12  1  0.999293  0.661188  0.340234  1
  Co  Co13  1  0.661208  0.340222  0.999270  1
  Co  Co14  1  0.999316  0.340207  0.999283  1
  Co  Co15  1  0.999305  0.340218  0.661168  1
  Co  Co16  1  0.340184  0.661243  0.999303  1
  Co  Co17  1  0.340174  0.999314  0.661241  1
  Co  Co18  1  0.340206  0.999288  0.999280  1
  Co  Co19  1  0.999289  0.999312  0.661162  1
  Co  Co20  1  0.999290  0.661181  0.999303  1
  Co  Co21  1  0.661179  0.999291  0.999273  1
  B  B22  1  0.726814  0.726645  0.273283  1
  B  B23  1  0.273222  0.726764  0.273282  1
  B  B24  1  0.726818  0.273281  0.273257  1
  B  B25  1  0.273223  0.273290  0.726794  1
  B  B26  1  0.726796  0.273267  0.726659  1
  B  B27  1  0.273206  0.726736  0.726741  1
  W  W28  1  0.750036  0.749995  0.749989  1
