# generated using pymatgen
data_Y4Er4Re(TcB8)3
_symmetry_space_group_name_H-M   'P 1'
_cell_length_a   3.67301100
_cell_length_b   9.14873895
_cell_length_c   11.53589901
_cell_angle_alpha   90.02415553
_cell_angle_beta   90.00000000
_cell_angle_gamma   90.00000000
_symmetry_Int_Tables_number   1
_chemical_formula_structural   Y4Er4Re(TcB8)3
_chemical_formula_sum   'Y4 Er4 Re1 Tc3 B24'
_cell_volume   387.64561091
_cell_formula_units_Z   1
loop_
 _symmetry_equiv_pos_site_id
 _symmetry_equiv_pos_as_xyz
  1  'x, y, z'
loop_
 _atom_site_type_symbol
 _atom_site_label
 _atom_site_symmetry_multiplicity
 _atom_site_fract_x
 _atom_site_fract_y
 _atom_site_fract_z
 _atom_site_occupancy
  Y  Y0  1  0.000000  0.323747  0.414079  1
  Y  Y1  1  0.000000  0.676384  0.585864  1
  Y  Y2  1  0.000000  0.823628  0.086116  1
  Y  Y3  1  0.000000  0.176755  0.914215  1
  Er  Er4  1  0.000000  0.942937  0.369271  1
  Er  Er5  1  0.000000  0.057644  0.629855  1
  Er  Er6  1  0.000000  0.442883  0.130752  1
  Er  Er7  1  0.000000  0.556094  0.869722  1
  Re  Re8  1  0.000000  0.860932  0.820377  1
  Tc  Tc9  1  0.000000  0.639218  0.320292  1
  Tc  Tc10  1  0.000000  0.360819  0.679652  1
  Tc  Tc11  1  0.000000  0.139249  0.179756  1
  B  B12  1  0.500000  0.553692  0.432751  1
  B  B13  1  0.500000  0.446393  0.567269  1
  B  B14  1  0.500000  0.053725  0.067364  1
  B  B15  1  0.500000  0.946501  0.932960  1
  B  B16  1  0.500000  0.749659  0.418510  1
  B  B17  1  0.500000  0.250567  0.581448  1
  B  B18  1  0.500000  0.249599  0.081510  1
  B  B19  1  0.500000  0.749992  0.918678  1
  B  B20  1  0.500000  0.792246  0.265458  1
  B  B21  1  0.500000  0.207763  0.734394  1
  B  B22  1  0.500000  0.292237  0.234604  1
  B  B23  1  0.500000  0.707386  0.765532  1
  B  B24  1  0.500000  0.630636  0.185579  1
  B  B25  1  0.500000  0.369179  0.814411  1
  B  B26  1  0.500000  0.130693  0.314486  1
  B  B27  1  0.500000  0.869508  0.685358  1
  B  B28  1  0.500000  0.982436  0.211990  1
  B  B29  1  0.500000  0.017919  0.787814  1
  B  B30  1  0.500000  0.482402  0.288012  1
  B  B31  1  0.500000  0.517469  0.712088  1
  B  B32  1  0.500000  0.599378  0.027884  1
  B  B33  1  0.500000  0.400150  0.972326  1
  B  B34  1  0.500000  0.099636  0.471950  1
  B  B35  1  0.500000  0.900544  0.527671  1
