# generated using pymatgen
data_Zr6Ti3Al13Pt7
_symmetry_space_group_name_H-M   'P 1'
_cell_length_a   8.84876252
_cell_length_b   8.84876270
_cell_length_c   8.84876307
_cell_angle_alpha   59.79767295
_cell_angle_beta   59.79767559
_cell_angle_gamma   59.79767387
_symmetry_Int_Tables_number   1
_chemical_formula_structural   Zr6Ti3Al13Pt7
_chemical_formula_sum   'Zr6 Ti3 Al13 Pt7'
_cell_volume   487.67818847
_cell_formula_units_Z   1
loop_
 _symmetry_equiv_pos_site_id
 _symmetry_equiv_pos_as_xyz
  1  'x, y, z'
loop_
 _atom_site_type_symbol
 _atom_site_label
 _atom_site_symmetry_multiplicity
 _atom_site_fract_x
 _atom_site_fract_y
 _atom_site_fract_z
 _atom_site_occupancy
  Zr  Zr0  1  0.687592  0.687592  0.311211  1
  Zr  Zr1  1  0.312159  0.686354  0.312159  1
  Zr  Zr2  1  0.686354  0.312159  0.312159  1
  Zr  Zr3  1  0.312159  0.312159  0.686354  1
  Zr  Zr4  1  0.687592  0.311211  0.687592  1
  Zr  Zr5  1  0.311211  0.687592  0.687592  1
  Ti  Ti6  1  0.879423  0.879423  0.360956  1
  Ti  Ti7  1  0.879423  0.360956  0.879423  1
  Ti  Ti8  1  0.360956  0.879423  0.879423  1
  Al  Al9  1  0.882114  0.882114  0.882114  1
  Al  Al10  1  0.120022  0.120022  0.640595  1
  Al  Al11  1  0.120022  0.640595  0.120022  1
  Al  Al12  1  0.640595  0.120022  0.120022  1
  Al  Al13  1  0.121280  0.121280  0.121280  1
  Al  Al14  1  0.665605  0.665605  0.002013  1
  Al  Al15  1  0.665605  0.002013  0.665605  1
  Al  Al16  1  0.002013  0.665605  0.665605  1
  Al  Al17  1  0.663581  0.663581  0.663581  1
  Al  Al18  1  0.334081  0.334081  0.997964  1
  Al  Al19  1  0.334081  0.997964  0.334081  1
  Al  Al20  1  0.997964  0.334081  0.334081  1
  Al  Al21  1  0.333334  0.333334  0.333334  1
  Pt  Pt22  1  0.002830  0.002830  0.002830  1
  Pt  Pt23  1  0.998606  0.998606  0.503145  1
  Pt  Pt24  1  0.500152  0.999345  0.500152  1
  Pt  Pt25  1  0.999345  0.500152  0.500152  1
  Pt  Pt26  1  0.500152  0.500152  0.999345  1
  Pt  Pt27  1  0.998606  0.503145  0.998606  1
  Pt  Pt28  1  0.503145  0.998606  0.998606  1
