# generated using pymatgen
data_Tb2YZr(Co5P3)4
_symmetry_space_group_name_H-M   'P 1'
_cell_length_a   3.64146800
_cell_length_b   10.24744403
_cell_length_c   11.70776818
_cell_angle_alpha   89.94603042
_cell_angle_beta   90.00000000
_cell_angle_gamma   90.00000000
_symmetry_Int_Tables_number   1
_chemical_formula_structural   Tb2YZr(Co5P3)4
_chemical_formula_sum   'Tb2 Y1 Zr1 Co20 P12'
_cell_volume   436.88383357
_cell_formula_units_Z   1
loop_
 _symmetry_equiv_pos_site_id
 _symmetry_equiv_pos_as_xyz
  1  'x, y, z'
loop_
 _atom_site_type_symbol
 _atom_site_label
 _atom_site_symmetry_multiplicity
 _atom_site_fract_x
 _atom_site_fract_y
 _atom_site_fract_z
 _atom_site_occupancy
  Tb  Tb0  1  0.750000  0.417525  0.297274  1
  Tb  Tb1  1  0.750000  0.082922  0.797354  1
  Y  Y2  1  0.250000  0.916912  0.202686  1
  Zr  Zr3  1  0.250000  0.581933  0.700778  1
  Co  Co4  1  0.250000  0.716585  0.992597  1
  Co  Co5  1  0.250000  0.782046  0.493282  1
  Co  Co6  1  0.750000  0.283967  0.006875  1
  Co  Co7  1  0.750000  0.217358  0.510162  1
  Co  Co8  1  0.250000  0.409788  0.490899  1
  Co  Co9  1  0.250000  0.093360  0.988623  1
  Co  Co10  1  0.750000  0.593663  0.516061  1
  Co  Co11  1  0.750000  0.906642  0.011315  1
  Co  Co12  1  0.250000  0.222097  0.176819  1
  Co  Co13  1  0.250000  0.279259  0.677258  1
  Co  Co14  1  0.750000  0.775354  0.822225  1
  Co  Co15  1  0.750000  0.720554  0.324116  1
  Co  Co16  1  0.250000  0.879765  0.699337  1
  Co  Co17  1  0.250000  0.617051  0.197994  1
  Co  Co18  1  0.750000  0.117647  0.302131  1
  Co  Co19  1  0.750000  0.386405  0.798701  1
  Co  Co20  1  0.250000  0.470232  0.927822  1
  Co  Co21  1  0.250000  0.031550  0.432395  1
  Co  Co22  1  0.750000  0.532818  0.065386  1
  Co  Co23  1  0.750000  0.965401  0.568877  1
  P  P24  1  0.250000  0.418954  0.109768  1
  P  P25  1  0.250000  0.080616  0.612255  1
  P  P26  1  0.750000  0.581080  0.883681  1
  P  P27  1  0.750000  0.918325  0.388379  1
  P  P28  1  0.250000  0.271519  0.870494  1
  P  P29  1  0.250000  0.229300  0.371586  1
  P  P30  1  0.750000  0.728702  0.129680  1
  P  P31  1  0.750000  0.767424  0.631837  1
  P  P32  1  0.250000  0.602371  0.391224  1
  P  P33  1  0.250000  0.897599  0.891636  1
  P  P34  1  0.750000  0.400582  0.609699  1
  P  P35  1  0.750000  0.102694  0.108797  1
