# generated using pymatgen
data_Cs4TbUTe6
_symmetry_space_group_name_H-M   'P 1'
_cell_length_a   8.36557681
_cell_length_b   8.36557614
_cell_length_c   9.35385246
_cell_angle_alpha   81.24129515
_cell_angle_beta   81.24129920
_cell_angle_gamma   119.89127775
_symmetry_Int_Tables_number   1
_chemical_formula_structural   Cs4TbUTe6
_chemical_formula_sum   'Cs4 Tb1 U1 Te6'
_cell_volume   540.65989053
_cell_formula_units_Z   1
loop_
 _symmetry_equiv_pos_site_id
 _symmetry_equiv_pos_as_xyz
  1  'x, y, z'
loop_
 _atom_site_type_symbol
 _atom_site_label
 _atom_site_symmetry_multiplicity
 _atom_site_fract_x
 _atom_site_fract_y
 _atom_site_fract_z
 _atom_site_occupancy
  Cs  Cs0  1  0.500120  0.499880  0.000000  1
  Cs  Cs1  1  0.652732  0.347268  0.500000  1
  Cs  Cs2  1  0.348352  0.651648  0.500000  1
  Cs  Cs3  1  0.998391  0.001609  0.500000  1
  Tb  Tb4  1  0.831970  0.168030  0.000000  1
  U  U5  1  0.167982  0.832018  0.000000  1
  Te  Te6  1  0.828224  0.817283  0.189754  1
  Te  Te7  1  0.182717  0.171776  0.810246  1
  Te  Te8  1  0.422225  0.039163  0.194823  1
  Te  Te9  1  0.555295  0.948846  0.805007  1
  Te  Te10  1  0.960837  0.577775  0.805177  1
  Te  Te11  1  0.051154  0.444705  0.194993  1
