# generated using pymatgen
data_La10OsRu3
_symmetry_space_group_name_H-M   'P 1'
_cell_length_a   9.07648765
_cell_length_b   9.08588501
_cell_length_c   7.41210335
_cell_angle_alpha   85.00380654
_cell_angle_beta   85.12820763
_cell_angle_gamma   43.62081034
_symmetry_Int_Tables_number   1
_chemical_formula_structural   La10OsRu3
_chemical_formula_sum   'La10 Os1 Ru3'
_cell_volume   419.88291592
_cell_formula_units_Z   1
loop_
 _symmetry_equiv_pos_site_id
 _symmetry_equiv_pos_as_xyz
  1  'x, y, z'
loop_
 _atom_site_type_symbol
 _atom_site_label
 _atom_site_symmetry_multiplicity
 _atom_site_fract_x
 _atom_site_fract_y
 _atom_site_fract_z
 _atom_site_occupancy
  La  La0  1  0.016882  0.798673  0.908282  1
  La  La1  1  0.202662  0.981081  0.594671  1
  La  La2  1  0.982213  0.202264  0.094626  1
  La  La3  1  0.797647  0.017640  0.406452  1
  La  La4  1  0.360890  0.210124  0.817136  1
  La  La5  1  0.793084  0.638228  0.681599  1
  La  La6  1  0.637748  0.791447  0.182155  1
  La  La7  1  0.208302  0.361471  0.317663  1
  La  La8  1  0.576149  0.422987  0.749895  1
  La  La9  1  0.422220  0.577411  0.251333  1
  Os  Os10  1  0.176648  0.600981  0.577659  1
  Ru  Ru11  1  0.396118  0.826778  0.919402  1
  Ru  Ru12  1  0.826574  0.396326  0.418754  1
  Ru  Ru13  1  0.602863  0.174588  0.080372  1
