# generated using pymatgen
data_Y3ErMoI4
_symmetry_space_group_name_H-M   'P 1'
_cell_length_a   11.41631419
_cell_length_b   11.43042309
_cell_length_c   5.98447797
_cell_angle_alpha   90.31258671
_cell_angle_beta   90.35049570
_cell_angle_gamma   90.01433088
_symmetry_Int_Tables_number   1
_chemical_formula_structural   Y3ErMoI4
_chemical_formula_sum   'Y6 Er2 Mo2 I8'
_cell_volume   780.90802247
_cell_formula_units_Z   2
loop_
 _symmetry_equiv_pos_site_id
 _symmetry_equiv_pos_as_xyz
  1  'x, y, z'
loop_
 _atom_site_type_symbol
 _atom_site_label
 _atom_site_symmetry_multiplicity
 _atom_site_fract_x
 _atom_site_fract_y
 _atom_site_fract_z
 _atom_site_occupancy
  Y  Y0  1  0.208036  0.914439  0.002339  1
  Y  Y1  1  0.791964  0.085561  0.997661  1
  Y  Y2  1  0.084158  0.792654  0.497944  1
  Y  Y3  1  0.915842  0.207346  0.502056  1
  Y  Y4  1  0.793259  0.914047  0.496828  1
  Y  Y5  1  0.206741  0.085953  0.503172  1
  Er  Er6  1  0.083038  0.201466  0.002679  1
  Er  Er7  1  0.916962  0.798534  0.997321  1
  Mo  Mo8  1  0.999809  0.000247  0.249865  1
  Mo  Mo9  1  0.000191  0.999753  0.750135  1
  I  I10  1  0.358549  0.849374  0.496348  1
  I  I11  1  0.641451  0.150626  0.503652  1
  I  I12  1  0.149432  0.641721  0.003735  1
  I  I13  1  0.850568  0.358279  0.996265  1
  I  I14  1  0.357883  0.151638  0.010870  1
  I  I15  1  0.642117  0.848362  0.989130  1
  I  I16  1  0.848961  0.640996  0.488106  1
  I  I17  1  0.151039  0.359004  0.511894  1
