# generated using pymatgen
data_Pr3Sm(Si3Rh)2
_symmetry_space_group_name_H-M   'P 1'
_cell_length_a   8.30309800
_cell_length_b   8.30202819
_cell_length_c   8.37424700
_cell_angle_alpha   90.00000000
_cell_angle_beta   90.00000000
_cell_angle_gamma   120.00431059
_symmetry_Int_Tables_number   1
_chemical_formula_structural   Pr3Sm(Si3Rh)2
_chemical_formula_sum   'Pr6 Sm2 Si12 Rh4'
_cell_volume   499.89857634
_cell_formula_units_Z   2
loop_
 _symmetry_equiv_pos_site_id
 _symmetry_equiv_pos_as_xyz
  1  'x, y, z'
loop_
 _atom_site_type_symbol
 _atom_site_label
 _atom_site_symmetry_multiplicity
 _atom_site_fract_x
 _atom_site_fract_y
 _atom_site_fract_z
 _atom_site_occupancy
  Pr  Pr0  1  0.000262  0.000516  0.250000  1
  Pr  Pr1  1  0.999877  0.999756  0.750000  1
  Pr  Pr2  1  0.006527  0.503020  0.250000  1
  Pr  Pr3  1  0.496491  0.503021  0.250000  1
  Pr  Pr4  1  0.505491  0.010982  0.750000  1
  Pr  Pr5  1  0.495857  0.991713  0.250000  1
  Sm  Sm6  1  0.504563  0.495140  0.750000  1
  Sm  Sm7  1  0.990574  0.495140  0.750000  1
  Si  Si8  1  0.167136  0.334272  0.998962  1
  Si  Si9  1  0.666073  0.832536  0.999461  1
  Si  Si10  1  0.167136  0.334272  0.501038  1
  Si  Si11  1  0.332520  0.166832  0.997987  1
  Si  Si12  1  0.166463  0.832536  0.999460  1
  Si  Si13  1  0.666073  0.832536  0.500539  1
  Si  Si14  1  0.833574  0.667150  0.994818  1
  Si  Si15  1  0.332520  0.166832  0.502013  1
  Si  Si16  1  0.166463  0.832536  0.500540  1
  Si  Si17  1  0.833574  0.667150  0.505182  1
  Si  Si18  1  0.834313  0.166831  0.997989  1
  Si  Si19  1  0.834313  0.166831  0.502011  1
  Rh  Rh20  1  0.332856  0.665712  0.974554  1
  Rh  Rh21  1  0.332856  0.665712  0.525446  1
  Rh  Rh22  1  0.667245  0.334489  0.012484  1
  Rh  Rh23  1  0.667245  0.334489  0.487516  1
