# generated using pymatgen
data_CeAs12IrOs3
_symmetry_space_group_name_H-M   'P 1'
_cell_length_a   7.47120623
_cell_length_b   7.47120649
_cell_length_c   7.47120689
_cell_angle_alpha   109.42079134
_cell_angle_beta   109.42078296
_cell_angle_gamma   109.42079234
_symmetry_Int_Tables_number   1
_chemical_formula_structural   CeAs12IrOs3
_chemical_formula_sum   'Ce1 As12 Ir1 Os3'
_cell_volume   321.63152031
_cell_formula_units_Z   1
loop_
 _symmetry_equiv_pos_site_id
 _symmetry_equiv_pos_as_xyz
  1  'x, y, z'
loop_
 _atom_site_type_symbol
 _atom_site_label
 _atom_site_symmetry_multiplicity
 _atom_site_fract_x
 _atom_site_fract_y
 _atom_site_fract_z
 _atom_site_occupancy
  Ce  Ce0  1  0.000000  0.000000  0.000000  1
  As  As1  1  0.346266  0.197126  0.850726  1
  As  As2  1  0.653734  0.802874  0.149274  1
  As  As3  1  0.653744  0.504098  0.853427  1
  As  As4  1  0.346256  0.495902  0.146573  1
  As  As5  1  0.197126  0.850726  0.346266  1
  As  As6  1  0.802874  0.149274  0.653734  1
  As  As7  1  0.504098  0.853427  0.653744  1
  As  As8  1  0.495902  0.146573  0.346256  1
  As  As9  1  0.850726  0.346266  0.197126  1
  As  As10  1  0.149274  0.653734  0.802874  1
  As  As11  1  0.853427  0.653744  0.504098  1
  As  As12  1  0.146573  0.346256  0.495902  1
  Ir  Ir13  1  0.500000  0.500000  0.500000  1
  Os  Os14  1  0.000000  0.000000  0.500000  1
  Os  Os15  1  0.500000  0.000000  0.000000  1
  Os  Os16  1  0.000000  0.500000  0.000000  1
