# generated using pymatgen
data_EuSc4Si7Pt9
_symmetry_space_group_name_H-M   'P 1'
_cell_length_a   10.11492600
_cell_length_b   10.11492524
_cell_length_c   3.96781200
_cell_angle_alpha   90.00000000
_cell_angle_beta   90.00000000
_cell_angle_gamma   120.00000247
_symmetry_Int_Tables_number   1
_chemical_formula_structural   EuSc4Si7Pt9
_chemical_formula_sum   'Eu1 Sc4 Si7 Pt9'
_cell_volume   351.56618368
_cell_formula_units_Z   1
loop_
 _symmetry_equiv_pos_site_id
 _symmetry_equiv_pos_as_xyz
  1  'x, y, z'
loop_
 _atom_site_type_symbol
 _atom_site_label
 _atom_site_symmetry_multiplicity
 _atom_site_fract_x
 _atom_site_fract_y
 _atom_site_fract_z
 _atom_site_occupancy
  Eu  Eu0  1  0.333333  0.666667  0.500000  1
  Sc  Sc1  1  0.000000  0.000000  0.000000  1
  Sc  Sc2  1  0.895611  0.459103  0.500000  1
  Sc  Sc3  1  0.563492  0.104389  0.500000  1
  Sc  Sc4  1  0.540897  0.436508  0.500000  1
  Si  Si5  1  0.241340  0.192366  0.500000  1
  Si  Si6  1  0.807634  0.048975  0.500000  1
  Si  Si7  1  0.951025  0.758660  0.500000  1
  Si  Si8  1  0.557589  0.648678  0.000000  1
  Si  Si9  1  0.351322  0.908910  0.000000  1
  Si  Si10  1  0.091090  0.442411  0.000000  1
  Si  Si11  1  0.666667  0.333333  0.000000  1
  Pt  Pt12  1  0.217087  0.938699  0.500000  1
  Pt  Pt13  1  0.061301  0.278389  0.500000  1
  Pt  Pt14  1  0.721611  0.782913  0.500000  1
  Pt  Pt15  1  0.314018  0.408301  0.000000  1
  Pt  Pt16  1  0.591699  0.905716  0.000000  1
  Pt  Pt17  1  0.094284  0.685982  0.000000  1
  Pt  Pt18  1  0.384165  0.171419  0.000000  1
  Pt  Pt19  1  0.828581  0.212747  0.000000  1
  Pt  Pt20  1  0.787253  0.615835  0.000000  1
