# generated using pymatgen
data_TlAs4F13
_symmetry_space_group_name_H-M   'P 1'
_cell_length_a   6.63148265
_cell_length_b   7.57238322
_cell_length_c   7.57253900
_cell_angle_alpha   78.96058493
_cell_angle_beta   64.03233944
_cell_angle_gamma   64.03176585
_symmetry_Int_Tables_number   1
_chemical_formula_structural   TlAs4F13
_chemical_formula_sum   'Tl1 As4 F13'
_cell_volume   307.35615940
_cell_formula_units_Z   1
loop_
 _symmetry_equiv_pos_site_id
 _symmetry_equiv_pos_as_xyz
  1  'x, y, z'
loop_
 _atom_site_type_symbol
 _atom_site_label
 _atom_site_symmetry_multiplicity
 _atom_site_fract_x
 _atom_site_fract_y
 _atom_site_fract_z
 _atom_site_occupancy
  Tl  Tl0  1  0.999966  0.000000  0.000000  1
  As  As1  1  0.209203  0.323422  0.284729  1
  As  As2  1  0.467534  0.715228  0.323303  1
  As  As3  1  0.506063  0.284772  0.676697  1
  As  As4  1  0.817355  0.676578  0.715272  1
  F  F5  1  0.190180  0.245348  0.080724  1
  F  F6  1  0.479534  0.358030  0.118858  1
  F  F7  1  0.564492  0.919256  0.245423  1
  F  F8  1  0.001065  0.569267  0.264484  1
  F  F9  1  0.162519  0.881049  0.357986  1
  F  F10  1  0.734298  0.264571  0.430806  1
  F  F11  1  0.249884  0.499999  0.500002  1
  F  F12  1  0.429676  0.735431  0.569193  1
  F  F13  1  0.401553  0.118952  0.642016  1
  F  F14  1  0.834817  0.430733  0.735518  1
  F  F15  1  0.729170  0.080744  0.754579  1
  F  F16  1  0.956422  0.641972  0.881141  1
  F  F17  1  0.516250  0.754652  0.919278  1
