# generated using pymatgen
data_Tm4Al18(NiRh)3
_symmetry_space_group_name_H-M   'P 1'
_cell_length_a   7.47802011
_cell_length_b   7.47801458
_cell_length_c   9.27465770
_cell_angle_alpha   89.89468691
_cell_angle_beta   89.89472629
_cell_angle_gamma   119.84189876
_symmetry_Int_Tables_number   1
_chemical_formula_structural   Tm4Al18(NiRh)3
_chemical_formula_sum   'Tm4 Al18 Ni3 Rh3'
_cell_volume   449.87123532
_cell_formula_units_Z   1
loop_
 _symmetry_equiv_pos_site_id
 _symmetry_equiv_pos_as_xyz
  1  'x, y, z'
loop_
 _atom_site_type_symbol
 _atom_site_label
 _atom_site_symmetry_multiplicity
 _atom_site_fract_x
 _atom_site_fract_y
 _atom_site_fract_z
 _atom_site_occupancy
  Tm  Tm0  1  0.994976  0.669042  0.249954  1
  Tm  Tm1  1  0.006915  0.332780  0.750179  1
  Tm  Tm2  1  0.667219  0.993085  0.249821  1
  Tm  Tm3  1  0.330958  0.005023  0.750046  1
  Al  Al4  1  0.120037  0.119914  0.249638  1
  Al  Al5  1  0.880086  0.879963  0.750362  1
  Al  Al6  1  0.994528  0.331577  0.074296  1
  Al  Al7  1  0.998707  0.666907  0.925900  1
  Al  Al8  1  0.000346  0.667585  0.574473  1
  Al  Al9  1  0.332415  0.999654  0.425527  1
  Al  Al10  1  0.998618  0.331194  0.425411  1
  Al  Al11  1  0.668806  0.001382  0.574589  1
  Al  Al12  1  0.668423  0.005472  0.925704  1
  Al  Al13  1  0.333093  0.001293  0.074100  1
  Al  Al14  1  0.330152  0.329536  0.550982  1
  Al  Al15  1  0.670464  0.669848  0.449018  1
  Al  Al16  1  0.669891  0.669153  0.051011  1
  Al  Al17  1  0.330847  0.330109  0.948989  1
  Al  Al18  1  0.338816  0.546069  0.249772  1
  Al  Al19  1  0.661765  0.449584  0.752660  1
  Al  Al20  1  0.550416  0.338235  0.247340  1
  Al  Al21  1  0.453931  0.661184  0.750228  1
  Ni  Ni22  1  0.671416  0.328583  0.000000  1
  Ni  Ni23  1  0.999567  0.000433  0.000000  1
  Ni  Ni24  1  0.000236  0.999766  0.500000  1
  Rh  Rh25  1  0.327154  0.672846  0.000000  1
  Rh  Rh26  1  0.328020  0.671981  0.500000  1
  Rh  Rh27  1  0.672198  0.327803  0.500000  1
