# generated using pymatgen
data_Y5TmHg10
_symmetry_space_group_name_H-M   'P 1'
_cell_length_a   6.38220440
_cell_length_b   6.38220202
_cell_length_c   10.17752200
_cell_angle_alpha   90.00000000
_cell_angle_beta   90.00000000
_cell_angle_gamma   104.67814683
_symmetry_Int_Tables_number   1
_chemical_formula_structural   Y5TmHg10
_chemical_formula_sum   'Y5 Tm1 Hg10'
_cell_volume   401.02683735
_cell_formula_units_Z   1
loop_
 _symmetry_equiv_pos_site_id
 _symmetry_equiv_pos_as_xyz
  1  'x, y, z'
loop_
 _atom_site_type_symbol
 _atom_site_label
 _atom_site_symmetry_multiplicity
 _atom_site_fract_x
 _atom_site_fract_y
 _atom_site_fract_z
 _atom_site_occupancy
  Y  Y0  1  0.570600  0.570600  0.250000  1
  Y  Y1  1  0.211973  0.786365  0.500179  1
  Y  Y2  1  0.211973  0.786365  0.999821  1
  Y  Y3  1  0.786365  0.211973  0.500179  1
  Y  Y4  1  0.786365  0.211973  0.999821  1
  Tm  Tm5  1  0.430015  0.430015  0.750000  1
  Hg  Hg6  1  0.969809  0.969809  0.250000  1
  Hg  Hg7  1  0.034199  0.034199  0.750000  1
  Hg  Hg8  1  0.294779  0.294779  0.028300  1
  Hg  Hg9  1  0.703666  0.703666  0.968348  1
  Hg  Hg10  1  0.294779  0.294779  0.471700  1
  Hg  Hg11  1  0.703666  0.703666  0.531652  1
  Hg  Hg12  1  0.475236  0.038143  0.250000  1
  Hg  Hg13  1  0.963619  0.524812  0.750000  1
  Hg  Hg14  1  0.524812  0.963619  0.750000  1
  Hg  Hg15  1  0.038143  0.475236  0.250000  1
