# generated using pymatgen
data_Tm2B6Mo
_symmetry_space_group_name_H-M   'P 1'
_cell_length_a   3.58257400
_cell_length_b   9.24188715
_cell_length_c   11.61379524
_cell_angle_alpha   89.99466355
_cell_angle_beta   90.00000000
_cell_angle_gamma   90.00000000
_symmetry_Int_Tables_number   1
_chemical_formula_structural   Tm2B6Mo
_chemical_formula_sum   'Tm8 B24 Mo4'
_cell_volume   384.52979242
_cell_formula_units_Z   4
loop_
 _symmetry_equiv_pos_site_id
 _symmetry_equiv_pos_as_xyz
  1  'x, y, z'
loop_
 _atom_site_type_symbol
 _atom_site_label
 _atom_site_symmetry_multiplicity
 _atom_site_fract_x
 _atom_site_fract_y
 _atom_site_fract_z
 _atom_site_occupancy
  Tm  Tm0  1  0.000000  0.321155  0.413677  1
  Tm  Tm1  1  0.000000  0.678783  0.586086  1
  Tm  Tm2  1  0.000000  0.821256  0.086282  1
  Tm  Tm3  1  0.000000  0.178711  0.913991  1
  Tm  Tm4  1  0.000000  0.943994  0.371091  1
  Tm  Tm5  1  0.000000  0.056186  0.628814  1
  Tm  Tm6  1  0.000000  0.443785  0.128816  1
  Tm  Tm7  1  0.000000  0.556102  0.871194  1
  B  B8  1  0.500000  0.551578  0.434894  1
  B  B9  1  0.500000  0.448459  0.565090  1
  B  B10  1  0.500000  0.051544  0.065160  1
  B  B11  1  0.500000  0.948368  0.935013  1
  B  B12  1  0.500000  0.751983  0.422120  1
  B  B13  1  0.500000  0.248183  0.577799  1
  B  B14  1  0.500000  0.251845  0.077845  1
  B  B15  1  0.500000  0.748073  0.922239  1
  B  B16  1  0.500000  0.795208  0.263165  1
  B  B17  1  0.500000  0.204866  0.736897  1
  B  B18  1  0.500000  0.295117  0.236686  1
  B  B19  1  0.500000  0.704876  0.763157  1
  B  B20  1  0.500000  0.631448  0.182550  1
  B  B21  1  0.500000  0.368495  0.817481  1
  B  B22  1  0.500000  0.131517  0.317326  1
  B  B23  1  0.500000  0.868585  0.682583  1
  B  B24  1  0.500000  0.978653  0.212094  1
  B  B25  1  0.500000  0.021399  0.788005  1
  B  B26  1  0.500000  0.478572  0.287847  1
  B  B27  1  0.500000  0.521392  0.712097  1
  B  B28  1  0.500000  0.600150  0.028192  1
  B  B29  1  0.500000  0.399620  0.971908  1
  B  B30  1  0.500000  0.100387  0.471752  1
  B  B31  1  0.500000  0.899851  0.528061  1
  Mo  Mo32  1  0.000000  0.639678  0.320249  1
  Mo  Mo33  1  0.000000  0.360263  0.679720  1
  Mo  Mo34  1  0.000000  0.139660  0.179746  1
  Mo  Mo35  1  0.000000  0.860253  0.820372  1
