# generated using pymatgen
data_HfZr4CuAs3
_symmetry_space_group_name_H-M   'P 1'
_cell_length_a   3.73932900
_cell_length_b   10.41999100
_cell_length_c   17.80838200
_cell_angle_alpha   90.00000000
_cell_angle_beta   90.00000000
_cell_angle_gamma   90.00000000
_symmetry_Int_Tables_number   1
_chemical_formula_structural   HfZr4CuAs3
_chemical_formula_sum   'Hf4 Zr16 Cu4 As12'
_cell_volume   693.88178092
_cell_formula_units_Z   4
loop_
 _symmetry_equiv_pos_site_id
 _symmetry_equiv_pos_as_xyz
  1  'x, y, z'
loop_
 _atom_site_type_symbol
 _atom_site_label
 _atom_site_symmetry_multiplicity
 _atom_site_fract_x
 _atom_site_fract_y
 _atom_site_fract_z
 _atom_site_occupancy
  Hf  Hf0  1  0.250000  0.755382  0.168898  1
  Hf  Hf1  1  0.750000  0.244618  0.831102  1
  Hf  Hf2  1  0.750000  0.255382  0.331102  1
  Hf  Hf3  1  0.250000  0.744618  0.668898  1
  Zr  Zr4  1  0.250000  0.119772  0.478237  1
  Zr  Zr5  1  0.750000  0.880228  0.521763  1
  Zr  Zr6  1  0.750000  0.619772  0.021763  1
  Zr  Zr7  1  0.250000  0.380228  0.978237  1
  Zr  Zr8  1  0.250000  0.066725  0.082086  1
  Zr  Zr9  1  0.750000  0.933275  0.917914  1
  Zr  Zr10  1  0.750000  0.566725  0.417914  1
  Zr  Zr11  1  0.250000  0.433275  0.582086  1
  Zr  Zr12  1  0.250000  0.487561  0.271039  1
  Zr  Zr13  1  0.750000  0.512439  0.728961  1
  Zr  Zr14  1  0.750000  0.987561  0.228961  1
  Zr  Zr15  1  0.250000  0.012439  0.771039  1
  Zr  Zr16  1  0.250000  0.815714  0.367846  1
  Zr  Zr17  1  0.750000  0.184286  0.632154  1
  Zr  Zr18  1  0.750000  0.315714  0.132154  1
  Zr  Zr19  1  0.250000  0.684286  0.867846  1
  Cu  Cu20  1  0.250000  0.372496  0.412554  1
  Cu  Cu21  1  0.750000  0.627504  0.587446  1
  Cu  Cu22  1  0.750000  0.872496  0.087446  1
  Cu  Cu23  1  0.250000  0.127504  0.912554  1
  As  As24  1  0.250000  0.813945  0.007269  1
  As  As25  1  0.750000  0.186055  0.992731  1
  As  As26  1  0.750000  0.313945  0.492731  1
  As  As27  1  0.250000  0.686055  0.507269  1
  As  As28  1  0.250000  0.509971  0.116744  1
  As  As29  1  0.750000  0.490029  0.883256  1
  As  As30  1  0.750000  0.009971  0.383256  1
  As  As31  1  0.250000  0.990029  0.616744  1
  As  As32  1  0.250000  0.192255  0.223003  1
  As  As33  1  0.750000  0.807745  0.776997  1
  As  As34  1  0.750000  0.692255  0.276997  1
  As  As35  1  0.250000  0.307745  0.723003  1
