# generated using pymatgen
data_Dy4Al4CuIr3
_symmetry_space_group_name_H-M   'P 1'
_cell_length_a   4.29476400
_cell_length_b   6.83320818
_cell_length_c   7.85814799
_cell_angle_alpha   89.98436966
_cell_angle_beta   90.00000000
_cell_angle_gamma   90.00000000
_symmetry_Int_Tables_number   1
_chemical_formula_structural   Dy4Al4CuIr3
_chemical_formula_sum   'Dy4 Al4 Cu1 Ir3'
_cell_volume   230.61318999
_cell_formula_units_Z   1
loop_
 _symmetry_equiv_pos_site_id
 _symmetry_equiv_pos_as_xyz
  1  'x, y, z'
loop_
 _atom_site_type_symbol
 _atom_site_label
 _atom_site_symmetry_multiplicity
 _atom_site_fract_x
 _atom_site_fract_y
 _atom_site_fract_z
 _atom_site_occupancy
  Dy  Dy0  1  0.250000  0.472364  0.183438  1
  Dy  Dy1  1  0.750000  0.537380  0.819084  1
  Dy  Dy2  1  0.750000  0.027996  0.678771  1
  Dy  Dy3  1  0.250000  0.969130  0.321304  1
  Al  Al4  1  0.250000  0.854755  0.938445  1
  Al  Al5  1  0.750000  0.141135  0.061296  1
  Al  Al6  1  0.750000  0.640839  0.437770  1
  Al  Al7  1  0.250000  0.361724  0.559508  1
  Cu  Cu8  1  0.250000  0.226209  0.878387  1
  Ir  Ir9  1  0.250000  0.732973  0.622581  1
  Ir  Ir10  1  0.750000  0.267216  0.380749  1
  Ir  Ir11  1  0.750000  0.768278  0.118666  1
