# generated using pymatgen
data_Dy3Lu5(CdPt)2
_symmetry_space_group_name_H-M   'P 1'
_cell_length_a   9.54987048
_cell_length_b   9.54987115
_cell_length_c   9.54987100
_cell_angle_alpha   59.99999705
_cell_angle_beta   59.99999474
_cell_angle_gamma   59.99999880
_symmetry_Int_Tables_number   1
_chemical_formula_structural   Dy3Lu5(CdPt)2
_chemical_formula_sum   'Dy6 Lu10 Cd4 Pt4'
_cell_volume   615.85357931
_cell_formula_units_Z   2
loop_
 _symmetry_equiv_pos_site_id
 _symmetry_equiv_pos_as_xyz
  1  'x, y, z'
loop_
 _atom_site_type_symbol
 _atom_site_label
 _atom_site_symmetry_multiplicity
 _atom_site_fract_x
 _atom_site_fract_y
 _atom_site_fract_z
 _atom_site_occupancy
  Dy  Dy0  1  0.186295  0.813705  0.813705  1
  Dy  Dy1  1  0.813705  0.186295  0.186295  1
  Dy  Dy2  1  0.813705  0.186295  0.813705  1
  Dy  Dy3  1  0.186295  0.813705  0.186295  1
  Dy  Dy4  1  0.813705  0.813705  0.186295  1
  Dy  Dy5  1  0.186295  0.186295  0.813705  1
  Lu  Lu6  1  0.601827  0.601827  0.601827  1
  Lu  Lu7  1  0.601827  0.601827  0.194519  1
  Lu  Lu8  1  0.601827  0.194519  0.601827  1
  Lu  Lu9  1  0.194519  0.601827  0.601827  1
  Lu  Lu10  1  0.061192  0.438808  0.438808  1
  Lu  Lu11  1  0.438808  0.061192  0.061192  1
  Lu  Lu12  1  0.438808  0.061192  0.438808  1
  Lu  Lu13  1  0.061192  0.438808  0.061192  1
  Lu  Lu14  1  0.438808  0.438808  0.061192  1
  Lu  Lu15  1  0.061192  0.061192  0.438808  1
  Cd  Cd16  1  0.831410  0.831410  0.831410  1
  Cd  Cd17  1  0.831410  0.831410  0.505770  1
  Cd  Cd18  1  0.831410  0.505770  0.831410  1
  Cd  Cd19  1  0.505770  0.831410  0.831410  1
  Pt  Pt20  1  0.392960  0.392960  0.392960  1
  Pt  Pt21  1  0.392960  0.392960  0.821118  1
  Pt  Pt22  1  0.392960  0.821118  0.392960  1
  Pt  Pt23  1  0.821118  0.392960  0.392960  1
