# generated using pymatgen
data_K4Hf6FeBr18
_symmetry_space_group_name_H-M   'P 1'
_cell_length_a   10.50432442
_cell_length_b   10.66036402
_cell_length_c   10.76299018
_cell_angle_alpha   118.58863310
_cell_angle_beta   100.10328864
_cell_angle_gamma   103.76164258
_symmetry_Int_Tables_number   1
_chemical_formula_structural   K4Hf6FeBr18
_chemical_formula_sum   'K4 Hf6 Fe1 Br18'
_cell_volume   966.99048367
_cell_formula_units_Z   1
loop_
 _symmetry_equiv_pos_site_id
 _symmetry_equiv_pos_as_xyz
  1  'x, y, z'
loop_
 _atom_site_type_symbol
 _atom_site_label
 _atom_site_symmetry_multiplicity
 _atom_site_fract_x
 _atom_site_fract_y
 _atom_site_fract_z
 _atom_site_occupancy
  K  K0  1  0.652359  0.537720  0.227181  1
  K  K1  1  0.347641  0.462280  0.772819  1
  K  K2  1  0.686188  0.224787  0.563467  1
  K  K3  1  0.313812  0.775213  0.436533  1
  Hf  Hf4  1  0.151847  0.056701  0.232818  1
  Hf  Hf5  1  0.848153  0.943299  0.767182  1
  Hf  Hf6  1  0.859683  0.127930  0.134253  1
  Hf  Hf7  1  0.140317  0.872070  0.865747  1
  Hf  Hf8  1  0.146635  0.241374  0.045464  1
  Hf  Hf9  1  0.853365  0.758626  0.954536  1
  Fe  Fe10  1  0.000000  0.000000  0.000000  1
  Br  Br11  1  0.007823  0.411867  0.198412  1
  Br  Br12  1  0.992177  0.588133  0.801588  1
  Br  Br13  1  0.330015  0.335099  0.312656  1
  Br  Br14  1  0.669985  0.664901  0.687344  1
  Br  Br15  1  0.322134  0.521244  0.100287  1
  Br  Br16  1  0.677866  0.478756  0.899713  1
  Br  Br17  1  0.004417  0.794845  0.210430  1
  Br  Br18  1  0.995583  0.205155  0.789570  1
  Br  Br19  1  0.703094  0.276656  0.289179  1
  Br  Br20  1  0.296906  0.723344  0.710821  1
  Br  Br21  1  0.318217  0.127679  0.902123  1
  Br  Br22  1  0.681783  0.872321  0.097877  1
  Br  Br23  1  0.014628  0.205596  0.409948  1
  Br  Br24  1  0.985372  0.794404  0.590052  1
  Br  Br25  1  0.321988  0.921340  0.110227  1
  Br  Br26  1  0.678012  0.078660  0.889773  1
  Br  Br27  1  0.333326  0.121016  0.501723  1
  Br  Br28  1  0.666674  0.878984  0.498277  1
