# generated using pymatgen
data_Tb4ThPd15
_symmetry_space_group_name_H-M   'P 1'
_cell_length_a   4.15768900
_cell_length_b   4.15768900
_cell_length_c   20.69654300
_cell_angle_alpha   90.00000000
_cell_angle_beta   90.00000000
_cell_angle_gamma   90.00000000
_symmetry_Int_Tables_number   1
_chemical_formula_structural   Tb4ThPd15
_chemical_formula_sum   'Tb4 Th1 Pd15'
_cell_volume   357.76826188
_cell_formula_units_Z   1
loop_
 _symmetry_equiv_pos_site_id
 _symmetry_equiv_pos_as_xyz
  1  'x, y, z'
loop_
 _atom_site_type_symbol
 _atom_site_label
 _atom_site_symmetry_multiplicity
 _atom_site_fract_x
 _atom_site_fract_y
 _atom_site_fract_z
 _atom_site_occupancy
  Tb  Tb0  1  0.000000  0.000000  0.202353  1
  Tb  Tb1  1  0.000000  0.000000  0.399919  1
  Tb  Tb2  1  0.000000  0.000000  0.600081  1
  Tb  Tb3  1  0.000000  0.000000  0.797647  1
  Th  Th4  1  0.000000  0.000000  0.000000  1
  Pd  Pd5  1  0.500000  0.500000  0.000000  1
  Pd  Pd6  1  0.500000  0.500000  0.200304  1
  Pd  Pd7  1  0.500000  0.500000  0.400239  1
  Pd  Pd8  1  0.500000  0.500000  0.599761  1
  Pd  Pd9  1  0.500000  0.500000  0.799696  1
  Pd  Pd10  1  0.500000  0.000000  0.100683  1
  Pd  Pd11  1  0.500000  0.000000  0.300245  1
  Pd  Pd12  1  0.500000  0.000000  0.500000  1
  Pd  Pd13  1  0.500000  0.000000  0.699755  1
  Pd  Pd14  1  0.500000  0.000000  0.899317  1
  Pd  Pd15  1  0.000000  0.500000  0.100683  1
  Pd  Pd16  1  0.000000  0.500000  0.300245  1
  Pd  Pd17  1  0.000000  0.500000  0.500000  1
  Pd  Pd18  1  0.000000  0.500000  0.699755  1
  Pd  Pd19  1  0.000000  0.500000  0.899317  1
