# generated using pymatgen
data_Tb2Fe2Ni3P6Ru5
_symmetry_space_group_name_H-M   'P 1'
_cell_length_a   3.78937800
_cell_length_b   10.63306700
_cell_length_c   12.05601000
_cell_angle_alpha   90.00000000
_cell_angle_beta   90.00000000
_cell_angle_gamma   90.00000000
_symmetry_Int_Tables_number   1
_chemical_formula_structural   Tb2Fe2Ni3P6Ru5
_chemical_formula_sum   'Tb4 Fe4 Ni6 P12 Ru10'
_cell_volume   485.76931664
_cell_formula_units_Z   2
loop_
 _symmetry_equiv_pos_site_id
 _symmetry_equiv_pos_as_xyz
  1  'x, y, z'
loop_
 _atom_site_type_symbol
 _atom_site_label
 _atom_site_symmetry_multiplicity
 _atom_site_fract_x
 _atom_site_fract_y
 _atom_site_fract_z
 _atom_site_occupancy
  Tb  Tb0  1  0.250000  0.586511  0.708929  1
  Tb  Tb1  1  0.250000  0.913489  0.208929  1
  Tb  Tb2  1  0.750000  0.417937  0.292452  1
  Tb  Tb3  1  0.750000  0.082063  0.792452  1
  Fe  Fe4  1  0.250000  0.462922  0.933941  1
  Fe  Fe5  1  0.250000  0.037078  0.433941  1
  Fe  Fe6  1  0.750000  0.534916  0.066078  1
  Fe  Fe7  1  0.750000  0.965084  0.566078  1
  Ni  Ni8  1  0.750000  0.772547  0.819852  1
  Ni  Ni9  1  0.750000  0.727453  0.319852  1
  Ni  Ni10  1  0.250000  0.880309  0.700596  1
  Ni  Ni11  1  0.250000  0.619691  0.200596  1
  Ni  Ni12  1  0.750000  0.111367  0.300487  1
  Ni  Ni13  1  0.750000  0.388633  0.800487  1
  P  P14  1  0.250000  0.427031  0.111684  1
  P  P15  1  0.250000  0.072969  0.611684  1
  P  P16  1  0.750000  0.575338  0.889933  1
  P  P17  1  0.750000  0.924662  0.389933  1
  P  P18  1  0.250000  0.269365  0.872473  1
  P  P19  1  0.250000  0.230635  0.372473  1
  P  P20  1  0.750000  0.726733  0.130469  1
  P  P21  1  0.750000  0.773267  0.630469  1
  P  P22  1  0.250000  0.603126  0.390320  1
  P  P23  1  0.250000  0.896874  0.890320  1
  P  P24  1  0.750000  0.399942  0.608425  1
  P  P25  1  0.750000  0.100058  0.108425  1
  Ru  Ru26  1  0.250000  0.702679  0.984785  1
  Ru  Ru27  1  0.250000  0.797321  0.484785  1
  Ru  Ru28  1  0.750000  0.292577  0.010350  1
  Ru  Ru29  1  0.750000  0.207423  0.510350  1
  Ru  Ru30  1  0.250000  0.407914  0.486410  1
  Ru  Ru31  1  0.250000  0.092086  0.986410  1
  Ru  Ru32  1  0.750000  0.599311  0.512709  1
  Ru  Ru33  1  0.750000  0.900689  0.012709  1
  Ru  Ru34  1  0.250000  0.223984  0.180109  1
  Ru  Ru35  1  0.250000  0.276016  0.680109  1
