# generated using pymatgen
data_CsCr(CuSe2)2
_symmetry_space_group_name_H-M   'P 1'
_cell_length_a   10.14481388
_cell_length_b   10.14481451
_cell_length_c   7.81744000
_cell_angle_alpha   90.00000000
_cell_angle_beta   90.00000000
_cell_angle_gamma   147.48557316
_symmetry_Int_Tables_number   1
_chemical_formula_structural   CsCr(CuSe2)2
_chemical_formula_sum   'Cs2 Cr2 Cu4 Se8'
_cell_volume   432.45495551
_cell_formula_units_Z   2
loop_
 _symmetry_equiv_pos_site_id
 _symmetry_equiv_pos_as_xyz
  1  'x, y, z'
loop_
 _atom_site_type_symbol
 _atom_site_label
 _atom_site_symmetry_multiplicity
 _atom_site_fract_x
 _atom_site_fract_y
 _atom_site_fract_z
 _atom_site_occupancy
  Cs  Cs0  1  0.175026  0.541655  0.750000  1
  Cs  Cs1  1  0.541655  0.175026  0.250000  1
  Cr  Cr2  1  0.708459  0.497847  0.750000  1
  Cr  Cr3  1  0.497847  0.708459  0.250000  1
  Cu  Cu4  1  0.619557  0.619557  0.500000  1
  Cu  Cu5  1  0.998713  0.206892  0.250000  1
  Cu  Cu6  1  0.206892  0.998713  0.750000  1
  Cu  Cu7  1  0.619557  0.619557  0.000000  1
  Se  Se8  1  0.733037  0.944739  0.008667  1
  Se  Se9  1  0.373731  0.360958  0.750000  1
  Se  Se10  1  0.360958  0.373731  0.250000  1
  Se  Se11  1  0.944739  0.733037  0.508667  1
  Se  Se12  1  0.567140  0.166714  0.750000  1
  Se  Se13  1  0.944739  0.733037  0.991333  1
  Se  Se14  1  0.166714  0.567140  0.250000  1
  Se  Se15  1  0.733037  0.944739  0.491333  1
