# generated using pymatgen
data_YbSm6RhCl12
_symmetry_space_group_name_H-M   'P 1'
_cell_length_a   8.96662959
_cell_length_b   8.96662903
_cell_length_c   8.96662800
_cell_angle_alpha   107.08213393
_cell_angle_beta   107.08212615
_cell_angle_gamma   107.08211997
_symmetry_Int_Tables_number   1
_chemical_formula_structural   YbSm6RhCl12
_chemical_formula_sum   'Yb1 Sm6 Rh1 Cl12'
_cell_volume   599.03962471
_cell_formula_units_Z   1
loop_
 _symmetry_equiv_pos_site_id
 _symmetry_equiv_pos_as_xyz
  1  'x, y, z'
loop_
 _atom_site_type_symbol
 _atom_site_label
 _atom_site_symmetry_multiplicity
 _atom_site_fract_x
 _atom_site_fract_y
 _atom_site_fract_z
 _atom_site_occupancy
  Yb  Yb0  1  0.500000  0.500000  0.500000  1
  Sm  Sm1  1  0.889368  0.673037  0.975450  1
  Sm  Sm2  1  0.975450  0.889368  0.673037  1
  Sm  Sm3  1  0.673037  0.975450  0.889368  1
  Sm  Sm4  1  0.110632  0.326963  0.024550  1
  Sm  Sm5  1  0.024550  0.110632  0.326963  1
  Sm  Sm6  1  0.326963  0.024550  0.110632  1
  Rh  Rh7  1  0.000000  0.000000  0.000000  1
  Cl  Cl8  1  0.621590  0.831095  0.540760  1
  Cl  Cl9  1  0.540760  0.621590  0.831095  1
  Cl  Cl10  1  0.831095  0.540760  0.621590  1
  Cl  Cl11  1  0.378410  0.168905  0.459240  1
  Cl  Cl12  1  0.459240  0.378410  0.168905  1
  Cl  Cl13  1  0.168905  0.459240  0.378410  1
  Cl  Cl14  1  0.684089  0.072200  0.219604  1
  Cl  Cl15  1  0.219604  0.684089  0.072200  1
  Cl  Cl16  1  0.072200  0.219604  0.684089  1
  Cl  Cl17  1  0.315911  0.927800  0.780396  1
  Cl  Cl18  1  0.780396  0.315911  0.927800  1
  Cl  Cl19  1  0.927800  0.780396  0.315911  1
