# generated using pymatgen
data_Nb3AlGaB4MoRu10
_symmetry_space_group_name_H-M   'P 1'
_cell_length_a   9.33745700
_cell_length_b   9.33745700
_cell_length_c   2.99931000
_cell_angle_alpha   90.00000000
_cell_angle_beta   90.00000000
_cell_angle_gamma   90.00000000
_symmetry_Int_Tables_number   1
_chemical_formula_structural   Nb3AlGaB4MoRu10
_chemical_formula_sum   'Nb3 Al1 Ga1 B4 Mo1 Ru10'
_cell_volume   261.50414989
_cell_formula_units_Z   1
loop_
 _symmetry_equiv_pos_site_id
 _symmetry_equiv_pos_as_xyz
  1  'x, y, z'
loop_
 _atom_site_type_symbol
 _atom_site_label
 _atom_site_symmetry_multiplicity
 _atom_site_fract_x
 _atom_site_fract_y
 _atom_site_fract_z
 _atom_site_occupancy
  Nb  Nb0  1  0.175758  0.320844  0.000000  1
  Nb  Nb1  1  0.320682  0.824809  0.000000  1
  Nb  Nb2  1  0.678341  0.176266  0.000000  1
  Al  Al3  1  0.000710  0.001159  0.000000  1
  Ga  Ga4  1  0.499037  0.499472  0.000000  1
  B  B5  1  0.625522  0.875187  0.000000  1
  B  B6  1  0.375154  0.124058  0.000000  1
  B  B7  1  0.124778  0.624831  0.000000  1
  B  B8  1  0.875908  0.374430  0.000000  1
  Mo  Mo9  1  0.823404  0.679112  0.000000  1
  Ru  Ru10  1  0.572919  0.713716  0.500000  1
  Ru  Ru11  1  0.432651  0.283914  0.500000  1
  Ru  Ru12  1  0.063150  0.783438  0.500000  1
  Ru  Ru13  1  0.930676  0.215852  0.500000  1
  Ru  Ru14  1  0.283962  0.569082  0.500000  1
  Ru  Ru15  1  0.716892  0.437340  0.500000  1
  Ru  Ru16  1  0.215889  0.067404  0.500000  1
  Ru  Ru17  1  0.786499  0.927111  0.500000  1
  Ru  Ru18  1  0.501070  0.999039  0.500000  1
  Ru  Ru19  1  0.996999  0.502937  0.500000  1
