# generated using pymatgen
data_V5Ga(Tc2W)6
_symmetry_space_group_name_H-M   'P 1'
_cell_length_a   4.36596300
_cell_length_b   6.18299600
_cell_length_c   13.13627900
_cell_angle_alpha   90.00001363
_cell_angle_beta   90.00078188
_cell_angle_gamma   90.00002239
_symmetry_Int_Tables_number   1
_chemical_formula_structural   V5Ga(Tc2W)6
_chemical_formula_sum   'V5 Ga1 Tc12 W6'
_cell_volume   354.61032798
_cell_formula_units_Z   1
loop_
 _symmetry_equiv_pos_site_id
 _symmetry_equiv_pos_as_xyz
  1  'x, y, z'
loop_
 _atom_site_type_symbol
 _atom_site_label
 _atom_site_symmetry_multiplicity
 _atom_site_fract_x
 _atom_site_fract_y
 _atom_site_fract_z
 _atom_site_occupancy
  V  V0  1  0.999991  0.000000  0.998662  1
  V  V1  1  0.499773  0.500000  0.166451  1
  V  V2  1  0.999776  0.000000  0.333339  1
  V  V3  1  0.499996  0.500000  0.500208  1
  V  V4  1  0.000218  0.000000  0.667996  1
  Ga  Ga5  1  0.500231  0.500000  0.833337  1
  Tc  Tc6  1  0.499993  0.248799  0.002141  1
  Tc  Tc7  1  0.499993  0.751200  0.002142  1
  Tc  Tc8  1  0.999819  0.250610  0.167136  1
  Tc  Tc9  1  0.999820  0.749389  0.167136  1
  Tc  Tc10  1  0.499812  0.251235  0.333300  1
  Tc  Tc11  1  0.499812  0.748765  0.333300  1
  Tc  Tc12  1  0.000003  0.250473  0.499556  1
  Tc  Tc13  1  0.000004  0.749526  0.499556  1
  Tc  Tc14  1  0.500196  0.248691  0.664559  1
  Tc  Tc15  1  0.500196  0.751308  0.664559  1
  Tc  Tc16  1  0.000198  0.247156  0.833314  1
  Tc  Tc17  1  0.000198  0.752844  0.833314  1
  W  W18  1  0.999976  0.500000  0.998915  1
  W  W19  1  0.499790  0.000000  0.165896  1
  W  W20  1  0.999778  0.500000  0.333290  1
  W  W21  1  0.500005  0.000000  0.500812  1
  W  W22  1  0.000209  0.500000  0.667795  1
  W  W23  1  0.500215  0.000000  0.833283  1
