# generated using pymatgen
data_Pr3NdRe16Si7Ge
_symmetry_space_group_name_H-M   'P 1'
_cell_length_a   4.17452900
_cell_length_b   7.38113081
_cell_length_c   15.58534303
_cell_angle_alpha   89.99598323
_cell_angle_beta   90.00000000
_cell_angle_gamma   90.00000000
_symmetry_Int_Tables_number   1
_chemical_formula_structural   Pr3NdRe16Si7Ge
_chemical_formula_sum   'Pr3 Nd1 Re16 Si7 Ge1'
_cell_volume   480.22719360
_cell_formula_units_Z   1
loop_
 _symmetry_equiv_pos_site_id
 _symmetry_equiv_pos_as_xyz
  1  'x, y, z'
loop_
 _atom_site_type_symbol
 _atom_site_label
 _atom_site_symmetry_multiplicity
 _atom_site_fract_x
 _atom_site_fract_y
 _atom_site_fract_z
 _atom_site_occupancy
  Pr  Pr0  1  0.000000  0.578246  0.117894  1
  Pr  Pr1  1  0.500000  0.082149  0.380704  1
  Pr  Pr2  1  0.500000  0.922536  0.620303  1
  Nd  Nd3  1  0.000000  0.419693  0.881837  1
  Re  Re4  1  0.000000  0.136040  0.051810  1
  Re  Re5  1  0.000000  0.861372  0.947803  1
  Re  Re6  1  0.500000  0.633575  0.446292  1
  Re  Re7  1  0.500000  0.363768  0.552370  1
  Re  Re8  1  0.000000  0.731257  0.320019  1
  Re  Re9  1  0.000000  0.268017  0.680088  1
  Re  Re10  1  0.500000  0.231572  0.178303  1
  Re  Re11  1  0.500000  0.766217  0.821294  1
  Re  Re12  1  0.000000  0.432097  0.417820  1
  Re  Re13  1  0.000000  0.565231  0.581590  1
  Re  Re14  1  0.500000  0.932251  0.081358  1
  Re  Re15  1  0.500000  0.065733  0.918496  1
  Re  Re16  1  0.000000  0.989958  0.205953  1
  Re  Re17  1  0.000000  0.008120  0.794128  1
  Re  Re18  1  0.500000  0.489746  0.292711  1
  Re  Re19  1  0.500000  0.508054  0.706797  1
  Si  Si20  1  0.000000  0.180003  0.525679  1
  Si  Si21  1  0.500000  0.325560  0.023939  1
  Si  Si22  1  0.500000  0.672232  0.975484  1
  Si  Si23  1  0.000000  0.292757  0.272352  1
  Si  Si24  1  0.000000  0.705471  0.727096  1
  Si  Si25  1  0.500000  0.792052  0.226465  1
  Si  Si26  1  0.500000  0.207136  0.774239  1
  Ge  Ge27  1  0.000000  0.839157  0.477179  1
