# generated using pymatgen
data_YbDy3(Tm3Pt4)2
_symmetry_space_group_name_H-M   'P 1'
_cell_length_a   7.41125100
_cell_length_b   7.50760018
_cell_length_c   14.69151334
_cell_angle_alpha   89.97501830
_cell_angle_beta   90.00000000
_cell_angle_gamma   90.00000000
_symmetry_Int_Tables_number   1
_chemical_formula_structural   YbDy3(Tm3Pt4)2
_chemical_formula_sum   'Yb2 Dy6 Tm12 Pt16'
_cell_volume   817.44614618
_cell_formula_units_Z   2
loop_
 _symmetry_equiv_pos_site_id
 _symmetry_equiv_pos_as_xyz
  1  'x, y, z'
loop_
 _atom_site_type_symbol
 _atom_site_label
 _atom_site_symmetry_multiplicity
 _atom_site_fract_x
 _atom_site_fract_y
 _atom_site_fract_z
 _atom_site_occupancy
  Yb  Yb0  1  0.481817  0.677036  0.595297  1
  Yb  Yb1  1  0.981817  0.822964  0.904703  1
  Dy  Dy2  1  0.516918  0.322299  0.094314  1
  Dy  Dy3  1  0.016918  0.177701  0.405686  1
  Dy  Dy4  1  0.517666  0.322634  0.404103  1
  Dy  Dy5  1  0.017666  0.177366  0.095897  1
  Dy  Dy6  1  0.480713  0.676272  0.904449  1
  Dy  Dy7  1  0.980713  0.823728  0.595551  1
  Tm  Tm8  1  0.634887  0.167458  0.621526  1
  Tm  Tm9  1  0.134887  0.332542  0.878474  1
  Tm  Tm10  1  0.363100  0.831464  0.122130  1
  Tm  Tm11  1  0.863100  0.668536  0.377870  1
  Tm  Tm12  1  0.364350  0.831542  0.379578  1
  Tm  Tm13  1  0.864350  0.668458  0.120422  1
  Tm  Tm14  1  0.638834  0.164848  0.877971  1
  Tm  Tm15  1  0.138834  0.335152  0.622029  1
  Tm  Tm16  1  0.797969  0.510965  0.749355  1
  Tm  Tm17  1  0.297969  0.989035  0.750645  1
  Tm  Tm18  1  0.200794  0.490610  0.250403  1
  Tm  Tm19  1  0.700794  0.009390  0.249597  1
  Pt  Pt20  1  0.697197  0.973091  0.457082  1
  Pt  Pt21  1  0.197197  0.526909  0.042918  1
  Pt  Pt22  1  0.312288  0.036828  0.959648  1
  Pt  Pt23  1  0.812288  0.463172  0.540352  1
  Pt  Pt24  1  0.299738  0.034491  0.541745  1
  Pt  Pt25  1  0.799738  0.465509  0.958255  1
  Pt  Pt26  1  0.690868  0.972497  0.045696  1
  Pt  Pt27  1  0.190868  0.527503  0.454304  1
  Pt  Pt28  1  0.433579  0.376552  0.752444  1
  Pt  Pt29  1  0.933579  0.123448  0.747556  1
  Pt  Pt30  1  0.568162  0.620116  0.249970  1
  Pt  Pt31  1  0.068162  0.879884  0.250030  1
  Pt  Pt32  1  0.663753  0.863322  0.751164  1
  Pt  Pt33  1  0.163753  0.636678  0.748836  1
  Pt  Pt34  1  0.337367  0.139508  0.250448  1
  Pt  Pt35  1  0.837367  0.360492  0.249552  1
