# generated using pymatgen
data_Sr4GaPt5
_symmetry_space_group_name_H-M   'P 1'
_cell_length_a   5.90838640
_cell_length_b   5.90838627
_cell_length_c   8.09200778
_cell_angle_alpha   91.19470945
_cell_angle_beta   88.80528880
_cell_angle_gamma   121.73858037
_symmetry_Int_Tables_number   1
_chemical_formula_structural   Sr4GaPt5
_chemical_formula_sum   'Sr4 Ga1 Pt5'
_cell_volume   240.17218677
_cell_formula_units_Z   1
loop_
 _symmetry_equiv_pos_site_id
 _symmetry_equiv_pos_as_xyz
  1  'x, y, z'
loop_
 _atom_site_type_symbol
 _atom_site_label
 _atom_site_symmetry_multiplicity
 _atom_site_fract_x
 _atom_site_fract_y
 _atom_site_fract_z
 _atom_site_occupancy
  Sr  Sr0  1  0.162563  0.837435  0.106433  1
  Sr  Sr1  1  0.658734  0.341264  0.415211  1
  Sr  Sr2  1  0.341264  0.658734  0.584789  1
  Sr  Sr3  1  0.837435  0.162563  0.893567  1
  Ga  Ga4  1  0.499999  0.499999  0.000000  1
  Pt  Pt5  1  0.159662  0.332855  0.236260  1
  Pt  Pt6  1  0.667145  0.840338  0.236260  1
  Pt  Pt7  1  0.000000  0.000000  0.500000  1
  Pt  Pt8  1  0.332855  0.159662  0.763740  1
  Pt  Pt9  1  0.840338  0.667145  0.763740  1
