# generated using pymatgen
data_Y8In2IrRh
_symmetry_space_group_name_H-M   'P 1'
_cell_length_a   9.72537624
_cell_length_b   9.70534555
_cell_length_c   9.70534402
_cell_angle_alpha   59.88235211
_cell_angle_beta   59.93170411
_cell_angle_gamma   59.93170421
_symmetry_Int_Tables_number   1
_chemical_formula_structural   Y8In2IrRh
_chemical_formula_sum   'Y16 In4 Ir2 Rh2'
_cell_volume   646.51324664
_cell_formula_units_Z   2
loop_
 _symmetry_equiv_pos_site_id
 _symmetry_equiv_pos_as_xyz
  1  'x, y, z'
loop_
 _atom_site_type_symbol
 _atom_site_label
 _atom_site_symmetry_multiplicity
 _atom_site_fract_x
 _atom_site_fract_y
 _atom_site_fract_z
 _atom_site_occupancy
  Y  Y0  1  0.690332  0.309668  0.309668  1
  Y  Y1  1  0.690441  0.690419  0.310325  1
  Y  Y2  1  0.308815  0.690419  0.310325  1
  Y  Y3  1  0.938635  0.939573  0.560740  1
  Y  Y4  1  0.150479  0.149345  0.549695  1
  Y  Y5  1  0.561051  0.939573  0.560740  1
  Y  Y6  1  0.151159  0.150439  0.150439  1
  Y  Y7  1  0.308815  0.310325  0.690419  1
  Y  Y8  1  0.940463  0.559537  0.559537  1
  Y  Y9  1  0.561051  0.560740  0.939573  1
  Y  Y10  1  0.562307  0.937693  0.937693  1
  Y  Y11  1  0.938635  0.560740  0.939573  1
  Y  Y12  1  0.150479  0.549695  0.149345  1
  Y  Y13  1  0.309597  0.690403  0.690403  1
  Y  Y14  1  0.690441  0.310325  0.690419  1
  Y  Y15  1  0.547962  0.150439  0.150439  1
  In  In16  1  0.916657  0.917271  0.249414  1
  In  In17  1  0.250192  0.916861  0.916861  1
  In  In18  1  0.916657  0.249414  0.917271  1
  In  In19  1  0.916084  0.916861  0.916861  1
  Ir  Ir20  1  0.358057  0.358374  0.358374  1
  Ir  Ir21  1  0.925195  0.358374  0.358374  1
  Rh  Rh22  1  0.358247  0.358837  0.924670  1
  Rh  Rh23  1  0.358247  0.924670  0.358837  1
