# generated using pymatgen
data_Y20Ir9OsRu2
_symmetry_space_group_name_H-M   'P 1'
_cell_length_a   10.88882200
_cell_length_b   10.88882200
_cell_length_c   6.43434200
_cell_angle_alpha   90.00000000
_cell_angle_beta   90.00000000
_cell_angle_gamma   90.00000000
_symmetry_Int_Tables_number   1
_chemical_formula_structural   Y20Ir9OsRu2
_chemical_formula_sum   'Y20 Ir9 Os1 Ru2'
_cell_volume   762.89705394
_cell_formula_units_Z   1
loop_
 _symmetry_equiv_pos_site_id
 _symmetry_equiv_pos_as_xyz
  1  'x, y, z'
loop_
 _atom_site_type_symbol
 _atom_site_label
 _atom_site_symmetry_multiplicity
 _atom_site_fract_x
 _atom_site_fract_y
 _atom_site_fract_z
 _atom_site_occupancy
  Y  Y0  1  0.293925  0.086607  0.378316  1
  Y  Y1  1  0.293853  0.913647  0.877627  1
  Y  Y2  1  0.706147  0.086353  0.877627  1
  Y  Y3  1  0.706075  0.913393  0.378316  1
  Y  Y4  1  0.586353  0.793853  0.877627  1
  Y  Y5  1  0.586607  0.206075  0.378316  1
  Y  Y6  1  0.413393  0.793925  0.378316  1
  Y  Y7  1  0.413647  0.206147  0.877627  1
  Y  Y8  1  0.207936  0.412751  0.623263  1
  Y  Y9  1  0.207632  0.587310  0.120164  1
  Y  Y10  1  0.792368  0.412690  0.120164  1
  Y  Y11  1  0.792064  0.587249  0.623263  1
  Y  Y12  1  0.912690  0.707632  0.120164  1
  Y  Y13  1  0.912751  0.292064  0.623263  1
  Y  Y14  1  0.087249  0.707936  0.623263  1
  Y  Y15  1  0.087310  0.292368  0.120164  1
  Y  Y16  1  0.000000  0.000000  0.499596  1
  Y  Y17  1  0.000000  0.000000  0.999873  1
  Y  Y18  1  0.500000  0.500000  0.999873  1
  Y  Y19  1  0.500000  0.500000  0.499596  1
  Ir  Ir20  1  0.847931  0.153423  0.250149  1
  Ir  Ir21  1  0.847750  0.846716  0.749983  1
  Ir  Ir22  1  0.152250  0.153284  0.749983  1
  Ir  Ir23  1  0.152069  0.846577  0.250149  1
  Ir  Ir24  1  0.653284  0.347750  0.749983  1
  Ir  Ir25  1  0.653423  0.652069  0.250149  1
  Ir  Ir26  1  0.346577  0.347931  0.250149  1
  Ir  Ir27  1  0.346716  0.652250  0.749983  1
  Ir  Ir28  1  0.000000  0.500000  0.376808  1
  Os  Os29  1  0.500000  0.000000  0.625435  1
  Ru  Ru30  1  0.500000  0.000000  0.124564  1
  Ru  Ru31  1  0.000000  0.500000  0.876242  1
