# generated using pymatgen
data_Ho2ErIn3RhAu2
_symmetry_space_group_name_H-M   'P 1'
_cell_length_a   7.75278491
_cell_length_b   7.73767378
_cell_length_c   3.87448500
_cell_angle_alpha   90.00000000
_cell_angle_beta   90.00000000
_cell_angle_gamma   119.93554230
_symmetry_Int_Tables_number   1
_chemical_formula_structural   Ho2ErIn3RhAu2
_chemical_formula_sum   'Ho2 Er1 In3 Rh1 Au2'
_cell_volume   201.41623926
_cell_formula_units_Z   1
loop_
 _symmetry_equiv_pos_site_id
 _symmetry_equiv_pos_as_xyz
  1  'x, y, z'
loop_
 _atom_site_type_symbol
 _atom_site_label
 _atom_site_symmetry_multiplicity
 _atom_site_fract_x
 _atom_site_fract_y
 _atom_site_fract_z
 _atom_site_occupancy
  Ho  Ho0  1  0.599090  0.999936  0.500000  1
  Ho  Ho1  1  0.400910  0.400847  0.500000  1
  Er  Er2  1  0.000000  0.599319  0.500000  1
  In  In3  1  0.000000  0.254476  0.000000  1
  In  In4  1  0.745428  0.745364  0.000000  1
  In  In5  1  0.254572  0.999936  0.000000  1
  Rh  Rh6  1  0.000000  0.999865  0.500000  1
  Au  Au7  1  0.667640  0.333948  0.000000  1
  Au  Au8  1  0.332360  0.666309  0.000000  1
