# generated using pymatgen
data_Na2Mn(TcO4)6
_symmetry_space_group_name_H-M   'P 1'
_cell_length_a   10.15291948
_cell_length_b   10.15291991
_cell_length_c   10.15292044
_cell_angle_alpha   55.33701514
_cell_angle_beta   55.33701977
_cell_angle_gamma   55.33702196
_symmetry_Int_Tables_number   1
_chemical_formula_structural   Na2Mn(TcO4)6
_chemical_formula_sum   'Na2 Mn1 Tc6 O24'
_cell_volume   659.86712115
_cell_formula_units_Z   1
loop_
 _symmetry_equiv_pos_site_id
 _symmetry_equiv_pos_as_xyz
  1  'x, y, z'
loop_
 _atom_site_type_symbol
 _atom_site_label
 _atom_site_symmetry_multiplicity
 _atom_site_fract_x
 _atom_site_fract_y
 _atom_site_fract_z
 _atom_site_occupancy
  Na  Na0  1  0.358331  0.358331  0.358331  1
  Na  Na1  1  0.637809  0.637809  0.637809  1
  Mn  Mn2  1  0.846878  0.846878  0.846878  1
  Tc  Tc3  1  0.033907  0.486003  0.746682  1
  Tc  Tc4  1  0.486003  0.746682  0.033907  1
  Tc  Tc5  1  0.746682  0.033907  0.486003  1
  Tc  Tc6  1  0.216279  0.955488  0.563430  1
  Tc  Tc7  1  0.563430  0.216279  0.955488  1
  Tc  Tc8  1  0.955488  0.563430  0.216279  1
  O  O9  1  0.122981  0.530522  0.249276  1
  O  O10  1  0.249276  0.122981  0.530522  1
  O  O11  1  0.984510  0.353431  0.957411  1
  O  O12  1  0.530522  0.249276  0.122981  1
  O  O13  1  0.998482  0.696185  0.719983  1
  O  O14  1  0.244748  0.392088  0.630217  1
  O  O15  1  0.392088  0.630217  0.244748  1
  O  O16  1  0.353431  0.957411  0.984510  1
  O  O17  1  0.630217  0.244748  0.392088  1
  O  O18  1  0.993783  0.977474  0.698931  1
  O  O19  1  0.267309  0.961993  0.368243  1
  O  O20  1  0.368243  0.267309  0.961993  1
  O  O21  1  0.696185  0.719983  0.998482  1
  O  O22  1  0.719983  0.998482  0.696185  1
  O  O23  1  0.957411  0.984510  0.353431  1
  O  O24  1  0.350875  0.762268  0.660861  1
  O  O25  1  0.698931  0.993783  0.977474  1
  O  O26  1  0.660861  0.350875  0.762268  1
  O  O27  1  0.762268  0.660861  0.350875  1
  O  O28  1  0.961993  0.368243  0.267309  1
  O  O29  1  0.514858  0.666687  0.904433  1
  O  O30  1  0.977474  0.698931  0.993783  1
  O  O31  1  0.666687  0.904433  0.514858  1
  O  O32  1  0.904433  0.514858  0.666687  1
