# generated using pymatgen
data_ErNiBC
_symmetry_space_group_name_H-M   'P 1'
_cell_length_a   3.54291200
_cell_length_b   3.54291200
_cell_length_c   7.51327900
_cell_angle_alpha   90.00000000
_cell_angle_beta   90.00000000
_cell_angle_gamma   90.00000000
_symmetry_Int_Tables_number   1
_chemical_formula_structural   ErNiBC
_chemical_formula_sum   'Er2 Ni2 B2 C2'
_cell_volume   94.30837180
_cell_formula_units_Z   2
loop_
 _symmetry_equiv_pos_site_id
 _symmetry_equiv_pos_as_xyz
  1  'x, y, z'
loop_
 _atom_site_type_symbol
 _atom_site_label
 _atom_site_symmetry_multiplicity
 _atom_site_fract_x
 _atom_site_fract_y
 _atom_site_fract_z
 _atom_site_occupancy
  Er  Er0  1  0.500000  0.000000  0.835662  1
  Er  Er1  1  0.000000  0.500000  0.164338  1
  Ni  Ni2  1  0.500000  0.500000  0.500000  1
  Ni  Ni3  1  0.000000  0.000000  0.500000  1
  B  B4  1  0.000000  0.500000  0.647515  1
  B  B5  1  0.500000  0.000000  0.352485  1
  C  C6  1  0.500000  0.000000  0.154050  1
  C  C7  1  0.000000  0.500000  0.845950  1
