# generated using pymatgen
data_Ca2Tc6P7Ir6
_symmetry_space_group_name_H-M   'P 1'
_cell_length_a   9.48095500
_cell_length_b   9.48095535
_cell_length_c   3.98448800
_cell_angle_alpha   90.00000000
_cell_angle_beta   90.00000000
_cell_angle_gamma   120.00000226
_symmetry_Int_Tables_number   1
_chemical_formula_structural   Ca2Tc6P7Ir6
_chemical_formula_sum   'Ca2 Tc6 P7 Ir6'
_cell_volume   310.17538622
_cell_formula_units_Z   1
loop_
 _symmetry_equiv_pos_site_id
 _symmetry_equiv_pos_as_xyz
  1  'x, y, z'
loop_
 _atom_site_type_symbol
 _atom_site_label
 _atom_site_symmetry_multiplicity
 _atom_site_fract_x
 _atom_site_fract_y
 _atom_site_fract_z
 _atom_site_occupancy
  Ca  Ca0  1  0.333333  0.666667  0.000000  1
  Ca  Ca1  1  0.000000  0.000000  0.500000  1
  Tc  Tc2  1  0.556097  0.060870  0.000000  1
  Tc  Tc3  1  0.939130  0.495228  0.000000  1
  Tc  Tc4  1  0.504772  0.443903  0.000000  1
  Tc  Tc5  1  0.789257  0.242018  0.500000  1
  Tc  Tc6  1  0.757982  0.547240  0.500000  1
  Tc  Tc7  1  0.452760  0.210743  0.500000  1
  P  P8  1  0.784580  0.034609  0.000000  1
  P  P9  1  0.965391  0.749970  0.000000  1
  P  P10  1  0.250030  0.215420  0.000000  1
  P  P11  1  0.387767  0.935243  0.500000  1
  P  P12  1  0.064757  0.452525  0.500000  1
  P  P13  1  0.547475  0.612233  0.500000  1
  P  P14  1  0.666667  0.333333  0.000000  1
  Ir  Ir15  1  0.032545  0.266466  0.000000  1
  Ir  Ir16  1  0.733534  0.766078  0.000000  1
  Ir  Ir17  1  0.233922  0.967455  0.000000  1
  Ir  Ir18  1  0.613575  0.887755  0.500000  1
  Ir  Ir19  1  0.112245  0.725820  0.500000  1
  Ir  Ir20  1  0.274180  0.386425  0.500000  1
