# generated using pymatgen
data_Tb5Dy2HoIn8
_symmetry_space_group_name_H-M   'P 1'
_cell_length_a   6.52315352
_cell_length_b   6.52315402
_cell_length_c   10.39127200
_cell_angle_alpha   90.00000000
_cell_angle_beta   90.00000000
_cell_angle_gamma   104.39206808
_symmetry_Int_Tables_number   1
_chemical_formula_structural   Tb5Dy2HoIn8
_chemical_formula_sum   'Tb5 Dy2 Ho1 In8'
_cell_volume   428.28838097
_cell_formula_units_Z   1
loop_
 _symmetry_equiv_pos_site_id
 _symmetry_equiv_pos_as_xyz
  1  'x, y, z'
loop_
 _atom_site_type_symbol
 _atom_site_label
 _atom_site_symmetry_multiplicity
 _atom_site_fract_x
 _atom_site_fract_y
 _atom_site_fract_z
 _atom_site_occupancy
  Tb  Tb0  1  0.481680  0.481680  0.750000  1
  Tb  Tb1  1  0.247959  0.752376  0.499745  1
  Tb  Tb2  1  0.247959  0.752376  0.000255  1
  Tb  Tb3  1  0.752376  0.247959  0.499745  1
  Tb  Tb4  1  0.752376  0.247959  0.000255  1
  Dy  Dy5  1  0.985402  0.985402  0.250000  1
  Dy  Dy6  1  0.014029  0.014029  0.750000  1
  Ho  Ho7  1  0.517867  0.517867  0.250000  1
  In  In8  1  0.252824  0.252824  0.010763  1
  In  In9  1  0.747250  0.747250  0.989913  1
  In  In10  1  0.252824  0.252824  0.489237  1
  In  In11  1  0.747250  0.747250  0.510087  1
  In  In12  1  0.490254  0.011596  0.250000  1
  In  In13  1  0.988470  0.509882  0.750000  1
  In  In14  1  0.509882  0.988470  0.750000  1
  In  In15  1  0.011596  0.490254  0.250000  1
