# generated using pymatgen
data_Th4Ga16Rh3
_symmetry_space_group_name_H-M   'P 1'
_cell_length_a   6.29013400
_cell_length_b   6.29013400
_cell_length_c   11.36712400
_cell_angle_alpha   90.00000000
_cell_angle_beta   90.00000000
_cell_angle_gamma   90.00000000
_symmetry_Int_Tables_number   1
_chemical_formula_structural   Th4Ga16Rh3
_chemical_formula_sum   'Th4 Ga16 Rh3'
_cell_volume   449.74919264
_cell_formula_units_Z   1
loop_
 _symmetry_equiv_pos_site_id
 _symmetry_equiv_pos_as_xyz
  1  'x, y, z'
loop_
 _atom_site_type_symbol
 _atom_site_label
 _atom_site_symmetry_multiplicity
 _atom_site_fract_x
 _atom_site_fract_y
 _atom_site_fract_z
 _atom_site_occupancy
  Th  Th0  1  0.000000  0.500000  0.194959  1
  Th  Th1  1  0.000000  0.500000  0.805041  1
  Th  Th2  1  0.500000  0.000000  0.805041  1
  Th  Th3  1  0.500000  0.000000  0.194959  1
  Ga  Ga4  1  0.000000  0.000000  0.227658  1
  Ga  Ga5  1  0.000000  0.000000  0.772342  1
  Ga  Ga6  1  0.500000  0.500000  0.197954  1
  Ga  Ga7  1  0.500000  0.500000  0.802046  1
  Ga  Ga8  1  0.286891  0.286891  0.000000  1
  Ga  Ga9  1  0.713109  0.713109  0.000000  1
  Ga  Ga10  1  0.286891  0.713109  0.000000  1
  Ga  Ga11  1  0.713109  0.286891  0.000000  1
  Ga  Ga12  1  0.250164  0.250164  0.383624  1
  Ga  Ga13  1  0.749836  0.749836  0.383624  1
  Ga  Ga14  1  0.250164  0.749836  0.616376  1
  Ga  Ga15  1  0.749836  0.250164  0.616376  1
  Ga  Ga16  1  0.749836  0.749836  0.616376  1
  Ga  Ga17  1  0.250164  0.250164  0.616376  1
  Ga  Ga18  1  0.250164  0.749836  0.383624  1
  Ga  Ga19  1  0.749836  0.250164  0.383624  1
  Rh  Rh20  1  0.000000  0.500000  0.500000  1
  Rh  Rh21  1  0.500000  0.000000  0.500000  1
  Rh  Rh22  1  0.000000  0.000000  0.000000  1
