# generated using pymatgen
data_Yb(Ni2Sn)2
_symmetry_space_group_name_H-M   'P 1'
_cell_length_a   6.68152425
_cell_length_b   6.68152417
_cell_length_c   6.68152412
_cell_angle_alpha   107.04611402
_cell_angle_beta   110.69721039
_cell_angle_gamma   110.69721681
_symmetry_Int_Tables_number   1
_chemical_formula_structural   Yb(Ni2Sn)2
_chemical_formula_sum   'Yb2 Ni8 Sn4'
_cell_volume   229.31049207
_cell_formula_units_Z   2
loop_
 _symmetry_equiv_pos_site_id
 _symmetry_equiv_pos_as_xyz
  1  'x, y, z'
loop_
 _atom_site_type_symbol
 _atom_site_label
 _atom_site_symmetry_multiplicity
 _atom_site_fract_x
 _atom_site_fract_y
 _atom_site_fract_z
 _atom_site_occupancy
  Yb  Yb0  1  0.500000  0.000000  0.500000  1
  Yb  Yb1  1  0.500000  0.500000  0.000000  1
  Ni  Ni2  1  0.716216  0.441421  0.440712  1
  Ni  Ni3  1  0.283784  0.724496  0.725205  1
  Ni  Ni4  1  0.000709  0.941421  0.225205  1
  Ni  Ni5  1  0.999291  0.224496  0.940712  1
  Ni  Ni6  1  0.999291  0.274795  0.558579  1
  Ni  Ni7  1  0.000709  0.559288  0.275504  1
  Ni  Ni8  1  0.283784  0.059288  0.058579  1
  Ni  Ni9  1  0.716216  0.774795  0.775504  1
  Sn  Sn10  1  0.314342  0.407171  0.407171  1
  Sn  Sn11  1  0.685658  0.092829  0.092829  1
  Sn  Sn12  1  0.000000  0.907171  0.592829  1
  Sn  Sn13  1  0.000000  0.592829  0.907171  1
