# generated using pymatgen
data_Tm3ScFe3Os5
_symmetry_space_group_name_H-M   'P 1'
_cell_length_a   5.17011261
_cell_length_b   5.17789745
_cell_length_c   8.68055992
_cell_angle_alpha   89.99999910
_cell_angle_beta   89.90543634
_cell_angle_gamma   120.04983360
_symmetry_Int_Tables_number   1
_chemical_formula_structural   Tm3ScFe3Os5
_chemical_formula_sum   'Tm3 Sc1 Fe3 Os5'
_cell_volume   201.14661381
_cell_formula_units_Z   1
loop_
 _symmetry_equiv_pos_site_id
 _symmetry_equiv_pos_as_xyz
  1  'x, y, z'
loop_
 _atom_site_type_symbol
 _atom_site_label
 _atom_site_symmetry_multiplicity
 _atom_site_fract_x
 _atom_site_fract_y
 _atom_site_fract_z
 _atom_site_occupancy
  Tm  Tm0  1  0.331504  0.665753  0.434641  1
  Tm  Tm1  1  0.662639  0.331318  0.564826  1
  Tm  Tm2  1  0.662370  0.331184  0.937568  1
  Sc  Sc3  1  0.330776  0.665389  0.064440  1
  Fe  Fe4  1  0.174842  0.343831  0.751758  1
  Fe  Fe5  1  0.174842  0.831009  0.751758  1
  Fe  Fe6  1  0.339023  0.169512  0.247932  1
  Os  Os7  1  0.834438  0.661038  0.247191  1
  Os  Os8  1  0.659270  0.829634  0.752376  1
  Os  Os9  1  0.998423  0.999211  0.995124  1
  Os  Os10  1  0.834438  0.173399  0.247191  1
  Os  Os11  1  0.997436  0.998718  0.505194  1
