# generated using pymatgen
data_Th8In4IrAu7
_symmetry_space_group_name_H-M   'P 1'
_cell_length_a   8.05726623
_cell_length_b   8.05726630
_cell_length_c   7.91749735
_cell_angle_alpha   90.08549980
_cell_angle_beta   90.08550002
_cell_angle_gamma   90.02376407
_symmetry_Int_Tables_number   1
_chemical_formula_structural   Th8In4IrAu7
_chemical_formula_sum   'Th8 In4 Ir1 Au7'
_cell_volume   513.99909377
_cell_formula_units_Z   1
loop_
 _symmetry_equiv_pos_site_id
 _symmetry_equiv_pos_as_xyz
  1  'x, y, z'
loop_
 _atom_site_type_symbol
 _atom_site_label
 _atom_site_symmetry_multiplicity
 _atom_site_fract_x
 _atom_site_fract_y
 _atom_site_fract_z
 _atom_site_occupancy
  Th  Th0  1  0.181612  0.181612  0.010931  1
  Th  Th1  1  0.830712  0.830712  0.997384  1
  Th  Th2  1  0.661269  0.324642  0.492764  1
  Th  Th3  1  0.324642  0.661269  0.492764  1
  Th  Th4  1  0.667920  0.320193  0.006587  1
  Th  Th5  1  0.320193  0.667920  0.006587  1
  Th  Th6  1  0.823406  0.823406  0.501470  1
  Th  Th7  1  0.185315  0.185315  0.491403  1
  In  In8  1  0.500504  0.000271  0.248689  1
  In  In9  1  0.497520  0.994930  0.750106  1
  In  In10  1  0.000271  0.500504  0.248689  1
  In  In11  1  0.994930  0.497520  0.750106  1
  Ir  Ir12  1  0.372655  0.372655  0.248104  1
  Au  Au13  1  0.627329  0.627329  0.755704  1
  Au  Au14  1  0.630884  0.630884  0.243133  1
  Au  Au15  1  0.875306  0.132048  0.744011  1
  Au  Au16  1  0.873478  0.126359  0.255727  1
  Au  Au17  1  0.373646  0.373646  0.756105  1
  Au  Au18  1  0.126359  0.873478  0.255727  1
  Au  Au19  1  0.132048  0.875306  0.744011  1
