# generated using pymatgen
data_Nd8Y11Si16Ag
_symmetry_space_group_name_H-M   'P 1'
_cell_length_a   7.77371408
_cell_length_b   7.77371408
_cell_length_c   14.26670757
_cell_angle_alpha   90.26513336
_cell_angle_beta   89.73486664
_cell_angle_gamma   90.09922346
_symmetry_Int_Tables_number   1
_chemical_formula_structural   Nd8Y11Si16Ag
_chemical_formula_sum   'Nd8 Y11 Si16 Ag1'
_cell_volume   862.12641244
_cell_formula_units_Z   1
loop_
 _symmetry_equiv_pos_site_id
 _symmetry_equiv_pos_as_xyz
  1  'x, y, z'
loop_
 _atom_site_type_symbol
 _atom_site_label
 _atom_site_symmetry_multiplicity
 _atom_site_fract_x
 _atom_site_fract_y
 _atom_site_fract_z
 _atom_site_occupancy
  Nd  Nd0  1  0.629547  0.998998  0.460191  1
  Nd  Nd1  1  0.363180  0.009630  0.956908  1
  Nd  Nd2  1  0.998998  0.629547  0.539809  1
  Nd  Nd3  1  0.489175  0.859563  0.211976  1
  Nd  Nd4  1  0.501329  0.137336  0.699768  1
  Nd  Nd5  1  0.859563  0.489175  0.788024  1
  Nd  Nd6  1  0.137336  0.501329  0.300232  1
  Nd  Nd7  1  0.009630  0.363180  0.043092  1
  Y  Y8  1  0.488241  0.368370  0.125716  1
  Y  Y9  1  0.003293  0.138601  0.620846  1
  Y  Y10  1  0.861711  0.010584  0.872119  1
  Y  Y11  1  0.138601  0.003293  0.379154  1
  Y  Y12  1  0.503270  0.628288  0.619524  1
  Y  Y13  1  0.368370  0.488241  0.874284  1
  Y  Y14  1  0.628288  0.503270  0.380476  1
  Y  Y15  1  0.010584  0.861711  0.127881  1
  Y  Y16  1  0.185090  0.812629  0.748694  1
  Y  Y17  1  0.812629  0.185090  0.251306  1
  Y  Y18  1  0.687110  0.687110  0.000000  1
  Si  Si19  1  0.285096  0.915293  0.562349  1
  Si  Si20  1  0.710682  0.067716  0.061561  1
  Si  Si21  1  0.915293  0.285096  0.437651  1
  Si  Si22  1  0.430422  0.211589  0.311272  1
  Si  Si23  1  0.569552  0.790763  0.807555  1
  Si  Si24  1  0.211589  0.430422  0.688728  1
  Si  Si25  1  0.790763  0.569552  0.192445  1
  Si  Si26  1  0.067716  0.710682  0.938439  1
  Si  Si27  1  0.794570  0.845035  0.685611  1
  Si  Si28  1  0.202193  0.156779  0.192290  1
  Si  Si29  1  0.845035  0.794570  0.314389  1
  Si  Si30  1  0.350856  0.718821  0.433274  1
  Si  Si31  1  0.657699  0.298743  0.941349  1
  Si  Si32  1  0.718821  0.350856  0.566726  1
  Si  Si33  1  0.298743  0.657699  0.058651  1
  Si  Si34  1  0.156779  0.202193  0.807710  1
  Ag  Ag35  1  0.318247  0.318247  0.500000  1
