# generated using pymatgen
data_Dy2Lu2OsI4
_symmetry_space_group_name_H-M   'P 1'
_cell_length_a   11.58911460
_cell_length_b   11.58911737
_cell_length_c   6.12618918
_cell_angle_alpha   90.01330157
_cell_angle_beta   90.01331253
_cell_angle_gamma   90.00351562
_symmetry_Int_Tables_number   1
_chemical_formula_structural   Dy2Lu2OsI4
_chemical_formula_sum   'Dy4 Lu4 Os2 I8'
_cell_volume   822.79377767
_cell_formula_units_Z   2
loop_
 _symmetry_equiv_pos_site_id
 _symmetry_equiv_pos_as_xyz
  1  'x, y, z'
loop_
 _atom_site_type_symbol
 _atom_site_label
 _atom_site_symmetry_multiplicity
 _atom_site_fract_x
 _atom_site_fract_y
 _atom_site_fract_z
 _atom_site_occupancy
  Dy  Dy0  1  0.921280  0.805387  0.000975  1
  Dy  Dy1  1  0.919827  0.194401  0.500827  1
  Dy  Dy2  1  0.194401  0.919827  0.000827  1
  Dy  Dy3  1  0.805387  0.921280  0.500975  1
  Lu  Lu4  1  0.813538  0.077008  0.002538  1
  Lu  Lu5  1  0.077008  0.813538  0.502538  1
  Lu  Lu6  1  0.078442  0.185963  0.002253  1
  Lu  Lu7  1  0.185963  0.078442  0.502253  1
  Os  Os8  1  0.999597  0.999698  0.251531  1
  Os  Os9  1  0.999698  0.999597  0.751531  1
  I  I10  1  0.652584  0.145804  0.490616  1
  I  I11  1  0.859408  0.653443  0.503459  1
  I  I12  1  0.344016  0.147417  0.993338  1
  I  I13  1  0.147417  0.344016  0.493338  1
  I  I14  1  0.653443  0.859408  0.003459  1
  I  I15  1  0.343654  0.858532  0.504462  1
  I  I16  1  0.145804  0.652584  0.990616  1
  I  I17  1  0.858532  0.343654  0.004462  1
