# generated using pymatgen
data_Ho7Hf(Si4W3)4
_symmetry_space_group_name_H-M   'P 1'
_cell_length_a   6.73395808
_cell_length_b   6.89924540
_cell_length_c   12.89131877
_cell_angle_alpha   89.85113140
_cell_angle_beta   90.01539308
_cell_angle_gamma   90.13022931
_symmetry_Int_Tables_number   1
_chemical_formula_structural   Ho7Hf(Si4W3)4
_chemical_formula_sum   'Ho7 Hf1 Si16 W12'
_cell_volume   598.91714547
_cell_formula_units_Z   1
loop_
 _symmetry_equiv_pos_site_id
 _symmetry_equiv_pos_as_xyz
  1  'x, y, z'
loop_
 _atom_site_type_symbol
 _atom_site_label
 _atom_site_symmetry_multiplicity
 _atom_site_fract_x
 _atom_site_fract_y
 _atom_site_fract_z
 _atom_site_occupancy
  Ho  Ho0  1  0.996575  0.167280  0.093577  1
  Ho  Ho1  1  0.003944  0.832570  0.905707  1
  Ho  Ho2  1  0.503906  0.667212  0.906839  1
  Ho  Ho3  1  0.004732  0.831901  0.592665  1
  Ho  Ho4  1  0.496682  0.331575  0.093503  1
  Ho  Ho5  1  0.996993  0.168308  0.407845  1
  Ho  Ho6  1  0.497068  0.333054  0.408165  1
  Hf  Hf7  1  0.506261  0.670943  0.597036  1
  Si  Si8  1  0.034779  0.129162  0.749349  1
  Si  Si9  1  0.963118  0.870820  0.250517  1
  Si  Si10  1  0.464082  0.627138  0.249780  1
  Si  Si11  1  0.535035  0.374273  0.748112  1
  Si  Si12  1  0.303895  0.864631  0.748625  1
  Si  Si13  1  0.697182  0.132932  0.250937  1
  Si  Si14  1  0.198338  0.364876  0.250437  1
  Si  Si15  1  0.799972  0.635407  0.749161  1
  Si  Si16  1  0.169648  0.461483  0.545673  1
  Si  Si17  1  0.835205  0.542542  0.456082  1
  Si  Si18  1  0.338337  0.955351  0.456165  1
  Si  Si19  1  0.838482  0.541733  0.046010  1
  Si  Si20  1  0.660343  0.039033  0.546051  1
  Si  Si21  1  0.160782  0.457891  0.952918  1
  Si  Si22  1  0.661073  0.041814  0.952484  1
  Si  Si23  1  0.338604  0.958721  0.046242  1
  W  W24  1  0.166314  0.503079  0.747028  1
  W  W25  1  0.835083  0.499726  0.251805  1
  W  W26  1  0.333865  0.998618  0.250542  1
  W  W27  1  0.665426  0.996536  0.747889  1
  W  W28  1  0.331955  0.163867  0.624682  1
  W  W29  1  0.664902  0.833338  0.377022  1
  W  W30  1  0.167808  0.663531  0.374934  1
  W  W31  1  0.666723  0.834490  0.125466  1
  W  W32  1  0.831351  0.339701  0.624869  1
  W  W33  1  0.332983  0.165508  0.873127  1
  W  W34  1  0.831388  0.337977  0.874074  1
  W  W35  1  0.167167  0.662980  0.124687  1
