# generated using pymatgen
data_Nd3YGa18(PtRh2)2
_symmetry_space_group_name_H-M   'P 1'
_cell_length_a   7.63398857
_cell_length_b   7.63966938
_cell_length_c   9.58259070
_cell_angle_alpha   89.98795554
_cell_angle_beta   89.95584782
_cell_angle_gamma   119.74939851
_symmetry_Int_Tables_number   1
_chemical_formula_structural   Nd3YGa18(PtRh2)2
_chemical_formula_sum   'Nd3 Y1 Ga18 Pt2 Rh4'
_cell_volume   485.21092661
_cell_formula_units_Z   1
loop_
 _symmetry_equiv_pos_site_id
 _symmetry_equiv_pos_as_xyz
  1  'x, y, z'
loop_
 _atom_site_type_symbol
 _atom_site_label
 _atom_site_symmetry_multiplicity
 _atom_site_fract_x
 _atom_site_fract_y
 _atom_site_fract_z
 _atom_site_occupancy
  Nd  Nd0  1  0.997496  0.667325  0.249639  1
  Nd  Nd1  1  0.002619  0.332639  0.750329  1
  Nd  Nd2  1  0.667331  0.997276  0.249643  1
  Y  Y3  1  0.332416  0.002595  0.750065  1
  Ga  Ga4  1  0.331991  0.330746  0.562427  1
  Ga  Ga5  1  0.668032  0.668027  0.438724  1
  Ga  Ga6  1  0.670270  0.670248  0.065594  1
  Ga  Ga7  1  0.329801  0.328474  0.933268  1
  Ga  Ga8  1  0.340860  0.543093  0.253852  1
  Ga  Ga9  1  0.658185  0.455564  0.746178  1
  Ga  Ga10  1  0.542877  0.340692  0.253863  1
  Ga  Ga11  1  0.456675  0.659857  0.746148  1
  Ga  Ga12  1  0.001994  0.330592  0.080766  1
  Ga  Ga13  1  0.999638  0.670956  0.918314  1
  Ga  Ga14  1  0.000721  0.667269  0.578261  1
  Ga  Ga15  1  0.334170  0.000592  0.423740  1
  Ga  Ga16  1  0.000769  0.334227  0.422683  1
  Ga  Ga17  1  0.664216  0.999244  0.578320  1
  Ga  Ga18  1  0.667935  0.998031  0.918336  1
  Ga  Ga19  1  0.330561  0.001819  0.079782  1
  Ga  Ga20  1  0.124603  0.124382  0.250724  1
  Ga  Ga21  1  0.876974  0.876129  0.749263  1
  Pt  Pt22  1  0.670538  0.329009  0.999464  1
  Pt  Pt23  1  0.329093  0.670954  0.999448  1
  Rh  Rh24  1  0.000348  0.000192  0.999333  1
  Rh  Rh25  1  0.000333  0.000226  0.500609  1
  Rh  Rh26  1  0.328883  0.671185  0.500642  1
  Rh  Rh27  1  0.670670  0.328658  0.500587  1
