# generated using pymatgen
data_Pr2Co17Si8Ir
_symmetry_space_group_name_H-M   'P 1'
_cell_length_a   7.98814018
_cell_length_b   8.05171283
_cell_length_c   8.01188787
_cell_angle_alpha   121.81066580
_cell_angle_beta   121.55573070
_cell_angle_gamma   87.16895808
_symmetry_Int_Tables_number   1
_chemical_formula_structural   Pr2Co17Si8Ir
_chemical_formula_sum   'Pr2 Co17 Si8 Ir1'
_cell_volume   354.43790204
_cell_formula_units_Z   1
loop_
 _symmetry_equiv_pos_site_id
 _symmetry_equiv_pos_as_xyz
  1  'x, y, z'
loop_
 _atom_site_type_symbol
 _atom_site_label
 _atom_site_symmetry_multiplicity
 _atom_site_fract_x
 _atom_site_fract_y
 _atom_site_fract_z
 _atom_site_occupancy
  Pr  Pr0  1  0.750530  0.750766  0.002417  1
  Pr  Pr1  1  0.247990  0.248264  0.997547  1
  Co  Co2  1  0.448470  0.949968  0.759089  1
  Co  Co3  1  0.189379  0.690890  0.240936  1
  Co  Co4  1  0.547769  0.043205  0.234348  1
  Co  Co5  1  0.948621  0.191209  0.499998  1
  Co  Co6  1  0.198315  0.928102  0.128177  1
  Co  Co7  1  0.800211  0.069169  0.868287  1
  Co  Co8  1  0.431916  0.700883  0.131707  1
  Co  Co9  1  0.570171  0.299880  0.871796  1
  Co  Co10  1  0.701465  0.573145  0.263959  1
  Co  Co11  1  0.300467  0.429944  0.732227  1
  Co  Co12  1  0.937518  0.809184  0.736057  1
  Co  Co13  1  0.310340  0.548924  0.499988  1
  Co  Co14  1  0.813429  0.308851  0.765661  1
  Co  Co15  1  0.001447  0.501409  0.500013  1
  Co  Co16  1  0.500447  0.002032  0.500024  1
  Co  Co17  1  0.068235  0.197712  0.267762  1
  Co  Co18  1  0.051094  0.810551  0.500003  1
  Si  Si19  1  0.290634  0.787760  0.833662  1
  Si  Si20  1  0.054355  0.544807  0.841171  1
  Si  Si21  1  0.540504  0.718307  0.500053  1
  Si  Si22  1  0.790697  0.955478  0.500070  1
  Si  Si23  1  0.443620  0.283579  0.500014  1
  Si  Si24  1  0.956955  0.454026  0.166261  1
  Si  Si25  1  0.713215  0.203600  0.158760  1
  Si  Si26  1  0.209094  0.046255  0.499997  1
  Ir  Ir27  1  0.683113  0.452102  0.500013  1
