# generated using pymatgen
data_Sr6Li2NbSbO12
_symmetry_space_group_name_H-M   'P 1'
_cell_length_a   6.85480444
_cell_length_b   6.85480470
_cell_length_c   6.85480410
_cell_angle_alpha   92.55582542
_cell_angle_beta   92.55582627
_cell_angle_gamma   92.55582286
_symmetry_Int_Tables_number   1
_chemical_formula_structural   Sr6Li2NbSbO12
_chemical_formula_sum   'Sr6 Li2 Nb1 Sb1 O12'
_cell_volume   321.10508041
_cell_formula_units_Z   1
loop_
 _symmetry_equiv_pos_site_id
 _symmetry_equiv_pos_as_xyz
  1  'x, y, z'
loop_
 _atom_site_type_symbol
 _atom_site_label
 _atom_site_symmetry_multiplicity
 _atom_site_fract_x
 _atom_site_fract_y
 _atom_site_fract_z
 _atom_site_occupancy
  Sr  Sr0  1  0.100690  0.397736  0.750123  1
  Sr  Sr1  1  0.750123  0.100690  0.397736  1
  Sr  Sr2  1  0.397736  0.750123  0.100690  1
  Sr  Sr3  1  0.249877  0.899310  0.602264  1
  Sr  Sr4  1  0.602264  0.249877  0.899310  1
  Sr  Sr5  1  0.899310  0.602264  0.249877  1
  Li  Li6  1  0.250444  0.250444  0.250444  1
  Li  Li7  1  0.749556  0.749556  0.749556  1
  Nb  Nb8  1  0.000000  0.000000  0.000000  1
  Sb  Sb9  1  0.500000  0.500000  0.500000  1
  O  O10  1  0.453262  0.580885  0.781428  1
  O  O11  1  0.781428  0.453262  0.580885  1
  O  O12  1  0.580885  0.781428  0.453262  1
  O  O13  1  0.281842  0.079388  0.951913  1
  O  O14  1  0.951913  0.281842  0.079388  1
  O  O15  1  0.079388  0.951913  0.281842  1
  O  O16  1  0.546738  0.419115  0.218572  1
  O  O17  1  0.218572  0.546738  0.419115  1
  O  O18  1  0.419115  0.218572  0.546738  1
  O  O19  1  0.718158  0.920612  0.048087  1
  O  O20  1  0.048087  0.718158  0.920612  1
  O  O21  1  0.920612  0.048087  0.718158  1
