# generated using pymatgen
data_Dy7Y(Er3Pt4)4
_symmetry_space_group_name_H-M   'P 1'
_cell_length_a   7.45494905
_cell_length_b   7.53276805
_cell_length_c   14.66994003
_cell_angle_alpha   90.00454312
_cell_angle_beta   90.00629101
_cell_angle_gamma   90.01183542
_symmetry_Int_Tables_number   1
_chemical_formula_structural   Dy7Y(Er3Pt4)4
_chemical_formula_sum   'Dy7 Y1 Er12 Pt16'
_cell_volume   823.81102466
_cell_formula_units_Z   1
loop_
 _symmetry_equiv_pos_site_id
 _symmetry_equiv_pos_as_xyz
  1  'x, y, z'
loop_
 _atom_site_type_symbol
 _atom_site_label
 _atom_site_symmetry_multiplicity
 _atom_site_fract_x
 _atom_site_fract_y
 _atom_site_fract_z
 _atom_site_occupancy
  Dy  Dy0  1  0.998114  0.820262  0.406890  1
  Dy  Dy1  1  0.498069  0.679841  0.093011  1
  Dy  Dy2  1  0.501909  0.320226  0.593048  1
  Dy  Dy3  1  0.001984  0.179800  0.906982  1
  Dy  Dy4  1  0.001915  0.179770  0.593039  1
  Dy  Dy5  1  0.501865  0.320215  0.906939  1
  Dy  Dy6  1  0.498101  0.679802  0.406960  1
  Y  Y7  1  0.998253  0.820296  0.092998  1
  Er  Er8  1  0.681007  0.989015  0.250013  1
  Er  Er9  1  0.180974  0.510948  0.250040  1
  Er  Er10  1  0.818980  0.489062  0.749994  1
  Er  Er11  1  0.319029  0.010953  0.750024  1
  Er  Er12  1  0.656211  0.832355  0.622419  1
  Er  Er13  1  0.156259  0.667663  0.877596  1
  Er  Er14  1  0.843814  0.332363  0.377627  1
  Er  Er15  1  0.343736  0.167587  0.122397  1
  Er  Er16  1  0.343759  0.167578  0.377597  1
  Er  Er17  1  0.843844  0.332356  0.122363  1
  Er  Er18  1  0.156265  0.667674  0.622398  1
  Er  Er19  1  0.656299  0.832378  0.877618  1
  Pt  Pt20  1  0.816115  0.642083  0.250264  1
  Pt  Pt21  1  0.316519  0.857714  0.250070  1
  Pt  Pt22  1  0.683591  0.142334  0.749949  1
  Pt  Pt23  1  0.183558  0.357657  0.749962  1
  Pt  Pt24  1  0.546403  0.385876  0.250032  1
  Pt  Pt25  1  0.046452  0.114360  0.250141  1
  Pt  Pt26  1  0.953603  0.885846  0.749963  1
  Pt  Pt27  1  0.453605  0.614138  0.749967  1
  Pt  Pt28  1  0.817068  0.532964  0.542064  1
  Pt  Pt29  1  0.317221  0.967074  0.957889  1
  Pt  Pt30  1  0.682942  0.032962  0.457953  1
  Pt  Pt31  1  0.183101  0.466705  0.041983  1
  Pt  Pt32  1  0.182918  0.467018  0.457972  1
  Pt  Pt33  1  0.682455  0.033293  0.041949  1
  Pt  Pt34  1  0.317092  0.967062  0.542081  1
  Pt  Pt35  1  0.816970  0.532773  0.957806  1
