# generated using pymatgen
data_Na2VTeO6
_symmetry_space_group_name_H-M   'P 1'
_cell_length_a   6.16587078
_cell_length_b   6.16587022
_cell_length_c   6.16587144
_cell_angle_alpha   50.67487990
_cell_angle_beta   50.67488474
_cell_angle_gamma   50.67487350
_symmetry_Int_Tables_number   1
_chemical_formula_structural   Na2VTeO6
_chemical_formula_sum   'Na2 V1 Te1 O6'
_cell_volume   129.28980456
_cell_formula_units_Z   1
loop_
 _symmetry_equiv_pos_site_id
 _symmetry_equiv_pos_as_xyz
  1  'x, y, z'
loop_
 _atom_site_type_symbol
 _atom_site_label
 _atom_site_symmetry_multiplicity
 _atom_site_fract_x
 _atom_site_fract_y
 _atom_site_fract_z
 _atom_site_occupancy
  Na  Na0  1  0.859601  0.859601  0.859601  1
  Na  Na1  1  0.137980  0.137980  0.137980  1
  V  V2  1  0.661158  0.661158  0.661158  1
  Te  Te3  1  0.338570  0.338570  0.338570  1
  O  O4  1  0.679692  0.062839  0.466444  1
  O  O5  1  0.466444  0.679692  0.062839  1
  O  O6  1  0.062839  0.466444  0.679692  1
  O  O7  1  0.320593  0.941147  0.531975  1
  O  O8  1  0.531975  0.320593  0.941147  1
  O  O9  1  0.941147  0.531975  0.320593  1
