# generated using pymatgen
data_Yb3Si6(Pd9Pt)2
_symmetry_space_group_name_H-M   'P 1'
_cell_length_a   8.72861091
_cell_length_b   8.72861076
_cell_length_c   8.72861078
_cell_angle_alpha   59.66536560
_cell_angle_beta   59.66536386
_cell_angle_gamma   59.66536772
_symmetry_Int_Tables_number   1
_chemical_formula_structural   Yb3Si6(Pd9Pt)2
_chemical_formula_sum   'Yb3 Si6 Pd18 Pt2'
_cell_volume   466.66574360
_cell_formula_units_Z   1
loop_
 _symmetry_equiv_pos_site_id
 _symmetry_equiv_pos_as_xyz
  1  'x, y, z'
loop_
 _atom_site_type_symbol
 _atom_site_label
 _atom_site_symmetry_multiplicity
 _atom_site_fract_x
 _atom_site_fract_y
 _atom_site_fract_z
 _atom_site_occupancy
  Yb  Yb0  1  0.249706  0.249706  0.249706  1
  Yb  Yb1  1  0.750294  0.750294  0.750294  1
  Yb  Yb2  1  0.000000  0.000000  0.000000  1
  Si  Si3  1  0.729491  0.269561  0.269561  1
  Si  Si4  1  0.270509  0.730439  0.730439  1
  Si  Si5  1  0.269561  0.729491  0.269561  1
  Si  Si6  1  0.730439  0.270509  0.730439  1
  Si  Si7  1  0.269561  0.269561  0.729491  1
  Si  Si8  1  0.730439  0.730439  0.270509  1
  Pd  Pd9  1  0.382377  0.382377  0.850284  1
  Pd  Pd10  1  0.382377  0.850284  0.382377  1
  Pd  Pd11  1  0.617623  0.617623  0.149716  1
  Pd  Pd12  1  0.617623  0.149716  0.617623  1
  Pd  Pd13  1  0.850284  0.382377  0.382377  1
  Pd  Pd14  1  0.149716  0.617623  0.617623  1
  Pd  Pd15  1  0.344004  0.000145  0.000145  1
  Pd  Pd16  1  0.655996  0.999855  0.999855  1
  Pd  Pd17  1  0.000000  0.343377  0.656623  1
  Pd  Pd18  1  0.000000  0.656623  0.343377  1
  Pd  Pd19  1  0.000145  0.344004  0.000145  1
  Pd  Pd20  1  0.656623  0.000000  0.343377  1
  Pd  Pd21  1  0.999855  0.655996  0.999855  1
  Pd  Pd22  1  0.343377  0.000000  0.656623  1
  Pd  Pd23  1  0.000145  0.000145  0.344004  1
  Pd  Pd24  1  0.999855  0.999855  0.655996  1
  Pd  Pd25  1  0.656623  0.343377  0.000000  1
  Pd  Pd26  1  0.343377  0.656623  0.000000  1
  Pt  Pt27  1  0.384421  0.384421  0.384421  1
  Pt  Pt28  1  0.615579  0.615579  0.615579  1
