# generated using pymatgen
data_Ta3V9Si10
_symmetry_space_group_name_H-M   'P 1'
_cell_length_a   4.89754061
_cell_length_b   7.59422142
_cell_length_c   9.20142219
_cell_angle_alpha   65.67322654
_cell_angle_beta   74.56593535
_cell_angle_gamma   90.00001136
_symmetry_Int_Tables_number   1
_chemical_formula_structural   Ta3V9Si10
_chemical_formula_sum   'Ta3 V9 Si10'
_cell_volume   298.24595150
_cell_formula_units_Z   1
loop_
 _symmetry_equiv_pos_site_id
 _symmetry_equiv_pos_as_xyz
  1  'x, y, z'
loop_
 _atom_site_type_symbol
 _atom_site_label
 _atom_site_symmetry_multiplicity
 _atom_site_fract_x
 _atom_site_fract_y
 _atom_site_fract_z
 _atom_site_occupancy
  Ta  Ta0  1  0.857706  0.738982  0.284588  1
  Ta  Ta1  1  0.642263  0.027887  0.715475  1
  Ta  Ta2  1  0.357476  0.972953  0.285047  1
  V  V3  1  0.440158  0.691912  0.619527  1
  V  V4  1  0.058486  0.310255  0.380507  1
  V  V5  1  0.561006  0.310255  0.380507  1
  V  V6  1  0.940315  0.691912  0.619527  1
  V  V7  1  0.436020  0.682906  0.127960  1
  V  V8  1  0.563630  0.317222  0.872743  1
  V  V9  1  0.936454  0.189224  0.127092  1
  V  V10  1  0.063142  0.808485  0.873715  1
  V  V11  1  0.143044  0.262046  0.713911  1
  Si  Si12  1  0.065137  0.475493  0.869726  1
  Si  Si13  1  0.937291  0.517498  0.125418  1
  Si  Si14  1  0.563080  0.645890  0.873839  1
  Si  Si15  1  0.436471  0.353757  0.127060  1
  Si  Si16  1  0.753553  0.002522  0.996640  1
  Si  Si17  1  0.249806  0.002522  0.996640  1
  Si  Si18  1  0.283973  0.575298  0.432055  1
  Si  Si19  1  0.712487  0.417995  0.575028  1
  Si  Si20  1  0.786540  0.992249  0.426920  1
  Si  Si21  1  0.211962  0.012737  0.576076  1
