# generated using pymatgen
data_Ti17Re2Si16Tc
_symmetry_space_group_name_H-M   'P 1'
_cell_length_a   6.64188111
_cell_length_b   6.64188052
_cell_length_c   12.13504848
_cell_angle_alpha   89.85842974
_cell_angle_beta   90.14157202
_cell_angle_gamma   89.96838306
_symmetry_Int_Tables_number   1
_chemical_formula_structural   Ti17Re2Si16Tc
_chemical_formula_sum   'Ti17 Re2 Si16 Tc1'
_cell_volume   535.32922458
_cell_formula_units_Z   1
loop_
 _symmetry_equiv_pos_site_id
 _symmetry_equiv_pos_as_xyz
  1  'x, y, z'
loop_
 _atom_site_type_symbol
 _atom_site_label
 _atom_site_symmetry_multiplicity
 _atom_site_fract_x
 _atom_site_fract_y
 _atom_site_fract_z
 _atom_site_occupancy
  Ti  Ti0  1  0.998809  0.147422  0.623515  1
  Ti  Ti1  1  0.351759  0.498403  0.871547  1
  Ti  Ti2  1  0.649498  0.504755  0.373139  1
  Ti  Ti3  1  0.498403  0.351759  0.128453  1
  Ti  Ti4  1  0.504755  0.649498  0.626861  1
  Ti  Ti5  1  0.003377  0.849069  0.121320  1
  Ti  Ti6  1  0.147422  0.998809  0.376485  1
  Ti  Ti7  1  0.849069  0.003377  0.878680  1
  Ti  Ti8  1  0.997572  0.340293  0.222506  1
  Ti  Ti9  1  0.157166  0.500924  0.472030  1
  Ti  Ti10  1  0.837351  0.502829  0.973132  1
  Ti  Ti11  1  0.500924  0.157166  0.527970  1
  Ti  Ti12  1  0.502829  0.837351  0.026868  1
  Ti  Ti13  1  0.002371  0.660406  0.722230  1
  Ti  Ti14  1  0.340293  0.997572  0.777494  1
  Ti  Ti15  1  0.660406  0.002371  0.277770  1
  Ti  Ti16  1  0.829051  0.829051  0.500000  1
  Re  Re17  1  0.328733  0.669808  0.247453  1
  Re  Re18  1  0.669808  0.328733  0.752547  1
  Si  Si19  1  0.042681  0.302304  0.816210  1
  Si  Si20  1  0.196961  0.539911  0.064040  1
  Si  Si21  1  0.803149  0.455185  0.566760  1
  Si  Si22  1  0.539911  0.196961  0.935960  1
  Si  Si23  1  0.455185  0.803149  0.433240  1
  Si  Si24  1  0.959362  0.697381  0.315113  1
  Si  Si25  1  0.302304  0.042681  0.183790  1
  Si  Si26  1  0.697381  0.959362  0.684887  1
  Si  Si27  1  0.295173  0.358970  0.672871  1
  Si  Si28  1  0.141521  0.795437  0.923646  1
  Si  Si29  1  0.857498  0.206048  0.425329  1
  Si  Si30  1  0.795437  0.141521  0.076354  1
  Si  Si31  1  0.206048  0.857498  0.574671  1
  Si  Si32  1  0.706196  0.641732  0.174349  1
  Si  Si33  1  0.358970  0.295173  0.327129  1
  Si  Si34  1  0.641732  0.706196  0.825651  1
  Tc  Tc35  1  0.170896  0.170896  0.000000  1
