# generated using pymatgen
data_Ho6Ga5Co2Sn7
_symmetry_space_group_name_H-M   'P 1'
_cell_length_a   8.13883138
_cell_length_b   8.13883193
_cell_length_c   12.80758911
_cell_angle_alpha   89.80654703
_cell_angle_beta   90.19345271
_cell_angle_gamma   148.42849584
_symmetry_Int_Tables_number   1
_chemical_formula_structural   Ho6Ga5Co2Sn7
_chemical_formula_sum   'Ho6 Ga5 Co2 Sn7'
_cell_volume   444.17811775
_cell_formula_units_Z   1
loop_
 _symmetry_equiv_pos_site_id
 _symmetry_equiv_pos_as_xyz
  1  'x, y, z'
loop_
 _atom_site_type_symbol
 _atom_site_label
 _atom_site_symmetry_multiplicity
 _atom_site_fract_x
 _atom_site_fract_y
 _atom_site_fract_z
 _atom_site_occupancy
  Ho  Ho0  1  0.900187  0.099813  0.103309  1
  Ho  Ho1  1  0.099335  0.900665  0.603614  1
  Ho  Ho2  1  0.900184  0.099816  0.748040  1
  Ho  Ho3  1  0.100456  0.899544  0.896407  1
  Ho  Ho4  1  0.098975  0.901025  0.251926  1
  Ho  Ho5  1  0.899598  0.100402  0.398686  1
  Ga  Ga6  1  0.755988  0.244012  0.572698  1
  Ga  Ga7  1  0.738209  0.261791  0.253260  1
  Ga  Ga8  1  0.261950  0.738050  0.739381  1
  Ga  Ga9  1  0.453767  0.546233  0.251250  1
  Ga  Ga10  1  0.546781  0.453219  0.749322  1
  Co  Co11  1  0.300031  0.699969  0.252800  1
  Co  Co12  1  0.700935  0.299065  0.743488  1
  Sn  Sn13  1  0.428051  0.571949  0.579473  1
  Sn  Sn14  1  0.569831  0.430169  0.422732  1
  Sn  Sn15  1  0.241077  0.758923  0.073312  1
  Sn  Sn16  1  0.246004  0.753996  0.435943  1
  Sn  Sn17  1  0.569041  0.430959  0.079938  1
  Sn  Sn18  1  0.758355  0.241645  0.924854  1
  Sn  Sn19  1  0.431246  0.568754  0.919568  1
