# generated using pymatgen
data_Ti4N3
_symmetry_space_group_name_H-M   'P 1'
_cell_length_a   3.00818287
_cell_length_b   5.19527222
_cell_length_c   5.18467648
_cell_angle_alpha   100.20999779
_cell_angle_beta   73.19491616
_cell_angle_gamma   89.89688271
_symmetry_Int_Tables_number   1
_chemical_formula_structural   Ti4N3
_chemical_formula_sum   'Ti4 N3'
_cell_volume   76.21803195
_cell_formula_units_Z   1
loop_
 _symmetry_equiv_pos_site_id
 _symmetry_equiv_pos_as_xyz
  1  'x, y, z'
loop_
 _atom_site_type_symbol
 _atom_site_label
 _atom_site_symmetry_multiplicity
 _atom_site_fract_x
 _atom_site_fract_y
 _atom_site_fract_z
 _atom_site_occupancy
  Ti  Ti0  1  0.058024  0.916023  0.488962  1
  Ti  Ti1  1  0.816957  0.661711  0.970337  1
  Ti  Ti2  1  0.312770  0.144313  0.980638  1
  Ti  Ti3  1  0.552392  0.398512  0.500100  1
  N  N4  1  0.685940  0.030073  0.234814  1
  N  N5  1  0.933666  0.281157  0.738143  1
  N  N6  1  0.436033  0.778893  0.731845  1
