# generated using pymatgen
data_CsK7(US5)2
_symmetry_space_group_name_H-M   'P 1'
_cell_length_a   7.96248434
_cell_length_b   11.83338419
_cell_length_c   7.82159800
_cell_angle_alpha   101.35293587
_cell_angle_beta   102.29382018
_cell_angle_gamma   110.40113029
_symmetry_Int_Tables_number   1
_chemical_formula_structural   CsK7(US5)2
_chemical_formula_sum   'Cs1 K7 U2 S10'
_cell_volume   644.66389396
_cell_formula_units_Z   1
loop_
 _symmetry_equiv_pos_site_id
 _symmetry_equiv_pos_as_xyz
  1  'x, y, z'
loop_
 _atom_site_type_symbol
 _atom_site_label
 _atom_site_symmetry_multiplicity
 _atom_site_fract_x
 _atom_site_fract_y
 _atom_site_fract_z
 _atom_site_occupancy
  Cs  Cs0  1  0.999999  0.000004  0.499997  1
  K  K1  1  0.000038  0.500050  0.999988  1
  K  K2  1  0.405880  0.901010  0.195303  1
  K  K3  1  0.593865  0.594723  0.296633  1
  K  K4  1  0.794773  0.301388  0.392179  1
  K  K5  1  0.205222  0.698583  0.607879  1
  K  K6  1  0.406083  0.405220  0.703304  1
  K  K7  1  0.594079  0.098928  0.804668  1
  U  U8  1  0.192896  0.196907  0.099870  1
  U  U9  1  0.807088  0.803083  0.900134  1
  S  S10  1  0.507007  0.309813  0.049369  1
  S  S11  1  0.853302  0.034779  0.096859  1
  S  S12  1  0.972578  0.753952  0.172982  1
  S  S13  1  0.181183  0.390534  0.303890  1
  S  S14  1  0.377186  0.163541  0.379959  1
  S  S15  1  0.622790  0.836485  0.619964  1
  S  S16  1  0.818755  0.609415  0.696032  1
  S  S17  1  0.027514  0.246065  0.827117  1
  S  S18  1  0.146861  0.965394  0.903236  1
  S  S19  1  0.492908  0.690127  0.950634  1
