# generated using pymatgen
data_SrTb4Sm2FeI12
_symmetry_space_group_name_H-M   'P 1'
_cell_length_a   9.89981601
_cell_length_b   9.81184963
_cell_length_c   9.82027706
_cell_angle_alpha   106.19501751
_cell_angle_beta   106.11264518
_cell_angle_gamma   106.52370798
_symmetry_Int_Tables_number   1
_chemical_formula_structural   SrTb4Sm2FeI12
_chemical_formula_sum   'Sr1 Tb4 Sm2 Fe1 I12'
_cell_volume   809.56059353
_cell_formula_units_Z   1
loop_
 _symmetry_equiv_pos_site_id
 _symmetry_equiv_pos_as_xyz
  1  'x, y, z'
loop_
 _atom_site_type_symbol
 _atom_site_label
 _atom_site_symmetry_multiplicity
 _atom_site_fract_x
 _atom_site_fract_y
 _atom_site_fract_z
 _atom_site_occupancy
  Sr  Sr0  1  0.499984  0.499717  0.499828  1
  Tb  Tb1  1  0.297134  0.020657  0.093721  1
  Tb  Tb2  1  0.909699  0.716634  0.979406  1
  Tb  Tb3  1  0.979880  0.909804  0.718324  1
  Tb  Tb4  1  0.702608  0.978700  0.904907  1
  Sm  Sm5  1  0.091322  0.287582  0.020337  1
  Sm  Sm6  1  0.019829  0.089996  0.286130  1
  Fe  Fe7  1  0.000080  0.001203  0.000820  1
  I  I8  1  0.450490  0.367457  0.137297  1
  I  I9  1  0.139435  0.451926  0.371609  1
  I  I10  1  0.369828  0.135604  0.447101  1
  I  I11  1  0.554506  0.632424  0.864582  1
  I  I12  1  0.863449  0.553992  0.633371  1
  I  I13  1  0.635111  0.864367  0.553275  1
  I  I14  1  0.774027  0.318623  0.925398  1
  I  I15  1  0.924367  0.771015  0.315932  1
  I  I16  1  0.317789  0.925762  0.775830  1
  I  I17  1  0.220784  0.681515  0.072718  1
  I  I18  1  0.073032  0.220409  0.678727  1
  I  I19  1  0.676646  0.072614  0.220686  1
