# generated using pymatgen
data_Cr2(PSe3)3
_symmetry_space_group_name_H-M   'P 1'
_cell_length_a   10.84131079
_cell_length_b   10.84131094
_cell_length_c   7.57874988
_cell_angle_alpha   76.31148804
_cell_angle_beta   76.31149087
_cell_angle_gamma   59.99105809
_symmetry_Int_Tables_number   1
_chemical_formula_structural   Cr2(PSe3)3
_chemical_formula_sum   'Cr4 P6 Se18'
_cell_volume   741.99901047
_cell_formula_units_Z   2
loop_
 _symmetry_equiv_pos_site_id
 _symmetry_equiv_pos_as_xyz
  1  'x, y, z'
loop_
 _atom_site_type_symbol
 _atom_site_label
 _atom_site_symmetry_multiplicity
 _atom_site_fract_x
 _atom_site_fract_y
 _atom_site_fract_z
 _atom_site_occupancy
  Cr  Cr0  1  0.164150  0.493563  0.500881  1
  Cr  Cr1  1  0.506437  0.835850  0.499119  1
  Cr  Cr2  1  0.822501  0.177499  0.500000  1
  Cr  Cr3  1  0.164628  0.835372  0.500000  1
  P  P4  1  0.843273  0.860440  0.350350  1
  P  P5  1  0.139560  0.156727  0.649650  1
  P  P6  1  0.510404  0.514363  0.349407  1
  P  P7  1  0.485637  0.489596  0.650593  1
  P  P8  1  0.189599  0.181677  0.348595  1
  P  P9  1  0.818323  0.810401  0.651405  1
  Se  Se10  1  0.743666  0.408470  0.262856  1
  Se  Se11  1  0.591530  0.256334  0.737144  1
  Se  Se12  1  0.090747  0.733520  0.287953  1
  Se  Se13  1  0.266480  0.909253  0.712047  1
  Se  Se14  1  0.423344  0.062219  0.267959  1
  Se  Se15  1  0.937781  0.576656  0.732041  1
  Se  Se16  1  0.738232  0.760745  0.263588  1
  Se  Se17  1  0.239255  0.261768  0.736412  1
  Se  Se18  1  0.390653  0.426300  0.270192  1
  Se  Se19  1  0.573700  0.609347  0.729808  1
  Se  Se20  1  0.062650  0.081349  0.287130  1
  Se  Se21  1  0.918651  0.937350  0.712870  1
  Se  Se22  1  0.410209  0.761845  0.287063  1
  Se  Se23  1  0.238155  0.589791  0.712937  1
  Se  Se24  1  0.089841  0.415342  0.263718  1
  Se  Se25  1  0.584658  0.910159  0.736282  1
  Se  Se26  1  0.755060  0.094022  0.270062  1
  Se  Se27  1  0.905978  0.244940  0.729938  1
