# generated using pymatgen
data_Dy5Al2PbO
_symmetry_space_group_name_H-M   'P 1'
_cell_length_a   9.06104786
_cell_length_b   9.06104775
_cell_length_c   9.06104800
_cell_angle_alpha   127.57332837
_cell_angle_beta   127.57331989
_cell_angle_gamma   77.31724980
_symmetry_Int_Tables_number   1
_chemical_formula_structural   Dy5Al2PbO
_chemical_formula_sum   'Dy10 Al4 Pb2 O2'
_cell_volume   453.38197588
_cell_formula_units_Z   2
loop_
 _symmetry_equiv_pos_site_id
 _symmetry_equiv_pos_as_xyz
  1  'x, y, z'
loop_
 _atom_site_type_symbol
 _atom_site_label
 _atom_site_symmetry_multiplicity
 _atom_site_fract_x
 _atom_site_fract_y
 _atom_site_fract_z
 _atom_site_occupancy
  Dy  Dy0  1  0.497741  0.302550  0.500000  1
  Dy  Dy1  1  0.802550  0.997741  0.500000  1
  Dy  Dy2  1  0.997741  0.497741  0.195192  1
  Dy  Dy3  1  0.302550  0.802550  0.804808  1
  Dy  Dy4  1  0.504667  0.699922  0.500000  1
  Dy  Dy5  1  0.199922  0.004667  0.500000  1
  Dy  Dy6  1  0.004667  0.504667  0.804745  1
  Dy  Dy7  1  0.699922  0.199922  0.195255  1
  Dy  Dy8  1  0.501289  0.501289  0.000000  1
  Dy  Dy9  1  0.001289  0.001289  0.000000  1
  Al  Al10  1  0.127997  0.374436  0.500000  1
  Al  Al11  1  0.874436  0.627997  0.500000  1
  Al  Al12  1  0.627997  0.127997  0.753559  1
  Al  Al13  1  0.374436  0.874436  0.246441  1
  Pb  Pb14  1  0.751602  0.751602  0.000000  1
  Pb  Pb15  1  0.251602  0.251602  0.000000  1
  O  O16  1  0.751216  0.251216  0.500000  1
  O  O17  1  0.251216  0.751216  0.500000  1
