# generated using pymatgen
data_Dy10SnHgBi4
_symmetry_space_group_name_H-M   'P 1'
_cell_length_a   9.05953985
_cell_length_b   9.06856355
_cell_length_c   6.49599000
_cell_angle_alpha   90.00000000
_cell_angle_beta   90.00000000
_cell_angle_gamma   119.93269086
_symmetry_Int_Tables_number   1
_chemical_formula_structural   Dy10SnHgBi4
_chemical_formula_sum   'Dy10 Sn1 Hg1 Bi4'
_cell_volume   462.50324183
_cell_formula_units_Z   1
loop_
 _symmetry_equiv_pos_site_id
 _symmetry_equiv_pos_as_xyz
  1  'x, y, z'
loop_
 _atom_site_type_symbol
 _atom_site_label
 _atom_site_symmetry_multiplicity
 _atom_site_fract_x
 _atom_site_fract_y
 _atom_site_fract_z
 _atom_site_occupancy
  Dy  Dy0  1  0.995620  0.760593  0.750000  1
  Dy  Dy1  1  0.989148  0.231677  0.250000  1
  Dy  Dy2  1  0.756276  0.767296  0.250000  1
  Dy  Dy3  1  0.758621  0.994280  0.750000  1
  Dy  Dy4  1  0.243221  0.241814  0.750000  1
  Dy  Dy5  1  0.243765  0.000454  0.250000  1
  Dy  Dy6  1  0.343908  0.675016  0.499906  1
  Dy  Dy7  1  0.664067  0.327831  0.000227  1
  Dy  Dy8  1  0.664067  0.327831  0.499773  1
  Dy  Dy9  1  0.343908  0.675016  0.000094  1
  Sn  Sn10  1  0.606679  0.602799  0.750000  1
  Hg  Hg11  1  0.606106  0.001382  0.250000  1
  Bi  Bi12  1  0.391405  0.999612  0.750000  1
  Bi  Bi13  1  0.390477  0.392282  0.250000  1
  Bi  Bi14  1  0.999767  0.607873  0.250000  1
  Bi  Bi15  1  0.002965  0.394242  0.750000  1
