# generated using pymatgen
data_TbYTi2(ClO3)2
_symmetry_space_group_name_H-M   'P 1'
_cell_length_a   5.31174306
_cell_length_b   5.31174274
_cell_length_c   9.94553432
_cell_angle_alpha   105.18573420
_cell_angle_beta   105.18573088
_cell_angle_gamma   43.28264836
_symmetry_Int_Tables_number   1
_chemical_formula_structural   TbYTi2(ClO3)2
_chemical_formula_sum   'Tb1 Y1 Ti2 Cl2 O6'
_cell_volume   184.58768174
_cell_formula_units_Z   1
loop_
 _symmetry_equiv_pos_site_id
 _symmetry_equiv_pos_as_xyz
  1  'x, y, z'
loop_
 _atom_site_type_symbol
 _atom_site_label
 _atom_site_symmetry_multiplicity
 _atom_site_fract_x
 _atom_site_fract_y
 _atom_site_fract_z
 _atom_site_occupancy
  Tb  Tb0  1  0.776171  0.776171  0.793995  1
  Y  Y1  1  0.223968  0.223968  0.205839  1
  Ti  Ti2  1  0.618866  0.618866  0.429860  1
  Ti  Ti3  1  0.380991  0.380991  0.569531  1
  Cl  Cl4  1  0.884491  0.884491  0.094544  1
  Cl  Cl5  1  0.115065  0.115065  0.906873  1
  O  O6  1  0.650209  0.650209  0.252342  1
  O  O7  1  0.423376  0.423376  0.376192  1
  O  O8  1  0.168969  0.168969  0.435481  1
  O  O9  1  0.830737  0.830737  0.564567  1
  O  O10  1  0.576576  0.576576  0.623490  1
  O  O11  1  0.350579  0.350579  0.747286  1
