# generated using pymatgen
data_La3Yb2Pr3(US5)4
_symmetry_space_group_name_H-M   'P 1'
_cell_length_a   7.52827851
_cell_length_b   8.11217457
_cell_length_c   11.90378221
_cell_angle_alpha   90.00910491
_cell_angle_beta   90.03376811
_cell_angle_gamma   89.87504633
_symmetry_Int_Tables_number   1
_chemical_formula_structural   La3Yb2Pr3(US5)4
_chemical_formula_sum   'La3 Yb2 Pr3 U4 S20'
_cell_volume   726.97056125
_cell_formula_units_Z   1
loop_
 _symmetry_equiv_pos_site_id
 _symmetry_equiv_pos_as_xyz
  1  'x, y, z'
loop_
 _atom_site_type_symbol
 _atom_site_label
 _atom_site_symmetry_multiplicity
 _atom_site_fract_x
 _atom_site_fract_y
 _atom_site_fract_z
 _atom_site_occupancy
  La  La0  1  0.472308  0.001324  0.676667  1
  La  La1  1  0.027494  0.498102  0.176648  1
  La  La2  1  0.469085  0.498887  0.672885  1
  Yb  Yb3  1  0.522752  0.499810  0.322430  1
  Yb  Yb4  1  0.976791  0.000291  0.822583  1
  Pr  Pr5  1  0.030731  0.000158  0.174363  1
  Pr  Pr6  1  0.528468  0.997698  0.324076  1
  Pr  Pr7  1  0.971658  0.502389  0.824348  1
  U  U8  1  0.067239  0.751788  0.491185  1
  U  U9  1  0.432698  0.748993  0.991142  1
  U  U10  1  0.929535  0.251162  0.508095  1
  U  U11  1  0.570562  0.248590  0.008145  1
  S  S12  1  0.840279  0.959124  0.591136  1
  S  S13  1  0.659175  0.541142  0.091451  1
  S  S14  1  0.161524  0.460579  0.409852  1
  S  S15  1  0.338538  0.039321  0.909320  1
  S  S16  1  0.162561  0.041409  0.407868  1
  S  S17  1  0.338043  0.458816  0.907489  1
  S  S18  1  0.838316  0.543792  0.592363  1
  S  S19  1  0.662145  0.956552  0.092918  1
  S  S20  1  0.836839  0.751812  0.315031  1
  S  S21  1  0.663525  0.749378  0.815489  1
  S  S22  1  0.161264  0.251847  0.685784  1
  S  S23  1  0.337324  0.247581  0.185875  1
  S  S24  1  0.450542  0.750951  0.497815  1
  S  S25  1  0.050105  0.749755  0.998402  1
  S  S26  1  0.551303  0.250130  0.501619  1
  S  S27  1  0.949134  0.248959  0.002090  1
  S  S28  1  0.187618  0.750870  0.712766  1
  S  S29  1  0.311646  0.750064  0.212419  1
  S  S30  1  0.808773  0.247987  0.288839  1
  S  S31  1  0.692026  0.250731  0.788907  1
