# generated using pymatgen
data_Sr6PrHo13Sn16
_symmetry_space_group_name_H-M   'P 1'
_cell_length_a   8.05793814
_cell_length_b   8.43385405
_cell_length_c   15.98496564
_cell_angle_alpha   90.01243623
_cell_angle_beta   90.70167109
_cell_angle_gamma   89.78507697
_symmetry_Int_Tables_number   1
_chemical_formula_structural   Sr6PrHo13Sn16
_chemical_formula_sum   'Sr6 Pr1 Ho13 Sn16'
_cell_volume   1086.24074183
_cell_formula_units_Z   1
loop_
 _symmetry_equiv_pos_site_id
 _symmetry_equiv_pos_as_xyz
  1  'x, y, z'
loop_
 _atom_site_type_symbol
 _atom_site_label
 _atom_site_symmetry_multiplicity
 _atom_site_fract_x
 _atom_site_fract_y
 _atom_site_fract_z
 _atom_site_occupancy
  Sr  Sr0  1  0.005565  0.175264  0.598892  1
  Sr  Sr1  1  0.497399  0.675364  0.408166  1
  Sr  Sr2  1  0.997124  0.821115  0.088542  1
  Sr  Sr3  1  0.494650  0.678291  0.088686  1
  Sr  Sr4  1  0.997917  0.824891  0.408041  1
  Sr  Sr5  1  0.505081  0.325374  0.597043  1
  Pr  Pr6  1  0.003108  0.179910  0.903536  1
  Ho  Ho7  1  0.339104  0.836110  0.874576  1
  Ho  Ho8  1  0.832679  0.664626  0.628203  1
  Ho  Ho9  1  0.664563  0.164470  0.376361  1
  Ho  Ho10  1  0.157691  0.340733  0.120764  1
  Ho  Ho11  1  0.658369  0.162263  0.122628  1
  Ho  Ho12  1  0.164212  0.335382  0.376769  1
  Ho  Ho13  1  0.333630  0.835292  0.629336  1
  Ho  Ho14  1  0.841202  0.661098  0.876582  1
  Ho  Ho15  1  0.507800  0.317769  0.901965  1
  Ho  Ho16  1  0.175082  0.495813  0.752124  1
  Ho  Ho17  1  0.672838  0.003343  0.752008  1
  Ho  Ho18  1  0.822784  0.503845  0.248150  1
  Ho  Ho19  1  0.324923  0.996472  0.248571  1
  Sn  Sn20  1  0.325054  0.054744  0.035051  1
  Sn  Sn21  1  0.834487  0.457852  0.458938  1
  Sn  Sn22  1  0.665529  0.959461  0.544232  1
  Sn  Sn23  1  0.187245  0.529396  0.951379  1
  Sn  Sn24  1  0.675414  0.969498  0.953122  1
  Sn  Sn25  1  0.165053  0.541865  0.544419  1
  Sn  Sn26  1  0.334902  0.041979  0.459413  1
  Sn  Sn27  1  0.815403  0.446518  0.035932  1
  Sn  Sn28  1  0.536625  0.627515  0.753262  1
  Sn  Sn29  1  0.033722  0.869375  0.753337  1
  Sn  Sn30  1  0.458775  0.366843  0.250020  1
  Sn  Sn31  1  0.961529  0.133924  0.248780  1
  Sn  Sn32  1  0.311565  0.144007  0.757545  1
  Sn  Sn33  1  0.806230  0.360040  0.756220  1
  Sn  Sn34  1  0.696548  0.865757  0.248931  1
  Sn  Sn35  1  0.196196  0.633803  0.248473  1
