# generated using pymatgen
data_NdGd4(ReO6)2
_symmetry_space_group_name_H-M   'P 1'
_cell_length_a   6.95650957
_cell_length_b   6.95650832
_cell_length_c   7.71255365
_cell_angle_alpha   73.90158250
_cell_angle_beta   73.90158485
_cell_angle_gamma   48.70801190
_symmetry_Int_Tables_number   1
_chemical_formula_structural   NdGd4(ReO6)2
_chemical_formula_sum   'Nd1 Gd4 Re2 O12'
_cell_volume   267.12593288
_cell_formula_units_Z   1
loop_
 _symmetry_equiv_pos_site_id
 _symmetry_equiv_pos_as_xyz
  1  'x, y, z'
loop_
 _atom_site_type_symbol
 _atom_site_label
 _atom_site_symmetry_multiplicity
 _atom_site_fract_x
 _atom_site_fract_y
 _atom_site_fract_z
 _atom_site_occupancy
  Nd  Nd0  1  0.194453  0.194453  0.642982  1
  Gd  Gd1  1  0.185629  0.185629  0.173045  1
  Gd  Gd2  1  0.500384  0.500384  0.499301  1
  Gd  Gd3  1  0.805628  0.805628  0.355551  1
  Gd  Gd4  1  0.814220  0.814220  0.826790  1
  Re  Re5  1  0.712629  0.286253  0.001258  1
  Re  Re6  1  0.286253  0.712629  0.001258  1
  O  O7  1  0.414159  0.910350  0.920039  1
  O  O8  1  0.910350  0.414159  0.920039  1
  O  O9  1  0.903563  0.405604  0.420543  1
  O  O10  1  0.405604  0.903563  0.420543  1
  O  O11  1  0.500763  0.500763  0.203152  1
  O  O12  1  0.999106  0.999106  0.172358  1
  O  O13  1  0.999015  0.999015  0.831029  1
  O  O14  1  0.498743  0.498743  0.797833  1
  O  O15  1  0.087157  0.587087  0.083141  1
  O  O16  1  0.587087  0.087157  0.083141  1
  O  O17  1  0.092595  0.602661  0.573999  1
  O  O18  1  0.602661  0.092595  0.573999  1
