# generated using pymatgen
data_Y3SiSe2
_symmetry_space_group_name_H-M   'P 1'
_cell_length_a   7.16367799
_cell_length_b   7.16367896
_cell_length_c   7.16367810
_cell_angle_alpha   146.60577083
_cell_angle_beta   132.46406192
_cell_angle_gamma   59.33410864
_symmetry_Int_Tables_number   1
_chemical_formula_structural   Y3SiSe2
_chemical_formula_sum   'Y3 Si1 Se2'
_cell_volume   147.95911945
_cell_formula_units_Z   1
loop_
 _symmetry_equiv_pos_site_id
 _symmetry_equiv_pos_as_xyz
  1  'x, y, z'
loop_
 _atom_site_type_symbol
 _atom_site_label
 _atom_site_symmetry_multiplicity
 _atom_site_fract_x
 _atom_site_fract_y
 _atom_site_fract_z
 _atom_site_occupancy
  Y  Y0  1  0.843890  0.343890  0.500000  1
  Y  Y1  1  0.500000  0.000000  0.500000  1
  Y  Y2  1  0.156110  0.656110  0.500000  1
  Si  Si3  1  0.000000  0.000000  0.000000  1
  Se  Se4  1  0.669583  0.669583  0.000000  1
  Se  Se5  1  0.330417  0.330417  0.000000  1
