# generated using pymatgen
data_Yb4Mg4AgRh3
_symmetry_space_group_name_H-M   'P 1'
_cell_length_a   4.20570000
_cell_length_b   7.20379606
_cell_length_c   8.51989026
_cell_angle_alpha   89.93776330
_cell_angle_beta   90.00000000
_cell_angle_gamma   90.00000000
_symmetry_Int_Tables_number   1
_chemical_formula_structural   Yb4Mg4AgRh3
_chemical_formula_sum   'Yb4 Mg4 Ag1 Rh3'
_cell_volume   258.12700627
_cell_formula_units_Z   1
loop_
 _symmetry_equiv_pos_site_id
 _symmetry_equiv_pos_as_xyz
  1  'x, y, z'
loop_
 _atom_site_type_symbol
 _atom_site_label
 _atom_site_symmetry_multiplicity
 _atom_site_fract_x
 _atom_site_fract_y
 _atom_site_fract_z
 _atom_site_occupancy
  Yb  Yb0  1  0.250000  0.534008  0.171230  1
  Yb  Yb1  1  0.750000  0.478303  0.838680  1
  Yb  Yb2  1  0.750000  0.946917  0.682328  1
  Yb  Yb3  1  0.250000  0.025852  0.317728  1
  Mg  Mg4  1  0.250000  0.649582  0.553397  1
  Mg  Mg5  1  0.750000  0.370751  0.426487  1
  Mg  Mg6  1  0.750000  0.861549  0.059073  1
  Mg  Mg7  1  0.250000  0.134365  0.950988  1
  Ag  Ag8  1  0.250000  0.262023  0.633246  1
  Rh  Rh9  1  0.250000  0.762638  0.867239  1
  Rh  Rh10  1  0.750000  0.235241  0.131070  1
  Rh  Rh11  1  0.750000  0.738773  0.368534  1
