# generated using pymatgen
data_Nd2(YPb)3
_symmetry_space_group_name_H-M   'P 1'
_cell_length_a   9.19257100
_cell_length_b   9.18742431
_cell_length_c   6.76712100
_cell_angle_alpha   90.00000000
_cell_angle_beta   90.00000000
_cell_angle_gamma   119.64399398
_symmetry_Int_Tables_number   1
_chemical_formula_structural   Nd2(YPb)3
_chemical_formula_sum   'Nd4 Y6 Pb6'
_cell_volume   496.72058337
_cell_formula_units_Z   2
loop_
 _symmetry_equiv_pos_site_id
 _symmetry_equiv_pos_as_xyz
  1  'x, y, z'
loop_
 _atom_site_type_symbol
 _atom_site_label
 _atom_site_symmetry_multiplicity
 _atom_site_fract_x
 _atom_site_fract_y
 _atom_site_fract_z
 _atom_site_occupancy
  Nd  Nd0  1  0.998972  0.761684  0.250000  1
  Nd  Nd1  1  0.238219  0.001014  0.750000  1
  Nd  Nd2  1  0.000778  0.237818  0.750000  1
  Nd  Nd3  1  0.762004  0.998925  0.250000  1
  Y  Y4  1  0.666775  0.333208  0.000075  1
  Y  Y5  1  0.333122  0.666890  0.999984  1
  Y  Y6  1  0.333122  0.666890  0.500016  1
  Y  Y7  1  0.666775  0.333208  0.499925  1
  Y  Y8  1  0.757108  0.757208  0.750000  1
  Y  Y9  1  0.243364  0.243047  0.250000  1
  Pb  Pb10  1  0.401179  0.401536  0.750000  1
  Pb  Pb11  1  0.602917  0.997336  0.750000  1
  Pb  Pb12  1  0.997099  0.602906  0.750000  1
  Pb  Pb13  1  0.598994  0.598971  0.250000  1
  Pb  Pb14  1  0.396947  0.002551  0.250000  1
  Pb  Pb15  1  0.002626  0.396812  0.250000  1
