# generated using pymatgen
data_Y16Cd4Ni3Os
_symmetry_space_group_name_H-M   'P 1'
_cell_length_a   9.66605074
_cell_length_b   9.66605075
_cell_length_c   9.66605105
_cell_angle_alpha   59.54125598
_cell_angle_beta   59.54125233
_cell_angle_gamma   59.54125594
_symmetry_Int_Tables_number   1
_chemical_formula_structural   Y16Cd4Ni3Os
_chemical_formula_sum   'Y16 Cd4 Ni3 Os1'
_cell_volume   631.94391632
_cell_formula_units_Z   1
loop_
 _symmetry_equiv_pos_site_id
 _symmetry_equiv_pos_as_xyz
  1  'x, y, z'
loop_
 _atom_site_type_symbol
 _atom_site_label
 _atom_site_symmetry_multiplicity
 _atom_site_fract_x
 _atom_site_fract_y
 _atom_site_fract_z
 _atom_site_occupancy
  Y  Y0  1  0.598231  0.598231  0.598231  1
  Y  Y1  1  0.600575  0.600575  0.203251  1
  Y  Y2  1  0.600575  0.203251  0.600575  1
  Y  Y3  1  0.203251  0.600575  0.600575  1
  Y  Y4  1  0.060316  0.438589  0.438589  1
  Y  Y5  1  0.437177  0.061124  0.061124  1
  Y  Y6  1  0.438589  0.060316  0.438589  1
  Y  Y7  1  0.061124  0.437177  0.061124  1
  Y  Y8  1  0.438589  0.438589  0.060316  1
  Y  Y9  1  0.061124  0.061124  0.437177  1
  Y  Y10  1  0.186075  0.815078  0.815078  1
  Y  Y11  1  0.808323  0.188296  0.188296  1
  Y  Y12  1  0.815078  0.186075  0.815078  1
  Y  Y13  1  0.188296  0.808323  0.188296  1
  Y  Y14  1  0.815078  0.815078  0.186075  1
  Y  Y15  1  0.188296  0.188296  0.808323  1
  Cd  Cd16  1  0.830439  0.830439  0.830439  1
  Cd  Cd17  1  0.830499  0.830499  0.506232  1
  Cd  Cd18  1  0.830499  0.506232  0.830499  1
  Cd  Cd19  1  0.506232  0.830499  0.830499  1
  Ni  Ni20  1  0.392127  0.392127  0.824588  1
  Ni  Ni21  1  0.392127  0.824588  0.392127  1
  Ni  Ni22  1  0.824588  0.392127  0.392127  1
  Os  Os23  1  0.392791  0.392791  0.392791  1
