# generated using pymatgen
data_Ho3Er5Cd2IrPd
_symmetry_space_group_name_H-M   'P 1'
_cell_length_a   9.58944690
_cell_length_b   9.58944757
_cell_length_c   9.55399300
_cell_angle_alpha   60.12222538
_cell_angle_beta   60.12222306
_cell_angle_gamma   60.45830055
_symmetry_Int_Tables_number   1
_chemical_formula_structural   Ho3Er5Cd2IrPd
_chemical_formula_sum   'Ho6 Er10 Cd4 Ir2 Pd2'
_cell_volume   624.51688953
_cell_formula_units_Z   2
loop_
 _symmetry_equiv_pos_site_id
 _symmetry_equiv_pos_as_xyz
  1  'x, y, z'
loop_
 _atom_site_type_symbol
 _atom_site_label
 _atom_site_symmetry_multiplicity
 _atom_site_fract_x
 _atom_site_fract_y
 _atom_site_fract_z
 _atom_site_occupancy
  Ho  Ho0  1  0.187450  0.816109  0.811180  1
  Ho  Ho1  1  0.816109  0.187450  0.185260  1
  Ho  Ho2  1  0.816109  0.187450  0.811180  1
  Ho  Ho3  1  0.187450  0.816109  0.185260  1
  Ho  Ho4  1  0.814759  0.814759  0.185241  1
  Ho  Ho5  1  0.187021  0.187021  0.812979  1
  Er  Er6  1  0.601405  0.601405  0.594272  1
  Er  Er7  1  0.601405  0.601405  0.202920  1
  Er  Er8  1  0.611143  0.188236  0.600310  1
  Er  Er9  1  0.188236  0.611143  0.600310  1
  Er  Er10  1  0.056856  0.440212  0.438669  1
  Er  Er11  1  0.440212  0.056856  0.064264  1
  Er  Er12  1  0.440212  0.056856  0.438669  1
  Er  Er13  1  0.056856  0.440212  0.064264  1
  Er  Er14  1  0.440168  0.440168  0.059832  1
  Er  Er15  1  0.062048  0.062048  0.437952  1
  Cd  Cd16  1  0.830361  0.830361  0.833356  1
  Cd  Cd17  1  0.830361  0.830361  0.505921  1
  Cd  Cd18  1  0.829645  0.505423  0.832466  1
  Cd  Cd19  1  0.505423  0.829645  0.832466  1
  Ir  Ir20  1  0.388840  0.823026  0.394068  1
  Ir  Ir21  1  0.823026  0.388840  0.394068  1
  Pd  Pd22  1  0.392453  0.392453  0.398309  1
  Pd  Pd23  1  0.392453  0.392453  0.816784  1
