# generated using pymatgen
data_Cs2Th(TeO4)3
_symmetry_space_group_name_H-M   'P 1'
_cell_length_a   7.85591482
_cell_length_b   7.85591462
_cell_length_c   7.85591503
_cell_angle_alpha   56.32380295
_cell_angle_beta   56.32380732
_cell_angle_gamma   56.32380212
_symmetry_Int_Tables_number   1
_chemical_formula_structural   Cs2Th(TeO4)3
_chemical_formula_sum   'Cs2 Th1 Te3 O12'
_cell_volume   313.67309459
_cell_formula_units_Z   1
loop_
 _symmetry_equiv_pos_site_id
 _symmetry_equiv_pos_as_xyz
  1  'x, y, z'
loop_
 _atom_site_type_symbol
 _atom_site_label
 _atom_site_symmetry_multiplicity
 _atom_site_fract_x
 _atom_site_fract_y
 _atom_site_fract_z
 _atom_site_occupancy
  Cs  Cs0  1  0.381944  0.381944  0.381944  1
  Cs  Cs1  1  0.618056  0.618056  0.618056  1
  Th  Th2  1  0.000000  0.000000  0.000000  1
  Te  Te3  1  0.500000  0.000000  0.000000  1
  Te  Te4  1  0.000000  0.000000  0.500000  1
  Te  Te5  1  0.000000  0.500000  0.000000  1
  O  O6  1  0.919010  0.315866  0.315866  1
  O  O7  1  0.350766  0.932361  0.932361  1
  O  O8  1  0.315866  0.315866  0.919010  1
  O  O9  1  0.932361  0.932361  0.350766  1
  O  O10  1  0.932361  0.350766  0.932361  1
  O  O11  1  0.315866  0.919010  0.315866  1
  O  O12  1  0.080990  0.684134  0.684134  1
  O  O13  1  0.649234  0.067639  0.067639  1
  O  O14  1  0.684134  0.684134  0.080990  1
  O  O15  1  0.067639  0.067639  0.649234  1
  O  O16  1  0.067639  0.649234  0.067639  1
  O  O17  1  0.684134  0.080990  0.684134  1
