# generated using pymatgen
data_Dy20Cd6ReNi
_symmetry_space_group_name_H-M   'P 1'
_cell_length_a   9.58227100
_cell_length_b   9.58227152
_cell_length_c   9.87593900
_cell_angle_alpha   90.00000000
_cell_angle_beta   90.00000000
_cell_angle_gamma   119.99999476
_symmetry_Int_Tables_number   1
_chemical_formula_structural   Dy20Cd6ReNi
_chemical_formula_sum   'Dy20 Cd6 Re1 Ni1'
_cell_volume   785.31876559
_cell_formula_units_Z   1
loop_
 _symmetry_equiv_pos_site_id
 _symmetry_equiv_pos_as_xyz
  1  'x, y, z'
loop_
 _atom_site_type_symbol
 _atom_site_label
 _atom_site_symmetry_multiplicity
 _atom_site_fract_x
 _atom_site_fract_y
 _atom_site_fract_z
 _atom_site_occupancy
  Dy  Dy0  1  0.000000  0.000000  0.500299  1
  Dy  Dy1  1  0.000000  0.000000  0.999701  1
  Dy  Dy2  1  0.539468  0.460532  0.250000  1
  Dy  Dy3  1  0.539468  0.078935  0.250000  1
  Dy  Dy4  1  0.921065  0.460532  0.250000  1
  Dy  Dy5  1  0.457292  0.542708  0.750000  1
  Dy  Dy6  1  0.457292  0.914586  0.750000  1
  Dy  Dy7  1  0.085414  0.542708  0.750000  1
  Dy  Dy8  1  0.208923  0.791077  0.440831  1
  Dy  Dy9  1  0.208923  0.417848  0.440831  1
  Dy  Dy10  1  0.582152  0.791077  0.440831  1
  Dy  Dy11  1  0.788765  0.211235  0.562921  1
  Dy  Dy12  1  0.788765  0.577528  0.562921  1
  Dy  Dy13  1  0.422472  0.211235  0.562921  1
  Dy  Dy14  1  0.788765  0.211235  0.937079  1
  Dy  Dy15  1  0.788765  0.577528  0.937079  1
  Dy  Dy16  1  0.422472  0.211235  0.937079  1
  Dy  Dy17  1  0.208923  0.791077  0.059169  1
  Dy  Dy18  1  0.208923  0.417848  0.059169  1
  Dy  Dy19  1  0.582152  0.791077  0.059169  1
  Cd  Cd20  1  0.885286  0.114714  0.250000  1
  Cd  Cd21  1  0.885286  0.770572  0.250000  1
  Cd  Cd22  1  0.229428  0.114714  0.250000  1
  Cd  Cd23  1  0.114649  0.885351  0.750000  1
  Cd  Cd24  1  0.114649  0.229299  0.750000  1
  Cd  Cd25  1  0.770701  0.885351  0.750000  1
  Re  Re26  1  0.333333  0.666667  0.250000  1
  Ni  Ni27  1  0.666667  0.333333  0.750000  1
