# generated using pymatgen
data_Cs2CeNd(HgSe3)2
_symmetry_space_group_name_H-M   'P 1'
_cell_length_a   4.43029500
_cell_length_b   8.50983698
_cell_length_c   11.43455391
_cell_angle_alpha   90.16618002
_cell_angle_beta   90.00000000
_cell_angle_gamma   74.91188212
_symmetry_Int_Tables_number   1
_chemical_formula_structural   Cs2CeNd(HgSe3)2
_chemical_formula_sum   'Cs2 Ce1 Nd1 Hg2 Se6'
_cell_volume   416.23194792
_cell_formula_units_Z   1
loop_
 _symmetry_equiv_pos_site_id
 _symmetry_equiv_pos_as_xyz
  1  'x, y, z'
loop_
 _atom_site_type_symbol
 _atom_site_label
 _atom_site_symmetry_multiplicity
 _atom_site_fract_x
 _atom_site_fract_y
 _atom_site_fract_z
 _atom_site_occupancy
  Cs  Cs0  1  0.256210  0.487581  0.250564  1
  Cs  Cs1  1  0.743791  0.512419  0.749436  1
  Ce  Ce2  1  0.000000  0.000000  0.000000  1
  Nd  Nd3  1  0.000000  0.000000  0.500000  1
  Hg  Hg4  1  0.542954  0.914091  0.250111  1
  Hg  Hg5  1  0.457046  0.085908  0.749889  1
  Se  Se6  1  0.620112  0.759776  0.047437  1
  Se  Se7  1  0.939057  0.121884  0.250308  1
  Se  Se8  1  0.620405  0.759189  0.452997  1
  Se  Se9  1  0.379595  0.240811  0.547003  1
  Se  Se10  1  0.060943  0.878116  0.749692  1
  Se  Se11  1  0.379888  0.240224  0.952563  1
