# generated using pymatgen
data_Pr3Sc7Co7Si20Ir
_symmetry_space_group_name_H-M   'P 1'
_cell_length_a   12.27492839
_cell_length_b   12.29435869
_cell_length_c   4.04303800
_cell_angle_alpha   90.00000000
_cell_angle_beta   90.00000000
_cell_angle_gamma   90.03341646
_symmetry_Int_Tables_number   1
_chemical_formula_structural   Pr3Sc7Co7Si20Ir
_chemical_formula_sum   'Pr3 Sc7 Co7 Si20 Ir1'
_cell_volume   610.14435266
_cell_formula_units_Z   1
loop_
 _symmetry_equiv_pos_site_id
 _symmetry_equiv_pos_as_xyz
  1  'x, y, z'
loop_
 _atom_site_type_symbol
 _atom_site_label
 _atom_site_symmetry_multiplicity
 _atom_site_fract_x
 _atom_site_fract_y
 _atom_site_fract_z
 _atom_site_occupancy
  Pr  Pr0  1  0.113001  0.615786  0.500000  1
  Pr  Pr1  1  0.885790  0.384301  0.500000  1
  Pr  Pr2  1  0.612391  0.888282  0.500000  1
  Sc  Sc3  1  0.388432  0.111616  0.500000  1
  Sc  Sc4  1  0.672362  0.178075  0.500000  1
  Sc  Sc5  1  0.322445  0.831339  0.500000  1
  Sc  Sc6  1  0.178370  0.316957  0.500000  1
  Sc  Sc7  1  0.822759  0.675506  0.500000  1
  Sc  Sc8  1  0.002403  0.999434  0.000000  1
  Sc  Sc9  1  0.505808  0.498407  0.000000  1
  Co  Co10  1  0.026479  0.237157  0.000000  1
  Co  Co11  1  0.975567  0.759656  0.000000  1
  Co  Co12  1  0.244216  0.976909  0.000000  1
  Co  Co13  1  0.524651  0.254706  0.000000  1
  Co  Co14  1  0.757788  0.024922  0.000000  1
  Co  Co15  1  0.475436  0.744978  0.000000  1
  Co  Co16  1  0.740512  0.525742  0.000000  1
  Si  Si17  1  0.568011  0.073086  0.000000  1
  Si  Si18  1  0.427506  0.934678  0.000000  1
  Si  Si19  1  0.067948  0.423245  0.000000  1
  Si  Si20  1  0.927651  0.571416  0.000000  1
  Si  Si21  1  0.198040  0.153900  0.000000  1
  Si  Si22  1  0.806162  0.843715  0.000000  1
  Si  Si23  1  0.157288  0.809248  0.000000  1
  Si  Si24  1  0.693189  0.342066  0.000000  1
  Si  Si25  1  0.843051  0.192320  0.000000  1
  Si  Si26  1  0.304805  0.667384  0.000000  1
  Si  Si27  1  0.656077  0.694886  0.000000  1
  Si  Si28  1  0.345136  0.291525  0.000000  1
  Si  Si29  1  0.006640  0.157432  0.500000  1
  Si  Si30  1  0.985905  0.840790  0.500000  1
  Si  Si31  1  0.166394  0.003304  0.500000  1
  Si  Si32  1  0.496966  0.332981  0.500000  1
  Si  Si33  1  0.840578  0.013268  0.500000  1
  Si  Si34  1  0.483294  0.661342  0.500000  1
  Si  Si35  1  0.662167  0.506746  0.500000  1
  Si  Si36  1  0.354510  0.488797  0.500000  1
  Ir  Ir37  1  0.260273  0.474097  0.000000  1
