# generated using pymatgen
data_Tb8Ta4Ti7Si16Mo
_symmetry_space_group_name_H-M   'P 1'
_cell_length_a   7.04885296
_cell_length_b   7.03668192
_cell_length_c   12.98549225
_cell_angle_alpha   89.92726526
_cell_angle_beta   90.12855117
_cell_angle_gamma   89.96840347
_symmetry_Int_Tables_number   1
_chemical_formula_structural   Tb8Ta4Ti7Si16Mo
_chemical_formula_sum   'Tb8 Ta4 Ti7 Si16 Mo1'
_cell_volume   644.08513929
_cell_formula_units_Z   1
loop_
 _symmetry_equiv_pos_site_id
 _symmetry_equiv_pos_as_xyz
  1  'x, y, z'
loop_
 _atom_site_type_symbol
 _atom_site_label
 _atom_site_symmetry_multiplicity
 _atom_site_fract_x
 _atom_site_fract_y
 _atom_site_fract_z
 _atom_site_occupancy
  Tb  Tb0  1  0.340853  0.001728  0.466854  1
  Tb  Tb1  1  0.497560  0.840549  0.718622  1
  Tb  Tb2  1  0.501911  0.159594  0.215949  1
  Tb  Tb3  1  0.839761  0.497170  0.282774  1
  Tb  Tb4  1  0.160228  0.502112  0.782846  1
  Tb  Tb5  1  0.658943  0.996334  0.967074  1
  Tb  Tb6  1  0.002093  0.339616  0.533485  1
  Tb  Tb7  1  0.998235  0.661195  0.031483  1
  Ta  Ta8  1  0.325035  0.326227  0.999385  1
  Ta  Ta9  1  0.171188  0.828366  0.249397  1
  Ta  Ta10  1  0.829975  0.171035  0.751060  1
  Ta  Ta11  1  0.673854  0.672864  0.500042  1
  Ti  Ti12  1  0.489559  0.655446  0.123813  1
  Ti  Ti13  1  0.507859  0.344451  0.626932  1
  Ti  Ti14  1  0.654553  0.490171  0.874226  1
  Ti  Ti15  1  0.345996  0.508949  0.375154  1
  Ti  Ti16  1  0.846198  0.990842  0.375453  1
  Ti  Ti17  1  0.007205  0.153426  0.125351  1
  Ti  Ti18  1  0.990807  0.845149  0.624385  1
  Si  Si19  1  0.202153  0.129163  0.685797  1
  Si  Si20  1  0.370262  0.703402  0.933631  1
  Si  Si21  1  0.629735  0.298723  0.435387  1
  Si  Si22  1  0.701622  0.370808  0.065074  1
  Si  Si23  1  0.299757  0.629831  0.565438  1
  Si  Si24  1  0.798311  0.869816  0.184671  1
  Si  Si25  1  0.130223  0.201409  0.315031  1
  Si  Si26  1  0.871887  0.799719  0.815921  1
  Si  Si27  1  0.291526  0.955521  0.063183  1
  Si  Si28  1  0.545439  0.791450  0.313716  1
  Si  Si29  1  0.453353  0.208973  0.814246  1
  Si  Si30  1  0.792192  0.545894  0.686005  1
  Si  Si31  1  0.208187  0.454428  0.185938  1
  Si  Si32  1  0.708989  0.045658  0.564451  1
  Si  Si33  1  0.954677  0.290443  0.936261  1
  Si  Si34  1  0.045669  0.708107  0.435843  1
  Mo  Mo35  1  0.154204  0.011434  0.875123  1
