# generated using pymatgen
data_Sr4ZnCo2O9
_symmetry_space_group_name_H-M   'P 1'
_cell_length_a   9.55299882
_cell_length_b   9.55850617
_cell_length_c   7.82332800
_cell_angle_alpha   90.00000000
_cell_angle_beta   89.97621322
_cell_angle_gamma   120.01906721
_symmetry_Int_Tables_number   1
_chemical_formula_structural   Sr4ZnCo2O9
_chemical_formula_sum   'Sr12 Zn3 Co6 O27'
_cell_volume   618.54086136
_cell_formula_units_Z   3
loop_
 _symmetry_equiv_pos_site_id
 _symmetry_equiv_pos_as_xyz
  1  'x, y, z'
loop_
 _atom_site_type_symbol
 _atom_site_label
 _atom_site_symmetry_multiplicity
 _atom_site_fract_x
 _atom_site_fract_y
 _atom_site_fract_z
 _atom_site_occupancy
  Sr  Sr0  1  0.999698  0.329864  0.000084  1
  Sr  Sr1  1  0.328687  0.999227  0.000600  1
  Sr  Sr2  1  0.026766  0.692445  0.247858  1
  Sr  Sr3  1  0.307733  0.333355  0.249398  1
  Sr  Sr4  1  0.666893  0.975002  0.249207  1
  Sr  Sr5  1  0.360064  0.999853  0.500309  1
  Sr  Sr6  1  0.999476  0.360010  0.499595  1
  Sr  Sr7  1  0.639846  0.640389  0.500376  1
  Sr  Sr8  1  0.333660  0.307432  0.751423  1
  Sr  Sr9  1  0.691049  0.024925  0.751224  1
  Sr  Sr10  1  0.973923  0.666828  0.750921  1
  Sr  Sr11  1  0.670852  0.670360  0.999116  1
  Zn  Zn12  1  0.671628  0.336152  0.257829  1
  Zn  Zn13  1  0.001273  0.999210  0.499952  1
  Zn  Zn14  1  0.331135  0.665802  0.742166  1
  Co  Co15  1  0.333509  0.665785  0.078470  1
  Co  Co16  1  0.000753  0.001319  0.160210  1
  Co  Co17  1  0.334406  0.667581  0.401823  1
  Co  Co18  1  0.665773  0.333647  0.598184  1
  Co  Co19  1  0.997997  0.999049  0.839770  1
  Co  Co20  1  0.665128  0.331738  0.921543  1
  O  O21  1  0.000091  0.850233  0.998041  1
  O  O22  1  0.849297  0.999595  0.999353  1
  O  O23  1  0.681278  0.183372  0.059625  1
  O  O24  1  0.503770  0.319184  0.057105  1
  O  O25  1  0.816346  0.496027  0.059992  1
  O  O26  1  0.350017  0.828493  0.242623  1
  O  O27  1  0.480053  0.650611  0.243153  1
  O  O28  1  0.171738  0.521040  0.238933  1
  O  O29  1  0.166517  0.009478  0.299641  1
  O  O30  1  0.993049  0.157417  0.301023  1
  O  O31  1  0.846141  0.837395  0.296930  1
  O  O32  1  0.683383  0.183931  0.459496  1
  O  O33  1  0.818918  0.502145  0.458124  1
  O  O34  1  0.499815  0.318414  0.459919  1
  O  O35  1  0.501444  0.819195  0.542933  1
  O  O36  1  0.182779  0.683370  0.539149  1
  O  O37  1  0.317344  0.500379  0.540601  1
  O  O38  1  0.153890  0.990640  0.700095  1
  O  O39  1  0.007145  0.163570  0.702807  1
  O  O40  1  0.833315  0.842065  0.699653  1
  O  O41  1  0.826981  0.349132  0.758877  1
  O  O42  1  0.518244  0.169182  0.758806  1
  O  O43  1  0.649905  0.478758  0.757567  1
  O  O44  1  0.183321  0.679438  0.938671  1
  O  O45  1  0.495997  0.815088  0.944055  1
  O  O46  1  0.318858  0.502211  0.940160  1
  O  O47  1  0.150120  0.149650  0.002609  1
