# generated using pymatgen
data_Ti5Al6MoRu12
_symmetry_space_group_name_H-M   'P 1'
_cell_length_a   4.30575700
_cell_length_b   6.12768200
_cell_length_c   12.89859700
_cell_angle_alpha   90.00005470
_cell_angle_beta   89.99885923
_cell_angle_gamma   90.00002266
_symmetry_Int_Tables_number   1
_chemical_formula_structural   Ti5Al6MoRu12
_chemical_formula_sum   'Ti5 Al6 Mo1 Ru12'
_cell_volume   340.32057746
_cell_formula_units_Z   1
loop_
 _symmetry_equiv_pos_site_id
 _symmetry_equiv_pos_as_xyz
  1  'x, y, z'
loop_
 _atom_site_type_symbol
 _atom_site_label
 _atom_site_symmetry_multiplicity
 _atom_site_fract_x
 _atom_site_fract_y
 _atom_site_fract_z
 _atom_site_occupancy
  Ti  Ti0  1  0.499825  0.000000  0.168851  1
  Ti  Ti1  1  0.999825  0.499999  0.334612  1
  Ti  Ti2  1  0.500000  0.000000  0.500000  1
  Ti  Ti3  1  0.000176  0.499999  0.665388  1
  Ti  Ti4  1  0.500176  0.000000  0.831149  1
  Al  Al5  1  0.000000  0.000000  0.000000  1
  Al  Al6  1  0.499812  0.499999  0.167948  1
  Al  Al7  1  0.999816  0.000000  0.333754  1
  Al  Al8  1  0.500000  0.499999  0.500000  1
  Al  Al9  1  0.000185  0.000000  0.666246  1
  Al  Al10  1  0.500188  0.499999  0.832052  1
  Mo  Mo11  1  0.000000  0.499999  0.000000  1
  Ru  Ru12  1  0.500000  0.252126  0.000000  1
  Ru  Ru13  1  0.500000  0.747873  0.000000  1
  Ru  Ru14  1  0.999811  0.248947  0.165367  1
  Ru  Ru15  1  0.999811  0.751053  0.165367  1
  Ru  Ru16  1  0.499815  0.251018  0.332813  1
  Ru  Ru17  1  0.499814  0.748983  0.332813  1
  Ru  Ru18  1  0.000000  0.248901  0.500000  1
  Ru  Ru19  1  0.000000  0.751099  0.500000  1
  Ru  Ru20  1  0.500184  0.251018  0.667187  1
  Ru  Ru21  1  0.500183  0.748983  0.667187  1
  Ru  Ru22  1  0.000190  0.248947  0.834633  1
  Ru  Ru23  1  0.000190  0.751053  0.834633  1
