# generated using pymatgen
data_Sm3Zn3RuAu2
_symmetry_space_group_name_H-M   'P 1'
_cell_length_a   7.51747000
_cell_length_b   7.51746964
_cell_length_c   3.94260700
_cell_angle_alpha   90.00000000
_cell_angle_beta   90.00000000
_cell_angle_gamma   120.00001038
_symmetry_Int_Tables_number   1
_chemical_formula_structural   Sm3Zn3RuAu2
_chemical_formula_sum   'Sm3 Zn3 Ru1 Au2'
_cell_volume   192.95563295
_cell_formula_units_Z   1
loop_
 _symmetry_equiv_pos_site_id
 _symmetry_equiv_pos_as_xyz
  1  'x, y, z'
loop_
 _atom_site_type_symbol
 _atom_site_label
 _atom_site_symmetry_multiplicity
 _atom_site_fract_x
 _atom_site_fract_y
 _atom_site_fract_z
 _atom_site_occupancy
  Sm  Sm0  1  0.582560  0.979099  0.000000  1
  Sm  Sm1  1  0.020901  0.603461  0.000000  1
  Sm  Sm2  1  0.396539  0.417440  0.000000  1
  Zn  Zn3  1  0.256129  0.988765  0.500000  1
  Zn  Zn4  1  0.011235  0.267364  0.500000  1
  Zn  Zn5  1  0.732636  0.743871  0.500000  1
  Ru  Ru6  1  0.333333  0.666667  0.500000  1
  Au  Au7  1  0.666667  0.333333  0.500000  1
  Au  Au8  1  0.000000  0.000000  0.000000  1
