# generated using pymatgen
data_Tm4InPt
_symmetry_space_group_name_H-M   'P 1'
_cell_length_a   9.58977135
_cell_length_b   9.58977072
_cell_length_c   9.58977100
_cell_angle_alpha   60.00000249
_cell_angle_beta   60.00000467
_cell_angle_gamma   59.99999894
_symmetry_Int_Tables_number   1
_chemical_formula_structural   Tm4InPt
_chemical_formula_sum   'Tm16 In4 Pt4'
_cell_volume   623.60521047
_cell_formula_units_Z   4
loop_
 _symmetry_equiv_pos_site_id
 _symmetry_equiv_pos_as_xyz
  1  'x, y, z'
loop_
 _atom_site_type_symbol
 _atom_site_label
 _atom_site_symmetry_multiplicity
 _atom_site_fract_x
 _atom_site_fract_y
 _atom_site_fract_z
 _atom_site_occupancy
  Tm  Tm0  1  0.351319  0.351319  0.351319  1
  Tm  Tm1  1  0.351319  0.351319  0.946045  1
  Tm  Tm2  1  0.351319  0.946045  0.351319  1
  Tm  Tm3  1  0.946045  0.351319  0.351319  1
  Tm  Tm4  1  0.810757  0.189243  0.189243  1
  Tm  Tm5  1  0.189243  0.810757  0.810757  1
  Tm  Tm6  1  0.189243  0.810757  0.189243  1
  Tm  Tm7  1  0.810757  0.189243  0.810757  1
  Tm  Tm8  1  0.189243  0.189243  0.810757  1
  Tm  Tm9  1  0.810757  0.810757  0.189243  1
  Tm  Tm10  1  0.937114  0.562886  0.562886  1
  Tm  Tm11  1  0.562886  0.937114  0.937114  1
  Tm  Tm12  1  0.562886  0.937114  0.562886  1
  Tm  Tm13  1  0.937114  0.562886  0.937114  1
  Tm  Tm14  1  0.562886  0.562886  0.937114  1
  Tm  Tm15  1  0.937114  0.937114  0.562886  1
  In  In16  1  0.583600  0.583600  0.583600  1
  In  In17  1  0.583600  0.583600  0.249200  1
  In  In18  1  0.583600  0.249200  0.583600  1
  In  In19  1  0.249200  0.583600  0.583600  1
  Pt  Pt20  1  0.143062  0.143062  0.143062  1
  Pt  Pt21  1  0.143062  0.143062  0.570814  1
  Pt  Pt22  1  0.143062  0.570814  0.143062  1
  Pt  Pt23  1  0.570814  0.143062  0.143062  1
