# generated using pymatgen
data_PaTcB4
_symmetry_space_group_name_H-M   'P 1'
_cell_length_a   3.66361200
_cell_length_b   5.96502500
_cell_length_c   11.56891200
_cell_angle_alpha   90.00000000
_cell_angle_beta   90.00000000
_cell_angle_gamma   90.00000000
_symmetry_Int_Tables_number   1
_chemical_formula_structural   PaTcB4
_chemical_formula_sum   'Pa4 Tc4 B16'
_cell_volume   252.82164841
_cell_formula_units_Z   4
loop_
 _symmetry_equiv_pos_site_id
 _symmetry_equiv_pos_as_xyz
  1  'x, y, z'
loop_
 _atom_site_type_symbol
 _atom_site_label
 _atom_site_symmetry_multiplicity
 _atom_site_fract_x
 _atom_site_fract_y
 _atom_site_fract_z
 _atom_site_occupancy
  Pa  Pa0  1  0.000000  0.627404  0.350084  1
  Pa  Pa1  1  0.000000  0.372596  0.649916  1
  Pa  Pa2  1  0.000000  0.127404  0.149916  1
  Pa  Pa3  1  0.000000  0.872596  0.850084  1
  Tc  Tc4  1  0.000000  0.638306  0.093746  1
  Tc  Tc5  1  0.000000  0.361694  0.906254  1
  Tc  Tc6  1  0.000000  0.138306  0.406254  1
  Tc  Tc7  1  0.000000  0.861694  0.593746  1
  B  B8  1  0.500000  0.788202  0.187363  1
  B  B9  1  0.500000  0.211798  0.812637  1
  B  B10  1  0.500000  0.288202  0.312637  1
  B  B11  1  0.500000  0.711798  0.687363  1
  B  B12  1  0.500000  0.864641  0.032028  1
  B  B13  1  0.500000  0.135359  0.967972  1
  B  B14  1  0.500000  0.364641  0.467972  1
  B  B15  1  0.500000  0.635359  0.532028  1
  B  B16  1  0.500000  0.887229  0.453982  1
  B  B17  1  0.500000  0.112771  0.546018  1
  B  B18  1  0.500000  0.387229  0.046018  1
  B  B19  1  0.500000  0.612771  0.953982  1
  B  B20  1  0.500000  0.972683  0.308579  1
  B  B21  1  0.500000  0.027317  0.691421  1
  B  B22  1  0.500000  0.472683  0.191421  1
  B  B23  1  0.500000  0.527317  0.808579  1
