# generated using pymatgen
data_Er4Sc4Al(B8Ir)3
_symmetry_space_group_name_H-M   'P 1'
_cell_length_a   3.52512100
_cell_length_b   8.99820300
_cell_length_c   11.35840712
_cell_angle_alpha   90.00654219
_cell_angle_beta   90.00000000
_cell_angle_gamma   90.00000000
_symmetry_Int_Tables_number   1
_chemical_formula_structural   Er4Sc4Al(B8Ir)3
_chemical_formula_sum   'Er4 Sc4 Al1 B24 Ir3'
_cell_volume   360.28588163
_cell_formula_units_Z   1
loop_
 _symmetry_equiv_pos_site_id
 _symmetry_equiv_pos_as_xyz
  1  'x, y, z'
loop_
 _atom_site_type_symbol
 _atom_site_label
 _atom_site_symmetry_multiplicity
 _atom_site_fract_x
 _atom_site_fract_y
 _atom_site_fract_z
 _atom_site_occupancy
  Er  Er0  1  0.500000  0.316831  0.410818  1
  Er  Er1  1  0.500000  0.679715  0.584781  1
  Er  Er2  1  0.500000  0.180342  0.916411  1
  Er  Er3  1  0.500000  0.822398  0.087961  1
  Sc  Sc4  1  0.500000  0.443845  0.125412  1
  Sc  Sc5  1  0.500000  0.556048  0.874892  1
  Sc  Sc6  1  0.500000  0.054820  0.626154  1
  Sc  Sc7  1  0.500000  0.947276  0.374403  1
  Al  Al8  1  0.500000  0.139563  0.180683  1
  B  B9  1  0.000000  0.100507  0.473042  1
  B  B10  1  0.000000  0.900213  0.527301  1
  B  B11  1  0.000000  0.399687  0.972553  1
  B  B12  1  0.000000  0.600589  0.027452  1
  B  B13  1  0.000000  0.129860  0.318469  1
  B  B14  1  0.000000  0.869786  0.680929  1
  B  B15  1  0.000000  0.369762  0.819118  1
  B  B16  1  0.000000  0.629817  0.183021  1
  B  B17  1  0.000000  0.052493  0.064734  1
  B  B18  1  0.000000  0.946656  0.934735  1
  B  B19  1  0.000000  0.445520  0.565587  1
  B  B20  1  0.000000  0.552716  0.433145  1
  B  B21  1  0.000000  0.479564  0.285762  1
  B  B22  1  0.000000  0.518876  0.714698  1
  B  B23  1  0.000000  0.018545  0.786400  1
  B  B24  1  0.000000  0.979022  0.214221  1
  B  B25  1  0.000000  0.254195  0.079038  1
  B  B26  1  0.000000  0.747785  0.920871  1
  B  B27  1  0.000000  0.245578  0.579354  1
  B  B28  1  0.000000  0.755405  0.419259  1
  B  B29  1  0.000000  0.297581  0.235607  1
  B  B30  1  0.000000  0.704995  0.763744  1
  B  B31  1  0.000000  0.205067  0.735654  1
  B  B32  1  0.000000  0.796438  0.264921  1
  Ir  Ir33  1  0.500000  0.857002  0.817115  1
  Ir  Ir34  1  0.500000  0.360138  0.680955  1
  Ir  Ir35  1  0.500000  0.641365  0.320801  1
