# generated using pymatgen
data_SrFeCoP2
_symmetry_space_group_name_H-M   'P 1'
_cell_length_a   6.45839966
_cell_length_b   6.45839969
_cell_length_c   6.45839895
_cell_angle_alpha   146.21215903
_cell_angle_beta   146.21216007
_cell_angle_gamma   48.53174377
_symmetry_Int_Tables_number   1
_chemical_formula_structural   SrFeCoP2
_chemical_formula_sum   'Sr1 Fe1 Co1 P2'
_cell_volume   82.95741106
_cell_formula_units_Z   1
loop_
 _symmetry_equiv_pos_site_id
 _symmetry_equiv_pos_as_xyz
  1  'x, y, z'
loop_
 _atom_site_type_symbol
 _atom_site_label
 _atom_site_symmetry_multiplicity
 _atom_site_fract_x
 _atom_site_fract_y
 _atom_site_fract_z
 _atom_site_occupancy
  Sr  Sr0  1  0.000000  0.000000  0.000000  1
  Fe  Fe1  1  0.250000  0.750000  0.500000  1
  Co  Co2  1  0.750000  0.250000  0.500000  1
  P  P3  1  0.651733  0.651733  0.000000  1
  P  P4  1  0.348267  0.348267  0.000000  1
