# generated using pymatgen
data_MgSc5(NbRu2)6
_symmetry_space_group_name_H-M   'P 1'
_cell_length_a   4.50406101
_cell_length_b   6.34695501
_cell_length_c   13.54716900
_cell_angle_alpha   90.00037990
_cell_angle_beta   89.99986871
_cell_angle_gamma   90.00783958
_symmetry_Int_Tables_number   1
_chemical_formula_structural   MgSc5(NbRu2)6
_chemical_formula_sum   'Mg1 Sc5 Nb6 Ru12'
_cell_volume   387.27390034
_cell_formula_units_Z   1
loop_
 _symmetry_equiv_pos_site_id
 _symmetry_equiv_pos_as_xyz
  1  'x, y, z'
loop_
 _atom_site_type_symbol
 _atom_site_label
 _atom_site_symmetry_multiplicity
 _atom_site_fract_x
 _atom_site_fract_y
 _atom_site_fract_z
 _atom_site_occupancy
  Mg  Mg0  1  0.500099  0.500015  0.833359  1
  Sc  Sc1  1  0.000002  0.000002  0.999402  1
  Sc  Sc2  1  0.499911  0.499995  0.164944  1
  Sc  Sc3  1  0.999929  0.000006  0.333318  1
  Sc  Sc4  1  0.500009  0.499991  0.501728  1
  Sc  Sc5  1  0.000112  0.999990  0.667253  1
  Nb  Nb6  1  0.999975  0.499996  0.994511  1
  Nb  Nb7  1  0.499917  0.000002  0.166123  1
  Nb  Nb8  1  0.999927  0.500000  0.333317  1
  Nb  Nb9  1  0.500002  0.000002  0.500525  1
  Nb  Nb10  1  0.000080  0.499999  0.672171  1
  Nb  Nb11  1  0.500060  0.000000  0.833345  1
  Ru  Ru12  1  0.499989  0.249136  0.999894  1
  Ru  Ru13  1  0.499976  0.750859  0.999895  1
  Ru  Ru14  1  0.999916  0.250668  0.166283  1
  Ru  Ru15  1  0.999934  0.749334  0.166280  1
  Ru  Ru16  1  0.499935  0.250899  0.333326  1
  Ru  Ru17  1  0.499923  0.749102  0.333327  1
  Ru  Ru18  1  0.000002  0.250679  0.500391  1
  Ru  Ru19  1  0.000011  0.749321  0.500392  1
  Ru  Ru20  1  0.500080  0.249152  0.666776  1
  Ru  Ru21  1  0.500078  0.750853  0.666776  1
  Ru  Ru22  1  0.000046  0.248995  0.833334  1
  Ru  Ru23  1  0.000084  0.751004  0.833334  1
