# generated using pymatgen
data_Dy2CdCuPd
_symmetry_space_group_name_H-M   'P 1'
_cell_length_a   7.62058000
_cell_length_b   7.59245700
_cell_length_c   3.75454600
_cell_angle_alpha   90.00000000
_cell_angle_beta   90.00000000
_cell_angle_gamma   90.00000000
_symmetry_Int_Tables_number   1
_chemical_formula_structural   Dy2CdCuPd
_chemical_formula_sum   'Dy4 Cd2 Cu2 Pd2'
_cell_volume   217.23399905
_cell_formula_units_Z   2
loop_
 _symmetry_equiv_pos_site_id
 _symmetry_equiv_pos_as_xyz
  1  'x, y, z'
loop_
 _atom_site_type_symbol
 _atom_site_label
 _atom_site_symmetry_multiplicity
 _atom_site_fract_x
 _atom_site_fract_y
 _atom_site_fract_z
 _atom_site_occupancy
  Dy  Dy0  1  0.327232  0.823711  0.500000  1
  Dy  Dy1  1  0.827232  0.676289  0.500000  1
  Dy  Dy2  1  0.174240  0.329922  0.500000  1
  Dy  Dy3  1  0.674240  0.170078  0.500000  1
  Cd  Cd4  1  0.002591  0.005458  0.000000  1
  Cd  Cd5  1  0.502591  0.494542  0.000000  1
  Cu  Cu6  1  0.374429  0.125306  0.000000  1
  Cu  Cu7  1  0.874429  0.374694  0.000000  1
  Pd  Pd8  1  0.121507  0.621949  0.000000  1
  Pd  Pd9  1  0.621507  0.878051  0.000000  1
