# generated using pymatgen
data_La3CrReC6
_symmetry_space_group_name_H-M   'P 1'
_cell_length_a   8.52091800
_cell_length_b   8.52091661
_cell_length_c   5.30802400
_cell_angle_alpha   90.00000000
_cell_angle_beta   90.00000000
_cell_angle_gamma   119.99999660
_symmetry_Int_Tables_number   1
_chemical_formula_structural   La3CrReC6
_chemical_formula_sum   'La6 Cr2 Re2 C12'
_cell_volume   333.76148990
_cell_formula_units_Z   2
loop_
 _symmetry_equiv_pos_site_id
 _symmetry_equiv_pos_as_xyz
  1  'x, y, z'
loop_
 _atom_site_type_symbol
 _atom_site_label
 _atom_site_symmetry_multiplicity
 _atom_site_fract_x
 _atom_site_fract_y
 _atom_site_fract_z
 _atom_site_occupancy
  La  La0  1  0.616673  0.698544  0.750000  1
  La  La1  1  0.918129  0.616673  0.250000  1
  La  La2  1  0.698544  0.081871  0.250000  1
  La  La3  1  0.301456  0.918129  0.750000  1
  La  La4  1  0.081871  0.383327  0.750000  1
  La  La5  1  0.383327  0.301456  0.250000  1
  Cr  Cr6  1  0.000000  0.000000  0.500000  1
  Cr  Cr7  1  0.000000  0.000000  0.000000  1
  Re  Re8  1  0.666667  0.333333  0.750000  1
  Re  Re9  1  0.333333  0.666667  0.250000  1
  C  C10  1  0.949227  0.775455  0.750000  1
  C  C11  1  0.173771  0.949227  0.250000  1
  C  C12  1  0.775455  0.826229  0.250000  1
  C  C13  1  0.224545  0.173771  0.750000  1
  C  C14  1  0.826229  0.050773  0.750000  1
  C  C15  1  0.050773  0.224545  0.250000  1
  C  C16  1  0.856705  0.589065  0.750000  1
  C  C17  1  0.267639  0.856705  0.250000  1
  C  C18  1  0.589065  0.732361  0.250000  1
  C  C19  1  0.410935  0.267639  0.750000  1
  C  C20  1  0.143295  0.410935  0.250000  1
  C  C21  1  0.732361  0.143295  0.750000  1
