# generated using pymatgen
data_La3Nd13Cd2Hg2Ir3Pt
_symmetry_space_group_name_H-M   'P 1'
_cell_length_a   10.00797117
_cell_length_b   10.01328335
_cell_length_c   10.01328400
_cell_angle_alpha   60.22655739
_cell_angle_beta   60.17336976
_cell_angle_gamma   60.17337098
_symmetry_Int_Tables_number   1
_chemical_formula_structural   La3Nd13Cd2Hg2Ir3Pt
_chemical_formula_sum   'La3 Nd13 Cd2 Hg2 Ir3 Pt1'
_cell_volume   712.62191318
_cell_formula_units_Z   1
loop_
 _symmetry_equiv_pos_site_id
 _symmetry_equiv_pos_as_xyz
  1  'x, y, z'
loop_
 _atom_site_type_symbol
 _atom_site_label
 _atom_site_symmetry_multiplicity
 _atom_site_fract_x
 _atom_site_fract_y
 _atom_site_fract_z
 _atom_site_occupancy
  La  La0  1  0.345530  0.347384  0.347305  1
  La  La1  1  0.351413  0.352259  0.951471  1
  La  La2  1  0.352144  0.949963  0.352594  1
  Nd  Nd3  1  0.944852  0.353726  0.353354  1
  Nd  Nd4  1  0.806118  0.190138  0.190439  1
  Nd  Nd5  1  0.188760  0.809932  0.810157  1
  Nd  Nd6  1  0.189960  0.806812  0.189560  1
  Nd  Nd7  1  0.810749  0.188160  0.809143  1
  Nd  Nd8  1  0.189505  0.188747  0.807593  1
  Nd  Nd9  1  0.810135  0.808403  0.188948  1
  Nd  Nd10  1  0.939447  0.562119  0.562563  1
  Nd  Nd11  1  0.562223  0.937485  0.938914  1
  Nd  Nd12  1  0.563023  0.938129  0.563682  1
  Nd  Nd13  1  0.938085  0.562076  0.938897  1
  Nd  Nd14  1  0.562868  0.563071  0.939170  1
  Nd  Nd15  1  0.938372  0.937866  0.562418  1
  Cd  Cd16  1  0.581207  0.257867  0.580107  1
  Cd  Cd17  1  0.257700  0.580166  0.580935  1
  Hg  Hg18  1  0.585258  0.582660  0.584641  1
  Hg  Hg19  1  0.584986  0.582771  0.247204  1
  Ir  Ir20  1  0.141427  0.142049  0.573907  1
  Ir  Ir21  1  0.141417  0.573732  0.142229  1
  Ir  Ir22  1  0.573900  0.141507  0.141702  1
  Pt  Pt23  1  0.140914  0.142977  0.143065  1
