# generated using pymatgen
data_DyHo11Co4NiSn
_symmetry_space_group_name_H-M   'P 1'
_cell_length_a   8.25912373
_cell_length_b   8.25912386
_cell_length_c   8.24259744
_cell_angle_alpha   106.86645696
_cell_angle_beta   110.50390515
_cell_angle_gamma   111.15352390
_symmetry_Int_Tables_number   1
_chemical_formula_structural   DyHo11Co4NiSn
_chemical_formula_sum   'Dy1 Ho11 Co4 Ni1 Sn1'
_cell_volume   431.71133044
_cell_formula_units_Z   1
loop_
 _symmetry_equiv_pos_site_id
 _symmetry_equiv_pos_as_xyz
  1  'x, y, z'
loop_
 _atom_site_type_symbol
 _atom_site_label
 _atom_site_symmetry_multiplicity
 _atom_site_fract_x
 _atom_site_fract_y
 _atom_site_fract_z
 _atom_site_occupancy
  Dy  Dy0  1  0.803847  0.210921  0.014769  1
  Ho  Ho1  1  0.478252  0.292574  0.185906  1
  Ho  Ho2  1  0.107068  0.292686  0.814113  1
  Ho  Ho3  1  0.893333  0.707653  0.185906  1
  Ho  Ho4  1  0.521428  0.707046  0.814113  1
  Ho  Ho5  1  0.305642  0.619991  0.314851  1
  Ho  Ho6  1  0.305038  0.990475  0.685286  1
  Ho  Ho7  1  0.694813  0.380249  0.685286  1
  Ho  Ho8  1  0.694859  0.009208  0.314851  1
  Ho  Ho9  1  0.196661  0.210463  0.407124  1
  Ho  Ho10  1  0.803917  0.789168  0.593085  1
  Ho  Ho11  1  0.196243  0.789626  0.985868  1
  Co  Co12  1  0.500272  0.612837  0.113108  1
  Co  Co13  1  0.499801  0.387237  0.887038  1
  Co  Co14  1  0.376366  0.000095  0.376461  1
  Co  Co15  1  0.623567  0.999712  0.623279  1
  Ni  Ni16  1  0.998954  0.000548  0.999502  1
  Sn  Sn17  1  0.999940  0.499514  0.499454  1
