# generated using pymatgen
data_Mo2Br8N
_symmetry_space_group_name_H-M   'P 1'
_cell_length_a   7.25941770
_cell_length_b   7.30728633
_cell_length_c   7.20005047
_cell_angle_alpha   91.61683186
_cell_angle_beta   96.26836142
_cell_angle_gamma   95.62267243
_symmetry_Int_Tables_number   1
_chemical_formula_structural   Mo2Br8N
_chemical_formula_sum   'Mo2 Br8 N1'
_cell_volume   377.53599549
_cell_formula_units_Z   1
loop_
 _symmetry_equiv_pos_site_id
 _symmetry_equiv_pos_as_xyz
  1  'x, y, z'
loop_
 _atom_site_type_symbol
 _atom_site_label
 _atom_site_symmetry_multiplicity
 _atom_site_fract_x
 _atom_site_fract_y
 _atom_site_fract_z
 _atom_site_occupancy
  Mo  Mo0  1  0.049140  0.415158  0.772654  1
  Mo  Mo1  1  0.950860  0.584842  0.227346  1
  Br  Br2  1  0.657036  0.381162  0.207091  1
  Br  Br3  1  0.892398  0.683637  0.595890  1
  Br  Br4  1  0.259643  0.763062  0.284024  1
  Br  Br5  1  0.794870  0.854002  0.130982  1
  Br  Br6  1  0.205130  0.145998  0.869018  1
  Br  Br7  1  0.342964  0.618838  0.792909  1
  Br  Br8  1  0.107602  0.316363  0.404110  1
  Br  Br9  1  0.740357  0.236938  0.715976  1
  N  N10  1  0.000000  0.500000  0.000000  1
