# generated using pymatgen
data_Lu11Ta3O24
_symmetry_space_group_name_H-M   'P 1'
_cell_length_a   8.18887646
_cell_length_b   8.24491905
_cell_length_c   8.28119800
_cell_angle_alpha   71.33840344
_cell_angle_beta   72.35787365
_cell_angle_gamma   71.85009760
_symmetry_Int_Tables_number   1
_chemical_formula_structural   Lu11Ta3O24
_chemical_formula_sum   'Lu11 Ta3 O24'
_cell_volume   490.35180081
_cell_formula_units_Z   1
loop_
 _symmetry_equiv_pos_site_id
 _symmetry_equiv_pos_as_xyz
  1  'x, y, z'
loop_
 _atom_site_type_symbol
 _atom_site_label
 _atom_site_symmetry_multiplicity
 _atom_site_fract_x
 _atom_site_fract_y
 _atom_site_fract_z
 _atom_site_occupancy
  Lu  Lu0  1  0.389639  0.914514  0.224136  1
  Lu  Lu1  1  0.717294  0.890305  0.424752  1
  Lu  Lu2  1  0.421153  0.723641  0.889785  1
  Lu  Lu3  1  0.076498  0.783762  0.609701  1
  Lu  Lu4  1  0.892530  0.420082  0.720187  1
  Lu  Lu5  1  0.777415  0.613842  0.076159  1
  Lu  Lu6  1  0.109108  0.580853  0.289942  1
  Lu  Lu7  1  0.922008  0.214140  0.393713  1
  Lu  Lu8  1  0.586476  0.279637  0.104821  1
  Lu  Lu9  1  0.286589  0.106613  0.563385  1
  Lu  Lu10  1  0.608426  0.080531  0.774797  1
  Ta  Ta11  1  0.001308  0.998624  0.003782  1
  Ta  Ta12  1  0.503768  0.491705  0.496741  1
  Ta  Ta13  1  0.209485  0.398242  0.939081  1
  O  O14  1  0.133837  0.918648  0.783836  1
  O  O15  1  0.589725  0.713468  0.372418  1
  O  O16  1  0.510130  0.913829  0.664796  1
  O  O17  1  0.218061  0.861737  0.091998  1
  O  O18  1  0.831013  0.991213  0.583061  1
  O  O19  1  0.920366  0.667227  0.515069  1
  O  O20  1  0.580089  0.839041  0.991125  1
  O  O21  1  0.668784  0.515263  0.917779  1
  O  O22  1  0.284656  0.639925  0.409744  1
  O  O23  1  0.003194  0.575406  0.839690  1
  O  O24  1  0.636809  0.412295  0.280709  1
  O  O25  1  0.912723  0.782413  0.133981  1
  O  O26  1  0.097585  0.229330  0.886122  1
  O  O27  1  0.350019  0.562354  0.738603  1
  O  O28  1  0.023844  0.409143  0.156487  1
  O  O29  1  0.714331  0.364332  0.594715  1
  O  O30  1  0.321237  0.488380  0.076631  1
  O  O31  1  0.400185  0.188574  0.992889  1
  O  O32  1  0.077869  0.332421  0.490003  1
  O  O33  1  0.166326  0.008218  0.415717  1
  O  O34  1  0.786031  0.139785  0.906809  1
  O  O35  1  0.490625  0.081144  0.320163  1
  O  O36  1  0.417967  0.276778  0.611959  1
  O  O37  1  0.862896  0.092583  0.214708  1
