# generated using pymatgen
data_Dy9Y11(SnSb)8
_symmetry_space_group_name_H-M   'P 1'
_cell_length_a   8.10258500
_cell_length_b   8.15300200
_cell_length_c   15.44943300
_cell_angle_alpha   90.00000000
_cell_angle_beta   90.00000000
_cell_angle_gamma   89.99909767
_symmetry_Int_Tables_number   1
_chemical_formula_structural   Dy9Y11(SnSb)8
_chemical_formula_sum   'Dy9 Y11 Sn8 Sb8'
_cell_volume   1020.59559562
_cell_formula_units_Z   1
loop_
 _symmetry_equiv_pos_site_id
 _symmetry_equiv_pos_as_xyz
  1  'x, y, z'
loop_
 _atom_site_type_symbol
 _atom_site_label
 _atom_site_symmetry_multiplicity
 _atom_site_fract_x
 _atom_site_fract_y
 _atom_site_fract_z
 _atom_site_occupancy
  Dy  Dy0  1  0.390742  0.838604  0.880935  1
  Dy  Dy1  1  0.890850  0.661296  0.619076  1
  Dy  Dy2  1  0.609234  0.161326  0.380965  1
  Dy  Dy3  1  0.109252  0.338691  0.119037  1
  Dy  Dy4  1  0.609234  0.161326  0.119035  1
  Dy  Dy5  1  0.109252  0.338691  0.380963  1
  Dy  Dy6  1  0.390742  0.838604  0.619065  1
  Dy  Dy7  1  0.890850  0.661296  0.880924  1
  Dy  Dy8  1  0.222270  0.499341  0.750000  1
  Y  Y9  1  0.556864  0.329748  0.892045  1
  Y  Y10  1  0.056969  0.170353  0.607957  1
  Y  Y11  1  0.443042  0.670269  0.392079  1
  Y  Y12  1  0.943077  0.829729  0.107928  1
  Y  Y13  1  0.443042  0.670269  0.107921  1
  Y  Y14  1  0.943077  0.829729  0.392072  1
  Y  Y15  1  0.556864  0.329748  0.607955  1
  Y  Y16  1  0.056969  0.170353  0.892043  1
  Y  Y17  1  0.722300  0.000630  0.750000  1
  Y  Y18  1  0.777685  0.500618  0.250000  1
  Y  Y19  1  0.277700  0.999385  0.250000  1
  Sn  Sn20  1  0.587714  0.627798  0.750000  1
  Sn  Sn21  1  0.087873  0.872040  0.750000  1
  Sn  Sn22  1  0.412163  0.372134  0.250000  1
  Sn  Sn23  1  0.912159  0.127863  0.250000  1
  Sn  Sn24  1  0.359683  0.142303  0.750000  1
  Sn  Sn25  1  0.859860  0.357872  0.750000  1
  Sn  Sn26  1  0.640262  0.857815  0.250000  1
  Sn  Sn27  1  0.140236  0.642209  0.250000  1
  Sb  Sb28  1  0.267122  0.017617  0.046724  1
  Sb  Sb29  1  0.767137  0.482382  0.453281  1
  Sb  Sb30  1  0.732872  0.982379  0.546714  1
  Sb  Sb31  1  0.232886  0.517601  0.953231  1
  Sb  Sb32  1  0.732872  0.982379  0.953286  1
  Sb  Sb33  1  0.232886  0.517601  0.546769  1
  Sb  Sb34  1  0.267122  0.017617  0.453276  1
  Sb  Sb35  1  0.767137  0.482382  0.046719  1
