# generated using pymatgen
data_Hf4Si2PtRh9
_symmetry_space_group_name_H-M   'P 1'
_cell_length_a   4.05495400
_cell_length_b   5.56266756
_cell_length_c   10.86506096
_cell_angle_alpha   89.87035561
_cell_angle_beta   90.00000000
_cell_angle_gamma   90.00000000
_symmetry_Int_Tables_number   1
_chemical_formula_structural   Hf4Si2PtRh9
_chemical_formula_sum   'Hf4 Si2 Pt1 Rh9'
_cell_volume   245.07561057
_cell_formula_units_Z   1
loop_
 _symmetry_equiv_pos_site_id
 _symmetry_equiv_pos_as_xyz
  1  'x, y, z'
loop_
 _atom_site_type_symbol
 _atom_site_label
 _atom_site_symmetry_multiplicity
 _atom_site_fract_x
 _atom_site_fract_y
 _atom_site_fract_z
 _atom_site_occupancy
  Hf  Hf0  1  0.500000  0.167685  0.638124  1
  Hf  Hf1  1  0.500000  0.823051  0.358015  1
  Hf  Hf2  1  0.500000  0.684151  0.862862  1
  Hf  Hf3  1  0.500000  0.324618  0.141721  1
  Si  Si4  1  0.000000  0.499525  0.495808  1
  Si  Si5  1  0.000000  0.001888  0.002224  1
  Pt  Pt6  1  0.000000  0.430927  0.742125  1
  Rh  Rh7  1  0.500000  0.186240  0.896393  1
  Rh  Rh8  1  0.500000  0.818970  0.103769  1
  Rh  Rh9  1  0.500000  0.676484  0.603441  1
  Rh  Rh10  1  0.500000  0.316112  0.397169  1
  Rh  Rh11  1  0.000000  0.571891  0.259852  1
  Rh  Rh12  1  0.000000  0.994282  0.498651  1
  Rh  Rh13  1  0.000000  0.501935  0.000884  1
  Rh  Rh14  1  0.000000  0.071953  0.239618  1
  Rh  Rh15  1  0.000000  0.930287  0.759343  1
