# generated using pymatgen
data_Dy3In4CoAg
_symmetry_space_group_name_H-M   'P 1'
_cell_length_a   8.02352300
_cell_length_b   8.02352397
_cell_length_c   3.71921000
_cell_angle_alpha   90.00000000
_cell_angle_beta   90.00000000
_cell_angle_gamma   120.00000837
_symmetry_Int_Tables_number   1
_chemical_formula_structural   Dy3In4CoAg
_chemical_formula_sum   'Dy3 In4 Co1 Ag1'
_cell_volume   207.35358683
_cell_formula_units_Z   1
loop_
 _symmetry_equiv_pos_site_id
 _symmetry_equiv_pos_as_xyz
  1  'x, y, z'
loop_
 _atom_site_type_symbol
 _atom_site_label
 _atom_site_symmetry_multiplicity
 _atom_site_fract_x
 _atom_site_fract_y
 _atom_site_fract_z
 _atom_site_occupancy
  Dy  Dy0  1  0.046822  0.287522  0.500000  1
  Dy  Dy1  1  0.712478  0.759299  0.500000  1
  Dy  Dy2  1  0.240701  0.953178  0.500000  1
  In  In3  1  0.668991  0.063287  0.000000  1
  In  In4  1  0.936713  0.605705  0.000000  1
  In  In5  1  0.394295  0.331009  0.000000  1
  In  In6  1  0.333333  0.666667  0.000000  1
  Co  Co7  1  0.000000  0.000000  0.000000  1
  Ag  Ag8  1  0.666667  0.333333  0.500000  1
