# generated using pymatgen
data_Ho16Er4Si15Se
_symmetry_space_group_name_H-M   'P 1'
_cell_length_a   7.46755731
_cell_length_b   7.59973764
_cell_length_c   14.54975500
_cell_angle_alpha   89.68137759
_cell_angle_beta   85.68221783
_cell_angle_gamma   89.89773642
_symmetry_Int_Tables_number   1
_chemical_formula_structural   Ho16Er4Si15Se
_chemical_formula_sum   'Ho16 Er4 Si15 Se1'
_cell_volume   823.36302677
_cell_formula_units_Z   1
loop_
 _symmetry_equiv_pos_site_id
 _symmetry_equiv_pos_as_xyz
  1  'x, y, z'
loop_
 _atom_site_type_symbol
 _atom_site_label
 _atom_site_symmetry_multiplicity
 _atom_site_fract_x
 _atom_site_fract_y
 _atom_site_fract_z
 _atom_site_occupancy
  Ho  Ho0  1  0.020000  0.832350  0.105846  1
  Ho  Ho1  1  0.477509  0.684872  0.398156  1
  Ho  Ho2  1  0.479088  0.314709  0.896445  1
  Ho  Ho3  1  0.022745  0.182231  0.601502  1
  Ho  Ho4  1  0.988928  0.170357  0.897024  1
  Ho  Ho5  1  0.522495  0.314757  0.600996  1
  Ho  Ho6  1  0.507264  0.687188  0.104558  1
  Ho  Ho7  1  0.976863  0.815492  0.398293  1
  Ho  Ho8  1  0.634194  0.837448  0.880317  1
  Ho  Ho9  1  0.172676  0.675407  0.622974  1
  Ho  Ho10  1  0.865562  0.335506  0.118591  1
  Ho  Ho11  1  0.329281  0.179197  0.377697  1
  Ho  Ho12  1  0.364583  0.167299  0.119620  1
  Ho  Ho13  1  0.827869  0.324381  0.377429  1
  Ho  Ho14  1  0.137758  0.665032  0.882427  1
  Ho  Ho15  1  0.672026  0.820760  0.622866  1
  Er  Er16  1  0.675675  0.996934  0.246745  1
  Er  Er17  1  0.174406  0.507148  0.246199  1
  Er  Er18  1  0.826102  0.492380  0.747754  1
  Er  Er19  1  0.324275  0.003096  0.752750  1
  Si  Si20  1  0.791133  0.631464  0.251018  1
  Si  Si21  1  0.291541  0.872210  0.252916  1
  Si  Si22  1  0.707456  0.129623  0.748702  1
  Si  Si23  1  0.206341  0.367872  0.749406  1
  Si  Si24  1  0.048522  0.112851  0.252140  1
  Si  Si25  1  0.548840  0.392878  0.249859  1
  Si  Si26  1  0.452480  0.607838  0.751279  1
  Si  Si27  1  0.951904  0.887570  0.750229  1
  Si  Si28  1  0.354164  0.970230  0.541742  1
  Si  Si29  1  0.714472  0.030177  0.042512  1
  Si  Si30  1  0.147185  0.471392  0.458789  1
  Si  Si31  1  0.214918  0.473044  0.044294  1
  Si  Si32  1  0.647747  0.028873  0.458488  1
  Si  Si33  1  0.290754  0.968009  0.956703  1
  Si  Si34  1  0.854067  0.527064  0.542098  1
  Se  Se35  1  0.779174  0.522364  0.951633  1
