# generated using pymatgen
data_Er2MoWN4
_symmetry_space_group_name_H-M   'P 1'
_cell_length_a   3.18707500
_cell_length_b   5.68150800
_cell_length_c   10.53916700
_cell_angle_alpha   90.00000000
_cell_angle_beta   90.00000000
_cell_angle_gamma   90.00000000
_symmetry_Int_Tables_number   1
_chemical_formula_structural   Er2MoWN4
_chemical_formula_sum   'Er4 Mo2 W2 N8'
_cell_volume   190.83682937
_cell_formula_units_Z   2
loop_
 _symmetry_equiv_pos_site_id
 _symmetry_equiv_pos_as_xyz
  1  'x, y, z'
loop_
 _atom_site_type_symbol
 _atom_site_label
 _atom_site_symmetry_multiplicity
 _atom_site_fract_x
 _atom_site_fract_y
 _atom_site_fract_z
 _atom_site_occupancy
  Er  Er0  1  0.250000  0.079376  0.853257  1
  Er  Er1  1  0.250000  0.579376  0.646743  1
  Er  Er2  1  0.750000  0.919859  0.145291  1
  Er  Er3  1  0.750000  0.419859  0.354709  1
  Mo  Mo4  1  0.750000  0.568272  0.905877  1
  Mo  Mo5  1  0.750000  0.068272  0.594123  1
  W  W6  1  0.250000  0.432560  0.094711  1
  W  W7  1  0.250000  0.932560  0.405289  1
  N  N8  1  0.250000  0.164520  0.247885  1
  N  N9  1  0.250000  0.664520  0.252115  1
  N  N10  1  0.750000  0.836678  0.750758  1
  N  N11  1  0.750000  0.336678  0.749242  1
  N  N12  1  0.250000  0.762406  0.995543  1
  N  N13  1  0.250000  0.262406  0.504457  1
  N  N14  1  0.750000  0.236328  0.007389  1
  N  N15  1  0.750000  0.736328  0.492611  1
