# generated using pymatgen
data_Nd5(ThSe4)3
_symmetry_space_group_name_H-M   'P 1'
_cell_length_a   11.45564585
_cell_length_b   4.12729200
_cell_length_c   11.30583266
_cell_angle_alpha   90.00000000
_cell_angle_beta   89.79756378
_cell_angle_gamma   90.00000000
_symmetry_Int_Tables_number   1
_chemical_formula_structural   Nd5(ThSe4)3
_chemical_formula_sum   'Nd5 Th3 Se12'
_cell_volume   534.54542549
_cell_formula_units_Z   1
loop_
 _symmetry_equiv_pos_site_id
 _symmetry_equiv_pos_as_xyz
  1  'x, y, z'
loop_
 _atom_site_type_symbol
 _atom_site_label
 _atom_site_symmetry_multiplicity
 _atom_site_fract_x
 _atom_site_fract_y
 _atom_site_fract_z
 _atom_site_occupancy
  Nd  Nd0  1  0.482920  0.250000  0.186634  1
  Nd  Nd1  1  0.983631  0.250000  0.315794  1
  Nd  Nd2  1  0.518379  0.750000  0.813520  1
  Nd  Nd3  1  0.014519  0.750000  0.684803  1
  Nd  Nd4  1  0.694331  0.750000  0.490234  1
  Th  Th5  1  0.194500  0.750000  0.001065  1
  Th  Th6  1  0.308246  0.250000  0.506188  1
  Th  Th7  1  0.804847  0.250000  0.003427  1
  Se  Se8  1  0.546629  0.250000  0.624027  1
  Se  Se9  1  0.047764  0.250000  0.876663  1
  Se  Se10  1  0.447301  0.750000  0.375093  1
  Se  Se11  1  0.954076  0.750000  0.124395  1
  Se  Se12  1  0.621356  0.750000  0.055813  1
  Se  Se13  1  0.124881  0.750000  0.445208  1
  Se  Se14  1  0.377712  0.250000  0.943628  1
  Se  Se15  1  0.876180  0.250000  0.555277  1
  Se  Se16  1  0.725809  0.250000  0.291954  1
  Se  Se17  1  0.221596  0.250000  0.196220  1
  Se  Se18  1  0.275657  0.750000  0.701958  1
  Se  Se19  1  0.779666  0.750000  0.808098  1
