# generated using pymatgen
data_Nd6Dy9Ho(CdPt)4
_symmetry_space_group_name_H-M   'P 1'
_cell_length_a   9.79040785
_cell_length_b   9.79040857
_cell_length_c   9.78027400
_cell_angle_alpha   60.03423667
_cell_angle_beta   60.03423423
_cell_angle_gamma   60.04680706
_symmetry_Int_Tables_number   1
_chemical_formula_structural   Nd6Dy9Ho(CdPt)4
_chemical_formula_sum   'Nd6 Dy9 Ho1 Cd4 Pt4'
_cell_volume   663.46148524
_cell_formula_units_Z   1
loop_
 _symmetry_equiv_pos_site_id
 _symmetry_equiv_pos_as_xyz
  1  'x, y, z'
loop_
 _atom_site_type_symbol
 _atom_site_label
 _atom_site_symmetry_multiplicity
 _atom_site_fract_x
 _atom_site_fract_y
 _atom_site_fract_z
 _atom_site_occupancy
  Nd  Nd0  1  0.938647  0.561406  0.561586  1
  Nd  Nd1  1  0.561406  0.938647  0.938361  1
  Nd  Nd2  1  0.561406  0.938647  0.561586  1
  Nd  Nd3  1  0.938647  0.561406  0.938361  1
  Nd  Nd4  1  0.561506  0.561506  0.938494  1
  Nd  Nd5  1  0.938530  0.938530  0.561470  1
  Dy  Dy6  1  0.350721  0.350721  0.350606  1
  Dy  Dy7  1  0.350721  0.350721  0.947952  1
  Dy  Dy8  1  0.351144  0.947291  0.350782  1
  Dy  Dy9  1  0.947291  0.351144  0.350782  1
  Dy  Dy10  1  0.811895  0.188002  0.188346  1
  Dy  Dy11  1  0.188002  0.811895  0.811757  1
  Dy  Dy12  1  0.188002  0.811895  0.188346  1
  Dy  Dy13  1  0.811895  0.188002  0.811757  1
  Dy  Dy14  1  0.188238  0.188238  0.811762  1
  Ho  Ho15  1  0.811823  0.811823  0.188177  1
  Cd  Cd16  1  0.579796  0.579796  0.579688  1
  Cd  Cd17  1  0.579796  0.579796  0.260723  1
  Cd  Cd18  1  0.579834  0.260573  0.579797  1
  Cd  Cd19  1  0.260573  0.579834  0.579797  1
  Pt  Pt20  1  0.142969  0.142969  0.142945  1
  Pt  Pt21  1  0.142969  0.142969  0.571118  1
  Pt  Pt22  1  0.142531  0.571663  0.142904  1
  Pt  Pt23  1  0.571663  0.142531  0.142904  1
