# generated using pymatgen
data_Gd5Al2Os3
_symmetry_space_group_name_H-M   'P 1'
_cell_length_a   8.43586722
_cell_length_b   8.47825093
_cell_length_c   8.43586700
_cell_angle_alpha   109.57303239
_cell_angle_beta   109.36922536
_cell_angle_gamma   109.57302520
_symmetry_Int_Tables_number   1
_chemical_formula_structural   Gd5Al2Os3
_chemical_formula_sum   'Gd10 Al4 Os6'
_cell_volume   463.87033410
_cell_formula_units_Z   2
loop_
 _symmetry_equiv_pos_site_id
 _symmetry_equiv_pos_as_xyz
  1  'x, y, z'
loop_
 _atom_site_type_symbol
 _atom_site_label
 _atom_site_symmetry_multiplicity
 _atom_site_fract_x
 _atom_site_fract_y
 _atom_site_fract_z
 _atom_site_occupancy
  Gd  Gd0  1  0.250094  0.680960  0.430959  1
  Gd  Gd1  1  0.750107  0.818784  0.068656  1
  Gd  Gd2  1  0.431345  0.250128  0.681451  1
  Gd  Gd3  1  0.680864  0.430867  0.249906  1
  Gd  Gd4  1  0.069042  0.750002  0.819136  1
  Gd  Gd5  1  0.818549  0.068677  0.749893  1
  Gd  Gd6  1  0.210750  0.210327  0.210527  1
  Gd  Gd7  1  0.499778  0.999576  0.289250  1
  Gd  Gd8  1  0.289473  0.499800  0.000223  1
  Gd  Gd9  1  0.000000  0.289307  0.500001  1
  Al  Al10  1  0.000000  0.913701  0.500001  1
  Al  Al11  1  0.499945  0.999970  0.913641  1
  Al  Al12  1  0.586359  0.586329  0.586303  1
  Al  Al13  1  0.913697  0.500027  0.000056  1
  Os  Os14  1  0.249717  0.119108  0.869218  1
  Os  Os15  1  0.749466  0.381043  0.630511  1
  Os  Os16  1  0.869488  0.250534  0.118954  1
  Os  Os17  1  0.119501  0.869392  0.250285  1
  Os  Os18  1  0.630781  0.749891  0.380498  1
  Os  Os19  1  0.381045  0.631577  0.750534  1
