# generated using pymatgen
data_Bi3PtRh3AuO14
_symmetry_space_group_name_H-M   'P 1'
_cell_length_a   7.40305242
_cell_length_b   7.23500964
_cell_length_c   7.40740213
_cell_angle_alpha   59.17472222
_cell_angle_beta   60.01941077
_cell_angle_gamma   59.22864562
_symmetry_Int_Tables_number   1
_chemical_formula_structural   Bi3PtRh3AuO14
_chemical_formula_sum   'Bi3 Pt1 Rh3 Au1 O14'
_cell_volume   277.15042130
_cell_formula_units_Z   1
loop_
 _symmetry_equiv_pos_site_id
 _symmetry_equiv_pos_as_xyz
  1  'x, y, z'
loop_
 _atom_site_type_symbol
 _atom_site_label
 _atom_site_symmetry_multiplicity
 _atom_site_fract_x
 _atom_site_fract_y
 _atom_site_fract_z
 _atom_site_occupancy
  Bi  Bi0  1  0.125000  0.125000  0.625000  1
  Bi  Bi1  1  0.625000  0.125000  0.125000  1
  Bi  Bi2  1  0.125000  0.125000  0.125000  1
  Pt  Pt3  1  0.625000  0.625000  0.125000  1
  Rh  Rh4  1  0.625000  0.125000  0.625000  1
  Rh  Rh5  1  0.125000  0.625000  0.625000  1
  Rh  Rh6  1  0.625000  0.625000  0.625000  1
  Au  Au7  1  0.125000  0.625000  0.125000  1
  O  O8  1  0.240365  0.278216  0.241054  1
  O  O9  1  0.009635  0.971784  0.008946  1
  O  O10  1  0.540366  0.962028  0.539933  1
  O  O11  1  0.296453  0.706836  0.297574  1
  O  O12  1  0.550863  0.543164  0.952426  1
  O  O13  1  0.951697  0.544981  0.551626  1
  O  O14  1  0.539143  0.963639  0.958075  1
  O  O15  1  0.957673  0.962028  0.539933  1
  O  O16  1  0.953547  0.543164  0.952426  1
  O  O17  1  0.710857  0.286361  0.291925  1
  O  O18  1  0.298303  0.705019  0.698374  1
  O  O19  1  0.709634  0.287972  0.710067  1
  O  O20  1  0.292327  0.287972  0.710067  1
  O  O21  1  0.699137  0.706836  0.297574  1
