# generated using pymatgen
data_Pr2Y2B4I5
_symmetry_space_group_name_H-M   'P 1'
_cell_length_a   9.80492999
_cell_length_b   9.80492910
_cell_length_c   9.76604593
_cell_angle_alpha   75.21091142
_cell_angle_beta   75.21091380
_cell_angle_gamma   25.41643494
_symmetry_Int_Tables_number   1
_chemical_formula_structural   Pr2Y2B4I5
_chemical_formula_sum   'Pr2 Y2 B4 I5'
_cell_volume   388.91932354
_cell_formula_units_Z   1
loop_
 _symmetry_equiv_pos_site_id
 _symmetry_equiv_pos_as_xyz
  1  'x, y, z'
loop_
 _atom_site_type_symbol
 _atom_site_label
 _atom_site_symmetry_multiplicity
 _atom_site_fract_x
 _atom_site_fract_y
 _atom_site_fract_z
 _atom_site_occupancy
  Pr  Pr0  1  0.134572  0.134572  0.931224  1
  Pr  Pr1  1  0.867069  0.867069  0.067460  1
  Y  Y2  1  0.504001  0.504001  0.753233  1
  Y  Y3  1  0.497798  0.497798  0.245613  1
  B  B4  1  0.315742  0.685855  0.999471  1
  B  B5  1  0.685855  0.315742  0.999471  1
  B  B6  1  0.000454  0.000454  0.097419  1
  B  B7  1  0.001141  0.001141  0.901529  1
  I  I8  1  0.672468  0.672468  0.668859  1
  I  I9  1  0.329433  0.329433  0.330463  1
  I  I10  1  0.330935  0.330935  0.836742  1
  I  I11  1  0.671189  0.671189  0.160716  1
  I  I12  1  0.003648  0.003648  0.498002  1
