# generated using pymatgen
data_Na4LaCe(PrTe4)2
_symmetry_space_group_name_H-M   'P 1'
_cell_length_a   9.23924938
_cell_length_b   9.19575614
_cell_length_c   9.19581500
_cell_angle_alpha   59.99977749
_cell_angle_beta   60.15537802
_cell_angle_gamma   60.15840277
_symmetry_Int_Tables_number   1
_chemical_formula_structural   Na4LaCe(PrTe4)2
_chemical_formula_sum   'Na4 La1 Ce1 Pr2 Te8'
_cell_volume   553.76366124
_cell_formula_units_Z   1
loop_
 _symmetry_equiv_pos_site_id
 _symmetry_equiv_pos_as_xyz
  1  'x, y, z'
loop_
 _atom_site_type_symbol
 _atom_site_label
 _atom_site_symmetry_multiplicity
 _atom_site_fract_x
 _atom_site_fract_y
 _atom_site_fract_z
 _atom_site_occupancy
  Na  Na0  1  0.125000  0.625000  0.125000  1
  Na  Na1  1  0.125000  0.125000  0.625000  1
  Na  Na2  1  0.625000  0.125000  0.125000  1
  Na  Na3  1  0.125000  0.125000  0.125000  1
  La  La4  1  0.125000  0.625000  0.625000  1
  Ce  Ce5  1  0.625000  0.125000  0.625000  1
  Pr  Pr6  1  0.625000  0.625000  0.625000  1
  Pr  Pr7  1  0.625000  0.625000  0.125000  1
  Te  Te8  1  0.379700  0.866700  0.376800  1
  Te  Te9  1  0.870300  0.383300  0.873200  1
  Te  Te10  1  0.870267  0.873220  0.383341  1
  Te  Te11  1  0.870267  0.873220  0.873173  1
  Te  Te12  1  0.865861  0.378009  0.378065  1
  Te  Te13  1  0.379733  0.376780  0.866659  1
  Te  Te14  1  0.379733  0.376780  0.376827  1
  Te  Te15  1  0.384139  0.871991  0.871935  1
