# generated using pymatgen
data_Zr8In4Pd3Pt5
_symmetry_space_group_name_H-M   'P 1'
_cell_length_a   7.59965513
_cell_length_b   7.60355828
_cell_length_c   6.85522919
_cell_angle_alpha   90.07337958
_cell_angle_beta   90.04685405
_cell_angle_gamma   89.98352725
_symmetry_Int_Tables_number   1
_chemical_formula_structural   Zr8In4Pd3Pt5
_chemical_formula_sum   'Zr8 In4 Pd3 Pt5'
_cell_volume   396.12497371
_cell_formula_units_Z   1
loop_
 _symmetry_equiv_pos_site_id
 _symmetry_equiv_pos_as_xyz
  1  'x, y, z'
loop_
 _atom_site_type_symbol
 _atom_site_label
 _atom_site_symmetry_multiplicity
 _atom_site_fract_x
 _atom_site_fract_y
 _atom_site_fract_z
 _atom_site_occupancy
  Zr  Zr0  1  0.148515  0.157735  0.002095  1
  Zr  Zr1  1  0.840190  0.849027  0.999365  1
  Zr  Zr2  1  0.658353  0.346037  0.499010  1
  Zr  Zr3  1  0.351382  0.653270  0.498702  1
  Zr  Zr4  1  0.686255  0.315361  0.000850  1
  Zr  Zr5  1  0.319456  0.682146  0.000766  1
  Zr  Zr6  1  0.812539  0.816373  0.499953  1
  Zr  Zr7  1  0.181474  0.185530  0.498781  1
  In  In8  1  0.497347  0.000381  0.249963  1
  In  In9  1  0.496234  0.001962  0.749531  1
  In  In10  1  0.000916  0.503405  0.250097  1
  In  In11  1  0.002613  0.502410  0.749442  1
  Pd  Pd12  1  0.368614  0.367642  0.782197  1
  Pd  Pd13  1  0.131562  0.868097  0.279939  1
  Pd  Pd14  1  0.131750  0.867988  0.719813  1
  Pt  Pt15  1  0.370002  0.369353  0.222392  1
  Pt  Pt16  1  0.628137  0.627579  0.778247  1
  Pt  Pt17  1  0.630862  0.630066  0.219321  1
  Pt  Pt18  1  0.871806  0.128010  0.720484  1
  Pt  Pt19  1  0.871990  0.127629  0.279051  1
