# generated using pymatgen
data_KRb7Ba4(SnAs4)2
_symmetry_space_group_name_H-M   'P 1'
_cell_length_a   10.90865435
_cell_length_b   10.93252976
_cell_length_c   8.12716647
_cell_angle_alpha   88.51086057
_cell_angle_beta   88.59841418
_cell_angle_gamma   119.45582513
_symmetry_Int_Tables_number   1
_chemical_formula_structural   KRb7Ba4(SnAs4)2
_chemical_formula_sum   'K1 Rb7 Ba4 Sn2 As8'
_cell_volume   842.89318932
_cell_formula_units_Z   1
loop_
 _symmetry_equiv_pos_site_id
 _symmetry_equiv_pos_as_xyz
  1  'x, y, z'
loop_
 _atom_site_type_symbol
 _atom_site_label
 _atom_site_symmetry_multiplicity
 _atom_site_fract_x
 _atom_site_fract_y
 _atom_site_fract_z
 _atom_site_occupancy
  K  K0  1  0.053864  0.524226  0.617075  1
  Rb  Rb1  1  0.523353  0.051673  0.116133  1
  Rb  Rb2  1  0.279455  0.136780  0.823559  1
  Rb  Rb3  1  0.867826  0.721341  0.772782  1
  Rb  Rb4  1  0.859188  0.150396  0.802900  1
  Rb  Rb5  1  0.721772  0.867596  0.273384  1
  Rb  Rb6  1  0.136739  0.279964  0.323949  1
  Rb  Rb7  1  0.149303  0.858171  0.303503  1
  Ba  Ba8  1  0.469522  0.940075  0.613771  1
  Ba  Ba9  1  0.469324  0.522071  0.620503  1
  Ba  Ba10  1  0.942057  0.471023  0.113800  1
  Ba  Ba11  1  0.522362  0.470239  0.120604  1
  Sn  Sn12  1  0.668411  0.336860  0.502113  1
  Sn  Sn13  1  0.335938  0.667131  0.001623  1
  As  As14  1  0.666497  0.349684  0.834626  1
  As  As15  1  0.347225  0.665060  0.336299  1
  As  As16  1  0.600966  0.792911  0.869771  1
  As  As17  1  0.202900  0.398201  0.912876  1
  As  As18  1  0.195009  0.792594  0.894618  1
  As  As19  1  0.397416  0.204483  0.415105  1
  As  As20  1  0.793809  0.601122  0.369678  1
  As  As21  1  0.797060  0.198397  0.398824  1
