# generated using pymatgen
data_DyHo5Er4(CoSb2)2
_symmetry_space_group_name_H-M   'P 1'
_cell_length_a   7.84495700
_cell_length_b   8.75063100
_cell_length_c   12.14770600
_cell_angle_alpha   90.00000000
_cell_angle_beta   90.00000000
_cell_angle_gamma   90.00000000
_symmetry_Int_Tables_number   1
_chemical_formula_structural   DyHo5Er4(CoSb2)2
_chemical_formula_sum   'Dy2 Ho10 Er8 Co4 Sb8'
_cell_volume   833.91965635
_cell_formula_units_Z   2
loop_
 _symmetry_equiv_pos_site_id
 _symmetry_equiv_pos_as_xyz
  1  'x, y, z'
loop_
 _atom_site_type_symbol
 _atom_site_label
 _atom_site_symmetry_multiplicity
 _atom_site_fract_x
 _atom_site_fract_y
 _atom_site_fract_z
 _atom_site_occupancy
  Dy  Dy0  1  0.378453  0.250000  0.692786  1
  Dy  Dy1  1  0.121547  0.250000  0.192786  1
  Ho  Ho2  1  0.154869  0.750000  0.203352  1
  Ho  Ho3  1  0.345131  0.750000  0.703352  1
  Ho  Ho4  1  0.845229  0.250000  0.796716  1
  Ho  Ho5  1  0.654771  0.250000  0.296716  1
  Ho  Ho6  1  0.453277  0.750000  0.998172  1
  Ho  Ho7  1  0.046723  0.750000  0.498172  1
  Ho  Ho8  1  0.546997  0.250000  0.001851  1
  Ho  Ho9  1  0.953003  0.250000  0.501851  1
  Ho  Ho10  1  0.621268  0.750000  0.307502  1
  Ho  Ho11  1  0.878732  0.750000  0.807502  1
  Er  Er12  1  0.822413  0.535948  0.065099  1
  Er  Er13  1  0.677587  0.964052  0.565099  1
  Er  Er14  1  0.177383  0.035516  0.934727  1
  Er  Er15  1  0.322617  0.464484  0.434727  1
  Er  Er16  1  0.177383  0.464484  0.934727  1
  Er  Er17  1  0.322617  0.035516  0.434727  1
  Er  Er18  1  0.822413  0.964052  0.065099  1
  Er  Er19  1  0.677587  0.535948  0.565099  1
  Co  Co20  1  0.434412  0.750000  0.490988  1
  Co  Co21  1  0.065588  0.750000  0.990988  1
  Co  Co22  1  0.565810  0.250000  0.508785  1
  Co  Co23  1  0.934190  0.250000  0.008785  1
  Sb  Sb24  1  0.928822  0.508768  0.327208  1
  Sb  Sb25  1  0.571178  0.991232  0.827208  1
  Sb  Sb26  1  0.070536  0.008301  0.672889  1
  Sb  Sb27  1  0.429464  0.491699  0.172889  1
  Sb  Sb28  1  0.070536  0.491699  0.672889  1
  Sb  Sb29  1  0.429464  0.008301  0.172889  1
  Sb  Sb30  1  0.928822  0.991232  0.327208  1
  Sb  Sb31  1  0.571178  0.508768  0.827208  1
