# generated using pymatgen
data_Nd10SnBi5Se2
_symmetry_space_group_name_H-M   'P 1'
_cell_length_a   9.55503974
_cell_length_b   9.57865873
_cell_length_c   6.84331700
_cell_angle_alpha   90.00000000
_cell_angle_beta   90.00000000
_cell_angle_gamma   120.08180032
_symmetry_Int_Tables_number   1
_chemical_formula_structural   Nd10SnBi5Se2
_chemical_formula_sum   'Nd10 Sn1 Bi5 Se2'
_cell_volume   541.97083850
_cell_formula_units_Z   1
loop_
 _symmetry_equiv_pos_site_id
 _symmetry_equiv_pos_as_xyz
  1  'x, y, z'
loop_
 _atom_site_type_symbol
 _atom_site_label
 _atom_site_symmetry_multiplicity
 _atom_site_fract_x
 _atom_site_fract_y
 _atom_site_fract_z
 _atom_site_occupancy
  Nd  Nd0  1  0.747066  0.747146  0.750000  1
  Nd  Nd1  1  0.252934  0.000080  0.750000  1
  Nd  Nd2  1  0.000000  0.253352  0.750000  1
  Nd  Nd3  1  0.249910  0.254503  0.250000  1
  Nd  Nd4  1  0.750090  0.004593  0.250000  1
  Nd  Nd5  1  0.000000  0.744939  0.250000  1
  Nd  Nd6  1  0.669163  0.333861  0.001380  1
  Nd  Nd7  1  0.330837  0.664700  0.001380  1
  Nd  Nd8  1  0.330837  0.664700  0.498620  1
  Nd  Nd9  1  0.669163  0.333861  0.498620  1
  Sn  Sn10  1  0.000000  0.394941  0.250000  1
  Bi  Bi11  1  0.394277  0.394002  0.750000  1
  Bi  Bi12  1  0.605723  0.999725  0.750000  1
  Bi  Bi13  1  0.000000  0.604991  0.750000  1
  Bi  Bi14  1  0.605979  0.606231  0.250000  1
  Bi  Bi15  1  0.394021  0.000252  0.250000  1
  Se  Se16  1  0.000000  0.999061  0.999806  1
  Se  Se17  1  0.000000  0.999061  0.500194  1
