# generated using pymatgen
data_Yb3LuPtRh3O14
_symmetry_space_group_name_H-M   'P 1'
_cell_length_a   7.22055090
_cell_length_b   7.21358873
_cell_length_c   7.19103055
_cell_angle_alpha   59.83995937
_cell_angle_beta   59.86410919
_cell_angle_gamma   59.96806196
_symmetry_Int_Tables_number   1
_chemical_formula_structural   Yb3LuPtRh3O14
_chemical_formula_sum   'Yb3 Lu1 Pt1 Rh3 O14'
_cell_volume   264.19124123
_cell_formula_units_Z   1
loop_
 _symmetry_equiv_pos_site_id
 _symmetry_equiv_pos_as_xyz
  1  'x, y, z'
loop_
 _atom_site_type_symbol
 _atom_site_label
 _atom_site_symmetry_multiplicity
 _atom_site_fract_x
 _atom_site_fract_y
 _atom_site_fract_z
 _atom_site_occupancy
  Yb  Yb0  1  0.625000  0.625000  0.625000  1
  Yb  Yb1  1  0.625000  0.125000  0.625000  1
  Yb  Yb2  1  0.125000  0.625000  0.625000  1
  Lu  Lu3  1  0.625000  0.625000  0.125000  1
  Pt  Pt4  1  0.125000  0.625000  0.125000  1
  Rh  Rh5  1  0.125000  0.125000  0.125000  1
  Rh  Rh6  1  0.625000  0.125000  0.125000  1
  Rh  Rh7  1  0.125000  0.125000  0.625000  1
  O  O8  1  0.042751  0.457054  0.457444  1
  O  O9  1  0.791269  0.791971  0.199201  1
  O  O10  1  0.795046  0.213348  0.196562  1
  O  O11  1  0.454408  0.047532  0.452632  1
  O  O12  1  0.745211  0.745745  0.763833  1
  O  O13  1  0.032440  0.458029  0.050799  1
  O  O14  1  0.045428  0.047532  0.452632  1
  O  O15  1  0.217560  0.791971  0.199201  1
  O  O16  1  0.204572  0.202468  0.797368  1
  O  O17  1  0.795592  0.202468  0.797368  1
  O  O18  1  0.504789  0.504255  0.486167  1
  O  O19  1  0.454954  0.036652  0.053438  1
  O  O20  1  0.458731  0.458029  0.050799  1
  O  O21  1  0.207249  0.792946  0.792556  1
