# generated using pymatgen
data_Ce3DySc2(SiPt5)2
_symmetry_space_group_name_H-M   'P 1'
_cell_length_a   8.18071575
_cell_length_b   8.17121646
_cell_length_c   8.17121643
_cell_angle_alpha   127.55838603
_cell_angle_beta   125.19588114
_cell_angle_gamma   79.25743447
_symmetry_Int_Tables_number   1
_chemical_formula_structural   Ce3DySc2(SiPt5)2
_chemical_formula_sum   'Ce3 Dy1 Sc2 Si2 Pt10'
_cell_volume   342.18259168
_cell_formula_units_Z   1
loop_
 _symmetry_equiv_pos_site_id
 _symmetry_equiv_pos_as_xyz
  1  'x, y, z'
loop_
 _atom_site_type_symbol
 _atom_site_label
 _atom_site_symmetry_multiplicity
 _atom_site_fract_x
 _atom_site_fract_y
 _atom_site_fract_z
 _atom_site_occupancy
  Ce  Ce0  1  0.383310  0.748874  0.634436  1
  Ce  Ce1  1  0.231954  0.952570  0.279384  1
  Ce  Ce2  1  0.773690  0.054364  0.719326  1
  Dy  Dy3  1  0.160626  0.446933  0.713694  1
  Sc  Sc4  1  0.821744  0.546945  0.274799  1
  Sc  Sc5  1  0.588825  0.251495  0.337331  1
  Si  Si6  1  0.216343  0.251491  0.964852  1
  Si  Si7  1  0.781584  0.749670  0.031914  1
  Pt  Pt8  1  0.166137  0.894387  0.854587  1
  Pt  Pt9  1  0.824562  0.103989  0.149432  1
  Pt  Pt10  1  0.465375  0.197303  0.865057  1
  Pt  Pt11  1  0.548639  0.398268  0.726305  1
  Pt  Pt12  1  0.824562  0.675129  0.720572  1
  Pt  Pt13  1  0.465375  0.600318  0.268073  1
  Pt  Pt14  1  0.548639  0.822334  0.150372  1
  Pt  Pt15  1  0.166137  0.311550  0.271751  1
  Pt  Pt16  1  0.016248  0.972858  0.494725  1
  Pt  Pt17  1  0.016248  0.521524  0.043391  1
