# generated using pymatgen
data_DyHo(CdSn)3
_symmetry_space_group_name_H-M   'P 1'
_cell_length_a   4.62511600
_cell_length_b   4.74891600
_cell_length_c   8.95190600
_cell_angle_alpha   90.00000000
_cell_angle_beta   90.00000000
_cell_angle_gamma   90.00000000
_symmetry_Int_Tables_number   1
_chemical_formula_structural   DyHo(CdSn)3
_chemical_formula_sum   'Dy1 Ho1 Cd3 Sn3'
_cell_volume   196.62223593
_cell_formula_units_Z   1
loop_
 _symmetry_equiv_pos_site_id
 _symmetry_equiv_pos_as_xyz
  1  'x, y, z'
loop_
 _atom_site_type_symbol
 _atom_site_label
 _atom_site_symmetry_multiplicity
 _atom_site_fract_x
 _atom_site_fract_y
 _atom_site_fract_z
 _atom_site_occupancy
  Dy  Dy0  1  0.000000  0.000000  0.756791  1
  Ho  Ho1  1  0.000000  0.000000  0.243097  1
  Cd  Cd2  1  0.500000  0.500000  0.254732  1
  Cd  Cd3  1  0.500000  0.500000  0.745224  1
  Cd  Cd4  1  0.000000  0.500000  0.499862  1
  Sn  Sn5  1  0.000000  0.500000  0.000248  1
  Sn  Sn6  1  0.500000  0.000000  0.499764  1
  Sn  Sn7  1  0.500000  0.000000  0.000284  1
