# generated using pymatgen
data_Pa2Zn(PRh2)6
_symmetry_space_group_name_H-M   'P 1'
_cell_length_a   9.72627100
_cell_length_b   9.72627008
_cell_length_c   3.88302500
_cell_angle_alpha   90.00000000
_cell_angle_beta   90.00000000
_cell_angle_gamma   119.99999972
_symmetry_Int_Tables_number   1
_chemical_formula_structural   Pa2Zn(PRh2)6
_chemical_formula_sum   'Pa2 Zn1 P6 Rh12'
_cell_volume   318.12185828
_cell_formula_units_Z   1
loop_
 _symmetry_equiv_pos_site_id
 _symmetry_equiv_pos_as_xyz
  1  'x, y, z'
loop_
 _atom_site_type_symbol
 _atom_site_label
 _atom_site_symmetry_multiplicity
 _atom_site_fract_x
 _atom_site_fract_y
 _atom_site_fract_z
 _atom_site_occupancy
  Pa  Pa0  1  0.333333  0.666667  0.751193  1
  Pa  Pa1  1  0.666667  0.333333  0.248807  1
  Zn  Zn2  1  0.000000  0.000000  0.500000  1
  P  P3  1  0.397377  0.284039  0.747242  1
  P  P4  1  0.715961  0.113339  0.747242  1
  P  P5  1  0.886661  0.602623  0.747242  1
  P  P6  1  0.602623  0.715961  0.252758  1
  P  P7  1  0.284039  0.886661  0.252758  1
  P  P8  1  0.113339  0.397377  0.252758  1
  Rh  Rh9  1  0.458939  0.075110  0.749119  1
  Rh  Rh10  1  0.924890  0.383828  0.749119  1
  Rh  Rh11  1  0.616172  0.541061  0.749119  1
  Rh  Rh12  1  0.541061  0.924890  0.250881  1
  Rh  Rh13  1  0.075110  0.616172  0.250881  1
  Rh  Rh14  1  0.383828  0.458939  0.250881  1
  Rh  Rh15  1  0.156729  0.284694  0.754598  1
  Rh  Rh16  1  0.715306  0.872035  0.754598  1
  Rh  Rh17  1  0.127965  0.843271  0.754598  1
  Rh  Rh18  1  0.843271  0.715306  0.245402  1
  Rh  Rh19  1  0.284694  0.127965  0.245402  1
  Rh  Rh20  1  0.872035  0.156729  0.245402  1
