# generated using pymatgen
data_ZrNi4Pt
_symmetry_space_group_name_H-M   'P 1'
_cell_length_a   4.81132776
_cell_length_b   4.81132789
_cell_length_c   4.81132700
_cell_angle_alpha   59.99999927
_cell_angle_beta   59.99999837
_cell_angle_gamma   60.00000775
_symmetry_Int_Tables_number   1
_chemical_formula_structural   ZrNi4Pt
_chemical_formula_sum   'Zr1 Ni4 Pt1'
_cell_volume   78.75530053
_cell_formula_units_Z   1
loop_
 _symmetry_equiv_pos_site_id
 _symmetry_equiv_pos_as_xyz
  1  'x, y, z'
loop_
 _atom_site_type_symbol
 _atom_site_label
 _atom_site_symmetry_multiplicity
 _atom_site_fract_x
 _atom_site_fract_y
 _atom_site_fract_z
 _atom_site_occupancy
  Zr  Zr0  1  0.000000  0.000000  0.000000  1
  Ni  Ni1  1  0.624158  0.624158  0.624158  1
  Ni  Ni2  1  0.127526  0.624158  0.624158  1
  Ni  Ni3  1  0.624158  0.127526  0.624158  1
  Ni  Ni4  1  0.624158  0.624158  0.127526  1
  Pt  Pt5  1  0.250000  0.250000  0.250000  1
