# generated using pymatgen
data_Li3Sm2Pa2ZnRh4
_symmetry_space_group_name_H-M   'P 1'
_cell_length_a   3.81569500
_cell_length_b   7.19980612
_cell_length_c   8.53422191
_cell_angle_alpha   93.17579735
_cell_angle_beta   90.00000000
_cell_angle_gamma   90.00000000
_symmetry_Int_Tables_number   1
_chemical_formula_structural   Li3Sm2Pa2ZnRh4
_chemical_formula_sum   'Li3 Sm2 Pa2 Zn1 Rh4'
_cell_volume   234.09433680
_cell_formula_units_Z   1
loop_
 _symmetry_equiv_pos_site_id
 _symmetry_equiv_pos_as_xyz
  1  'x, y, z'
loop_
 _atom_site_type_symbol
 _atom_site_label
 _atom_site_symmetry_multiplicity
 _atom_site_fract_x
 _atom_site_fract_y
 _atom_site_fract_z
 _atom_site_occupancy
  Li  Li0  1  0.250000  0.123371  0.942162  1
  Li  Li1  1  0.750000  0.876963  0.056640  1
  Li  Li2  1  0.250000  0.618210  0.552852  1
  Sm  Sm3  1  0.250000  0.059369  0.317534  1
  Sm  Sm4  1  0.750000  0.944100  0.682689  1
  Pa  Pa5  1  0.250000  0.546883  0.191680  1
  Pa  Pa6  1  0.750000  0.451639  0.809747  1
  Zn  Zn7  1  0.750000  0.380562  0.445849  1
  Rh  Rh8  1  0.750000  0.740789  0.355523  1
  Rh  Rh9  1  0.250000  0.259457  0.643424  1
  Rh  Rh10  1  0.750000  0.292589  0.117872  1
  Rh  Rh11  1  0.250000  0.706067  0.884028  1
