# generated using pymatgen
data_Dy13Y6Tm(Cd3Ru)2
_symmetry_space_group_name_H-M   'P 1'
_cell_length_a   9.60839700
_cell_length_b   9.60839734
_cell_length_c   9.84872300
_cell_angle_alpha   90.00000000
_cell_angle_beta   90.00000000
_cell_angle_gamma   120.00000226
_symmetry_Int_Tables_number   1
_chemical_formula_structural   Dy13Y6Tm(Cd3Ru)2
_chemical_formula_sum   'Dy13 Y6 Tm1 Cd6 Ru2'
_cell_volume   787.43087276
_cell_formula_units_Z   1
loop_
 _symmetry_equiv_pos_site_id
 _symmetry_equiv_pos_as_xyz
  1  'x, y, z'
loop_
 _atom_site_type_symbol
 _atom_site_label
 _atom_site_symmetry_multiplicity
 _atom_site_fract_x
 _atom_site_fract_y
 _atom_site_fract_z
 _atom_site_occupancy
  Dy  Dy0  1  0.000000  0.000000  0.000000  1
  Dy  Dy1  1  0.209782  0.790218  0.439845  1
  Dy  Dy2  1  0.209782  0.419565  0.439845  1
  Dy  Dy3  1  0.580435  0.790218  0.439845  1
  Dy  Dy4  1  0.790218  0.209782  0.560155  1
  Dy  Dy5  1  0.790218  0.580435  0.560155  1
  Dy  Dy6  1  0.419565  0.209782  0.560155  1
  Dy  Dy7  1  0.790090  0.209910  0.939855  1
  Dy  Dy8  1  0.790090  0.580179  0.939855  1
  Dy  Dy9  1  0.419821  0.209910  0.939855  1
  Dy  Dy10  1  0.209910  0.790090  0.060145  1
  Dy  Dy11  1  0.209910  0.419821  0.060145  1
  Dy  Dy12  1  0.580179  0.790090  0.060145  1
  Y  Y13  1  0.541238  0.458762  0.250024  1
  Y  Y14  1  0.541238  0.082478  0.250024  1
  Y  Y15  1  0.917522  0.458762  0.250024  1
  Y  Y16  1  0.458762  0.541238  0.749976  1
  Y  Y17  1  0.458762  0.917522  0.749976  1
  Y  Y18  1  0.082478  0.541238  0.749976  1
  Tm  Tm19  1  0.000000  0.000000  0.500000  1
  Cd  Cd20  1  0.885484  0.114516  0.250203  1
  Cd  Cd21  1  0.885484  0.770970  0.250203  1
  Cd  Cd22  1  0.229030  0.114516  0.250203  1
  Cd  Cd23  1  0.114516  0.885484  0.749797  1
  Cd  Cd24  1  0.114516  0.229030  0.749797  1
  Cd  Cd25  1  0.770970  0.885484  0.749797  1
  Ru  Ru26  1  0.333333  0.666667  0.250013  1
  Ru  Ru27  1  0.666667  0.333333  0.749987  1
