# generated using pymatgen
data_Dy5Co16(TcAs4)3
_symmetry_space_group_name_H-M   'P 1'
_cell_length_a   12.49560800
_cell_length_b   12.49560767
_cell_length_c   3.83585600
_cell_angle_alpha   90.00000000
_cell_angle_beta   90.00000000
_cell_angle_gamma   120.00000618
_symmetry_Int_Tables_number   1
_chemical_formula_structural   Dy5Co16(TcAs4)3
_chemical_formula_sum   'Dy5 Co16 Tc3 As12'
_cell_volume   518.68975874
_cell_formula_units_Z   1
loop_
 _symmetry_equiv_pos_site_id
 _symmetry_equiv_pos_as_xyz
  1  'x, y, z'
loop_
 _atom_site_type_symbol
 _atom_site_label
 _atom_site_symmetry_multiplicity
 _atom_site_fract_x
 _atom_site_fract_y
 _atom_site_fract_z
 _atom_site_occupancy
  Dy  Dy0  1  0.666667  0.333333  0.000000  1
  Dy  Dy1  1  0.333333  0.666667  0.000000  1
  Dy  Dy2  1  0.815091  0.815091  0.500000  1
  Dy  Dy3  1  0.184909  0.000000  0.500000  1
  Dy  Dy4  1  0.000000  0.184909  0.500000  1
  Co  Co5  1  0.875101  0.355415  0.500000  1
  Co  Co6  1  0.644585  0.519688  0.500000  1
  Co  Co7  1  0.480312  0.124899  0.500000  1
  Co  Co8  1  0.355415  0.875101  0.500000  1
  Co  Co9  1  0.519688  0.644585  0.500000  1
  Co  Co10  1  0.124899  0.480312  0.500000  1
  Co  Co11  1  0.801832  0.178074  0.000000  1
  Co  Co12  1  0.821926  0.623757  0.000000  1
  Co  Co13  1  0.376243  0.198168  0.000000  1
  Co  Co14  1  0.178074  0.801832  0.000000  1
  Co  Co15  1  0.623757  0.821926  0.000000  1
  Co  Co16  1  0.198168  0.376243  0.000000  1
  Co  Co17  1  0.283025  0.283025  0.500000  1
  Co  Co18  1  0.716975  0.000000  0.500000  1
  Co  Co19  1  0.000000  0.716975  0.500000  1
  Co  Co20  1  0.000000  0.000000  0.000000  1
  Tc  Tc21  1  0.443172  0.443172  0.000000  1
  Tc  Tc22  1  0.556828  0.000000  0.000000  1
  Tc  Tc23  1  0.000000  0.556828  0.000000  1
  As  As24  1  0.683609  0.165450  0.500000  1
  As  As25  1  0.834550  0.518159  0.500000  1
  As  As26  1  0.481841  0.316391  0.500000  1
  As  As27  1  0.165450  0.683609  0.500000  1
  As  As28  1  0.518159  0.834550  0.500000  1
  As  As29  1  0.316391  0.481841  0.500000  1
  As  As30  1  0.178841  0.178841  0.000000  1
  As  As31  1  0.821159  0.000000  0.000000  1
  As  As32  1  0.000000  0.821159  0.000000  1
  As  As33  1  0.637957  0.637957  0.000000  1
  As  As34  1  0.362043  0.000000  0.000000  1
  As  As35  1  0.000000  0.362043  0.000000  1
