# generated using pymatgen
data_LuFeH5
_symmetry_space_group_name_H-M   'P 1'
_cell_length_a   4.14745500
_cell_length_b   4.48748900
_cell_length_c   10.96644500
_cell_angle_alpha   90.00000000
_cell_angle_beta   90.00000000
_cell_angle_gamma   90.00000000
_symmetry_Int_Tables_number   1
_chemical_formula_structural   LuFeH5
_chemical_formula_sum   'Lu4 Fe4 H20'
_cell_volume   204.10373139
_cell_formula_units_Z   4
loop_
 _symmetry_equiv_pos_site_id
 _symmetry_equiv_pos_as_xyz
  1  'x, y, z'
loop_
 _atom_site_type_symbol
 _atom_site_label
 _atom_site_symmetry_multiplicity
 _atom_site_fract_x
 _atom_site_fract_y
 _atom_site_fract_z
 _atom_site_occupancy
  Lu  Lu0  1  0.280131  0.158039  0.649995  1
  Lu  Lu1  1  0.780131  0.341961  0.350005  1
  Lu  Lu2  1  0.219869  0.841961  0.149995  1
  Lu  Lu3  1  0.719869  0.658039  0.850005  1
  Fe  Fe4  1  0.316800  0.159048  0.911041  1
  Fe  Fe5  1  0.816800  0.340952  0.088959  1
  Fe  Fe6  1  0.183200  0.840952  0.411041  1
  Fe  Fe7  1  0.683200  0.659048  0.588959  1
  H  H8  1  0.535511  0.397786  0.515953  1
  H  H9  1  0.035511  0.102214  0.484047  1
  H  H10  1  0.964489  0.602214  0.015953  1
  H  H11  1  0.464489  0.897786  0.984047  1
  H  H12  1  0.156477  0.928514  0.822117  1
  H  H13  1  0.656477  0.571486  0.177883  1
  H  H14  1  0.343523  0.071486  0.322117  1
  H  H15  1  0.843523  0.428514  0.677883  1
  H  H16  1  0.198778  0.432987  0.829558  1
  H  H17  1  0.698778  0.067013  0.170442  1
  H  H18  1  0.301222  0.567013  0.329558  1
  H  H19  1  0.801222  0.932987  0.670442  1
  H  H20  1  0.613967  0.152801  0.825536  1
  H  H21  1  0.113967  0.347199  0.174464  1
  H  H22  1  0.886033  0.847199  0.325536  1
  H  H23  1  0.386033  0.652801  0.674464  1
  H  H24  1  0.987892  0.092125  0.997711  1
  H  H25  1  0.487892  0.407875  0.002289  1
  H  H26  1  0.512108  0.907875  0.497711  1
  H  H27  1  0.012108  0.592125  0.502289  1
