# generated using pymatgen
data_Pa3SbF20
_symmetry_space_group_name_H-M   'P 1'
_cell_length_a   10.81000058
_cell_length_b   5.52251168
_cell_length_c   8.79311366
_cell_angle_alpha   66.28228151
_cell_angle_beta   89.39163538
_cell_angle_gamma   90.47975117
_symmetry_Int_Tables_number   1
_chemical_formula_structural   Pa3SbF20
_chemical_formula_sum   'Pa3 Sb1 F20'
_cell_volume   480.52460851
_cell_formula_units_Z   1
loop_
 _symmetry_equiv_pos_site_id
 _symmetry_equiv_pos_as_xyz
  1  'x, y, z'
loop_
 _atom_site_type_symbol
 _atom_site_label
 _atom_site_symmetry_multiplicity
 _atom_site_fract_x
 _atom_site_fract_y
 _atom_site_fract_z
 _atom_site_occupancy
  Pa  Pa0  1  0.749484  0.130592  0.593244  1
  Pa  Pa1  1  0.259530  0.870509  0.906283  1
  Pa  Pa2  1  0.245675  0.874323  0.405821  1
  Sb  Sb3  1  0.745267  0.125044  0.094739  1
  F  F4  1  0.856803  0.463620  0.527856  1
  F  F5  1  0.345715  0.515919  0.960701  1
  F  F6  1  0.152043  0.524522  0.456441  1
  F  F7  1  0.638575  0.417904  0.028942  1
  F  F8  1  0.598923  0.361132  0.512865  1
  F  F9  1  0.104363  0.671451  0.028500  1
  F  F10  1  0.395998  0.668844  0.527644  1
  F  F11  1  0.882795  0.357214  0.018721  1
  F  F12  1  0.419190  0.067424  0.792801  1
  F  F13  1  0.905677  0.908355  0.654294  1
  F  F14  1  0.606208  0.893956  0.168460  1
  F  F15  1  0.090448  0.080534  0.300422  1
  F  F16  1  0.168446  0.222786  0.842465  1
  F  F17  1  0.644607  0.793176  0.667435  1
  F  F18  1  0.849970  0.829068  0.162257  1
  F  F19  1  0.344145  0.221600  0.346202  1
  F  F20  1  0.734689  0.119509  0.865504  1
  F  F21  1  0.196677  0.874793  0.658730  1
  F  F22  1  0.307592  0.877416  0.156155  1
  F  F23  1  0.757178  0.130308  0.323519  1
