# generated using pymatgen
data_Sr4Gd2NbSbO12
_symmetry_space_group_name_H-M   'P 1'
_cell_length_a   5.98988280
_cell_length_b   5.88307132
_cell_length_c   10.21245347
_cell_angle_alpha   55.09665770
_cell_angle_beta   89.85577757
_cell_angle_gamma   89.97031795
_symmetry_Int_Tables_number   1
_chemical_formula_structural   Sr4Gd2NbSbO12
_chemical_formula_sum   'Sr4 Gd2 Nb1 Sb1 O12'
_cell_volume   295.13960146
_cell_formula_units_Z   1
loop_
 _symmetry_equiv_pos_site_id
 _symmetry_equiv_pos_as_xyz
  1  'x, y, z'
loop_
 _atom_site_type_symbol
 _atom_site_label
 _atom_site_symmetry_multiplicity
 _atom_site_fract_x
 _atom_site_fract_y
 _atom_site_fract_z
 _atom_site_occupancy
  Sr  Sr0  1  0.460114  0.259809  0.751433  1
  Sr  Sr1  1  0.958447  0.740264  0.751058  1
  Sr  Sr2  1  0.041553  0.259736  0.248942  1
  Sr  Sr3  1  0.539886  0.740191  0.248567  1
  Gd  Gd4  1  0.000000  0.000000  0.000000  1
  Gd  Gd5  1  0.500000  0.000000  0.500000  1
  Nb  Nb6  1  0.000000  0.500000  0.500000  1
  Sb  Sb7  1  0.500000  0.500000  0.000000  1
  O  O8  1  0.722681  0.640886  0.548484  1
  O  O9  1  0.227092  0.353243  0.953454  1
  O  O10  1  0.277319  0.359114  0.451516  1
  O  O11  1  0.772908  0.646757  0.046546  1
  O  O12  1  0.192646  0.732909  0.543755  1
  O  O13  1  0.697341  0.270346  0.956970  1
  O  O14  1  0.807354  0.267091  0.456245  1
  O  O15  1  0.302659  0.729654  0.043030  1
  O  O16  1  0.027483  0.180204  0.733958  1
  O  O17  1  0.527176  0.817851  0.766735  1
  O  O18  1  0.972517  0.819796  0.266042  1
  O  O19  1  0.472824  0.182149  0.233265  1
