# generated using pymatgen
data_Tb7YCd2IrPd
_symmetry_space_group_name_H-M   'P 1'
_cell_length_a   9.70573355
_cell_length_b   9.70573367
_cell_length_c   9.68076800
_cell_angle_alpha   60.08505327
_cell_angle_beta   60.08505284
_cell_angle_gamma   60.27770516
_symmetry_Int_Tables_number   1
_chemical_formula_structural   Tb7YCd2IrPd
_chemical_formula_sum   'Tb14 Y2 Cd4 Ir2 Pd2'
_cell_volume   647.01480360
_cell_formula_units_Z   2
loop_
 _symmetry_equiv_pos_site_id
 _symmetry_equiv_pos_as_xyz
  1  'x, y, z'
loop_
 _atom_site_type_symbol
 _atom_site_label
 _atom_site_symmetry_multiplicity
 _atom_site_fract_x
 _atom_site_fract_y
 _atom_site_fract_z
 _atom_site_occupancy
  Tb  Tb0  1  0.351246  0.351246  0.345213  1
  Tb  Tb1  1  0.351246  0.351246  0.952297  1
  Tb  Tb2  1  0.358647  0.941492  0.349930  1
  Tb  Tb3  1  0.941492  0.358647  0.349930  1
  Tb  Tb4  1  0.805841  0.190427  0.189706  1
  Tb  Tb5  1  0.190427  0.805841  0.814027  1
  Tb  Tb6  1  0.190427  0.805841  0.189706  1
  Tb  Tb7  1  0.805841  0.190427  0.814027  1
  Tb  Tb8  1  0.191197  0.191197  0.808803  1
  Tb  Tb9  1  0.811320  0.811320  0.188680  1
  Tb  Tb10  1  0.937173  0.566388  0.561599  1
  Tb  Tb11  1  0.566388  0.937173  0.934841  1
  Tb  Tb12  1  0.566388  0.937173  0.561599  1
  Tb  Tb13  1  0.937173  0.566388  0.934841  1
  Y  Y14  1  0.564139  0.564139  0.935861  1
  Y  Y15  1  0.936223  0.936223  0.563777  1
  Cd  Cd16  1  0.580955  0.580955  0.583098  1
  Cd  Cd17  1  0.580955  0.580955  0.254992  1
  Cd  Cd18  1  0.580247  0.255772  0.581991  1
  Cd  Cd19  1  0.255772  0.580247  0.581991  1
  Ir  Ir20  1  0.140500  0.572359  0.143571  1
  Ir  Ir21  1  0.572359  0.140500  0.143571  1
  Pd  Pd22  1  0.142023  0.142023  0.146788  1
  Pd  Pd23  1  0.142023  0.142023  0.569165  1
