# generated using pymatgen
data_NdHo4(CoO6)2
_symmetry_space_group_name_H-M   'P 1'
_cell_length_a   6.78736522
_cell_length_b   6.78736528
_cell_length_c   7.24678780
_cell_angle_alpha   74.63373650
_cell_angle_beta   74.63373742
_cell_angle_gamma   50.02188875
_symmetry_Int_Tables_number   1
_chemical_formula_structural   NdHo4(CoO6)2
_chemical_formula_sum   'Nd1 Ho4 Co2 O12'
_cell_volume   244.64274306
_cell_formula_units_Z   1
loop_
 _symmetry_equiv_pos_site_id
 _symmetry_equiv_pos_as_xyz
  1  'x, y, z'
loop_
 _atom_site_type_symbol
 _atom_site_label
 _atom_site_symmetry_multiplicity
 _atom_site_fract_x
 _atom_site_fract_y
 _atom_site_fract_z
 _atom_site_occupancy
  Nd  Nd0  1  0.000000  0.000000  0.500000  1
  Ho  Ho1  1  0.306646  0.306646  0.355093  1
  Ho  Ho2  1  0.693354  0.693354  0.644907  1
  Ho  Ho3  1  0.305553  0.305553  0.837973  1
  Ho  Ho4  1  0.694447  0.694447  0.162027  1
  Co  Co5  1  0.755065  0.244935  0.000000  1
  Co  Co6  1  0.244935  0.755065  0.000000  1
  O  O7  1  0.899103  0.417261  0.922878  1
  O  O8  1  0.417261  0.899103  0.922878  1
  O  O9  1  0.100897  0.582739  0.077122  1
  O  O10  1  0.582739  0.100897  0.077122  1
  O  O11  1  0.095202  0.587819  0.581688  1
  O  O12  1  0.587819  0.095202  0.581688  1
  O  O13  1  0.904798  0.412181  0.418312  1
  O  O14  1  0.412181  0.904798  0.418312  1
  O  O15  1  0.001090  0.001090  0.832835  1
  O  O16  1  0.998910  0.998910  0.167165  1
  O  O17  1  0.499756  0.499756  0.823412  1
  O  O18  1  0.500244  0.500244  0.176588  1
