# generated using pymatgen
data_GaSbBr6
_symmetry_space_group_name_H-M   'P 1'
_cell_length_a   10.23999814
_cell_length_b   10.23999803
_cell_length_c   7.46457674
_cell_angle_alpha   70.90449591
_cell_angle_beta   70.90449845
_cell_angle_gamma   79.41003057
_symmetry_Int_Tables_number   1
_chemical_formula_structural   GaSbBr6
_chemical_formula_sum   'Ga2 Sb2 Br12'
_cell_volume   696.36171752
_cell_formula_units_Z   2
loop_
 _symmetry_equiv_pos_site_id
 _symmetry_equiv_pos_as_xyz
  1  'x, y, z'
loop_
 _atom_site_type_symbol
 _atom_site_label
 _atom_site_symmetry_multiplicity
 _atom_site_fract_x
 _atom_site_fract_y
 _atom_site_fract_z
 _atom_site_occupancy
  Ga  Ga0  1  0.198338  0.198338  0.648998  1
  Ga  Ga1  1  0.801662  0.801662  0.351002  1
  Sb  Sb2  1  0.806807  0.193193  0.000000  1
  Sb  Sb3  1  0.193193  0.806807  0.000000  1
  Br  Br4  1  0.216633  0.578090  0.925490  1
  Br  Br5  1  0.421910  0.783367  0.074510  1
  Br  Br6  1  0.783367  0.421910  0.074510  1
  Br  Br7  1  0.578090  0.216633  0.925490  1
  Br  Br8  1  0.021904  0.723077  0.423136  1
  Br  Br9  1  0.276923  0.978096  0.576864  1
  Br  Br10  1  0.978096  0.276923  0.576864  1
  Br  Br11  1  0.723077  0.021904  0.423136  1
  Br  Br12  1  0.854379  0.854379  0.000924  1
  Br  Br13  1  0.145621  0.145621  0.999076  1
  Br  Br14  1  0.642103  0.642103  0.529820  1
  Br  Br15  1  0.357897  0.357897  0.470180  1
