# generated using pymatgen
data_Cs4Li2ScAlP4
_symmetry_space_group_name_H-M   'P 1'
_cell_length_a   9.92701924
_cell_length_b   9.92701874
_cell_length_c   9.92701939
_cell_angle_alpha   142.19749395
_cell_angle_beta   53.95270929
_cell_angle_gamma   142.97040800
_symmetry_Int_Tables_number   1
_chemical_formula_structural   Cs4Li2ScAlP4
_chemical_formula_sum   'Cs4 Li2 Sc1 Al1 P4'
_cell_volume   358.72550479
_cell_formula_units_Z   1
loop_
 _symmetry_equiv_pos_site_id
 _symmetry_equiv_pos_as_xyz
  1  'x, y, z'
loop_
 _atom_site_type_symbol
 _atom_site_label
 _atom_site_symmetry_multiplicity
 _atom_site_fract_x
 _atom_site_fract_y
 _atom_site_fract_z
 _atom_site_occupancy
  Cs  Cs0  1  0.334539  0.773351  0.105237  1
  Cs  Cs1  1  0.165461  0.270697  0.438812  1
  Cs  Cs2  1  0.831885  0.726648  0.561188  1
  Cs  Cs3  1  0.668115  0.229303  0.894763  1
  Li  Li4  1  0.750001  0.250001  0.500000  1
  Li  Li5  1  0.250001  0.750000  0.500000  1
  Sc  Sc6  1  0.250001  0.250001  0.000000  1
  Al  Al7  1  0.750000  0.750000  0.000000  1
  P  P8  1  0.912967  0.213976  0.151389  1
  P  P9  1  0.587033  0.738421  0.301009  1
  P  P10  1  0.437413  0.286024  0.698991  1
  P  P11  1  0.062587  0.761577  0.848611  1
