# generated using pymatgen
data_Dy2YCo(P3Rh4)2
_symmetry_space_group_name_H-M   'P 1'
_cell_length_a   3.86397800
_cell_length_b   11.12727400
_cell_length_c   12.78944900
_cell_angle_alpha   90.00000000
_cell_angle_beta   90.00000000
_cell_angle_gamma   90.00000000
_symmetry_Int_Tables_number   1
_chemical_formula_structural   Dy2YCo(P3Rh4)2
_chemical_formula_sum   'Dy4 Y2 Co2 P12 Rh16'
_cell_volume   549.88929082
_cell_formula_units_Z   2
loop_
 _symmetry_equiv_pos_site_id
 _symmetry_equiv_pos_as_xyz
  1  'x, y, z'
loop_
 _atom_site_type_symbol
 _atom_site_label
 _atom_site_symmetry_multiplicity
 _atom_site_fract_x
 _atom_site_fract_y
 _atom_site_fract_z
 _atom_site_occupancy
  Dy  Dy0  1  0.500000  0.814794  0.201770  1
  Dy  Dy1  1  0.500000  0.185206  0.201770  1
  Dy  Dy2  1  0.000000  0.685206  0.798230  1
  Dy  Dy3  1  0.000000  0.314794  0.798230  1
  Y  Y4  1  0.000000  0.500000  0.521759  1
  Y  Y5  1  0.500000  0.000000  0.478241  1
  Co  Co6  1  0.000000  0.500000  0.979309  1
  Co  Co7  1  0.500000  0.000000  0.020691  1
  P  P8  1  0.500000  0.500000  0.881319  1
  P  P9  1  0.000000  0.000000  0.118681  1
  P  P10  1  0.500000  0.500000  0.351226  1
  P  P11  1  0.000000  0.000000  0.648774  1
  P  P12  1  0.500000  0.315465  0.619610  1
  P  P13  1  0.500000  0.684535  0.619610  1
  P  P14  1  0.000000  0.184535  0.380390  1
  P  P15  1  0.000000  0.815465  0.380390  1
  P  P16  1  0.500000  0.853502  0.895930  1
  P  P17  1  0.500000  0.146498  0.895930  1
  P  P18  1  0.000000  0.646498  0.104070  1
  P  P19  1  0.000000  0.353502  0.104070  1
  Rh  Rh20  1  0.500000  0.500000  0.168293  1
  Rh  Rh21  1  0.000000  0.000000  0.831707  1
  Rh  Rh22  1  0.500000  0.500000  0.703361  1
  Rh  Rh23  1  0.000000  0.000000  0.296639  1
  Rh  Rh24  1  0.500000  0.336702  0.994092  1
  Rh  Rh25  1  0.500000  0.663298  0.994092  1
  Rh  Rh26  1  0.000000  0.163298  0.005908  1
  Rh  Rh27  1  0.000000  0.836702  0.005908  1
  Rh  Rh28  1  0.500000  0.293794  0.430359  1
  Rh  Rh29  1  0.500000  0.706206  0.430359  1
  Rh  Rh30  1  0.000000  0.206206  0.569641  1
  Rh  Rh31  1  0.000000  0.793794  0.569641  1
  Rh  Rh32  1  0.500000  0.873175  0.712199  1
  Rh  Rh33  1  0.500000  0.126825  0.712199  1
  Rh  Rh34  1  0.000000  0.626825  0.287801  1
  Rh  Rh35  1  0.000000  0.373175  0.287801  1
