# generated using pymatgen
data_V2Si2Tc3Rh
_symmetry_space_group_name_H-M   'P 1'
_cell_length_a   4.23654000
_cell_length_b   6.01069555
_cell_length_c   12.62959316
_cell_angle_alpha   90.04912244
_cell_angle_beta   89.99957463
_cell_angle_gamma   90.00059311
_symmetry_Int_Tables_number   1
_chemical_formula_structural   V2Si2Tc3Rh
_chemical_formula_sum   'V6 Si6 Tc9 Rh3'
_cell_volume   321.60681527
_cell_formula_units_Z   3
loop_
 _symmetry_equiv_pos_site_id
 _symmetry_equiv_pos_as_xyz
  1  'x, y, z'
loop_
 _atom_site_type_symbol
 _atom_site_label
 _atom_site_symmetry_multiplicity
 _atom_site_fract_x
 _atom_site_fract_y
 _atom_site_fract_z
 _atom_site_occupancy
  V  V0  1  0.000019  0.506152  0.991681  1
  V  V1  1  0.499817  0.988106  0.177192  1
  V  V2  1  0.999853  0.502500  0.339641  1
  V  V3  1  0.499994  0.001517  0.500318  1
  V  V4  1  0.000157  0.499485  0.666231  1
  V  V5  1  0.500169  0.001021  0.824076  1
  Si  Si6  1  0.000008  0.000007  0.000924  1
  Si  Si7  1  0.499799  0.501862  0.165921  1
  Si  Si8  1  0.999811  0.999976  0.333359  1
  Si  Si9  1  0.499992  0.498830  0.500249  1
  Si  Si10  1  0.000195  0.001122  0.666632  1
  Si  Si11  1  0.500165  0.498355  0.832943  1
  Tc  Tc12  1  0.999862  0.752846  0.162846  1
  Tc  Tc13  1  0.499862  0.250962  0.327864  1
  Tc  Tc14  1  0.499866  0.749467  0.330459  1
  Tc  Tc15  1  0.999993  0.249318  0.498183  1
  Tc  Tc16  1  0.999999  0.751006  0.499716  1
  Tc  Tc17  1  0.500143  0.249969  0.668766  1
  Tc  Tc18  1  0.500141  0.748901  0.669116  1
  Tc  Tc19  1  0.000135  0.247990  0.839583  1
  Tc  Tc20  1  0.000135  0.750155  0.837876  1
  Rh  Rh21  1  0.500007  0.250625  0.003835  1
  Rh  Rh22  1  0.500014  0.747686  0.000073  1
  Rh  Rh23  1  0.999864  0.252140  0.162516  1
