# generated using pymatgen
data_VCo8Sb2RhO16
_symmetry_space_group_name_H-M   'P 1'
_cell_length_a   6.07701595
_cell_length_b   10.46954854
_cell_length_c   6.19627970
_cell_angle_alpha   73.87493281
_cell_angle_beta   60.44286779
_cell_angle_gamma   90.12399860
_symmetry_Int_Tables_number   1
_chemical_formula_structural   VCo8Sb2RhO16
_chemical_formula_sum   'V1 Co8 Sb2 Rh1 O16'
_cell_volume   324.83412959
_cell_formula_units_Z   1
loop_
 _symmetry_equiv_pos_site_id
 _symmetry_equiv_pos_as_xyz
  1  'x, y, z'
loop_
 _atom_site_type_symbol
 _atom_site_label
 _atom_site_symmetry_multiplicity
 _atom_site_fract_x
 _atom_site_fract_y
 _atom_site_fract_z
 _atom_site_occupancy
  V  V0  1  0.250339  0.750019  0.500103  1
  Co  Co1  1  0.702891  0.569360  0.098417  1
  Co  Co2  1  0.797816  0.930654  0.901702  1
  Co  Co3  1  0.749698  0.250013  0.499825  1
  Co  Co4  1  0.997481  0.500266  0.498892  1
  Co  Co5  1  0.195646  0.068605  0.098698  1
  Co  Co6  1  0.303709  0.431448  0.901068  1
  Co  Co7  1  0.502468  0.999677  0.501254  1
  Co  Co8  1  0.750434  0.750015  0.500045  1
  Sb  Sb9  1  0.749508  0.249992  0.999927  1
  Sb  Sb10  1  0.250474  0.749954  0.000104  1
  Rh  Rh11  1  0.249600  0.250037  0.499934  1
  O  O12  1  0.393909  0.130708  0.713173  1
  O  O13  1  0.902435  0.633652  0.710922  1
  O  O14  1  0.105323  0.369349  0.286601  1
  O  O15  1  0.598368  0.866298  0.289217  1
  O  O16  1  0.392975  0.135895  0.246218  1
  O  O17  1  0.901677  0.634326  0.241077  1
  O  O18  1  0.856338  0.134712  0.239230  1
  O  O19  1  0.361192  0.637101  0.243127  1
  O  O20  1  0.618229  0.363155  0.245953  1
  O  O21  1  0.136799  0.863270  0.244335  1
  O  O22  1  0.642927  0.365276  0.760468  1
  O  O23  1  0.139445  0.862821  0.757305  1
  O  O24  1  0.881064  0.136863  0.753842  1
  O  O25  1  0.364034  0.636787  0.755699  1
  O  O26  1  0.106080  0.364084  0.753866  1
  O  O27  1  0.599143  0.865663  0.758997  1
