# generated using pymatgen
data_LiLa(BrO3)4
_symmetry_space_group_name_H-M   'P 1'
_cell_length_a   5.04643176
_cell_length_b   6.76052500
_cell_length_c   8.63597300
_cell_angle_alpha   84.67905866
_cell_angle_beta   88.33299313
_cell_angle_gamma   88.43729896
_symmetry_Int_Tables_number   1
_chemical_formula_structural   LiLa(BrO3)4
_chemical_formula_sum   'Li1 La1 Br4 O12'
_cell_volume   293.14627170
_cell_formula_units_Z   1
loop_
 _symmetry_equiv_pos_site_id
 _symmetry_equiv_pos_as_xyz
  1  'x, y, z'
loop_
 _atom_site_type_symbol
 _atom_site_label
 _atom_site_symmetry_multiplicity
 _atom_site_fract_x
 _atom_site_fract_y
 _atom_site_fract_z
 _atom_site_occupancy
  Li  Li0  1  0.500000  0.000000  0.500000  1
  La  La1  1  0.500000  0.500000  0.500000  1
  Br  Br2  1  0.571347  0.825211  0.150200  1
  Br  Br3  1  0.025766  0.262293  0.253666  1
  Br  Br4  1  0.974234  0.737707  0.746334  1
  Br  Br5  1  0.428653  0.174789  0.849800  1
  O  O6  1  0.743350  0.640073  0.079679  1
  O  O7  1  0.731830  0.033478  0.093637  1
  O  O8  1  0.173069  0.470495  0.303290  1
  O  O9  1  0.224481  0.077024  0.320750  1
  O  O10  1  0.635148  0.791724  0.351233  1
  O  O11  1  0.762345  0.249795  0.383575  1
  O  O12  1  0.237655  0.750205  0.616425  1
  O  O13  1  0.364852  0.208276  0.648767  1
  O  O14  1  0.775519  0.922976  0.679250  1
  O  O15  1  0.826931  0.529505  0.696710  1
  O  O16  1  0.268170  0.966522  0.906363  1
  O  O17  1  0.256650  0.359927  0.920321  1
