# generated using pymatgen
data_K4Rb2BiSbSe6
_symmetry_space_group_name_H-M   'P 1'
_cell_length_a   10.12687300
_cell_length_b   10.12041792
_cell_length_c   10.13298826
_cell_angle_alpha   90.90611545
_cell_angle_beta   90.00000000
_cell_angle_gamma   90.00000000
_symmetry_Int_Tables_number   1
_chemical_formula_structural   K4Rb2BiSbSe6
_chemical_formula_sum   'K8 Rb4 Bi2 Sb2 Se12'
_cell_volume   1038.38172993
_cell_formula_units_Z   2
loop_
 _symmetry_equiv_pos_site_id
 _symmetry_equiv_pos_as_xyz
  1  'x, y, z'
loop_
 _atom_site_type_symbol
 _atom_site_label
 _atom_site_symmetry_multiplicity
 _atom_site_fract_x
 _atom_site_fract_y
 _atom_site_fract_z
 _atom_site_occupancy
  K  K0  1  0.184289  0.684389  0.817472  1
  K  K1  1  0.684289  0.815611  0.182528  1
  K  K2  1  0.817727  0.182154  0.684195  1
  K  K3  1  0.317727  0.317846  0.315805  1
  K  K4  1  0.689321  0.191434  0.311540  1
  K  K5  1  0.189321  0.308566  0.688460  1
  K  K6  1  0.310383  0.687745  0.190526  1
  K  K7  1  0.810383  0.812255  0.809474  1
  Rb  Rb8  1  0.927959  0.432988  0.079630  1
  Rb  Rb9  1  0.427959  0.067012  0.920370  1
  Rb  Rb10  1  0.075152  0.920240  0.431696  1
  Rb  Rb11  1  0.575152  0.579760  0.568304  1
  Bi  Bi12  1  0.527756  0.467449  0.970900  1
  Bi  Bi13  1  0.027756  0.032551  0.029100  1
  Sb  Sb14  1  0.473714  0.978272  0.524919  1
  Sb  Sb15  1  0.973714  0.521728  0.475081  1
  Se  Se16  1  0.002921  0.778285  0.100196  1
  Se  Se17  1  0.901022  0.501965  0.719920  1
  Se  Se18  1  0.272983  0.395643  0.997762  1
  Se  Se19  1  0.502921  0.721715  0.899804  1
  Se  Se20  1  0.401022  0.998035  0.280080  1
  Se  Se21  1  0.772983  0.104357  0.002238  1
  Se  Se22  1  0.998762  0.275939  0.401333  1
  Se  Se23  1  0.099452  0.001858  0.774617  1
  Se  Se24  1  0.718559  0.904467  0.501976  1
  Se  Se25  1  0.498762  0.224061  0.598667  1
  Se  Se26  1  0.599452  0.498142  0.225383  1
  Se  Se27  1  0.218559  0.595533  0.498024  1
