# generated using pymatgen
data_Er4Ga10NiRh5
_symmetry_space_group_name_H-M   'P 1'
_cell_length_a   5.55647785
_cell_length_b   8.58630590
_cell_length_c   8.58706875
_cell_angle_alpha   97.19091174
_cell_angle_beta   108.85456973
_cell_angle_gamma   108.85499206
_symmetry_Int_Tables_number   1
_chemical_formula_structural   Er4Ga10NiRh5
_chemical_formula_sum   'Er4 Ga10 Ni1 Rh5'
_cell_volume   354.63407785
_cell_formula_units_Z   1
loop_
 _symmetry_equiv_pos_site_id
 _symmetry_equiv_pos_as_xyz
  1  'x, y, z'
loop_
 _atom_site_type_symbol
 _atom_site_label
 _atom_site_symmetry_multiplicity
 _atom_site_fract_x
 _atom_site_fract_y
 _atom_site_fract_z
 _atom_site_occupancy
  Er  Er0  1  0.784253  0.423727  0.130723  1
  Er  Er1  1  0.270598  0.130876  0.423106  1
  Er  Er2  1  0.715657  0.869274  0.576193  1
  Er  Er3  1  0.229517  0.576902  0.869148  1
  Ga  Ga4  1  0.189274  0.260833  0.099994  1
  Ga  Ga5  1  0.249729  0.802284  0.197786  1
  Ga  Ga6  1  0.749739  0.800119  0.199882  1
  Ga  Ga7  1  0.672499  0.099848  0.260918  1
  Ga  Ga8  1  0.749703  0.499932  0.500106  1
  Ga  Ga9  1  0.249707  0.499961  0.500064  1
  Ga  Ga10  1  0.311340  0.900162  0.739322  1
  Ga  Ga11  1  0.249874  0.197590  0.802414  1
  Ga  Ga12  1  0.749798  0.199962  0.800041  1
  Ga  Ga13  1  0.827960  0.738953  0.900055  1
  Ni  Ni14  1  0.250822  0.999859  0.000141  1
  Rh  Rh15  1  0.412041  0.564259  0.259077  1
  Rh  Rh16  1  0.087414  0.740957  0.435735  1
  Rh  Rh17  1  0.911536  0.259298  0.564671  1
  Rh  Rh18  1  0.588060  0.435271  0.740645  1
  Rh  Rh19  1  0.750481  0.999932  0.999979  1
