# generated using pymatgen
data_Li12NdGd11(TeO6)8
_symmetry_space_group_name_H-M   'P 1'
_cell_length_a   10.86438122
_cell_length_b   10.86438197
_cell_length_c   10.87455105
_cell_angle_alpha   109.45501914
_cell_angle_beta   109.45501877
_cell_angle_gamma   109.46572889
_symmetry_Int_Tables_number   1
_chemical_formula_structural   Li12NdGd11(TeO6)8
_chemical_formula_sum   'Li12 Nd1 Gd11 Te8 O48'
_cell_volume   988.55857377
_cell_formula_units_Z   1
loop_
 _symmetry_equiv_pos_site_id
 _symmetry_equiv_pos_as_xyz
  1  'x, y, z'
loop_
 _atom_site_type_symbol
 _atom_site_label
 _atom_site_symmetry_multiplicity
 _atom_site_fract_x
 _atom_site_fract_y
 _atom_site_fract_z
 _atom_site_occupancy
  Li  Li0  1  0.749838  0.875217  0.124838  1
  Li  Li1  1  0.874999  0.249621  0.124838  1
  Li  Li2  1  0.624324  0.374324  0.250000  1
  Li  Li3  1  0.125676  0.875676  0.250000  1
  Li  Li4  1  0.624783  0.750162  0.375162  1
  Li  Li5  1  0.250379  0.625001  0.375162  1
  Li  Li6  1  0.749960  0.374948  0.624948  1
  Li  Li7  1  0.374988  0.250000  0.624948  1
  Li  Li8  1  0.874983  0.124983  0.750000  1
  Li  Li9  1  0.375017  0.625017  0.750000  1
  Li  Li10  1  0.125052  0.750040  0.875052  1
  Li  Li11  1  0.250000  0.125012  0.875052  1
  Nd  Nd12  1  0.875000  0.625000  0.250000  1
  Gd  Gd13  1  0.125000  0.375000  0.750000  1
  Gd  Gd14  1  0.875160  0.750314  0.625822  1
  Gd  Gd15  1  0.624492  0.249338  0.874178  1
  Gd  Gd16  1  0.250033  0.374988  0.125030  1
  Gd  Gd17  1  0.625000  0.875000  0.750000  1
  Gd  Gd18  1  0.250662  0.875508  0.625822  1
  Gd  Gd19  1  0.749958  0.125002  0.374970  1
  Gd  Gd20  1  0.375000  0.125000  0.250000  1
  Gd  Gd21  1  0.749686  0.624840  0.874178  1
  Gd  Gd22  1  0.374998  0.750042  0.125030  1
  Gd  Gd23  1  0.125012  0.249967  0.374970  1
  Te  Te24  1  0.498608  0.499175  0.998751  1
  Te  Te25  1  0.499987  0.999956  0.000020  1
  Te  Te26  1  0.000143  0.499576  0.998751  1
  Te  Te27  1  0.000033  0.000064  0.000020  1
  Te  Te28  1  0.499936  0.499967  0.499980  1
  Te  Te29  1  0.000424  0.499857  0.501249  1
  Te  Te30  1  0.500044  0.000013  0.499980  1
  Te  Te31  1  0.000825  0.001392  0.501249  1
  O  O32  1  0.080738  0.884972  0.408509  1
  O  O33  1  0.095707  0.619341  0.424790  1
  O  O34  1  0.829083  0.805449  0.424790  1
  O  O35  1  0.380013  0.577314  0.905669  1
  O  O36  1  0.827770  0.523537  0.408509  1
  O  O37  1  0.094183  0.974820  0.671746  1
  O  O38  1  0.119913  0.593688  0.922023  1
  O  O39  1  0.302110  0.328335  0.922023  1
  O  O40  1  0.077563  0.696925  0.671746  1
  O  O41  1  0.619309  0.696655  0.525304  1
  O  O42  1  0.671265  0.077147  0.696523  1
  O  O43  1  0.422933  0.094164  0.619509  1
  O  O44  1  0.405994  0.828648  0.525304  1
  O  O45  1  0.025656  0.328355  0.905669  1
  O  O46  1  0.474668  0.593909  0.171015  1
  O  O47  1  0.880624  0.974741  0.803477  1
  O  O48  1  0.696576  0.525345  0.619509  1
  O  O49  1  0.196347  0.577107  0.171015  1
  O  O50  1  0.196788  0.119411  0.025392  1
  O  O51  1  0.577215  0.171179  0.196556  1
  O  O52  1  0.593997  0.922697  0.119424  1
  O  O53  1  0.328604  0.905981  0.025392  1
  O  O54  1  0.974655  0.803424  0.880491  1
  O  O55  1  0.525259  0.619376  0.696523  1
  O  O56  1  0.474624  0.380659  0.303444  1
  O  O57  1  0.025427  0.196728  0.119424  1
  O  O58  1  0.671352  0.094006  0.974696  1
  O  O59  1  0.405836  0.077067  0.880491  1
  O  O60  1  0.422853  0.828735  0.803477  1
  O  O61  1  0.803345  0.880691  0.974696  1
  O  O62  1  0.803075  0.422437  0.828254  1
  O  O63  1  0.303272  0.474573  0.380576  1
  O  O64  1  0.119341  0.025376  0.196556  1
  O  O65  1  0.525180  0.405817  0.828254  1
  O  O66  1  0.976463  0.672230  0.091491  1
  O  O67  1  0.594019  0.171396  0.474608  1
  O  O68  1  0.577303  0.906003  0.380576  1
  O  O69  1  0.328821  0.922785  0.303444  1
  O  O70  1  0.380589  0.303212  0.474608  1
  O  O71  1  0.922893  0.303653  0.328985  1
  O  O72  1  0.694551  0.670917  0.075210  1
  O  O73  1  0.880659  0.404293  0.075210  1
  O  O74  1  0.906091  0.025332  0.328985  1
  O  O75  1  0.171645  0.474344  0.594331  1
  O  O76  1  0.615028  0.419262  0.091491  1
  O  O77  1  0.171665  0.197890  0.577977  1
  O  O78  1  0.906312  0.380087  0.577977  1
  O  O79  1  0.922686  0.119987  0.594331  1
