# generated using pymatgen
data_Nb10Sn4Pd
_symmetry_space_group_name_H-M   'P 1'
_cell_length_a   10.28657100
_cell_length_b   10.28657100
_cell_length_c   5.33037200
_cell_angle_alpha   90.00000000
_cell_angle_beta   90.00000000
_cell_angle_gamma   90.00000000
_symmetry_Int_Tables_number   1
_chemical_formula_structural   Nb10Sn4Pd
_chemical_formula_sum   'Nb20 Sn8 Pd2'
_cell_volume   564.02554650
_cell_formula_units_Z   2
loop_
 _symmetry_equiv_pos_site_id
 _symmetry_equiv_pos_as_xyz
  1  'x, y, z'
loop_
 _atom_site_type_symbol
 _atom_site_label
 _atom_site_symmetry_multiplicity
 _atom_site_fract_x
 _atom_site_fract_y
 _atom_site_fract_z
 _atom_site_occupancy
  Nb  Nb0  1  0.401717  0.401717  0.000000  1
  Nb  Nb1  1  0.901717  0.098283  0.500000  1
  Nb  Nb2  1  0.098283  0.901717  0.500000  1
  Nb  Nb3  1  0.598283  0.598283  0.000000  1
  Nb  Nb4  1  0.129876  0.466896  0.000000  1
  Nb  Nb5  1  0.966896  0.370124  0.500000  1
  Nb  Nb6  1  0.033104  0.629876  0.500000  1
  Nb  Nb7  1  0.870124  0.533104  0.000000  1
  Nb  Nb8  1  0.370124  0.966896  0.500000  1
  Nb  Nb9  1  0.629876  0.033104  0.500000  1
  Nb  Nb10  1  0.466896  0.129876  0.000000  1
  Nb  Nb11  1  0.533104  0.870124  0.000000  1
  Nb  Nb12  1  0.183052  0.183052  0.254726  1
  Nb  Nb13  1  0.683052  0.316948  0.754726  1
  Nb  Nb14  1  0.316948  0.683052  0.754726  1
  Nb  Nb15  1  0.816948  0.816948  0.254726  1
  Nb  Nb16  1  0.316948  0.683052  0.245274  1
  Nb  Nb17  1  0.683052  0.316948  0.245274  1
  Nb  Nb18  1  0.183052  0.183052  0.745274  1
  Nb  Nb19  1  0.816948  0.816948  0.745274  1
  Sn  Sn20  1  0.262498  0.940006  0.000000  1
  Sn  Sn21  1  0.440006  0.237502  0.500000  1
  Sn  Sn22  1  0.559994  0.762498  0.500000  1
  Sn  Sn23  1  0.737502  0.059994  0.000000  1
  Sn  Sn24  1  0.237502  0.440006  0.500000  1
  Sn  Sn25  1  0.762498  0.559994  0.500000  1
  Sn  Sn26  1  0.940006  0.262498  0.000000  1
  Sn  Sn27  1  0.059994  0.737502  0.000000  1
  Pd  Pd28  1  0.000000  0.000000  0.000000  1
  Pd  Pd29  1  0.500000  0.500000  0.500000  1
