# generated using pymatgen
data_Rb5InO4
_symmetry_space_group_name_H-M   'P 1'
_cell_length_a   12.42777800
_cell_length_b   7.00648079
_cell_length_c   11.02346600
_cell_angle_alpha   81.59414692
_cell_angle_beta   90.00000000
_cell_angle_gamma   90.00000000
_symmetry_Int_Tables_number   1
_chemical_formula_structural   Rb5InO4
_chemical_formula_sum   'Rb20 In4 O16'
_cell_volume   949.55669208
_cell_formula_units_Z   4
loop_
 _symmetry_equiv_pos_site_id
 _symmetry_equiv_pos_as_xyz
  1  'x, y, z'
loop_
 _atom_site_type_symbol
 _atom_site_label
 _atom_site_symmetry_multiplicity
 _atom_site_fract_x
 _atom_site_fract_y
 _atom_site_fract_z
 _atom_site_occupancy
  Rb  Rb0  1  0.916548  0.235344  0.005175  1
  Rb  Rb1  1  0.583452  0.735344  0.005175  1
  Rb  Rb2  1  0.173678  0.181850  0.152964  1
  Rb  Rb3  1  0.326322  0.681850  0.152964  1
  Rb  Rb4  1  0.699878  0.986701  0.230006  1
  Rb  Rb5  1  0.800122  0.486701  0.230006  1
  Rb  Rb6  1  0.068244  0.444134  0.371593  1
  Rb  Rb7  1  0.431756  0.944134  0.371593  1
  Rb  Rb8  1  0.847943  0.087664  0.496953  1
  Rb  Rb9  1  0.347943  0.412336  0.503047  1
  Rb  Rb10  1  0.652057  0.587664  0.496953  1
  Rb  Rb11  1  0.152057  0.912336  0.503047  1
  Rb  Rb12  1  0.568244  0.055866  0.628407  1
  Rb  Rb13  1  0.931756  0.555866  0.628407  1
  Rb  Rb14  1  0.199878  0.513299  0.769994  1
  Rb  Rb15  1  0.300122  0.013299  0.769994  1
  Rb  Rb16  1  0.673678  0.318150  0.847036  1
  Rb  Rb17  1  0.826322  0.818150  0.847036  1
  Rb  Rb18  1  0.416548  0.264656  0.994825  1
  Rb  Rb19  1  0.083452  0.764656  0.994825  1
  In  In20  1  0.536968  0.382700  0.253818  1
  In  In21  1  0.963032  0.882700  0.253818  1
  In  In22  1  0.036968  0.117300  0.746182  1
  In  In23  1  0.463032  0.617300  0.746182  1
  O  O24  1  0.617927  0.333411  0.090647  1
  O  O25  1  0.882073  0.833411  0.090647  1
  O  O26  1  0.371820  0.303740  0.249103  1
  O  O27  1  0.957131  0.180246  0.263784  1
  O  O28  1  0.128180  0.803740  0.249103  1
  O  O29  1  0.542869  0.680246  0.263784  1
  O  O30  1  0.623823  0.230042  0.401560  1
  O  O31  1  0.876177  0.730042  0.401560  1
  O  O32  1  0.123823  0.269958  0.598440  1
  O  O33  1  0.376177  0.769958  0.598440  1
  O  O34  1  0.457131  0.319754  0.736216  1
  O  O35  1  0.871820  0.196260  0.750897  1
  O  O36  1  0.042869  0.819754  0.736216  1
  O  O37  1  0.628180  0.696260  0.750897  1
  O  O38  1  0.117927  0.166589  0.909353  1
  O  O39  1  0.382073  0.666589  0.909353  1
