# generated using pymatgen
data_YbY7Ho2(In2Pt)4
_symmetry_space_group_name_H-M   'P 1'
_cell_length_a   3.61708000
_cell_length_b   8.19748604
_cell_length_c   18.36799883
_cell_angle_alpha   90.01836976
_cell_angle_beta   90.00000000
_cell_angle_gamma   90.00000000
_symmetry_Int_Tables_number   1
_chemical_formula_structural   YbY7Ho2(In2Pt)4
_chemical_formula_sum   'Yb1 Y7 Ho2 In8 Pt4'
_cell_volume   544.62882198
_cell_formula_units_Z   1
loop_
 _symmetry_equiv_pos_site_id
 _symmetry_equiv_pos_as_xyz
  1  'x, y, z'
loop_
 _atom_site_type_symbol
 _atom_site_label
 _atom_site_symmetry_multiplicity
 _atom_site_fract_x
 _atom_site_fract_y
 _atom_site_fract_z
 _atom_site_occupancy
  Yb  Yb0  1  0.000000  0.000000  0.000000  1
  Y  Y1  1  0.000000  0.117579  0.415274  1
  Y  Y2  1  0.000000  0.882421  0.584726  1
  Y  Y3  1  0.000000  0.380592  0.914602  1
  Y  Y4  1  0.000000  0.619408  0.085398  1
  Y  Y5  1  0.000000  0.241924  0.220865  1
  Y  Y6  1  0.000000  0.758076  0.779135  1
  Y  Y7  1  0.000000  0.500000  0.500000  1
  Ho  Ho8  1  0.000000  0.257966  0.720591  1
  Ho  Ho9  1  0.000000  0.742034  0.279409  1
  In  In10  1  0.500000  0.423576  0.351311  1
  In  In11  1  0.500000  0.576424  0.648689  1
  In  In12  1  0.500000  0.074950  0.850526  1
  In  In13  1  0.500000  0.925050  0.149474  1
  In  In14  1  0.500000  0.293071  0.067531  1
  In  In15  1  0.500000  0.706929  0.932469  1
  In  In16  1  0.500000  0.208259  0.567102  1
  In  In17  1  0.500000  0.791741  0.432898  1
  Pt  Pt18  1  0.500000  0.022504  0.303785  1
  Pt  Pt19  1  0.500000  0.977496  0.696215  1
  Pt  Pt20  1  0.500000  0.476784  0.802598  1
  Pt  Pt21  1  0.500000  0.523216  0.197402  1
