# generated using pymatgen
data_Sr6LaNdSb6
_symmetry_space_group_name_H-M   'P 1'
_cell_length_a   8.58765121
_cell_length_b   8.56689648
_cell_length_c   9.93376508
_cell_angle_alpha   55.07108018
_cell_angle_beta   55.01017981
_cell_angle_gamma   70.79103330
_symmetry_Int_Tables_number   1
_chemical_formula_structural   Sr6LaNdSb6
_chemical_formula_sum   'Sr6 La1 Nd1 Sb6'
_cell_volume   490.87553610
_cell_formula_units_Z   1
loop_
 _symmetry_equiv_pos_site_id
 _symmetry_equiv_pos_as_xyz
  1  'x, y, z'
loop_
 _atom_site_type_symbol
 _atom_site_label
 _atom_site_symmetry_multiplicity
 _atom_site_fract_x
 _atom_site_fract_y
 _atom_site_fract_z
 _atom_site_occupancy
  Sr  Sr0  1  0.001125  0.133500  0.113288  1
  Sr  Sr1  1  0.865974  0.000478  0.885690  1
  Sr  Sr2  1  0.499587  0.858093  0.750632  1
  Sr  Sr3  1  0.142372  0.500222  0.249187  1
  Sr  Sr4  1  0.999094  0.644574  0.605500  1
  Sr  Sr5  1  0.355269  0.000308  0.394842  1
  La  La6  1  0.637204  0.498595  0.248715  1
  Nd  Nd7  1  0.500620  0.366510  0.751596  1
  Sb  Sb8  1  0.860915  0.138349  0.501197  1
  Sb  Sb9  1  0.624091  0.374541  0.997736  1
  Sb  Sb10  1  0.261787  0.257340  0.622294  1
  Sb  Sb11  1  0.740703  0.735760  0.381729  1
  Sb  Sb12  1  0.126815  0.613515  0.877650  1
  Sb  Sb13  1  0.384441  0.878216  0.119945  1
