# generated using pymatgen
data_Li3U(B4Ru5)2
_symmetry_space_group_name_H-M   'P 1'
_cell_length_a   2.97674600
_cell_length_b   8.30702245
_cell_length_c   10.00542484
_cell_angle_alpha   89.60492368
_cell_angle_beta   90.00000000
_cell_angle_gamma   90.00000000
_symmetry_Int_Tables_number   1
_chemical_formula_structural   Li3U(B4Ru5)2
_chemical_formula_sum   'Li3 U1 B8 Ru10'
_cell_volume   247.40722173
_cell_formula_units_Z   1
loop_
 _symmetry_equiv_pos_site_id
 _symmetry_equiv_pos_as_xyz
  1  'x, y, z'
loop_
 _atom_site_type_symbol
 _atom_site_label
 _atom_site_symmetry_multiplicity
 _atom_site_fract_x
 _atom_site_fract_y
 _atom_site_fract_z
 _atom_site_occupancy
  Li  Li0  1  0.500000  0.853143  0.141742  1
  Li  Li1  1  0.500000  0.122332  0.776678  1
  Li  Li2  1  0.500000  0.622267  0.718861  1
  U  U3  1  0.500000  0.350147  0.326658  1
  B  B4  1  0.500000  0.951370  0.590953  1
  B  B5  1  0.500000  0.032843  0.409254  1
  B  B6  1  0.500000  0.861366  0.891827  1
  B  B7  1  0.500000  0.150028  0.090003  1
  B  B8  1  0.500000  0.660553  0.407878  1
  B  B9  1  0.500000  0.351774  0.620636  1
  B  B10  1  0.500000  0.465996  0.915414  1
  B  B11  1  0.500000  0.556773  0.092526  1
  Ru  Ru12  1  0.000000  0.663184  0.955515  1
  Ru  Ru13  1  0.000000  0.353279  0.060658  1
  Ru  Ru14  1  0.000000  0.849397  0.453299  1
  Ru  Ru15  1  0.000000  0.161940  0.546142  1
  Ru  Ru16  1  0.000000  0.026578  0.975897  1
  Ru  Ru17  1  0.000000  0.371448  0.777435  1
  Ru  Ru18  1  0.000000  0.619616  0.245723  1
  Ru  Ru19  1  0.000000  0.513353  0.517712  1
  Ru  Ru20  1  0.000000  0.873258  0.732672  1
  Ru  Ru21  1  0.000000  0.089356  0.252515  1
