# generated using pymatgen
data_TbCoSiPd
_symmetry_space_group_name_H-M   'P 1'
_cell_length_a   9.32679292
_cell_length_b   9.32679310
_cell_length_c   3.93958600
_cell_angle_alpha   90.00000000
_cell_angle_beta   90.00000000
_cell_angle_gamma   156.31939386
_symmetry_Int_Tables_number   1
_chemical_formula_structural   TbCoSiPd
_chemical_formula_sum   'Tb2 Co2 Si2 Pd2'
_cell_volume   137.64164586
_cell_formula_units_Z   2
loop_
 _symmetry_equiv_pos_site_id
 _symmetry_equiv_pos_as_xyz
  1  'x, y, z'
loop_
 _atom_site_type_symbol
 _atom_site_label
 _atom_site_symmetry_multiplicity
 _atom_site_fract_x
 _atom_site_fract_y
 _atom_site_fract_z
 _atom_site_occupancy
  Tb  Tb0  1  0.612172  0.387828  0.250000  1
  Tb  Tb1  1  0.387828  0.612172  0.750000  1
  Co  Co2  1  0.249075  0.750925  0.250000  1
  Co  Co3  1  0.750925  0.249075  0.750000  1
  Si  Si4  1  0.815861  0.184139  0.250000  1
  Si  Si5  1  0.184139  0.815861  0.750000  1
  Pd  Pd6  1  0.950019  0.049981  0.250000  1
  Pd  Pd7  1  0.049981  0.950019  0.750000  1
