# generated using pymatgen
data_Er3Tm9In2(CoSi)2
_symmetry_space_group_name_H-M   'P 1'
_cell_length_a   8.35924735
_cell_length_b   8.36381800
_cell_length_c   8.36381948
_cell_angle_alpha   113.44815591
_cell_angle_beta   111.00406102
_cell_angle_gamma   104.12133323
_symmetry_Int_Tables_number   1
_chemical_formula_structural   Er3Tm9In2(CoSi)2
_chemical_formula_sum   'Er3 Tm9 In2 Co2 Si2'
_cell_volume   446.89672340
_cell_formula_units_Z   1
loop_
 _symmetry_equiv_pos_site_id
 _symmetry_equiv_pos_as_xyz
  1  'x, y, z'
loop_
 _atom_site_type_symbol
 _atom_site_label
 _atom_site_symmetry_multiplicity
 _atom_site_fract_x
 _atom_site_fract_y
 _atom_site_fract_z
 _atom_site_occupancy
  Er  Er0  1  0.444251  0.242120  0.202132  1
  Er  Er1  1  0.555895  0.757919  0.797976  1
  Er  Er2  1  0.040074  0.242145  0.797930  1
  Tm  Tm3  1  0.960313  0.757936  0.202376  1
  Tm  Tm4  1  0.186808  0.288553  0.475472  1
  Tm  Tm5  1  0.813146  0.711338  0.524317  1
  Tm  Tm6  1  0.186808  0.711336  0.898255  1
  Tm  Tm7  1  0.813146  0.288828  0.101808  1
  Tm  Tm8  1  0.305800  0.616554  0.310563  1
  Tm  Tm9  1  0.694108  0.383611  0.689509  1
  Tm  Tm10  1  0.305800  0.995236  0.689245  1
  Tm  Tm11  1  0.694108  0.004599  0.310497  1
  In  In12  1  0.500249  0.500135  0.000114  1
  In  In13  1  0.999927  0.999803  0.000125  1
  Co  Co14  1  0.108394  0.608597  0.499797  1
  Co  Co15  1  0.891491  0.391445  0.500047  1
  Si  Si16  1  0.359999  0.999849  0.360150  1
  Si  Si17  1  0.639682  0.999996  0.639687  1
