# generated using pymatgen
data_Y2Re2TcB6
_symmetry_space_group_name_H-M   'P 1'
_cell_length_a   6.21239878
_cell_length_b   6.21239851
_cell_length_c   7.51582402
_cell_angle_alpha   89.37472070
_cell_angle_beta   89.37471562
_cell_angle_gamma   113.73264756
_symmetry_Int_Tables_number   1
_chemical_formula_structural   Y2Re2TcB6
_chemical_formula_sum   'Y4 Re4 Tc2 B12'
_cell_volume   265.48220642
_cell_formula_units_Z   2
loop_
 _symmetry_equiv_pos_site_id
 _symmetry_equiv_pos_as_xyz
  1  'x, y, z'
loop_
 _atom_site_type_symbol
 _atom_site_label
 _atom_site_symmetry_multiplicity
 _atom_site_fract_x
 _atom_site_fract_y
 _atom_site_fract_z
 _atom_site_occupancy
  Y  Y0  1  0.899440  0.556596  0.322441  1
  Y  Y1  1  0.443404  0.100560  0.177559  1
  Y  Y2  1  0.100560  0.443404  0.677559  1
  Y  Y3  1  0.556596  0.899440  0.822441  1
  Re  Re4  1  0.009662  0.193637  0.088924  1
  Re  Re5  1  0.806363  0.990338  0.411076  1
  Re  Re6  1  0.990338  0.806363  0.911076  1
  Re  Re7  1  0.193637  0.009662  0.588924  1
  Tc  Tc8  1  0.412016  0.587984  0.250000  1
  Tc  Tc9  1  0.587984  0.412016  0.750000  1
  B  B10  1  0.752266  0.847273  0.130218  1
  B  B11  1  0.152727  0.247734  0.369782  1
  B  B12  1  0.247734  0.152727  0.869782  1
  B  B13  1  0.847273  0.752266  0.630218  1
  B  B14  1  0.414245  0.841330  0.481555  1
  B  B15  1  0.158670  0.585755  0.018445  1
  B  B16  1  0.585755  0.158670  0.518445  1
  B  B17  1  0.841330  0.414245  0.981555  1
  B  B18  1  0.557058  0.649695  0.534598  1
  B  B19  1  0.350305  0.442942  0.965402  1
  B  B20  1  0.442942  0.350305  0.465402  1
  B  B21  1  0.649695  0.557058  0.034598  1
