# generated using pymatgen
data_CeDy3Y4(ReB6)4
_symmetry_space_group_name_H-M   'P 1'
_cell_length_a   3.70242200
_cell_length_b   9.20752976
_cell_length_c   11.59457033
_cell_angle_alpha   90.07197125
_cell_angle_beta   90.00000000
_cell_angle_gamma   90.00000000
_symmetry_Int_Tables_number   1
_chemical_formula_structural   CeDy3Y4(ReB6)4
_chemical_formula_sum   'Ce1 Dy3 Y4 Re4 B24'
_cell_volume   395.26045462
_cell_formula_units_Z   1
loop_
 _symmetry_equiv_pos_site_id
 _symmetry_equiv_pos_as_xyz
  1  'x, y, z'
loop_
 _atom_site_type_symbol
 _atom_site_label
 _atom_site_symmetry_multiplicity
 _atom_site_fract_x
 _atom_site_fract_y
 _atom_site_fract_z
 _atom_site_occupancy
  Ce  Ce0  1  0.000000  0.323259  0.414031  1
  Dy  Dy1  1  0.000000  0.056762  0.630509  1
  Dy  Dy2  1  0.000000  0.442838  0.129284  1
  Dy  Dy3  1  0.000000  0.557250  0.870098  1
  Y  Y4  1  0.000000  0.677642  0.586607  1
  Y  Y5  1  0.000000  0.823179  0.085454  1
  Y  Y6  1  0.000000  0.176487  0.913973  1
  Y  Y7  1  0.000000  0.942423  0.370238  1
  Re  Re8  1  0.000000  0.637531  0.321067  1
  Re  Re9  1  0.000000  0.361950  0.678489  1
  Re  Re10  1  0.000000  0.138754  0.179473  1
  Re  Re11  1  0.000000  0.861753  0.820936  1
  B  B12  1  0.500000  0.553407  0.432161  1
  B  B13  1  0.500000  0.446330  0.567719  1
  B  B14  1  0.500000  0.053187  0.067056  1
  B  B15  1  0.500000  0.947019  0.932890  1
  B  B16  1  0.500000  0.748836  0.418277  1
  B  B17  1  0.500000  0.251575  0.582467  1
  B  B18  1  0.500000  0.248283  0.081305  1
  B  B19  1  0.500000  0.751312  0.918279  1
  B  B20  1  0.500000  0.791372  0.265460  1
  B  B21  1  0.500000  0.208777  0.734967  1
  B  B22  1  0.500000  0.290704  0.233954  1
  B  B23  1  0.500000  0.708546  0.765469  1
  B  B24  1  0.500000  0.630953  0.185398  1
  B  B25  1  0.500000  0.369838  0.814212  1
  B  B26  1  0.500000  0.130727  0.313827  1
  B  B27  1  0.500000  0.869415  0.686130  1
  B  B28  1  0.500000  0.982247  0.211592  1
  B  B29  1  0.500000  0.017431  0.788319  1
  B  B30  1  0.500000  0.483556  0.287697  1
  B  B31  1  0.500000  0.517738  0.712444  1
  B  B32  1  0.500000  0.600836  0.027924  1
  B  B33  1  0.500000  0.399436  0.971493  1
  B  B34  1  0.500000  0.100251  0.472069  1
  B  B35  1  0.500000  0.898397  0.528729  1
