# generated using pymatgen
data_Ac3TcO7
_symmetry_space_group_name_H-M   'P 1'
_cell_length_a   6.96439000
_cell_length_b   6.96438952
_cell_length_c   7.90872800
_cell_angle_alpha   90.00000000
_cell_angle_beta   90.00000000
_cell_angle_gamma   112.54098163
_symmetry_Int_Tables_number   1
_chemical_formula_structural   Ac3TcO7
_chemical_formula_sum   'Ac6 Tc2 O14'
_cell_volume   354.29034931
_cell_formula_units_Z   2
loop_
 _symmetry_equiv_pos_site_id
 _symmetry_equiv_pos_as_xyz
  1  'x, y, z'
loop_
 _atom_site_type_symbol
 _atom_site_label
 _atom_site_symmetry_multiplicity
 _atom_site_fract_x
 _atom_site_fract_y
 _atom_site_fract_z
 _atom_site_occupancy
  Ac  Ac0  1  0.466231  0.903087  0.750000  1
  Ac  Ac1  1  0.533769  0.096913  0.250000  1
  Ac  Ac2  1  0.903087  0.466231  0.750000  1
  Ac  Ac3  1  0.096913  0.533769  0.250000  1
  Ac  Ac4  1  0.000000  0.000000  0.500000  1
  Ac  Ac5  1  0.000000  0.000000  0.000000  1
  Tc  Tc6  1  0.500000  0.500000  0.500000  1
  Tc  Tc7  1  0.500000  0.500000  0.000000  1
  O  O8  1  0.572986  0.572986  0.750000  1
  O  O9  1  0.427014  0.427014  0.250000  1
  O  O10  1  0.838890  0.099281  0.750000  1
  O  O11  1  0.161110  0.900719  0.250000  1
  O  O12  1  0.099281  0.838890  0.750000  1
  O  O13  1  0.900719  0.161110  0.250000  1
  O  O14  1  0.443379  0.200540  0.961082  1
  O  O15  1  0.556621  0.799460  0.461082  1
  O  O16  1  0.200540  0.443379  0.961082  1
  O  O17  1  0.799460  0.556621  0.461082  1
  O  O18  1  0.443379  0.200540  0.538918  1
  O  O19  1  0.556621  0.799460  0.038918  1
  O  O20  1  0.799460  0.556621  0.038918  1
  O  O21  1  0.200540  0.443379  0.538918  1
