# generated using pymatgen
data_Ac2In5Rh3
_symmetry_space_group_name_H-M   'P 1'
_cell_length_a   9.42839870
_cell_length_b   9.42839734
_cell_length_c   9.42839923
_cell_angle_alpha   141.52079187
_cell_angle_beta   107.62074654
_cell_angle_gamma   85.09240968
_symmetry_Int_Tables_number   1
_chemical_formula_structural   Ac2In5Rh3
_chemical_formula_sum   'Ac4 In10 Rh6'
_cell_volume   480.56765956
_cell_formula_units_Z   2
loop_
 _symmetry_equiv_pos_site_id
 _symmetry_equiv_pos_as_xyz
  1  'x, y, z'
loop_
 _atom_site_type_symbol
 _atom_site_label
 _atom_site_symmetry_multiplicity
 _atom_site_fract_x
 _atom_site_fract_y
 _atom_site_fract_z
 _atom_site_occupancy
  Ac  Ac0  1  0.934376  0.151428  0.782948  1
  Ac  Ac1  1  0.065624  0.848572  0.217052  1
  Ac  Ac2  1  0.631520  0.348572  0.282948  1
  Ac  Ac3  1  0.368480  0.651428  0.717052  1
  In  In4  1  0.599334  0.922778  0.676557  1
  In  In5  1  0.246222  0.422778  0.823443  1
  In  In6  1  0.400666  0.077222  0.323443  1
  In  In7  1  0.753778  0.577222  0.176557  1
  In  In8  1  0.000000  0.250000  0.250000  1
  In  In9  1  0.000000  0.750000  0.750000  1
  In  In10  1  0.703275  0.953275  0.250000  1
  In  In11  1  0.296725  0.546725  0.250000  1
  In  In12  1  0.296725  0.046725  0.750000  1
  In  In13  1  0.703275  0.453275  0.750000  1
  Rh  Rh14  1  0.247652  0.150984  0.096668  1
  Rh  Rh15  1  0.945684  0.349016  0.596668  1
  Rh  Rh16  1  0.054316  0.650984  0.403332  1
  Rh  Rh17  1  0.752348  0.849016  0.903332  1
  Rh  Rh18  1  0.500000  0.250000  0.750000  1
  Rh  Rh19  1  0.500000  0.750000  0.250000  1
