# generated using pymatgen
data_HoEr4In2(HgPd)2
_symmetry_space_group_name_H-M   'P 1'
_cell_length_a   3.60056000
_cell_length_b   7.99017900
_cell_length_c   18.26306600
_cell_angle_alpha   90.00000000
_cell_angle_beta   90.00000000
_cell_angle_gamma   90.00000000
_symmetry_Int_Tables_number   1
_chemical_formula_structural   HoEr4In2(HgPd)2
_chemical_formula_sum   'Ho2 Er8 In4 Hg4 Pd4'
_cell_volume   525.41231724
_cell_formula_units_Z   2
loop_
 _symmetry_equiv_pos_site_id
 _symmetry_equiv_pos_as_xyz
  1  'x, y, z'
loop_
 _atom_site_type_symbol
 _atom_site_label
 _atom_site_symmetry_multiplicity
 _atom_site_fract_x
 _atom_site_fract_y
 _atom_site_fract_z
 _atom_site_occupancy
  Ho  Ho0  1  0.000000  0.500000  0.500000  1
  Ho  Ho1  1  0.000000  0.000000  0.000000  1
  Er  Er2  1  0.000000  0.742266  0.283610  1
  Er  Er3  1  0.000000  0.257734  0.716390  1
  Er  Er4  1  0.000000  0.757734  0.783610  1
  Er  Er5  1  0.000000  0.242266  0.216390  1
  Er  Er6  1  0.000000  0.608211  0.083531  1
  Er  Er7  1  0.000000  0.391789  0.916469  1
  Er  Er8  1  0.000000  0.891789  0.583531  1
  Er  Er9  1  0.000000  0.108211  0.416469  1
  In  In10  1  0.500000  0.580611  0.648733  1
  In  In11  1  0.500000  0.419389  0.351267  1
  In  In12  1  0.500000  0.919389  0.148733  1
  In  In13  1  0.500000  0.080611  0.851267  1
  Hg  Hg14  1  0.500000  0.713775  0.932899  1
  Hg  Hg15  1  0.500000  0.286225  0.067101  1
  Hg  Hg16  1  0.500000  0.786225  0.432899  1
  Hg  Hg17  1  0.500000  0.213775  0.567101  1
  Pd  Pd18  1  0.500000  0.528958  0.197487  1
  Pd  Pd19  1  0.500000  0.471042  0.802513  1
  Pd  Pd20  1  0.500000  0.971042  0.697487  1
  Pd  Pd21  1  0.500000  0.028958  0.302513  1
