# generated using pymatgen
data_Pr3Dy2P12Ir11Ru8
_symmetry_space_group_name_H-M   'P 1'
_cell_length_a   12.70505118
_cell_length_b   12.67842934
_cell_length_c   4.00658500
_cell_angle_alpha   90.00000000
_cell_angle_beta   90.00000000
_cell_angle_gamma   120.04967676
_symmetry_Int_Tables_number   1
_chemical_formula_structural   Pr3Dy2P12Ir11Ru8
_chemical_formula_sum   'Pr3 Dy2 P12 Ir11 Ru8'
_cell_volume   558.63642627
_cell_formula_units_Z   1
loop_
 _symmetry_equiv_pos_site_id
 _symmetry_equiv_pos_as_xyz
  1  'x, y, z'
loop_
 _atom_site_type_symbol
 _atom_site_label
 _atom_site_symmetry_multiplicity
 _atom_site_fract_x
 _atom_site_fract_y
 _atom_site_fract_z
 _atom_site_occupancy
  Pr  Pr0  1  0.812422  0.000666  0.500000  1
  Pr  Pr1  1  0.185568  0.186943  0.500000  1
  Pr  Pr2  1  0.999090  0.813185  0.500000  1
  Dy  Dy3  1  0.667162  0.331528  0.000000  1
  Dy  Dy4  1  0.334504  0.668938  0.000000  1
  P  P5  1  0.630571  0.998577  0.000000  1
  P  P6  1  0.366241  0.366587  0.000000  1
  P  P7  1  0.000560  0.633189  0.000000  1
  P  P8  1  0.690223  0.516945  0.500000  1
  P  P9  1  0.828226  0.306387  0.500000  1
  P  P10  1  0.315503  0.832099  0.500000  1
  P  P11  1  0.518112  0.692763  0.500000  1
  P  P12  1  0.182212  0.000195  0.000000  1
  P  P13  1  0.815779  0.816093  0.000000  1
  P  P14  1  0.997271  0.184287  0.000000  1
  P  P15  1  0.480730  0.169531  0.500000  1
  P  P16  1  0.172536  0.482933  0.500000  1
  Ir  Ir17  1  0.619588  0.799396  0.000000  1
  Ir  Ir18  1  0.183627  0.381747  0.000000  1
  Ir  Ir19  1  0.379164  0.182018  0.000000  1
  Ir  Ir20  1  0.196543  0.818322  0.000000  1
  Ir  Ir21  1  0.801501  0.618424  0.000000  1
  Ir  Ir22  1  0.870527  0.505545  0.500000  1
  Ir  Ir23  1  0.493452  0.362066  0.500000  1
  Ir  Ir24  1  0.635725  0.129624  0.500000  1
  Ir  Ir25  1  0.132319  0.639090  0.500000  1
  Ir  Ir26  1  0.364493  0.493602  0.500000  1
  Ir  Ir27  1  0.998948  0.000005  0.000000  1
  Ru  Ru28  1  0.510080  0.872231  0.500000  1
  Ru  Ru29  1  0.708533  0.707236  0.500000  1
  Ru  Ru30  1  0.002493  0.292311  0.500000  1
  Ru  Ru31  1  0.449975  0.999255  0.000000  1
  Ru  Ru32  1  0.547483  0.545361  0.000000  1
  Ru  Ru33  1  0.001775  0.454001  0.000000  1
  Ru  Ru34  1  0.817929  0.198981  0.000000  1
  Ru  Ru35  1  0.289137  0.999938  0.500000  1
