# generated using pymatgen
data_Lu20(RuRh3)3
_symmetry_space_group_name_H-M   'P 1'
_cell_length_a   10.59433400
_cell_length_b   10.59433400
_cell_length_c   6.25422500
_cell_angle_alpha   90.00000000
_cell_angle_beta   90.00000000
_cell_angle_gamma   90.00000000
_symmetry_Int_Tables_number   1
_chemical_formula_structural   Lu20(RuRh3)3
_chemical_formula_sum   'Lu20 Ru3 Rh9'
_cell_volume   701.97366928
_cell_formula_units_Z   1
loop_
 _symmetry_equiv_pos_site_id
 _symmetry_equiv_pos_as_xyz
  1  'x, y, z'
loop_
 _atom_site_type_symbol
 _atom_site_label
 _atom_site_symmetry_multiplicity
 _atom_site_fract_x
 _atom_site_fract_y
 _atom_site_fract_z
 _atom_site_occupancy
  Lu  Lu0  1  0.293939  0.086235  0.375976  1
  Lu  Lu1  1  0.293910  0.914221  0.876297  1
  Lu  Lu2  1  0.706090  0.085779  0.876297  1
  Lu  Lu3  1  0.706061  0.913765  0.375976  1
  Lu  Lu4  1  0.585779  0.793910  0.876297  1
  Lu  Lu5  1  0.586235  0.206061  0.375976  1
  Lu  Lu6  1  0.413765  0.793939  0.375976  1
  Lu  Lu7  1  0.414221  0.206090  0.876297  1
  Lu  Lu8  1  0.208129  0.413039  0.626545  1
  Lu  Lu9  1  0.207610  0.587161  0.121262  1
  Lu  Lu10  1  0.792390  0.412839  0.121262  1
  Lu  Lu11  1  0.791871  0.586961  0.626545  1
  Lu  Lu12  1  0.912839  0.707610  0.121262  1
  Lu  Lu13  1  0.913039  0.291871  0.626545  1
  Lu  Lu14  1  0.086961  0.708129  0.626545  1
  Lu  Lu15  1  0.087161  0.292390  0.121262  1
  Lu  Lu16  1  0.000000  0.000000  0.499098  1
  Lu  Lu17  1  0.000000  0.000000  0.999316  1
  Lu  Lu18  1  0.500000  0.500000  0.999316  1
  Lu  Lu19  1  0.500000  0.500000  0.499098  1
  Ru  Ru20  1  0.500000  0.000000  0.125681  1
  Ru  Ru21  1  0.500000  0.000000  0.625323  1
  Ru  Ru22  1  0.000000  0.500000  0.875565  1
  Rh  Rh23  1  0.848072  0.153294  0.250074  1
  Rh  Rh24  1  0.847595  0.846956  0.749739  1
  Rh  Rh25  1  0.152405  0.153044  0.749739  1
  Rh  Rh26  1  0.151928  0.846706  0.250074  1
  Rh  Rh27  1  0.653044  0.347595  0.749739  1
  Rh  Rh28  1  0.653294  0.651928  0.250074  1
  Rh  Rh29  1  0.346706  0.348072  0.250074  1
  Rh  Rh30  1  0.346956  0.652405  0.749739  1
  Rh  Rh31  1  0.000000  0.500000  0.377029  1
