# generated using pymatgen
data_Ho7Er3Sn5Sb
_symmetry_space_group_name_H-M   'P 1'
_cell_length_a   8.91371533
_cell_length_b   8.91389734
_cell_length_c   6.47794300
_cell_angle_alpha   90.00356333
_cell_angle_beta   89.99865486
_cell_angle_gamma   119.86290197
_symmetry_Int_Tables_number   1
_chemical_formula_structural   Ho7Er3Sn5Sb
_chemical_formula_sum   'Ho7 Er3 Sn5 Sb1'
_cell_volume   446.36739014
_cell_formula_units_Z   1
loop_
 _symmetry_equiv_pos_site_id
 _symmetry_equiv_pos_as_xyz
  1  'x, y, z'
loop_
 _atom_site_type_symbol
 _atom_site_label
 _atom_site_symmetry_multiplicity
 _atom_site_fract_x
 _atom_site_fract_y
 _atom_site_fract_z
 _atom_site_occupancy
  Ho  Ho0  1  0.997412  0.760384  0.750068  1
  Ho  Ho1  1  0.001048  0.238726  0.249959  1
  Ho  Ho2  1  0.762227  0.761259  0.249949  1
  Ho  Ho3  1  0.761965  0.999867  0.750057  1
  Ho  Ho4  1  0.237414  0.240036  0.750060  1
  Ho  Ho5  1  0.238932  0.000145  0.249965  1
  Ho  Ho6  1  0.333040  0.665894  0.499829  1
  Er  Er7  1  0.667815  0.334117  0.000241  1
  Er  Er8  1  0.667851  0.334107  0.499762  1
  Er  Er9  1  0.333041  0.665880  0.000182  1
  Sn  Sn10  1  0.395423  0.394179  0.249825  1
  Sn  Sn11  1  0.001047  0.605138  0.249786  1
  Sn  Sn12  1  0.999313  0.395601  0.750169  1
  Sn  Sn13  1  0.604434  0.604526  0.750176  1
  Sn  Sn14  1  0.605905  0.000315  0.249819  1
  Sb  Sb15  1  0.393132  0.999826  0.750153  1
