# generated using pymatgen
data_Pr3Nd17(GaSi5)2
_symmetry_space_group_name_H-M   'P 1'
_cell_length_a   7.77317105
_cell_length_b   7.77435313
_cell_length_c   14.39161816
_cell_angle_alpha   89.98335179
_cell_angle_beta   90.00340359
_cell_angle_gamma   90.01275105
_symmetry_Int_Tables_number   1
_chemical_formula_structural   Pr3Nd17(GaSi5)2
_chemical_formula_sum   'Pr3 Nd17 Ga2 Si10'
_cell_volume   869.70523840
_cell_formula_units_Z   1
loop_
 _symmetry_equiv_pos_site_id
 _symmetry_equiv_pos_as_xyz
  1  'x, y, z'
loop_
 _atom_site_type_symbol
 _atom_site_label
 _atom_site_symmetry_multiplicity
 _atom_site_fract_x
 _atom_site_fract_y
 _atom_site_fract_z
 _atom_site_occupancy
  Pr  Pr0  1  0.314703  0.670332  0.890789  1
  Pr  Pr1  1  0.330130  0.314462  0.109236  1
  Pr  Pr2  1  0.169556  0.185101  0.890830  1
  Nd  Nd3  1  0.813940  0.828148  0.605300  1
  Nd  Nd4  1  0.185024  0.830222  0.110278  1
  Nd  Nd5  1  0.171866  0.813935  0.394574  1
  Nd  Nd6  1  0.000029  0.499957  0.729857  1
  Nd  Nd7  1  0.828202  0.185947  0.394649  1
  Nd  Nd8  1  0.686082  0.671804  0.394681  1
  Nd  Nd9  1  0.671899  0.313937  0.605293  1
  Nd  Nd10  1  0.328124  0.685968  0.605375  1
  Nd  Nd11  1  0.999954  0.499967  0.228640  1
  Nd  Nd12  1  0.670030  0.685771  0.110212  1
  Nd  Nd13  1  0.685691  0.330457  0.889797  1
  Nd  Nd14  1  0.830217  0.814567  0.889774  1
  Nd  Nd15  1  0.314008  0.328184  0.394590  1
  Nd  Nd16  1  0.185932  0.171879  0.605355  1
  Nd  Nd17  1  0.814583  0.169430  0.110142  1
  Nd  Nd18  1  0.499940  0.000051  0.270044  1
  Nd  Nd19  1  0.500043  0.000113  0.771241  1
  Ga  Ga20  1  0.501578  0.999444  0.995624  1
  Ga  Ga21  1  0.998074  0.500558  0.004865  1
  Si  Si22  1  0.615358  0.385875  0.253468  1
  Si  Si23  1  0.114060  0.885489  0.746287  1
  Si  Si24  1  0.386395  0.385044  0.746210  1
  Si  Si25  1  0.385476  0.615025  0.253377  1
  Si  Si26  1  0.885522  0.885140  0.253069  1
  Si  Si27  1  0.615129  0.614591  0.746583  1
  Si  Si28  1  0.000026  0.500022  0.507877  1
  Si  Si29  1  0.884521  0.114249  0.746482  1
  Si  Si30  1  0.499945  0.000029  0.492150  1
  Si  Si31  1  0.113962  0.114304  0.253349  1
