# generated using pymatgen
data_La3TeBrN2
_symmetry_space_group_name_H-M   'P 1'
_cell_length_a   14.33617100
_cell_length_b   4.24899600
_cell_length_c   12.88849900
_cell_angle_alpha   90.00000000
_cell_angle_beta   90.00000000
_cell_angle_gamma   90.00000000
_symmetry_Int_Tables_number   1
_chemical_formula_structural   La3TeBrN2
_chemical_formula_sum   'La12 Te4 Br4 N8'
_cell_volume   785.09432298
_cell_formula_units_Z   4
loop_
 _symmetry_equiv_pos_site_id
 _symmetry_equiv_pos_as_xyz
  1  'x, y, z'
loop_
 _atom_site_type_symbol
 _atom_site_label
 _atom_site_symmetry_multiplicity
 _atom_site_fract_x
 _atom_site_fract_y
 _atom_site_fract_z
 _atom_site_occupancy
  La  La0  1  0.597686  0.749998  0.113940  1
  La  La1  1  0.979971  0.749998  0.115394  1
  La  La2  1  0.187383  0.249999  0.149845  1
  La  La3  1  0.687382  0.249999  0.350155  1
  La  La4  1  0.479970  0.749998  0.384607  1
  La  La5  1  0.097685  0.749998  0.386060  1
  La  La6  1  0.902314  0.249999  0.613940  1
  La  La7  1  0.520031  0.249999  0.615393  1
  La  La8  1  0.312617  0.749998  0.649844  1
  La  La9  1  0.812618  0.749998  0.850156  1
  La  La10  1  0.020030  0.249999  0.884606  1
  La  La11  1  0.402314  0.249999  0.886060  1
  Te  Te12  1  0.432950  0.249999  0.154550  1
  Te  Te13  1  0.932950  0.249999  0.345451  1
  Te  Te14  1  0.067050  0.749998  0.654549  1
  Te  Te15  1  0.567050  0.749998  0.845450  1
  Br  Br16  1  0.756855  0.249999  0.064216  1
  Br  Br17  1  0.256856  0.249999  0.435784  1
  Br  Br18  1  0.743145  0.749998  0.564215  1
  Br  Br19  1  0.243145  0.749998  0.935785  1
  N  N20  1  0.051195  0.249999  0.065823  1
  N  N21  1  0.135971  0.749998  0.223831  1
  N  N22  1  0.635971  0.749998  0.276169  1
  N  N23  1  0.551196  0.249999  0.434177  1
  N  N24  1  0.448804  0.749998  0.565822  1
  N  N25  1  0.364029  0.249999  0.723832  1
  N  N26  1  0.864029  0.249999  0.776168  1
  N  N27  1  0.948806  0.749998  0.934178  1
