# generated using pymatgen
data_Sc24FeRh3Se8
_symmetry_space_group_name_H-M   'P 1'
_cell_length_a   3.68415800
_cell_length_b   10.34524070
_cell_length_c   19.72543300
_cell_angle_alpha   90.20264387
_cell_angle_beta   90.00000000
_cell_angle_gamma   90.00000000
_symmetry_Int_Tables_number   1
_chemical_formula_structural   Sc24FeRh3Se8
_chemical_formula_sum   'Sc24 Fe1 Rh3 Se8'
_cell_volume   751.80061418
_cell_formula_units_Z   1
loop_
 _symmetry_equiv_pos_site_id
 _symmetry_equiv_pos_as_xyz
  1  'x, y, z'
loop_
 _atom_site_type_symbol
 _atom_site_label
 _atom_site_symmetry_multiplicity
 _atom_site_fract_x
 _atom_site_fract_y
 _atom_site_fract_z
 _atom_site_occupancy
  Sc  Sc0  1  0.250000  0.383168  0.989220  1
  Sc  Sc1  1  0.750000  0.616544  0.010472  1
  Sc  Sc2  1  0.750000  0.879755  0.510159  1
  Sc  Sc3  1  0.250000  0.119254  0.491204  1
  Sc  Sc4  1  0.250000  0.928097  0.645190  1
  Sc  Sc5  1  0.750000  0.073644  0.354072  1
  Sc  Sc6  1  0.750000  0.427776  0.853809  1
  Sc  Sc7  1  0.250000  0.572150  0.145936  1
  Sc  Sc8  1  0.250000  0.880755  0.028779  1
  Sc  Sc9  1  0.750000  0.119539  0.971054  1
  Sc  Sc10  1  0.750000  0.379188  0.476125  1
  Sc  Sc11  1  0.250000  0.613395  0.530141  1
  Sc  Sc12  1  0.250000  0.820035  0.388680  1
  Sc  Sc13  1  0.750000  0.186320  0.609733  1
  Sc  Sc14  1  0.750000  0.318655  0.110412  1
  Sc  Sc15  1  0.250000  0.681299  0.889481  1
  Sc  Sc16  1  0.250000  0.529879  0.341044  1
  Sc  Sc17  1  0.750000  0.467418  0.657327  1
  Sc  Sc18  1  0.750000  0.029713  0.160204  1
  Sc  Sc19  1  0.250000  0.970433  0.839425  1
  Sc  Sc20  1  0.250000  0.248377  0.236329  1
  Sc  Sc21  1  0.750000  0.751662  0.763914  1
  Sc  Sc22  1  0.750000  0.748077  0.264147  1
  Sc  Sc23  1  0.250000  0.252989  0.734666  1
  Fe  Fe24  1  0.250000  0.354792  0.575651  1
  Rh  Rh25  1  0.250000  0.142048  0.075424  1
  Rh  Rh26  1  0.750000  0.857822  0.924368  1
  Rh  Rh27  1  0.750000  0.647067  0.423559  1
  Se  Se28  1  0.250000  0.231246  0.872687  1
  Se  Se29  1  0.750000  0.768687  0.126788  1
  Se  Se30  1  0.750000  0.730523  0.626909  1
  Se  Se31  1  0.250000  0.269388  0.373803  1
  Se  Se32  1  0.250000  0.536703  0.764062  1
  Se  Se33  1  0.750000  0.462885  0.235850  1
  Se  Se34  1  0.750000  0.037605  0.735055  1
  Se  Se35  1  0.250000  0.963113  0.264322  1
