# generated using pymatgen
data_AcCeTi2N5
_symmetry_space_group_name_H-M   'P 1'
_cell_length_a   7.48649600
_cell_length_b   3.96312500
_cell_length_c   3.96306000
_cell_angle_alpha   90.00000000
_cell_angle_beta   90.00000000
_cell_angle_gamma   90.00000000
_symmetry_Int_Tables_number   1
_chemical_formula_structural   AcCeTi2N5
_chemical_formula_sum   'Ac1 Ce1 Ti2 N5'
_cell_volume   117.58367102
_cell_formula_units_Z   1
loop_
 _symmetry_equiv_pos_site_id
 _symmetry_equiv_pos_as_xyz
  1  'x, y, z'
loop_
 _atom_site_type_symbol
 _atom_site_label
 _atom_site_symmetry_multiplicity
 _atom_site_fract_x
 _atom_site_fract_y
 _atom_site_fract_z
 _atom_site_occupancy
  Ac  Ac0  1  0.500000  0.000000  0.000000  1
  Ce  Ce1  1  0.000000  0.000000  0.000000  1
  Ti  Ti2  1  0.246565  0.500002  0.500002  1
  Ti  Ti3  1  0.753436  0.500002  0.500002  1
  N  N4  1  0.196068  0.500002  0.000000  1
  N  N5  1  0.803933  0.500002  0.000000  1
  N  N6  1  0.196072  0.000000  0.500002  1
  N  N7  1  0.803929  0.000000  0.500002  1
  N  N8  1  0.500000  0.500002  0.500002  1
