# generated using pymatgen
data_YU4Re3C8
_symmetry_space_group_name_H-M   'P 1'
_cell_length_a   11.36496500
_cell_length_b   11.36496500
_cell_length_c   3.27388100
_cell_angle_alpha   90.00000000
_cell_angle_beta   90.00000000
_cell_angle_gamma   90.00000000
_symmetry_Int_Tables_number   1
_chemical_formula_structural   YU4Re3C8
_chemical_formula_sum   'Y2 U8 Re6 C16'
_cell_volume   422.86242369
_cell_formula_units_Z   2
loop_
 _symmetry_equiv_pos_site_id
 _symmetry_equiv_pos_as_xyz
  1  'x, y, z'
loop_
 _atom_site_type_symbol
 _atom_site_label
 _atom_site_symmetry_multiplicity
 _atom_site_fract_x
 _atom_site_fract_y
 _atom_site_fract_z
 _atom_site_occupancy
  Y  Y0  1  0.000000  0.500000  0.000000  1
  Y  Y1  1  0.500000  0.000000  0.000000  1
  U  U2  1  0.271243  0.542296  0.500000  1
  U  U3  1  0.728757  0.457704  0.500000  1
  U  U4  1  0.542296  0.728757  0.500000  1
  U  U5  1  0.771243  0.957704  0.500000  1
  U  U6  1  0.228757  0.042296  0.500000  1
  U  U7  1  0.957704  0.228757  0.500000  1
  U  U8  1  0.457704  0.271243  0.500000  1
  U  U9  1  0.042296  0.771243  0.500000  1
  Re  Re10  1  0.203296  0.296704  0.000000  1
  Re  Re11  1  0.703296  0.203296  0.000000  1
  Re  Re12  1  0.296704  0.796704  0.000000  1
  Re  Re13  1  0.500000  0.500000  0.000000  1
  Re  Re14  1  0.796704  0.703296  0.000000  1
  Re  Re15  1  0.000000  0.000000  0.000000  1
  C  C16  1  0.347270  0.402772  0.000000  1
  C  C17  1  0.619191  0.119191  0.500000  1
  C  C18  1  0.902772  0.847270  0.000000  1
  C  C19  1  0.655806  0.844194  0.000000  1
  C  C20  1  0.344194  0.155806  0.000000  1
  C  C21  1  0.119191  0.380809  0.500000  1
  C  C22  1  0.152730  0.902772  0.000000  1
  C  C23  1  0.844194  0.344194  0.000000  1
  C  C24  1  0.652730  0.597228  0.000000  1
  C  C25  1  0.597228  0.347270  0.000000  1
  C  C26  1  0.880809  0.619191  0.500000  1
  C  C27  1  0.847270  0.097228  0.000000  1
  C  C28  1  0.380809  0.880809  0.500000  1
  C  C29  1  0.155806  0.655806  0.000000  1
  C  C30  1  0.097228  0.152730  0.000000  1
  C  C31  1  0.402772  0.652730  0.000000  1
