# generated using pymatgen
data_PrTh3Ga5Ir9
_symmetry_space_group_name_H-M   'P 1'
_cell_length_a   12.43106674
_cell_length_b   12.43106728
_cell_length_c   12.43106700
_cell_angle_alpha   26.14887504
_cell_angle_beta   26.14888046
_cell_angle_gamma   26.14887324
_symmetry_Int_Tables_number   1
_chemical_formula_structural   PrTh3Ga5Ir9
_chemical_formula_sum   'Pr1 Th3 Ga5 Ir9'
_cell_volume   328.71481338
_cell_formula_units_Z   1
loop_
 _symmetry_equiv_pos_site_id
 _symmetry_equiv_pos_as_xyz
  1  'x, y, z'
loop_
 _atom_site_type_symbol
 _atom_site_label
 _atom_site_symmetry_multiplicity
 _atom_site_fract_x
 _atom_site_fract_y
 _atom_site_fract_z
 _atom_site_occupancy
  Pr  Pr0  1  0.949849  0.949849  0.949849  1
  Th  Th1  1  0.045367  0.045367  0.045367  1
  Th  Th2  1  0.853916  0.853916  0.853916  1
  Th  Th3  1  0.145599  0.145599  0.145599  1
  Ga  Ga4  1  0.500087  0.500087  0.500087  1
  Ga  Ga5  1  0.722488  0.722488  0.722488  1
  Ga  Ga6  1  0.278520  0.278520  0.278520  1
  Ga  Ga7  1  0.611444  0.611444  0.611444  1
  Ga  Ga8  1  0.389697  0.389697  0.389697  1
  Ir  Ir9  1  0.500820  0.500820  0.001029  1
  Ir  Ir10  1  0.001029  0.500820  0.500820  1
  Ir  Ir11  1  0.500820  0.001029  0.500820  1
  Ir  Ir12  1  0.386800  0.893401  0.386800  1
  Ir  Ir13  1  0.386800  0.386800  0.893401  1
  Ir  Ir14  1  0.893401  0.386800  0.386800  1
  Ir  Ir15  1  0.613158  0.107045  0.613158  1
  Ir  Ir16  1  0.613158  0.613158  0.107045  1
  Ir  Ir17  1  0.107045  0.613158  0.613158  1
