# generated using pymatgen
data_Tb12Fe4AgSn
_symmetry_space_group_name_H-M   'P 1'
_cell_length_a   8.41970386
_cell_length_b   8.41970465
_cell_length_c   8.41970400
_cell_angle_alpha   106.70982803
_cell_angle_beta   110.61672519
_cell_angle_gamma   111.12232517
_symmetry_Int_Tables_number   1
_chemical_formula_structural   Tb12Fe4AgSn
_chemical_formula_sum   'Tb12 Fe4 Ag1 Sn1'
_cell_volume   458.67711887
_cell_formula_units_Z   1
loop_
 _symmetry_equiv_pos_site_id
 _symmetry_equiv_pos_as_xyz
  1  'x, y, z'
loop_
 _atom_site_type_symbol
 _atom_site_label
 _atom_site_symmetry_multiplicity
 _atom_site_fract_x
 _atom_site_fract_y
 _atom_site_fract_z
 _atom_site_occupancy
  Tb  Tb0  1  0.705890  0.279711  0.985600  1
  Tb  Tb1  1  0.294110  0.720289  0.014400  1
  Tb  Tb2  1  0.705890  0.720289  0.426179  1
  Tb  Tb3  1  0.294110  0.279711  0.573821  1
  Tb  Tb4  1  0.801294  0.112814  0.311519  1
  Tb  Tb5  1  0.801294  0.489773  0.688481  1
  Tb  Tb6  1  0.198706  0.887186  0.688481  1
  Tb  Tb7  1  0.198706  0.510227  0.311519  1
  Tb  Tb8  1  0.603147  0.791041  0.812106  1
  Tb  Tb9  1  0.978936  0.791041  0.187894  1
  Tb  Tb10  1  0.021064  0.208959  0.812106  1
  Tb  Tb11  1  0.396853  0.208959  0.187894  1
  Fe  Fe12  1  0.886036  0.500000  0.386036  1
  Fe  Fe13  1  0.113964  0.500000  0.613964  1
  Fe  Fe14  1  0.000000  0.107070  0.107070  1
  Fe  Fe15  1  0.000000  0.892930  0.892930  1
  Ag  Ag16  1  0.500000  0.500000  0.000000  1
  Sn  Sn17  1  0.500000  0.000000  0.500000  1
