# generated using pymatgen
data_PrPa5F24
_symmetry_space_group_name_H-M   'P 1'
_cell_length_a   8.47775176
_cell_length_b   8.51078991
_cell_length_c   8.50766951
_cell_angle_alpha   63.12740430
_cell_angle_beta   63.21257853
_cell_angle_gamma   80.21938968
_symmetry_Int_Tables_number   1
_chemical_formula_structural   PrPa5F24
_chemical_formula_sum   'Pr1 Pa5 F24'
_cell_volume   488.35818015
_cell_formula_units_Z   1
loop_
 _symmetry_equiv_pos_site_id
 _symmetry_equiv_pos_as_xyz
  1  'x, y, z'
loop_
 _atom_site_type_symbol
 _atom_site_label
 _atom_site_symmetry_multiplicity
 _atom_site_fract_x
 _atom_site_fract_y
 _atom_site_fract_z
 _atom_site_occupancy
  Pr  Pr0  1  0.775647  0.634065  0.169297  1
  Pa  Pa1  1  0.633368  0.771654  0.669378  1
  Pa  Pa2  1  0.371530  0.224161  0.329943  1
  Pa  Pa3  1  0.220344  0.366252  0.833649  1
  Pa  Pa4  1  0.787816  0.210290  0.744445  1
  Pa  Pa5  1  0.213119  0.786512  0.249706  1
  F  F6  1  0.320314  0.259965  0.607219  1
  F  F7  1  0.677332  0.747279  0.402420  1
  F  F8  1  0.735449  0.680185  0.889657  1
  F  F9  1  0.269435  0.326998  0.101216  1
  F  F10  1  0.822220  0.944848  0.944281  1
  F  F11  1  0.170725  0.070619  0.048257  1
  F  F12  1  0.068707  0.170462  0.545203  1
  F  F13  1  0.937876  0.822003  0.459252  1
  F  F14  1  0.402870  0.597114  0.752010  1
  F  F15  1  0.592063  0.394295  0.249040  1
  F  F16  1  0.495251  0.999977  0.504808  1
  F  F17  1  0.005077  0.490103  0.999277  1
  F  F18  1  0.500511  0.248448  0.796301  1
  F  F19  1  0.490902  0.750746  0.207792  1
  F  F20  1  0.746839  0.496283  0.709827  1
  F  F21  1  0.247019  0.499893  0.300222  1
  F  F22  1  0.399546  0.809914  0.926154  1
  F  F23  1  0.600905  0.189510  0.072532  1
  F  F24  1  0.194679  0.601746  0.572179  1
  F  F25  1  0.808820  0.391148  0.441084  1
  F  F26  1  0.725752  0.026321  0.643626  1
  F  F27  1  0.275949  0.978497  0.341432  1
  F  F28  1  0.976203  0.277260  0.839150  1
  F  F29  1  0.033730  0.733453  0.150642  1
