# generated using pymatgen
data_Dy5Co19(SiP5)2
_symmetry_space_group_name_H-M   'P 1'
_cell_length_a   12.00323744
_cell_length_b   11.99757671
_cell_length_c   3.67758400
_cell_angle_alpha   90.00000000
_cell_angle_beta   90.00000000
_cell_angle_gamma   119.98439318
_symmetry_Int_Tables_number   1
_chemical_formula_structural   Dy5Co19(SiP5)2
_chemical_formula_sum   'Dy5 Co19 Si2 P10'
_cell_volume   458.72609228
_cell_formula_units_Z   1
loop_
 _symmetry_equiv_pos_site_id
 _symmetry_equiv_pos_as_xyz
  1  'x, y, z'
loop_
 _atom_site_type_symbol
 _atom_site_label
 _atom_site_symmetry_multiplicity
 _atom_site_fract_x
 _atom_site_fract_y
 _atom_site_fract_z
 _atom_site_occupancy
  Dy  Dy0  1  0.665637  0.332911  0.000000  1
  Dy  Dy1  1  0.334363  0.667275  0.000000  1
  Dy  Dy2  1  0.184985  0.185183  0.500000  1
  Dy  Dy3  1  0.815015  0.000199  0.500000  1
  Dy  Dy4  1  0.000000  0.811742  0.500000  1
  Co  Co5  1  0.559080  0.556268  0.000000  1
  Co  Co6  1  0.440920  0.997188  0.000000  1
  Co  Co7  1  0.000000  0.447959  0.000000  1
  Co  Co8  1  0.824883  0.203872  0.000000  1
  Co  Co9  1  0.801523  0.622345  0.000000  1
  Co  Co10  1  0.377342  0.174464  0.000000  1
  Co  Co11  1  0.198477  0.820822  0.000000  1
  Co  Co12  1  0.622658  0.797122  0.000000  1
  Co  Co13  1  0.175117  0.378989  0.000000  1
  Co  Co14  1  0.640904  0.126782  0.500000  1
  Co  Co15  1  0.874964  0.516588  0.500000  1
  Co  Co16  1  0.485577  0.358251  0.500000  1
  Co  Co17  1  0.125036  0.641625  0.500000  1
  Co  Co18  1  0.514423  0.872675  0.500000  1
  Co  Co19  1  0.359096  0.485878  0.500000  1
  Co  Co20  1  0.716785  0.715324  0.500000  1
  Co  Co21  1  0.283215  0.998539  0.500000  1
  Co  Co22  1  0.000000  0.286077  0.500000  1
  Co  Co23  1  0.000000  0.000375  0.000000  1
  Si  Si24  1  0.369630  0.369740  0.000000  1
  Si  Si25  1  0.630370  0.000110  0.000000  1
  P  P26  1  0.000000  0.631215  0.000000  1
  P  P27  1  0.833007  0.313544  0.500000  1
  P  P28  1  0.686160  0.520358  0.500000  1
  P  P29  1  0.478596  0.165166  0.500000  1
  P  P30  1  0.313840  0.834197  0.500000  1
  P  P31  1  0.521404  0.686570  0.500000  1
  P  P32  1  0.166993  0.480537  0.500000  1
  P  P33  1  0.819038  0.818278  0.000000  1
  P  P34  1  0.180962  0.999240  0.000000  1
  P  P35  1  0.000000  0.182591  0.000000  1
