# generated using pymatgen
data_Sm8Hf11Si16Au
_symmetry_space_group_name_H-M   'P 1'
_cell_length_a   7.36228686
_cell_length_b   7.36228669
_cell_length_c   13.38343483
_cell_angle_alpha   89.68636237
_cell_angle_beta   90.31364017
_cell_angle_gamma   89.62658145
_symmetry_Int_Tables_number   1
_chemical_formula_structural   Sm8Hf11Si16Au
_chemical_formula_sum   'Sm8 Hf11 Si16 Au1'
_cell_volume   725.38859968
_cell_formula_units_Z   1
loop_
 _symmetry_equiv_pos_site_id
 _symmetry_equiv_pos_as_xyz
  1  'x, y, z'
loop_
 _atom_site_type_symbol
 _atom_site_label
 _atom_site_symmetry_multiplicity
 _atom_site_fract_x
 _atom_site_fract_y
 _atom_site_fract_z
 _atom_site_occupancy
  Sm  Sm0  1  0.997401  0.345396  0.210503  1
  Sm  Sm1  1  0.005686  0.655095  0.716416  1
  Sm  Sm2  1  0.155581  0.494904  0.464911  1
  Sm  Sm3  1  0.497969  0.848565  0.032475  1
  Sm  Sm4  1  0.848565  0.497969  0.967525  1
  Sm  Sm5  1  0.494904  0.155581  0.535089  1
  Sm  Sm6  1  0.345396  0.997401  0.789497  1
  Sm  Sm7  1  0.655095  0.005686  0.283584  1
  Hf  Hf8  1  0.824638  0.824638  0.500000  1
  Hf  Hf9  1  0.322193  0.677400  0.249088  1
  Hf  Hf10  1  0.677400  0.322193  0.750912  1
  Hf  Hf11  1  0.146166  0.995092  0.373764  1
  Hf  Hf12  1  0.856928  0.003898  0.879142  1
  Hf  Hf13  1  0.505486  0.647949  0.626507  1
  Hf  Hf14  1  0.354902  0.490122  0.878148  1
  Hf  Hf15  1  0.490122  0.354902  0.121852  1
  Hf  Hf16  1  0.647949  0.505486  0.373493  1
  Hf  Hf17  1  0.995092  0.146166  0.626236  1
  Hf  Hf18  1  0.003898  0.856928  0.120858  1
  Si  Si19  1  0.361544  0.296951  0.314994  1
  Si  Si20  1  0.638116  0.703685  0.818734  1
  Si  Si21  1  0.206627  0.863014  0.567343  1
  Si  Si22  1  0.130602  0.774724  0.928560  1
  Si  Si23  1  0.774724  0.130602  0.071440  1
  Si  Si24  1  0.863014  0.206627  0.432657  1
  Si  Si25  1  0.296951  0.361544  0.685006  1
  Si  Si26  1  0.703685  0.638116  0.181266  1
  Si  Si27  1  0.292282  0.052434  0.189080  1
  Si  Si28  1  0.707694  0.949882  0.687046  1
  Si  Si29  1  0.449647  0.792847  0.435712  1
  Si  Si30  1  0.212108  0.567790  0.064306  1
  Si  Si31  1  0.567790  0.212108  0.935694  1
  Si  Si32  1  0.792847  0.449647  0.564288  1
  Si  Si33  1  0.052434  0.292282  0.810920  1
  Si  Si34  1  0.949882  0.707694  0.312954  1
  Au  Au35  1  0.174678  0.174678  0.000000  1
