# generated using pymatgen
data_DyFeP3Rh4
_symmetry_space_group_name_H-M   'P 1'
_cell_length_a   3.84652500
_cell_length_b   10.73529900
_cell_length_c   12.40358300
_cell_angle_alpha   90.00000000
_cell_angle_beta   90.00000000
_cell_angle_gamma   90.00000000
_symmetry_Int_Tables_number   1
_chemical_formula_structural   DyFeP3Rh4
_chemical_formula_sum   'Dy4 Fe4 P12 Rh16'
_cell_volume   512.18854518
_cell_formula_units_Z   4
loop_
 _symmetry_equiv_pos_site_id
 _symmetry_equiv_pos_as_xyz
  1  'x, y, z'
loop_
 _atom_site_type_symbol
 _atom_site_label
 _atom_site_symmetry_multiplicity
 _atom_site_fract_x
 _atom_site_fract_y
 _atom_site_fract_z
 _atom_site_occupancy
  Dy  Dy0  1  0.250000  0.582673  0.709413  1
  Dy  Dy1  1  0.250000  0.917327  0.209413  1
  Dy  Dy2  1  0.750000  0.417327  0.290587  1
  Dy  Dy3  1  0.750000  0.082673  0.790587  1
  Fe  Fe4  1  0.250000  0.462031  0.933260  1
  Fe  Fe5  1  0.250000  0.037969  0.433260  1
  Fe  Fe6  1  0.750000  0.537969  0.066740  1
  Fe  Fe7  1  0.750000  0.962031  0.566740  1
  P  P8  1  0.250000  0.429885  0.105791  1
  P  P9  1  0.250000  0.070115  0.605791  1
  P  P10  1  0.750000  0.570115  0.894209  1
  P  P11  1  0.750000  0.929885  0.394209  1
  P  P12  1  0.250000  0.270759  0.870324  1
  P  P13  1  0.250000  0.229241  0.370324  1
  P  P14  1  0.750000  0.729241  0.129676  1
  P  P15  1  0.750000  0.770759  0.629676  1
  P  P16  1  0.250000  0.600992  0.388713  1
  P  P17  1  0.250000  0.899008  0.888713  1
  P  P18  1  0.750000  0.399008  0.611287  1
  P  P19  1  0.750000  0.100992  0.111287  1
  Rh  Rh20  1  0.250000  0.716278  0.990002  1
  Rh  Rh21  1  0.250000  0.783722  0.490002  1
  Rh  Rh22  1  0.750000  0.283722  0.009998  1
  Rh  Rh23  1  0.750000  0.216278  0.509998  1
  Rh  Rh24  1  0.250000  0.408361  0.479582  1
  Rh  Rh25  1  0.250000  0.091639  0.979582  1
  Rh  Rh26  1  0.750000  0.591639  0.520418  1
  Rh  Rh27  1  0.750000  0.908361  0.020418  1
  Rh  Rh28  1  0.250000  0.230562  0.175732  1
  Rh  Rh29  1  0.250000  0.269438  0.675732  1
  Rh  Rh30  1  0.750000  0.769438  0.824268  1
  Rh  Rh31  1  0.750000  0.730562  0.324268  1
  Rh  Rh32  1  0.250000  0.882045  0.700378  1
  Rh  Rh33  1  0.250000  0.617955  0.200378  1
  Rh  Rh34  1  0.750000  0.117955  0.299622  1
  Rh  Rh35  1  0.750000  0.382045  0.799622  1
