# generated using pymatgen
data_Dy12Si12Tc3Rh
_symmetry_space_group_name_H-M   'P 1'
_cell_length_a   4.18439200
_cell_length_b   10.83529584
_cell_length_c   12.43465020
_cell_angle_alpha   90.16157488
_cell_angle_beta   90.00000000
_cell_angle_gamma   90.00000000
_symmetry_Int_Tables_number   1
_chemical_formula_structural   Dy12Si12Tc3Rh
_chemical_formula_sum   'Dy12 Si12 Tc3 Rh1'
_cell_volume   563.77392070
_cell_formula_units_Z   1
loop_
 _symmetry_equiv_pos_site_id
 _symmetry_equiv_pos_as_xyz
  1  'x, y, z'
loop_
 _atom_site_type_symbol
 _atom_site_label
 _atom_site_symmetry_multiplicity
 _atom_site_fract_x
 _atom_site_fract_y
 _atom_site_fract_z
 _atom_site_occupancy
  Dy  Dy0  1  0.250000  0.879874  0.021308  1
  Dy  Dy1  1  0.250000  0.621833  0.521980  1
  Dy  Dy2  1  0.750000  0.120137  0.979135  1
  Dy  Dy3  1  0.750000  0.380457  0.478944  1
  Dy  Dy4  1  0.250000  0.921205  0.605346  1
  Dy  Dy5  1  0.250000  0.577625  0.104417  1
  Dy  Dy6  1  0.750000  0.078021  0.395268  1
  Dy  Dy7  1  0.750000  0.421554  0.893672  1
  Dy  Dy8  1  0.250000  0.665765  0.800498  1
  Dy  Dy9  1  0.250000  0.835249  0.299799  1
  Dy  Dy10  1  0.750000  0.334993  0.199845  1
  Dy  Dy11  1  0.750000  0.159563  0.699083  1
  Si  Si12  1  0.250000  0.012257  0.822472  1
  Si  Si13  1  0.250000  0.490068  0.321559  1
  Si  Si14  1  0.750000  0.988372  0.178856  1
  Si  Si15  1  0.750000  0.513495  0.679146  1
  Si  Si16  1  0.250000  0.248457  0.841869  1
  Si  Si17  1  0.250000  0.248866  0.343908  1
  Si  Si18  1  0.750000  0.749114  0.156238  1
  Si  Si19  1  0.750000  0.750622  0.657604  1
  Si  Si20  1  0.250000  0.201535  0.541996  1
  Si  Si21  1  0.250000  0.298197  0.041237  1
  Si  Si22  1  0.750000  0.800140  0.458392  1
  Si  Si23  1  0.750000  0.699645  0.958492  1
  Tc  Tc24  1  0.250000  0.391361  0.681746  1
  Tc  Tc25  1  0.250000  0.110320  0.180511  1
  Tc  Tc26  1  0.750000  0.611017  0.318615  1
  Rh  Rh27  1  0.750000  0.890261  0.818065  1
