# generated using pymatgen
data_Cr21MoRhC6
_symmetry_space_group_name_H-M   'P 1'
_cell_length_a   7.52449475
_cell_length_b   7.52449186
_cell_length_c   7.52409601
_cell_angle_alpha   59.99509948
_cell_angle_beta   59.99920647
_cell_angle_gamma   60.00081938
_symmetry_Int_Tables_number   1
_chemical_formula_structural   Cr21MoRhC6
_chemical_formula_sum   'Cr21 Mo1 Rh1 C6'
_cell_volume   301.21586950
_cell_formula_units_Z   1
loop_
 _symmetry_equiv_pos_site_id
 _symmetry_equiv_pos_as_xyz
  1  'x, y, z'
loop_
 _atom_site_type_symbol
 _atom_site_label
 _atom_site_symmetry_multiplicity
 _atom_site_fract_x
 _atom_site_fract_y
 _atom_site_fract_z
 _atom_site_occupancy
  Cr  Cr0  1  0.250027  0.250086  0.249939  1
  Cr  Cr1  1  0.614486  0.614443  0.156585  1
  Cr  Cr2  1  0.614470  0.156615  0.614451  1
  Cr  Cr3  1  0.156585  0.614453  0.614472  1
  Cr  Cr4  1  0.614487  0.614450  0.614475  1
  Cr  Cr5  1  0.379281  0.379323  0.862058  1
  Cr  Cr6  1  0.379244  0.862085  0.379364  1
  Cr  Cr7  1  0.862113  0.379256  0.379341  1
  Cr  Cr8  1  0.379255  0.379301  0.379375  1
  Cr  Cr9  1  0.000536  0.000544  0.338003  1
  Cr  Cr10  1  0.660937  0.000564  0.337960  1
  Cr  Cr11  1  0.000594  0.660894  0.337955  1
  Cr  Cr12  1  0.660879  0.337900  0.000596  1
  Cr  Cr13  1  0.000623  0.337927  0.000587  1
  Cr  Cr14  1  0.000640  0.337910  0.660840  1
  Cr  Cr15  1  0.337861  0.660844  0.000640  1
  Cr  Cr16  1  0.337877  0.000652  0.660844  1
  Cr  Cr17  1  0.337882  0.000642  0.000600  1
  Cr  Cr18  1  0.000573  0.000584  0.660894  1
  Cr  Cr19  1  0.000612  0.660901  0.000567  1
  Cr  Cr20  1  0.660959  0.000597  0.000538  1
  Mo  Mo21  1  0.750075  0.750015  0.749921  1
  Rh  Rh22  1  0.000020  0.000014  0.999996  1
  C  C23  1  0.722689  0.722647  0.277356  1
  C  C24  1  0.277264  0.722690  0.277388  1
  C  C25  1  0.722709  0.277286  0.277357  1
  C  C26  1  0.277290  0.277340  0.722653  1
  C  C27  1  0.722753  0.277306  0.722614  1
  C  C28  1  0.277279  0.722730  0.722631  1
