# generated using pymatgen
data_TbDy3V4(WO6)4
_symmetry_space_group_name_H-M   'P 1'
_cell_length_a   7.44524314
_cell_length_b   5.24453824
_cell_length_c   11.18291763
_cell_angle_alpha   90.03306331
_cell_angle_beta   89.98022170
_cell_angle_gamma   89.98958946
_symmetry_Int_Tables_number   1
_chemical_formula_structural   TbDy3V4(WO6)4
_chemical_formula_sum   'Tb1 Dy3 V4 W4 O24'
_cell_volume   436.65773965
_cell_formula_units_Z   1
loop_
 _symmetry_equiv_pos_site_id
 _symmetry_equiv_pos_as_xyz
  1  'x, y, z'
loop_
 _atom_site_type_symbol
 _atom_site_label
 _atom_site_symmetry_multiplicity
 _atom_site_fract_x
 _atom_site_fract_y
 _atom_site_fract_z
 _atom_site_occupancy
  Tb  Tb0  1  0.753690  0.294214  0.954481  1
  Dy  Dy1  1  0.253622  0.204842  0.045654  1
  Dy  Dy2  1  0.753613  0.705141  0.454433  1
  Dy  Dy3  1  0.253603  0.794880  0.545495  1
  V  V4  1  0.505945  0.699286  0.134417  1
  V  V5  1  0.006187  0.199283  0.365794  1
  V  V6  1  0.506022  0.300589  0.634031  1
  V  V7  1  0.006505  0.800750  0.865720  1
  W  W8  1  0.998640  0.693301  0.143587  1
  W  W9  1  0.498446  0.193361  0.356634  1
  W  W10  1  0.998451  0.306701  0.643150  1
  W  W11  1  0.498010  0.806402  0.856517  1
  O  O12  1  0.543287  0.993466  0.019775  1
  O  O13  1  0.959443  0.984882  0.029458  1
  O  O14  1  0.755191  0.572701  0.116252  1
  O  O15  1  0.246385  0.815666  0.143254  1
  O  O16  1  0.071279  0.374910  0.206540  1
  O  O17  1  0.436424  0.357473  0.213807  1
  O  O18  1  0.936603  0.857732  0.286382  1
  O  O19  1  0.571270  0.875389  0.293442  1
  O  O20  1  0.746336  0.315695  0.357211  1
  O  O21  1  0.255197  0.071381  0.384285  1
  O  O22  1  0.458573  0.485369  0.470638  1
  O  O23  1  0.044425  0.494147  0.480194  1
  O  O24  1  0.544405  0.005823  0.519679  1
  O  O25  1  0.958574  0.014640  0.529223  1
  O  O26  1  0.755123  0.428696  0.615780  1
  O  O27  1  0.246318  0.184275  0.642584  1
  O  O28  1  0.071213  0.624533  0.706538  1
  O  O29  1  0.436160  0.641863  0.713827  1
  O  O30  1  0.936732  0.141787  0.785792  1
  O  O31  1  0.570451  0.124322  0.793040  1
  O  O32  1  0.746241  0.686155  0.857127  1
  O  O33  1  0.254935  0.929089  0.884110  1
  O  O34  1  0.458135  0.514828  0.970717  1
  O  O35  1  0.044965  0.506409  0.980433  1
