# generated using pymatgen
data_Ba4Si7PIr8
_symmetry_space_group_name_H-M   'P 1'
_cell_length_a   6.76956590
_cell_length_b   7.78084419
_cell_length_c   7.95115166
_cell_angle_alpha   87.88784688
_cell_angle_beta   90.08686253
_cell_angle_gamma   89.78745972
_symmetry_Int_Tables_number   1
_chemical_formula_structural   Ba4Si7PIr8
_chemical_formula_sum   'Ba4 Si7 P1 Ir8'
_cell_volume   418.52252202
_cell_formula_units_Z   1
loop_
 _symmetry_equiv_pos_site_id
 _symmetry_equiv_pos_as_xyz
  1  'x, y, z'
loop_
 _atom_site_type_symbol
 _atom_site_label
 _atom_site_symmetry_multiplicity
 _atom_site_fract_x
 _atom_site_fract_y
 _atom_site_fract_z
 _atom_site_occupancy
  Ba  Ba0  1  0.379169  0.001046  0.236528  1
  Ba  Ba1  1  0.876186  0.498591  0.764132  1
  Ba  Ba2  1  0.121782  0.500127  0.233979  1
  Ba  Ba3  1  0.619856  0.998502  0.764771  1
  Si  Si4  1  0.147673  0.189567  0.561672  1
  Si  Si5  1  0.646564  0.312222  0.436602  1
  Si  Si6  1  0.853176  0.811878  0.439107  1
  Si  Si7  1  0.919561  0.129439  0.071964  1
  Si  Si8  1  0.581811  0.633690  0.074859  1
  Si  Si9  1  0.083561  0.870047  0.927282  1
  Si  Si10  1  0.351340  0.688490  0.560920  1
  P  P11  1  0.417860  0.369970  0.926472  1
  Ir  Ir12  1  0.395605  0.386361  0.625816  1
  Ir  Ir13  1  0.605468  0.613846  0.378239  1
  Ir  Ir14  1  0.106987  0.888370  0.623233  1
  Ir  Ir15  1  0.171362  0.172387  0.863914  1
  Ir  Ir16  1  0.660779  0.328281  0.133436  1
  Ir  Ir17  1  0.835086  0.830920  0.137962  1
  Ir  Ir18  1  0.331898  0.662046  0.862131  1
  Ir  Ir19  1  0.894277  0.114221  0.376981  1
