# generated using pymatgen
data_NbP2HO8
_symmetry_space_group_name_H-M   'P 1'
_cell_length_a   5.19693210
_cell_length_b   5.19316825
_cell_length_c   7.96477824
_cell_angle_alpha   69.40841072
_cell_angle_beta   69.39505491
_cell_angle_gamma   61.78543296
_symmetry_Int_Tables_number   1
_chemical_formula_structural   NbP2HO8
_chemical_formula_sum   'Nb1 P2 H1 O8'
_cell_volume   172.76665351
_cell_formula_units_Z   1
loop_
 _symmetry_equiv_pos_site_id
 _symmetry_equiv_pos_as_xyz
  1  'x, y, z'
loop_
 _atom_site_type_symbol
 _atom_site_label
 _atom_site_symmetry_multiplicity
 _atom_site_fract_x
 _atom_site_fract_y
 _atom_site_fract_z
 _atom_site_occupancy
  Nb  Nb0  1  0.000000  0.000000  0.000000  1
  P  P1  1  0.261534  0.261546  0.231137  1
  P  P2  1  0.738466  0.738454  0.768862  1
  H  H3  1  0.000000  0.000000  0.500000  1
  O  O4  1  0.167211  0.167375  0.103138  1
  O  O5  1  0.608966  0.141540  0.179501  1
  O  O6  1  0.141281  0.609449  0.179494  1
  O  O7  1  0.147011  0.147419  0.432367  1
  O  O8  1  0.852989  0.852581  0.567632  1
  O  O9  1  0.858719  0.390551  0.820506  1
  O  O10  1  0.391034  0.858460  0.820499  1
  O  O11  1  0.832789  0.832625  0.896863  1
