# generated using pymatgen
data_Tb2Ho4MgCo17P12
_symmetry_space_group_name_H-M   'P 1'
_cell_length_a   3.71030600
_cell_length_b   10.55547500
_cell_length_c   12.22552700
_cell_angle_alpha   90.00000000
_cell_angle_beta   90.00000000
_cell_angle_gamma   90.00000000
_symmetry_Int_Tables_number   1
_chemical_formula_structural   Tb2Ho4MgCo17P12
_chemical_formula_sum   'Tb2 Ho4 Mg1 Co17 P12'
_cell_volume   478.80105566
_cell_formula_units_Z   1
loop_
 _symmetry_equiv_pos_site_id
 _symmetry_equiv_pos_as_xyz
  1  'x, y, z'
loop_
 _atom_site_type_symbol
 _atom_site_label
 _atom_site_symmetry_multiplicity
 _atom_site_fract_x
 _atom_site_fract_y
 _atom_site_fract_z
 _atom_site_occupancy
  Tb  Tb0  1  0.000000  0.500000  0.525617  1
  Tb  Tb1  1  0.500000  0.000000  0.477929  1
  Ho  Ho2  1  0.500000  0.821698  0.207235  1
  Ho  Ho3  1  0.500000  0.178302  0.207235  1
  Ho  Ho4  1  0.000000  0.682608  0.794707  1
  Ho  Ho5  1  0.000000  0.317392  0.794707  1
  Mg  Mg6  1  0.500000  0.500000  0.153300  1
  Co  Co7  1  0.000000  0.500000  0.986194  1
  Co  Co8  1  0.500000  0.000000  0.012079  1
  Co  Co9  1  0.500000  0.295593  0.432706  1
  Co  Co10  1  0.500000  0.704407  0.432706  1
  Co  Co11  1  0.000000  0.202460  0.570750  1
  Co  Co12  1  0.000000  0.797540  0.570750  1
  Co  Co13  1  0.500000  0.879930  0.708934  1
  Co  Co14  1  0.500000  0.120070  0.708934  1
  Co  Co15  1  0.000000  0.622986  0.292903  1
  Co  Co16  1  0.000000  0.377014  0.292903  1
  Co  Co17  1  0.500000  0.329090  0.993039  1
  Co  Co18  1  0.500000  0.670910  0.993039  1
  Co  Co19  1  0.000000  0.163215  0.001561  1
  Co  Co20  1  0.000000  0.836785  0.001561  1
  Co  Co21  1  0.000000  0.000000  0.838734  1
  Co  Co22  1  0.500000  0.500000  0.705288  1
  Co  Co23  1  0.000000  0.000000  0.295316  1
  P  P24  1  0.500000  0.309278  0.617709  1
  P  P25  1  0.500000  0.690722  0.617709  1
  P  P26  1  0.000000  0.189601  0.385435  1
  P  P27  1  0.000000  0.810399  0.385435  1
  P  P28  1  0.500000  0.500000  0.883630  1
  P  P29  1  0.000000  0.000000  0.116030  1
  P  P30  1  0.500000  0.849319  0.889952  1
  P  P31  1  0.500000  0.150681  0.889952  1
  P  P32  1  0.000000  0.663269  0.103501  1
  P  P33  1  0.000000  0.336731  0.103501  1
  P  P34  1  0.500000  0.500000  0.353581  1
  P  P35  1  0.000000  0.000000  0.655435  1
