# generated using pymatgen
data_Er5Fe16(TcP4)3
_symmetry_space_group_name_H-M   'P 1'
_cell_length_a   12.02060600
_cell_length_b   12.02060536
_cell_length_c   3.67384900
_cell_angle_alpha   90.00000000
_cell_angle_beta   90.00000000
_cell_angle_gamma   119.99999627
_symmetry_Int_Tables_number   1
_chemical_formula_structural   Er5Fe16(TcP4)3
_chemical_formula_sum   'Er5 Fe16 Tc3 P12'
_cell_volume   459.73191305
_cell_formula_units_Z   1
loop_
 _symmetry_equiv_pos_site_id
 _symmetry_equiv_pos_as_xyz
  1  'x, y, z'
loop_
 _atom_site_type_symbol
 _atom_site_label
 _atom_site_symmetry_multiplicity
 _atom_site_fract_x
 _atom_site_fract_y
 _atom_site_fract_z
 _atom_site_occupancy
  Er  Er0  1  0.666667  0.333333  0.000000  1
  Er  Er1  1  0.333333  0.666667  0.000000  1
  Er  Er2  1  0.180895  0.180895  0.500000  1
  Er  Er3  1  0.819105  0.000000  0.500000  1
  Er  Er4  1  0.000000  0.819105  0.500000  1
  Fe  Fe5  1  0.818926  0.199154  0.000000  1
  Fe  Fe6  1  0.800846  0.619772  0.000000  1
  Fe  Fe7  1  0.380228  0.181074  0.000000  1
  Fe  Fe8  1  0.199154  0.818926  0.000000  1
  Fe  Fe9  1  0.619772  0.800846  0.000000  1
  Fe  Fe10  1  0.181074  0.380228  0.000000  1
  Fe  Fe11  1  0.648330  0.124253  0.500000  1
  Fe  Fe12  1  0.875747  0.524078  0.500000  1
  Fe  Fe13  1  0.475922  0.351670  0.500000  1
  Fe  Fe14  1  0.124253  0.648330  0.500000  1
  Fe  Fe15  1  0.524078  0.875747  0.500000  1
  Fe  Fe16  1  0.351670  0.475922  0.500000  1
  Fe  Fe17  1  0.716379  0.716379  0.500000  1
  Fe  Fe18  1  0.283621  0.000000  0.500000  1
  Fe  Fe19  1  0.000000  0.283621  0.500000  1
  Fe  Fe20  1  0.000000  0.000000  0.000000  1
  Tc  Tc21  1  0.552949  0.552949  0.000000  1
  Tc  Tc22  1  0.447051  0.000000  0.000000  1
  Tc  Tc23  1  0.000000  0.447051  0.000000  1
  P  P24  1  0.359702  0.359702  0.000000  1
  P  P25  1  0.640298  0.000000  0.000000  1
  P  P26  1  0.000000  0.640298  0.000000  1
  P  P27  1  0.837744  0.318262  0.500000  1
  P  P28  1  0.681738  0.519482  0.500000  1
  P  P29  1  0.480518  0.162256  0.500000  1
  P  P30  1  0.318262  0.837744  0.500000  1
  P  P31  1  0.519482  0.681738  0.500000  1
  P  P32  1  0.162256  0.480518  0.500000  1
  P  P33  1  0.817599  0.817599  0.000000  1
  P  P34  1  0.182401  0.000000  0.000000  1
  P  P35  1  0.000000  0.182401  0.000000  1
