# generated using pymatgen
data_Pr8Ho12Si15Sb
_symmetry_space_group_name_H-M   'P 1'
_cell_length_a   7.56318100
_cell_length_b   7.85953068
_cell_length_c   14.87215800
_cell_angle_alpha   90.00000000
_cell_angle_beta   90.00000000
_cell_angle_gamma   89.88553274
_symmetry_Int_Tables_number   1
_chemical_formula_structural   Pr8Ho12Si15Sb
_chemical_formula_sum   'Pr8 Ho12 Si15 Sb1'
_cell_volume   884.04471412
_cell_formula_units_Z   1
loop_
 _symmetry_equiv_pos_site_id
 _symmetry_equiv_pos_as_xyz
  1  'x, y, z'
loop_
 _atom_site_type_symbol
 _atom_site_label
 _atom_site_symmetry_multiplicity
 _atom_site_fract_x
 _atom_site_fract_y
 _atom_site_fract_z
 _atom_site_occupancy
  Pr  Pr0  1  0.983877  0.830509  0.090615  1
  Pr  Pr1  1  0.470287  0.680132  0.403792  1
  Pr  Pr2  1  0.525327  0.320288  0.901047  1
  Pr  Pr3  1  0.025147  0.180692  0.600228  1
  Pr  Pr4  1  0.025147  0.180692  0.899772  1
  Pr  Pr5  1  0.525327  0.320288  0.598953  1
  Pr  Pr6  1  0.470287  0.680132  0.096208  1
  Pr  Pr7  1  0.983877  0.830509  0.409385  1
  Ho  Ho8  1  0.643235  0.003693  0.250000  1
  Ho  Ho9  1  0.162033  0.507056  0.250000  1
  Ho  Ho10  1  0.849658  0.489290  0.750000  1
  Ho  Ho11  1  0.350300  0.010019  0.750000  1
  Ho  Ho12  1  0.680949  0.821705  0.876461  1
  Ho  Ho13  1  0.181136  0.676768  0.623986  1
  Ho  Ho14  1  0.821061  0.316225  0.121297  1
  Ho  Ho15  1  0.314243  0.175966  0.378561  1
  Ho  Ho16  1  0.314243  0.175966  0.121439  1
  Ho  Ho17  1  0.821061  0.316225  0.378703  1
  Ho  Ho18  1  0.181136  0.676768  0.876014  1
  Ho  Ho19  1  0.680949  0.821705  0.623539  1
  Si  Si20  1  0.268725  0.877091  0.250000  1
  Si  Si21  1  0.731278  0.119535  0.750000  1
  Si  Si22  1  0.232600  0.379937  0.750000  1
  Si  Si23  1  0.021630  0.113876  0.250000  1
  Si  Si24  1  0.516906  0.366217  0.250000  1
  Si  Si25  1  0.475920  0.612843  0.750000  1
  Si  Si26  1  0.975349  0.886210  0.750000  1
  Si  Si27  1  0.855892  0.530764  0.959536  1
  Si  Si28  1  0.355049  0.968424  0.541810  1
  Si  Si29  1  0.640814  0.028501  0.040113  1
  Si  Si30  1  0.142551  0.469789  0.460175  1
  Si  Si31  1  0.142551  0.469789  0.039825  1
  Si  Si32  1  0.640814  0.028501  0.459887  1
  Si  Si33  1  0.355049  0.968424  0.958190  1
  Si  Si34  1  0.855892  0.530764  0.540464  1
  Sb  Sb35  1  0.779700  0.634710  0.250000  1
