# generated using pymatgen
data_TbY9(Ir2Ru)2
_symmetry_space_group_name_H-M   'P 1'
_cell_length_a   10.88345500
_cell_length_b   10.88345500
_cell_length_c   6.45609700
_cell_angle_alpha   90.00000000
_cell_angle_beta   90.00000000
_cell_angle_gamma   90.00000000
_symmetry_Int_Tables_number   1
_chemical_formula_structural   TbY9(Ir2Ru)2
_chemical_formula_sum   'Tb2 Y18 Ir8 Ru4'
_cell_volume   764.72206032
_cell_formula_units_Z   2
loop_
 _symmetry_equiv_pos_site_id
 _symmetry_equiv_pos_as_xyz
  1  'x, y, z'
loop_
 _atom_site_type_symbol
 _atom_site_label
 _atom_site_symmetry_multiplicity
 _atom_site_fract_x
 _atom_site_fract_y
 _atom_site_fract_z
 _atom_site_occupancy
  Tb  Tb0  1  0.500000  0.500000  0.000000  1
  Tb  Tb1  1  0.500000  0.500000  0.500000  1
  Y  Y2  1  0.293609  0.086853  0.378303  1
  Y  Y3  1  0.293609  0.913147  0.878303  1
  Y  Y4  1  0.706391  0.086853  0.878303  1
  Y  Y5  1  0.706391  0.913147  0.378303  1
  Y  Y6  1  0.586643  0.793660  0.878482  1
  Y  Y7  1  0.586643  0.206340  0.378482  1
  Y  Y8  1  0.413357  0.793660  0.378482  1
  Y  Y9  1  0.413357  0.206340  0.878482  1
  Y  Y10  1  0.206340  0.413357  0.621518  1
  Y  Y11  1  0.206340  0.586643  0.121518  1
  Y  Y12  1  0.793660  0.413357  0.121518  1
  Y  Y13  1  0.793660  0.586643  0.621518  1
  Y  Y14  1  0.913147  0.706391  0.121697  1
  Y  Y15  1  0.913147  0.293609  0.621697  1
  Y  Y16  1  0.086853  0.706391  0.621697  1
  Y  Y17  1  0.086853  0.293609  0.121697  1
  Y  Y18  1  0.000000  0.000000  0.500000  1
  Y  Y19  1  0.000000  0.000000  0.000000  1
  Ir  Ir20  1  0.847437  0.152563  0.250000  1
  Ir  Ir21  1  0.847437  0.847437  0.750000  1
  Ir  Ir22  1  0.152563  0.152563  0.750000  1
  Ir  Ir23  1  0.152563  0.847437  0.250000  1
  Ir  Ir24  1  0.652239  0.347761  0.750000  1
  Ir  Ir25  1  0.652239  0.652239  0.250000  1
  Ir  Ir26  1  0.347761  0.347761  0.250000  1
  Ir  Ir27  1  0.347761  0.652239  0.750000  1
  Ru  Ru28  1  0.500000  0.000000  0.123088  1
  Ru  Ru29  1  0.500000  0.000000  0.623088  1
  Ru  Ru30  1  0.000000  0.500000  0.876912  1
  Ru  Ru31  1  0.000000  0.500000  0.376912  1
