# generated using pymatgen
data_Tb4Y(CoB3)2
_symmetry_space_group_name_H-M   'P 1'
_cell_length_a   5.40476889
_cell_length_b   5.40476797
_cell_length_c   8.44230636
_cell_angle_alpha   71.33100946
_cell_angle_beta   71.33101233
_cell_angle_gamma   59.99999103
_symmetry_Int_Tables_number   1
_chemical_formula_structural   Tb4Y(CoB3)2
_chemical_formula_sum   'Tb4 Y1 Co2 B6'
_cell_volume   198.44819436
_cell_formula_units_Z   1
loop_
 _symmetry_equiv_pos_site_id
 _symmetry_equiv_pos_as_xyz
  1  'x, y, z'
loop_
 _atom_site_type_symbol
 _atom_site_label
 _atom_site_symmetry_multiplicity
 _atom_site_fract_x
 _atom_site_fract_y
 _atom_site_fract_z
 _atom_site_occupancy
  Tb  Tb0  1  0.251039  0.251039  0.246883  1
  Tb  Tb1  1  0.748961  0.748961  0.753117  1
  Tb  Tb2  1  0.416573  0.416573  0.750278  1
  Tb  Tb3  1  0.583427  0.583427  0.249722  1
  Y  Y4  1  0.000000  0.000000  0.000000  1
  Co  Co5  1  0.120074  0.120074  0.639776  1
  Co  Co6  1  0.879926  0.879926  0.360224  1
  B  B7  1  0.168182  0.831818  0.500000  1
  B  B8  1  0.831818  0.500000  0.500000  1
  B  B9  1  0.500000  0.168182  0.500000  1
  B  B10  1  0.168182  0.500000  0.500000  1
  B  B11  1  0.500000  0.831818  0.500000  1
  B  B12  1  0.831818  0.168182  0.500000  1
