# generated using pymatgen
data_HoEr3Cr2(SbO7)2
_symmetry_space_group_name_H-M   'P 1'
_cell_length_a   7.24350861
_cell_length_b   7.21554928
_cell_length_c   7.30497410
_cell_angle_alpha   89.99997424
_cell_angle_beta   59.70406458
_cell_angle_gamma   119.87269784
_symmetry_Int_Tables_number   1
_chemical_formula_structural   HoEr3Cr2(SbO7)2
_chemical_formula_sum   'Ho1 Er3 Cr2 Sb2 O14'
_cell_volume   269.28074069
_cell_formula_units_Z   1
loop_
 _symmetry_equiv_pos_site_id
 _symmetry_equiv_pos_as_xyz
  1  'x, y, z'
loop_
 _atom_site_type_symbol
 _atom_site_label
 _atom_site_symmetry_multiplicity
 _atom_site_fract_x
 _atom_site_fract_y
 _atom_site_fract_z
 _atom_site_occupancy
  Ho  Ho0  1  0.999774  0.999820  0.000249  1
  Er  Er1  1  0.500011  0.500007  0.999925  1
  Er  Er2  1  0.500016  0.000034  0.999983  1
  Er  Er3  1  0.000157  0.999998  0.500032  1
  Cr  Cr4  1  0.499989  0.000009  0.500047  1
  Cr  Cr5  1  0.499949  0.499957  0.500019  1
  Sb  Sb6  1  0.000054  0.500016  0.999943  1
  Sb  Sb7  1  0.000022  0.499969  0.499954  1
  O  O8  1  0.256379  0.128206  0.122638  1
  O  O9  1  0.743616  0.871820  0.877383  1
  O  O10  1  0.683552  0.841764  0.408601  1
  O  O11  1  0.835388  0.417726  0.832293  1
  O  O12  1  0.252800  0.832570  0.837974  1
  O  O13  1  0.252554  0.419905  0.409349  1
  O  O14  1  0.252811  0.420320  0.837925  1
  O  O15  1  0.252543  0.832624  0.409411  1
  O  O16  1  0.316336  0.158157  0.591413  1
  O  O17  1  0.164725  0.582389  0.167561  1
  O  O18  1  0.747168  0.167535  0.162116  1
  O  O19  1  0.747510  0.580104  0.590514  1
  O  O20  1  0.747185  0.579704  0.162072  1
  O  O21  1  0.747463  0.167364  0.590599  1
