# generated using pymatgen
data_ThSnHIr
_symmetry_space_group_name_H-M   'P 1'
_cell_length_a   4.61579600
_cell_length_b   7.31499700
_cell_length_c   8.45022900
_cell_angle_alpha   90.00000000
_cell_angle_beta   90.00000000
_cell_angle_gamma   90.00000000
_symmetry_Int_Tables_number   1
_chemical_formula_structural   ThSnHIr
_chemical_formula_sum   'Th4 Sn4 H4 Ir4'
_cell_volume   285.31804347
_cell_formula_units_Z   4
loop_
 _symmetry_equiv_pos_site_id
 _symmetry_equiv_pos_as_xyz
  1  'x, y, z'
loop_
 _atom_site_type_symbol
 _atom_site_label
 _atom_site_symmetry_multiplicity
 _atom_site_fract_x
 _atom_site_fract_y
 _atom_site_fract_z
 _atom_site_occupancy
  Th  Th0  1  0.750000  0.022201  0.702009  1
  Th  Th1  1  0.250000  0.977799  0.297991  1
  Th  Th2  1  0.250000  0.477799  0.202009  1
  Th  Th3  1  0.750000  0.522201  0.797991  1
  Sn  Sn4  1  0.750000  0.665547  0.422516  1
  Sn  Sn5  1  0.250000  0.334453  0.577484  1
  Sn  Sn6  1  0.250000  0.834453  0.922516  1
  Sn  Sn7  1  0.750000  0.165547  0.077484  1
  H  H8  1  0.250000  0.458571  0.916710  1
  H  H9  1  0.750000  0.541429  0.083290  1
  H  H10  1  0.750000  0.041429  0.416710  1
  H  H11  1  0.250000  0.958571  0.583290  1
  Ir  Ir12  1  0.750000  0.775391  0.097384  1
  Ir  Ir13  1  0.250000  0.224609  0.902616  1
  Ir  Ir14  1  0.250000  0.724609  0.597384  1
  Ir  Ir15  1  0.750000  0.275391  0.402616  1
