# generated using pymatgen
data_TbY2Cd3Hg2Au
_symmetry_space_group_name_H-M   'P 1'
_cell_length_a   8.10364348
_cell_length_b   8.10647130
_cell_length_c   3.82396500
_cell_angle_alpha   90.00000000
_cell_angle_beta   90.00000000
_cell_angle_gamma   119.87980722
_symmetry_Int_Tables_number   1
_chemical_formula_structural   TbY2Cd3Hg2Au
_chemical_formula_sum   'Tb1 Y2 Cd3 Hg2 Au1'
_cell_volume   217.81181569
_cell_formula_units_Z   1
loop_
 _symmetry_equiv_pos_site_id
 _symmetry_equiv_pos_as_xyz
  1  'x, y, z'
loop_
 _atom_site_type_symbol
 _atom_site_label
 _atom_site_symmetry_multiplicity
 _atom_site_fract_x
 _atom_site_fract_y
 _atom_site_fract_z
 _atom_site_occupancy
  Tb  Tb0  1  0.409773  0.395850  0.000000  1
  Y  Y1  1  0.604154  0.012852  0.000000  1
  Y  Y2  1  0.987004  0.591182  0.000000  1
  Cd  Cd3  1  0.274135  0.000105  0.500000  1
  Cd  Cd4  1  0.999906  0.274094  0.500000  1
  Cd  Cd5  1  0.726162  0.726239  0.500000  1
  Hg  Hg6  1  0.333041  0.666168  0.500000  1
  Hg  Hg7  1  0.000188  0.000191  0.000000  1
  Au  Au8  1  0.665638  0.333319  0.500000  1
