# generated using pymatgen
data_Sc(SiIr2)2
_symmetry_space_group_name_H-M   'P 1'
_cell_length_a   4.05548900
_cell_length_b   8.91268900
_cell_length_c   11.35035000
_cell_angle_alpha   90.00000000
_cell_angle_beta   90.00000000
_cell_angle_gamma   90.00000000
_symmetry_Int_Tables_number   1
_chemical_formula_structural   Sc(SiIr2)2
_chemical_formula_sum   'Sc4 Si8 Ir16'
_cell_volume   410.26194433
_cell_formula_units_Z   4
loop_
 _symmetry_equiv_pos_site_id
 _symmetry_equiv_pos_as_xyz
  1  'x, y, z'
loop_
 _atom_site_type_symbol
 _atom_site_label
 _atom_site_symmetry_multiplicity
 _atom_site_fract_x
 _atom_site_fract_y
 _atom_site_fract_z
 _atom_site_occupancy
  Sc  Sc0  1  0.250000  0.141976  0.826411  1
  Sc  Sc1  1  0.250000  0.358024  0.326411  1
  Sc  Sc2  1  0.750000  0.858024  0.173589  1
  Sc  Sc3  1  0.750000  0.641976  0.673589  1
  Si  Si4  1  0.250000  0.415839  0.638348  1
  Si  Si5  1  0.250000  0.084161  0.138348  1
  Si  Si6  1  0.750000  0.584161  0.361652  1
  Si  Si7  1  0.750000  0.915839  0.861652  1
  Si  Si8  1  0.250000  0.621220  0.064959  1
  Si  Si9  1  0.250000  0.878780  0.564959  1
  Si  Si10  1  0.750000  0.378780  0.935041  1
  Si  Si11  1  0.750000  0.121220  0.435041  1
  Ir  Ir12  1  0.250000  0.614718  0.500184  1
  Ir  Ir13  1  0.250000  0.885282  0.000184  1
  Ir  Ir14  1  0.750000  0.385282  0.499816  1
  Ir  Ir15  1  0.750000  0.114718  0.999816  1
  Ir  Ir16  1  0.250000  0.702223  0.270046  1
  Ir  Ir17  1  0.250000  0.797777  0.770046  1
  Ir  Ir18  1  0.750000  0.297777  0.729954  1
  Ir  Ir19  1  0.750000  0.202223  0.229954  1
  Ir  Ir20  1  0.250000  0.170574  0.559018  1
  Ir  Ir21  1  0.250000  0.329426  0.059018  1
  Ir  Ir22  1  0.750000  0.829426  0.440982  1
  Ir  Ir23  1  0.750000  0.670574  0.940982  1
  Ir  Ir24  1  0.250000  0.008840  0.339234  1
  Ir  Ir25  1  0.250000  0.491160  0.839234  1
  Ir  Ir26  1  0.750000  0.991160  0.660766  1
  Ir  Ir27  1  0.750000  0.508840  0.160766  1
