# generated using pymatgen
data_YEr3Ga6CoCu
_symmetry_space_group_name_H-M   'P 1'
_cell_length_a   6.95459200
_cell_length_b   8.74176513
_cell_length_c   8.74176500
_cell_angle_alpha   119.99999573
_cell_angle_beta   90.00000000
_cell_angle_gamma   90.00000000
_symmetry_Int_Tables_number   1
_chemical_formula_structural   YEr3Ga6CoCu
_chemical_formula_sum   'Y2 Er6 Ga12 Co2 Cu2'
_cell_volume   460.25717572
_cell_formula_units_Z   2
loop_
 _symmetry_equiv_pos_site_id
 _symmetry_equiv_pos_as_xyz
  1  'x, y, z'
loop_
 _atom_site_type_symbol
 _atom_site_label
 _atom_site_symmetry_multiplicity
 _atom_site_fract_x
 _atom_site_fract_y
 _atom_site_fract_z
 _atom_site_occupancy
  Y  Y0  1  0.745655  0.000000  0.000000  1
  Y  Y1  1  0.254345  0.000000  0.000000  1
  Er  Er2  1  0.742164  0.476818  0.523182  1
  Er  Er3  1  0.257836  0.523182  0.476818  1
  Er  Er4  1  0.742164  0.046364  0.523182  1
  Er  Er5  1  0.257836  0.953636  0.476818  1
  Er  Er6  1  0.742164  0.476818  0.953636  1
  Er  Er7  1  0.257836  0.523182  0.046364  1
  Ga  Ga8  1  0.954863  0.830306  0.169694  1
  Ga  Ga9  1  0.045137  0.169694  0.830306  1
  Ga  Ga10  1  0.954863  0.339388  0.169694  1
  Ga  Ga11  1  0.454971  0.173181  0.826819  1
  Ga  Ga12  1  0.045137  0.660612  0.830306  1
  Ga  Ga13  1  0.545029  0.826819  0.173181  1
  Ga  Ga14  1  0.954863  0.830306  0.660612  1
  Ga  Ga15  1  0.454971  0.653638  0.826819  1
  Ga  Ga16  1  0.045137  0.169694  0.339388  1
  Ga  Ga17  1  0.545029  0.346362  0.173181  1
  Ga  Ga18  1  0.454971  0.173181  0.346362  1
  Ga  Ga19  1  0.545029  0.826819  0.653638  1
  Co  Co20  1  0.486574  0.333333  0.666667  1
  Co  Co21  1  0.513426  0.666667  0.333333  1
  Cu  Cu22  1  0.948654  0.666667  0.333333  1
  Cu  Cu23  1  0.051346  0.333333  0.666667  1
