# generated using pymatgen
data_Tm2Mn2Co10P7
_symmetry_space_group_name_H-M   'P 1'
_cell_length_a   9.03333051
_cell_length_b   9.01131748
_cell_length_c   3.60157000
_cell_angle_alpha   90.00000000
_cell_angle_beta   90.00000000
_cell_angle_gamma   119.96627226
_symmetry_Int_Tables_number   1
_chemical_formula_structural   Tm2Mn2Co10P7
_chemical_formula_sum   'Tm2 Mn2 Co10 P7'
_cell_volume   253.98389744
_cell_formula_units_Z   1
loop_
 _symmetry_equiv_pos_site_id
 _symmetry_equiv_pos_as_xyz
  1  'x, y, z'
loop_
 _atom_site_type_symbol
 _atom_site_label
 _atom_site_symmetry_multiplicity
 _atom_site_fract_x
 _atom_site_fract_y
 _atom_site_fract_z
 _atom_site_occupancy
  Tm  Tm0  1  0.999130  0.997796  0.000000  1
  Tm  Tm1  1  0.666058  0.333154  0.500000  1
  Mn  Mn2  1  0.434529  0.889241  0.500000  1
  Mn  Mn3  1  0.111773  0.544851  0.500000  1
  Co  Co4  1  0.701735  0.605706  0.000000  1
  Co  Co5  1  0.395037  0.098774  0.000000  1
  Co  Co6  1  0.902343  0.296703  0.000000  1
  Co  Co7  1  0.216936  0.391759  0.000000  1
  Co  Co8  1  0.608538  0.823403  0.000000  1
  Co  Co9  1  0.173813  0.782909  0.000000  1
  Co  Co10  1  0.283469  0.230796  0.500000  1
  Co  Co11  1  0.770563  0.051771  0.500000  1
  Co  Co12  1  0.945863  0.717169  0.500000  1
  Co  Co13  1  0.459651  0.572175  0.500000  1
  P  P14  1  0.446317  0.368753  0.000000  1
  P  P15  1  0.632904  0.079358  0.000000  1
  P  P16  1  0.918955  0.553233  0.000000  1
  P  P17  1  0.043456  0.257910  0.500000  1
  P  P18  1  0.736185  0.781206  0.500000  1
  P  P19  1  0.217954  0.956129  0.500000  1
  P  P20  1  0.334790  0.667207  0.000000  1
