# generated using pymatgen
data_Tb2Lu2ReB12Rh
_symmetry_space_group_name_H-M   'P 1'
_cell_length_a   3.65182400
_cell_length_b   9.09493232
_cell_length_c   11.50246286
_cell_angle_alpha   90.34265038
_cell_angle_beta   90.00000000
_cell_angle_gamma   90.00000000
_symmetry_Int_Tables_number   1
_chemical_formula_structural   Tb2Lu2ReB12Rh
_chemical_formula_sum   'Tb4 Lu4 Re2 B24 Rh2'
_cell_volume   382.02552698
_cell_formula_units_Z   2
loop_
 _symmetry_equiv_pos_site_id
 _symmetry_equiv_pos_as_xyz
  1  'x, y, z'
loop_
 _atom_site_type_symbol
 _atom_site_label
 _atom_site_symmetry_multiplicity
 _atom_site_fract_x
 _atom_site_fract_y
 _atom_site_fract_z
 _atom_site_occupancy
  Tb  Tb0  1  0.000000  0.318336  0.411384  1
  Tb  Tb1  1  0.000000  0.681664  0.588616  1
  Tb  Tb2  1  0.000000  0.825104  0.083195  1
  Tb  Tb3  1  0.000000  0.174896  0.916805  1
  Lu  Lu4  1  0.000000  0.945914  0.371946  1
  Lu  Lu5  1  0.000000  0.054086  0.628054  1
  Lu  Lu6  1  0.000000  0.442394  0.126546  1
  Lu  Lu7  1  0.000000  0.557606  0.873454  1
  Re  Re8  1  0.000000  0.139658  0.180661  1
  Re  Re9  1  0.000000  0.860342  0.819339  1
  B  B10  1  0.500000  0.555145  0.433724  1
  B  B11  1  0.500000  0.444855  0.566276  1
  B  B12  1  0.500000  0.053563  0.067980  1
  B  B13  1  0.500000  0.946437  0.932020  1
  B  B14  1  0.500000  0.750760  0.420631  1
  B  B15  1  0.500000  0.249240  0.579369  1
  B  B16  1  0.500000  0.250251  0.081851  1
  B  B17  1  0.500000  0.749749  0.918149  1
  B  B18  1  0.500000  0.791859  0.265252  1
  B  B19  1  0.500000  0.208141  0.734748  1
  B  B20  1  0.500000  0.293590  0.234867  1
  B  B21  1  0.500000  0.706410  0.765133  1
  B  B22  1  0.500000  0.631201  0.182925  1
  B  B23  1  0.500000  0.368799  0.817075  1
  B  B24  1  0.500000  0.130991  0.315549  1
  B  B25  1  0.500000  0.869009  0.684451  1
  B  B26  1  0.500000  0.982645  0.213985  1
  B  B27  1  0.500000  0.017355  0.786015  1
  B  B28  1  0.500000  0.483509  0.286955  1
  B  B29  1  0.500000  0.516491  0.713045  1
  B  B30  1  0.500000  0.602402  0.028429  1
  B  B31  1  0.500000  0.397598  0.971571  1
  B  B32  1  0.500000  0.103724  0.472244  1
  B  B33  1  0.500000  0.896276  0.527756  1
  Rh  Rh34  1  0.000000  0.638889  0.320335  1
  Rh  Rh35  1  0.000000  0.361111  0.679665  1
