# generated using pymatgen
data_Li6Tb2PuN6
_symmetry_space_group_name_H-M   'P 1'
_cell_length_a   5.98403100
_cell_length_b   5.98403100
_cell_length_c   5.49479300
_cell_angle_alpha   90.00000000
_cell_angle_beta   90.00000000
_cell_angle_gamma   120.00000699
_symmetry_Int_Tables_number   1
_chemical_formula_structural   Li6Tb2PuN6
_chemical_formula_sum   'Li6 Tb2 Pu1 N6'
_cell_volume   170.40000650
_cell_formula_units_Z   1
loop_
 _symmetry_equiv_pos_site_id
 _symmetry_equiv_pos_as_xyz
  1  'x, y, z'
loop_
 _atom_site_type_symbol
 _atom_site_label
 _atom_site_symmetry_multiplicity
 _atom_site_fract_x
 _atom_site_fract_y
 _atom_site_fract_z
 _atom_site_occupancy
  Li  Li0  1  0.977387  0.647273  0.607300  1
  Li  Li1  1  0.352727  0.330115  0.607300  1
  Li  Li2  1  0.669885  0.022613  0.607300  1
  Li  Li3  1  0.002040  0.336982  0.389976  1
  Li  Li4  1  0.663018  0.665057  0.389976  1
  Li  Li5  1  0.334943  0.997960  0.389976  1
  Tb  Tb6  1  0.000000  0.000000  0.998766  1
  Tb  Tb7  1  0.333333  0.666667  0.994040  1
  Pu  Pu8  1  0.666667  0.333333  0.005172  1
  N  N9  1  0.972165  0.639112  0.227309  1
  N  N10  1  0.360888  0.333052  0.227309  1
  N  N11  1  0.666948  0.027835  0.227309  1
  N  N12  1  0.969996  0.333815  0.776089  1
  N  N13  1  0.666185  0.636181  0.776089  1
  N  N14  1  0.363819  0.030004  0.776089  1
