# generated using pymatgen
data_Lu3Ag3PtPb2
_symmetry_space_group_name_H-M   'P 1'
_cell_length_a   8.22883500
_cell_length_b   8.22883485
_cell_length_c   3.51864500
_cell_angle_alpha   90.00000000
_cell_angle_beta   90.00000000
_cell_angle_gamma   119.99999336
_symmetry_Int_Tables_number   1
_chemical_formula_structural   Lu3Ag3PtPb2
_chemical_formula_sum   'Lu3 Ag3 Pt1 Pb2'
_cell_volume   206.33970902
_cell_formula_units_Z   1
loop_
 _symmetry_equiv_pos_site_id
 _symmetry_equiv_pos_as_xyz
  1  'x, y, z'
loop_
 _atom_site_type_symbol
 _atom_site_label
 _atom_site_symmetry_multiplicity
 _atom_site_fract_x
 _atom_site_fract_y
 _atom_site_fract_z
 _atom_site_occupancy
  Lu  Lu0  1  0.581213  0.952891  0.500000  1
  Lu  Lu1  1  0.371679  0.418787  0.500000  1
  Lu  Lu2  1  0.047109  0.628321  0.500000  1
  Ag  Ag3  1  0.702206  0.708810  0.000000  1
  Ag  Ag4  1  0.006605  0.297794  0.000000  1
  Ag  Ag5  1  0.291190  0.993395  0.000000  1
  Pt  Pt6  1  0.333333  0.666667  0.000000  1
  Pb  Pb7  1  0.000000  0.000000  0.500000  1
  Pb  Pb8  1  0.666667  0.333333  0.000000  1
