# generated using pymatgen
data_Y16Cd4OsPt2Rh
_symmetry_space_group_name_H-M   'P 1'
_cell_length_a   9.73086801
_cell_length_b   9.73086943
_cell_length_c   9.73184526
_cell_angle_alpha   59.48448015
_cell_angle_beta   59.48448185
_cell_angle_gamma   59.48366676
_symmetry_Int_Tables_number   1
_chemical_formula_structural   Y16Cd4OsPt2Rh
_chemical_formula_sum   'Y16 Cd4 Os1 Pt2 Rh1'
_cell_volume   643.95918385
_cell_formula_units_Z   1
loop_
 _symmetry_equiv_pos_site_id
 _symmetry_equiv_pos_as_xyz
  1  'x, y, z'
loop_
 _atom_site_type_symbol
 _atom_site_label
 _atom_site_symmetry_multiplicity
 _atom_site_fract_x
 _atom_site_fract_y
 _atom_site_fract_z
 _atom_site_occupancy
  Y  Y0  1  0.349674  0.349674  0.353738  1
  Y  Y1  1  0.350977  0.350977  0.946666  1
  Y  Y2  1  0.348727  0.950453  0.351009  1
  Y  Y3  1  0.950453  0.348727  0.351009  1
  Y  Y4  1  0.814110  0.189661  0.189320  1
  Y  Y5  1  0.187993  0.812785  0.807222  1
  Y  Y6  1  0.189661  0.814110  0.189320  1
  Y  Y7  1  0.812785  0.187993  0.807222  1
  Y  Y8  1  0.188487  0.188487  0.812557  1
  Y  Y9  1  0.808627  0.808627  0.189601  1
  Y  Y10  1  0.936316  0.563814  0.565601  1
  Y  Y11  1  0.557374  0.938180  0.938465  1
  Y  Y12  1  0.563814  0.936316  0.565601  1
  Y  Y13  1  0.938180  0.557374  0.938465  1
  Y  Y14  1  0.563724  0.563724  0.937667  1
  Y  Y15  1  0.938070  0.938070  0.559061  1
  Cd  Cd16  1  0.579576  0.579576  0.579743  1
  Cd  Cd17  1  0.580361  0.580361  0.255733  1
  Cd  Cd18  1  0.580739  0.254872  0.580586  1
  Cd  Cd19  1  0.254872  0.580739  0.580586  1
  Os  Os20  1  0.144002  0.144002  0.140588  1
  Pt  Pt21  1  0.144416  0.573205  0.143310  1
  Pt  Pt22  1  0.573205  0.144416  0.143310  1
  Rh  Rh23  1  0.143861  0.143861  0.573623  1
