# generated using pymatgen
data_Sr5NdCd2(CoO6)2
_symmetry_space_group_name_H-M   'P 1'
_cell_length_a   6.73503225
_cell_length_b   6.75113918
_cell_length_c   6.69271304
_cell_angle_alpha   90.33600514
_cell_angle_beta   91.16514640
_cell_angle_gamma   90.19159294
_symmetry_Int_Tables_number   1
_chemical_formula_structural   Sr5NdCd2(CoO6)2
_chemical_formula_sum   'Sr5 Nd1 Cd2 Co2 O12'
_cell_volume   304.24192972
_cell_formula_units_Z   1
loop_
 _symmetry_equiv_pos_site_id
 _symmetry_equiv_pos_as_xyz
  1  'x, y, z'
loop_
 _atom_site_type_symbol
 _atom_site_label
 _atom_site_symmetry_multiplicity
 _atom_site_fract_x
 _atom_site_fract_y
 _atom_site_fract_z
 _atom_site_occupancy
  Sr  Sr0  1  0.245540  0.617978  0.885942  1
  Sr  Sr1  1  0.616903  0.885229  0.244861  1
  Sr  Sr2  1  0.753690  0.386065  0.114696  1
  Sr  Sr3  1  0.382896  0.112599  0.754248  1
  Sr  Sr4  1  0.114452  0.753396  0.381855  1
  Nd  Nd5  1  0.887307  0.245426  0.617280  1
  Cd  Cd6  1  0.752822  0.751421  0.750931  1
  Cd  Cd7  1  0.248561  0.248177  0.246949  1
  Co  Co8  1  0.998405  0.004086  0.998796  1
  Co  Co9  1  0.500905  0.496021  0.501493  1
  O  O10  1  0.216126  0.415084  0.551830  1
  O  O11  1  0.423971  0.547044  0.228923  1
  O  O12  1  0.560628  0.224825  0.431706  1
  O  O13  1  0.917759  0.726185  0.052835  1
  O  O14  1  0.724862  0.061225  0.907005  1
  O  O15  1  0.049533  0.930594  0.717205  1
  O  O16  1  0.778992  0.566434  0.455000  1
  O  O17  1  0.582744  0.441494  0.770384  1
  O  O18  1  0.448577  0.765470  0.577222  1
  O  O19  1  0.073235  0.282395  0.937741  1
  O  O20  1  0.278849  0.950167  0.084119  1
  O  O21  1  0.943244  0.088686  0.288975  1
