# generated using pymatgen
data_KLa2AgS4
_symmetry_space_group_name_H-M   'P 1'
_cell_length_a   4.24793100
_cell_length_b   7.36166876
_cell_length_c   14.65530200
_cell_angle_alpha   90.00000000
_cell_angle_beta   90.00000000
_cell_angle_gamma   73.23080484
_symmetry_Int_Tables_number   1
_chemical_formula_structural   KLa2AgS4
_chemical_formula_sum   'K2 La4 Ag2 S8'
_cell_volume   438.80930781
_cell_formula_units_Z   2
loop_
 _symmetry_equiv_pos_site_id
 _symmetry_equiv_pos_as_xyz
  1  'x, y, z'
loop_
 _atom_site_type_symbol
 _atom_site_label
 _atom_site_symmetry_multiplicity
 _atom_site_fract_x
 _atom_site_fract_y
 _atom_site_fract_z
 _atom_site_occupancy
  K  K0  1  0.390684  0.218635  0.250000  1
  K  K1  1  0.609318  0.781365  0.750000  1
  La  La2  1  0.132542  0.734917  0.064374  1
  La  La3  1  0.132542  0.734917  0.435626  1
  La  La4  1  0.867460  0.265081  0.564373  1
  La  La5  1  0.867460  0.265081  0.935626  1
  Ag  Ag6  1  0.663111  0.673781  0.250000  1
  Ag  Ag7  1  0.336891  0.326219  0.750000  1
  S  S8  1  0.500001  0.000000  0.000000  1
  S  S9  1  0.763418  0.473166  0.105772  1
  S  S10  1  0.061398  0.877204  0.250000  1
  S  S11  1  0.763418  0.473166  0.394228  1
  S  S12  1  0.500001  0.000000  0.500000  1
  S  S13  1  0.236584  0.526834  0.605772  1
  S  S14  1  0.938603  0.122796  0.750000  1
  S  S15  1  0.236584  0.526834  0.894228  1
