# generated using pymatgen
data_NdScCrB6
_symmetry_space_group_name_H-M   'P 1'
_cell_length_a   3.53541400
_cell_length_b   9.09052700
_cell_length_c   11.52370500
_cell_angle_alpha   90.00000000
_cell_angle_beta   90.00000000
_cell_angle_gamma   90.00000000
_symmetry_Int_Tables_number   1
_chemical_formula_structural   NdScCrB6
_chemical_formula_sum   'Nd4 Sc4 Cr4 B24'
_cell_volume   370.35777856
_cell_formula_units_Z   4
loop_
 _symmetry_equiv_pos_site_id
 _symmetry_equiv_pos_as_xyz
  1  'x, y, z'
loop_
 _atom_site_type_symbol
 _atom_site_label
 _atom_site_symmetry_multiplicity
 _atom_site_fract_x
 _atom_site_fract_y
 _atom_site_fract_z
 _atom_site_occupancy
  Nd  Nd0  1  0.000000  0.822699  0.084632  1
  Nd  Nd1  1  0.000000  0.177301  0.915368  1
  Nd  Nd2  1  0.000000  0.322699  0.415368  1
  Nd  Nd3  1  0.000000  0.677301  0.584632  1
  Sc  Sc4  1  0.000000  0.443329  0.131480  1
  Sc  Sc5  1  0.000000  0.556671  0.868520  1
  Sc  Sc6  1  0.000000  0.943329  0.368520  1
  Sc  Sc7  1  0.000000  0.056671  0.631480  1
  Cr  Cr8  1  0.000000  0.142331  0.183213  1
  Cr  Cr9  1  0.000000  0.857669  0.816787  1
  Cr  Cr10  1  0.000000  0.642331  0.316787  1
  Cr  Cr11  1  0.000000  0.357669  0.683213  1
  B  B12  1  0.500000  0.056654  0.070715  1
  B  B13  1  0.500000  0.943346  0.929285  1
  B  B14  1  0.500000  0.556654  0.429285  1
  B  B15  1  0.500000  0.443346  0.570715  1
  B  B16  1  0.500000  0.254089  0.085167  1
  B  B17  1  0.500000  0.745911  0.914833  1
  B  B18  1  0.500000  0.754089  0.414833  1
  B  B19  1  0.500000  0.245911  0.585167  1
  B  B20  1  0.500000  0.294461  0.234636  1
  B  B21  1  0.500000  0.705539  0.765364  1
  B  B22  1  0.500000  0.794461  0.265364  1
  B  B23  1  0.500000  0.205539  0.734636  1
  B  B24  1  0.500000  0.128452  0.315901  1
  B  B25  1  0.500000  0.871548  0.684099  1
  B  B26  1  0.500000  0.628452  0.184099  1
  B  B27  1  0.500000  0.371548  0.815901  1
  B  B28  1  0.500000  0.483948  0.285037  1
  B  B29  1  0.500000  0.516052  0.714963  1
  B  B30  1  0.500000  0.983948  0.214963  1
  B  B31  1  0.500000  0.016052  0.785037  1
  B  B32  1  0.500000  0.093577  0.474856  1
  B  B33  1  0.500000  0.906423  0.525144  1
  B  B34  1  0.500000  0.593577  0.025144  1
  B  B35  1  0.500000  0.406423  0.974856  1
