# generated using pymatgen
data_Ti5CuSn2Bi
_symmetry_space_group_name_H-M   'P 1'
_cell_length_a   8.26664667
_cell_length_b   8.26664583
_cell_length_c   5.54685500
_cell_angle_alpha   90.00000000
_cell_angle_beta   90.00000000
_cell_angle_gamma   119.63615465
_symmetry_Int_Tables_number   1
_chemical_formula_structural   Ti5CuSn2Bi
_chemical_formula_sum   'Ti10 Cu2 Sn4 Bi2'
_cell_volume   329.47068502
_cell_formula_units_Z   2
loop_
 _symmetry_equiv_pos_site_id
 _symmetry_equiv_pos_as_xyz
  1  'x, y, z'
loop_
 _atom_site_type_symbol
 _atom_site_label
 _atom_site_symmetry_multiplicity
 _atom_site_fract_x
 _atom_site_fract_y
 _atom_site_fract_z
 _atom_site_occupancy
  Ti  Ti0  1  0.263049  0.990194  0.750000  1
  Ti  Ti1  1  0.736951  0.009806  0.250000  1
  Ti  Ti2  1  0.990194  0.263049  0.750000  1
  Ti  Ti3  1  0.009806  0.736951  0.250000  1
  Ti  Ti4  1  0.736287  0.736287  0.750000  1
  Ti  Ti5  1  0.263713  0.263713  0.250000  1
  Ti  Ti6  1  0.329838  0.670162  0.500000  1
  Ti  Ti7  1  0.670162  0.329838  0.500000  1
  Ti  Ti8  1  0.670162  0.329838  0.000000  1
  Ti  Ti9  1  0.329838  0.670162  0.000000  1
  Cu  Cu10  1  0.000000  0.000000  0.500000  1
  Cu  Cu11  1  0.000000  0.000000  0.000000  1
  Sn  Sn12  1  0.613316  0.997295  0.750000  1
  Sn  Sn13  1  0.386684  0.002705  0.250000  1
  Sn  Sn14  1  0.997295  0.613316  0.750000  1
  Sn  Sn15  1  0.002705  0.386684  0.250000  1
  Bi  Bi16  1  0.379671  0.379671  0.750000  1
  Bi  Bi17  1  0.620329  0.620329  0.250000  1
