# generated using pymatgen
data_BaCaFe6(P2O7)4
_symmetry_space_group_name_H-M   'P 1'
_cell_length_a   7.89232613
_cell_length_b   7.67342399
_cell_length_c   9.72086140
_cell_angle_alpha   67.46891698
_cell_angle_beta   90.39658102
_cell_angle_gamma   90.08134147
_symmetry_Int_Tables_number   1
_chemical_formula_structural   BaCaFe6(P2O7)4
_chemical_formula_sum   'Ba1 Ca1 Fe6 P8 O28'
_cell_volume   543.75825061
_cell_formula_units_Z   1
loop_
 _symmetry_equiv_pos_site_id
 _symmetry_equiv_pos_as_xyz
  1  'x, y, z'
loop_
 _atom_site_type_symbol
 _atom_site_label
 _atom_site_symmetry_multiplicity
 _atom_site_fract_x
 _atom_site_fract_y
 _atom_site_fract_z
 _atom_site_occupancy
  Ba  Ba0  1  0.000000  0.500000  0.000000  1
  Ca  Ca1  1  0.500000  0.500000  0.500000  1
  Fe  Fe2  1  0.124088  0.808965  0.527778  1
  Fe  Fe3  1  0.623669  0.186100  0.974172  1
  Fe  Fe4  1  0.875912  0.191035  0.472222  1
  Fe  Fe5  1  0.376331  0.813900  0.025828  1
  Fe  Fe6  1  0.000000  0.000000  0.000000  1
  Fe  Fe7  1  0.500000  0.000000  0.500000  1
  P  P8  1  0.933417  0.395353  0.698245  1
  P  P9  1  0.450563  0.603766  0.793667  1
  P  P10  1  0.066583  0.604647  0.301755  1
  P  P11  1  0.549437  0.396234  0.206333  1
  P  P12  1  0.202096  0.118446  0.689639  1
  P  P13  1  0.700748  0.891376  0.804471  1
  P  P14  1  0.797904  0.881554  0.310361  1
  P  P15  1  0.299252  0.108624  0.195529  1
  O  O16  1  0.369731  0.175323  0.606143  1
  O  O17  1  0.871314  0.854434  0.885300  1
  O  O18  1  0.630269  0.824677  0.393857  1
  O  O19  1  0.128686  0.145566  0.114700  1
  O  O20  1  0.396033  0.719966  0.629506  1
  O  O21  1  0.880722  0.271359  0.860678  1
  O  O22  1  0.603967  0.280034  0.370494  1
  O  O23  1  0.119278  0.728641  0.139322  1
  O  O24  1  0.806095  0.380109  0.584843  1
  O  O25  1  0.327196  0.626374  0.904989  1
  O  O26  1  0.193905  0.619891  0.415157  1
  O  O27  1  0.672804  0.373626  0.095011  1
  O  O28  1  0.115489  0.316301  0.673294  1
  O  O29  1  0.633415  0.684471  0.821147  1
  O  O30  1  0.884511  0.683699  0.326706  1
  O  O31  1  0.366585  0.315529  0.178853  1
  O  O32  1  0.508418  0.596844  0.193873  1
  O  O33  1  0.022114  0.404332  0.314486  1
  O  O34  1  0.491582  0.403156  0.806127  1
  O  O35  1  0.977886  0.595668  0.685514  1
  O  O36  1  0.785727  0.992416  0.140883  1
  O  O37  1  0.289653  0.000260  0.364966  1
  O  O38  1  0.214273  0.007584  0.859117  1
  O  O39  1  0.710347  0.999740  0.635034  1
  O  O40  1  0.426132  0.026863  0.117690  1
  O  O41  1  0.918108  0.973455  0.388062  1
  O  O42  1  0.573868  0.973137  0.882310  1
  O  O43  1  0.081892  0.026545  0.611938  1
