# generated using pymatgen
data_La8CoHg2Os
_symmetry_space_group_name_H-M   'P 1'
_cell_length_a   10.00323245
_cell_length_b   9.93708120
_cell_length_c   10.00323300
_cell_angle_alpha   60.21851493
_cell_angle_beta   60.60792216
_cell_angle_gamma   60.21851660
_symmetry_Int_Tables_number   1
_chemical_formula_structural   La8CoHg2Os
_chemical_formula_sum   'La16 Co2 Hg4 Os2'
_cell_volume   708.63079020
_cell_formula_units_Z   2
loop_
 _symmetry_equiv_pos_site_id
 _symmetry_equiv_pos_as_xyz
  1  'x, y, z'
loop_
 _atom_site_type_symbol
 _atom_site_label
 _atom_site_symmetry_multiplicity
 _atom_site_fract_x
 _atom_site_fract_y
 _atom_site_fract_z
 _atom_site_occupancy
  La  La0  1  0.937702  0.945889  0.557077  1
  La  La1  1  0.560300  0.939700  0.560300  1
  La  La2  1  0.557077  0.945889  0.937702  1
  La  La3  1  0.685954  0.694085  0.308606  1
  La  La4  1  0.158046  0.150663  0.540625  1
  La  La5  1  0.308606  0.694085  0.685954  1
  La  La6  1  0.156025  0.149213  0.156025  1
  La  La7  1  0.540625  0.150663  0.158046  1
  La  La8  1  0.308496  0.691504  0.308496  1
  La  La9  1  0.308606  0.311354  0.685954  1
  La  La10  1  0.689143  0.310857  0.689143  1
  La  La11  1  0.937702  0.559332  0.557077  1
  La  La12  1  0.557077  0.559332  0.937702  1
  La  La13  1  0.156025  0.538737  0.156025  1
  La  La14  1  0.685954  0.311354  0.308606  1
  La  La15  1  0.942448  0.557552  0.942448  1
  Co  Co16  1  0.364083  0.915052  0.364083  1
  Co  Co17  1  0.364083  0.356779  0.364083  1
  Hg  Hg18  1  0.245795  0.918569  0.917067  1
  Hg  Hg19  1  0.918504  0.919251  0.918504  1
  Hg  Hg20  1  0.917067  0.918569  0.245795  1
  Hg  Hg21  1  0.918504  0.243739  0.918504  1
  Os  Os22  1  0.917713  0.358914  0.364459  1
  Os  Os23  1  0.364459  0.358914  0.917713  1
