# generated using pymatgen
data_RbMoCl6
_symmetry_space_group_name_H-M   'P 1'
_cell_length_a   6.94321440
_cell_length_b   6.94321530
_cell_length_c   12.35747185
_cell_angle_alpha   78.76059550
_cell_angle_beta   78.76059163
_cell_angle_gamma   55.84609105
_symmetry_Int_Tables_number   1
_chemical_formula_structural   RbMoCl6
_chemical_formula_sum   'Rb2 Mo2 Cl12'
_cell_volume   480.84344214
_cell_formula_units_Z   2
loop_
 _symmetry_equiv_pos_site_id
 _symmetry_equiv_pos_as_xyz
  1  'x, y, z'
loop_
 _atom_site_type_symbol
 _atom_site_label
 _atom_site_symmetry_multiplicity
 _atom_site_fract_x
 _atom_site_fract_y
 _atom_site_fract_z
 _atom_site_occupancy
  Rb  Rb0  1  0.879330  0.120670  0.750000  1
  Rb  Rb1  1  0.120670  0.879330  0.250000  1
  Mo  Mo2  1  0.500000  0.000000  0.500000  1
  Mo  Mo3  1  0.000000  0.500000  0.000000  1
  Cl  Cl4  1  0.457334  0.703462  0.606400  1
  Cl  Cl5  1  0.703462  0.457334  0.106400  1
  Cl  Cl6  1  0.797618  0.630366  0.842836  1
  Cl  Cl7  1  0.542666  0.296538  0.393600  1
  Cl  Cl8  1  0.630366  0.797618  0.342836  1
  Cl  Cl9  1  0.202382  0.369634  0.157164  1
  Cl  Cl10  1  0.201424  0.111667  0.958253  1
  Cl  Cl11  1  0.111667  0.201424  0.458253  1
  Cl  Cl12  1  0.798576  0.888333  0.041747  1
  Cl  Cl13  1  0.369634  0.202382  0.657164  1
  Cl  Cl14  1  0.888333  0.798576  0.541747  1
  Cl  Cl15  1  0.296538  0.542666  0.893600  1
