# generated using pymatgen
data_Ti17V(ReSi8)2
_symmetry_space_group_name_H-M   'P 1'
_cell_length_a   6.63797197
_cell_length_b   6.63560655
_cell_length_c   12.13818977
_cell_angle_alpha   90.14749304
_cell_angle_beta   90.30379533
_cell_angle_gamma   89.98615000
_symmetry_Int_Tables_number   1
_chemical_formula_structural   Ti17V(ReSi8)2
_chemical_formula_sum   'Ti17 V1 Re2 Si16'
_cell_volume   534.64118338
_cell_formula_units_Z   1
loop_
 _symmetry_equiv_pos_site_id
 _symmetry_equiv_pos_as_xyz
  1  'x, y, z'
loop_
 _atom_site_type_symbol
 _atom_site_label
 _atom_site_symmetry_multiplicity
 _atom_site_fract_x
 _atom_site_fract_y
 _atom_site_fract_z
 _atom_site_occupancy
  Ti  Ti0  1  0.350226  0.496286  0.871310  1
  Ti  Ti1  1  0.653049  0.505435  0.371902  1
  Ti  Ti2  1  0.496519  0.349392  0.129672  1
  Ti  Ti3  1  0.501264  0.648627  0.626535  1
  Ti  Ti4  1  0.004805  0.849508  0.120752  1
  Ti  Ti5  1  0.149128  0.999237  0.376719  1
  Ti  Ti6  1  0.848866  0.004314  0.879360  1
  Ti  Ti7  1  0.000830  0.338733  0.223299  1
  Ti  Ti8  1  0.155891  0.504241  0.471441  1
  Ti  Ti9  1  0.838179  0.498235  0.971374  1
  Ti  Ti10  1  0.500787  0.158970  0.529085  1
  Ti  Ti11  1  0.500976  0.838606  0.026417  1
  Ti  Ti12  1  0.000143  0.658474  0.720866  1
  Ti  Ti13  1  0.344167  0.002748  0.778149  1
  Ti  Ti14  1  0.663790  0.001131  0.279136  1
  Ti  Ti15  1  0.668541  0.326725  0.750243  1
  Ti  Ti16  1  0.831550  0.830080  0.499564  1
  V  V17  1  0.992054  0.149398  0.623990  1
  Re  Re18  1  0.171719  0.169329  0.001399  1
  Re  Re19  1  0.328122  0.670919  0.248276  1
  Si  Si20  1  0.043288  0.299942  0.813615  1
  Si  Si21  1  0.197295  0.540568  0.063920  1
  Si  Si22  1  0.803123  0.454553  0.566110  1
  Si  Si23  1  0.540498  0.197453  0.935534  1
  Si  Si24  1  0.454910  0.802609  0.434940  1
  Si  Si25  1  0.960023  0.698118  0.314455  1
  Si  Si26  1  0.304627  0.041023  0.185544  1
  Si  Si27  1  0.700109  0.956245  0.684553  1
  Si  Si28  1  0.287704  0.357406  0.671753  1
  Si  Si29  1  0.141594  0.794788  0.921395  1
  Si  Si30  1  0.859387  0.206225  0.427376  1
  Si  Si31  1  0.794320  0.140916  0.077712  1
  Si  Si32  1  0.204574  0.866141  0.577313  1
  Si  Si33  1  0.705931  0.641792  0.172748  1
  Si  Si34  1  0.360265  0.296242  0.328859  1
  Si  Si35  1  0.641745  0.705588  0.824682  1
