# generated using pymatgen
data_Ba2Sb4IrPt
_symmetry_space_group_name_H-M   'P 1'
_cell_length_a   9.65142255
_cell_length_b   9.65142334
_cell_length_c   4.97470200
_cell_angle_alpha   90.00000000
_cell_angle_beta   90.00000000
_cell_angle_gamma   150.69123989
_symmetry_Int_Tables_number   1
_chemical_formula_structural   Ba2Sb4IrPt
_chemical_formula_sum   'Ba2 Sb4 Ir1 Pt1'
_cell_volume   226.83834031
_cell_formula_units_Z   1
loop_
 _symmetry_equiv_pos_site_id
 _symmetry_equiv_pos_as_xyz
  1  'x, y, z'
loop_
 _atom_site_type_symbol
 _atom_site_label
 _atom_site_symmetry_multiplicity
 _atom_site_fract_x
 _atom_site_fract_y
 _atom_site_fract_z
 _atom_site_occupancy
  Ba  Ba0  1  0.392560  0.607440  0.750000  1
  Ba  Ba1  1  0.606245  0.393755  0.250000  1
  Sb  Sb2  1  0.047340  0.952660  0.750000  1
  Sb  Sb3  1  0.956937  0.043063  0.250000  1
  Sb  Sb4  1  0.245593  0.754407  0.250000  1
  Sb  Sb5  1  0.750004  0.249996  0.750000  1
  Ir  Ir6  1  0.188054  0.811946  0.750000  1
  Pt  Pt7  1  0.813267  0.186733  0.250000  1
