# generated using pymatgen
data_Ce5Th3(Si3Pd)4
_symmetry_space_group_name_H-M   'P 1'
_cell_length_a   8.24776900
_cell_length_b   8.26238807
_cell_length_c   8.52259400
_cell_angle_alpha   90.00000000
_cell_angle_beta   90.00000000
_cell_angle_gamma   119.81593002
_symmetry_Int_Tables_number   1
_chemical_formula_structural   Ce5Th3(Si3Pd)4
_chemical_formula_sum   'Ce5 Th3 Si12 Pd4'
_cell_volume   503.90313387
_cell_formula_units_Z   1
loop_
 _symmetry_equiv_pos_site_id
 _symmetry_equiv_pos_as_xyz
  1  'x, y, z'
loop_
 _atom_site_type_symbol
 _atom_site_label
 _atom_site_symmetry_multiplicity
 _atom_site_fract_x
 _atom_site_fract_y
 _atom_site_fract_z
 _atom_site_occupancy
  Ce  Ce0  1  0.999707  0.499805  0.250000  1
  Ce  Ce1  1  0.499825  0.999720  0.750000  1
  Ce  Ce2  1  0.500198  0.000337  0.250000  1
  Ce  Ce3  1  0.000028  0.999970  0.750000  1
  Ce  Ce4  1  0.000020  0.000044  0.250000  1
  Th  Th5  1  0.499862  0.500115  0.750000  1
  Th  Th6  1  0.500091  0.499881  0.250000  1
  Th  Th7  1  0.000268  0.500146  0.750000  1
  Si  Si8  1  0.833587  0.164945  0.999428  1
  Si  Si9  1  0.166404  0.835032  0.000244  1
  Si  Si10  1  0.329757  0.163598  0.999824  1
  Si  Si11  1  0.166404  0.835032  0.499756  1
  Si  Si12  1  0.670249  0.836404  0.000466  1
  Si  Si13  1  0.833587  0.164945  0.500572  1
  Si  Si14  1  0.836569  0.672094  0.999835  1
  Si  Si15  1  0.670249  0.836404  0.499534  1
  Si  Si16  1  0.163422  0.327909  0.000378  1
  Si  Si17  1  0.329757  0.163598  0.500176  1
  Si  Si18  1  0.163422  0.327909  0.499622  1
  Si  Si19  1  0.836569  0.672094  0.500165  1
  Pd  Pd20  1  0.666331  0.335171  0.998333  1
  Pd  Pd21  1  0.333683  0.664839  0.998949  1
  Pd  Pd22  1  0.333683  0.664839  0.501051  1
  Pd  Pd23  1  0.666331  0.335171  0.501667  1
