# generated using pymatgen
data_K6Li4ZrSnSb6
_symmetry_space_group_name_H-M   'P 1'
_cell_length_a   10.91757665
_cell_length_b   10.91757367
_cell_length_c   16.32286700
_cell_angle_alpha   90.00000000
_cell_angle_beta   90.00000000
_cell_angle_gamma   143.06149477
_symmetry_Int_Tables_number   1
_chemical_formula_structural   K6Li4ZrSnSb6
_chemical_formula_sum   'K12 Li8 Zr2 Sn2 Sb12'
_cell_volume   1169.21018827
_cell_formula_units_Z   2
loop_
 _symmetry_equiv_pos_site_id
 _symmetry_equiv_pos_as_xyz
  1  'x, y, z'
loop_
 _atom_site_type_symbol
 _atom_site_label
 _atom_site_symmetry_multiplicity
 _atom_site_fract_x
 _atom_site_fract_y
 _atom_site_fract_z
 _atom_site_occupancy
  K  K0  1  0.601977  0.945307  0.830273  1
  K  K1  1  0.270849  0.275099  0.324365  1
  K  K2  1  0.229151  0.224901  0.824365  1
  K  K3  1  0.724901  0.729151  0.675635  1
  K  K4  1  0.445307  0.101977  0.669727  1
  K  K5  1  0.898023  0.554693  0.330273  1
  K  K6  1  0.054693  0.398023  0.169727  1
  K  K7  1  0.406903  0.069157  0.170666  1
  K  K8  1  0.569157  0.906903  0.329334  1
  K  K9  1  0.093097  0.430843  0.670666  1
  K  K10  1  0.930843  0.593097  0.829334  1
  K  K11  1  0.775099  0.770849  0.175635  1
  Li  Li12  1  0.086027  0.913973  0.000000  1
  Li  Li13  1  0.583689  0.416311  0.500000  1
  Li  Li14  1  0.916311  0.083689  0.000000  1
  Li  Li15  1  0.751733  0.248267  0.000000  1
  Li  Li16  1  0.748267  0.251733  0.500000  1
  Li  Li17  1  0.248094  0.751906  0.000000  1
  Li  Li18  1  0.251906  0.748094  0.500000  1
  Li  Li19  1  0.413973  0.586027  0.500000  1
  Zr  Zr20  1  0.084303  0.915697  0.500000  1
  Zr  Zr21  1  0.415697  0.584303  0.000000  1
  Sn  Sn22  1  0.913079  0.086921  0.500000  1
  Sn  Sn23  1  0.586921  0.413079  0.000000  1
  Sb  Sb24  1  0.078969  0.407684  0.398698  1
  Sb  Sb25  1  0.907684  0.578969  0.101302  1
  Sb  Sb26  1  0.421031  0.092316  0.898698  1
  Sb  Sb27  1  0.592316  0.921031  0.601302  1
  Sb  Sb28  1  0.929090  0.602303  0.597930  1
  Sb  Sb29  1  0.102303  0.429090  0.902070  1
  Sb  Sb30  1  0.570910  0.897697  0.097930  1
  Sb  Sb31  1  0.397697  0.070910  0.402070  1
  Sb  Sb32  1  0.239764  0.236443  0.598398  1
  Sb  Sb33  1  0.736443  0.739764  0.901602  1
  Sb  Sb34  1  0.260236  0.263557  0.098398  1
  Sb  Sb35  1  0.763557  0.760236  0.401602  1
