# generated using pymatgen
data_Pr5Sm3Sc12(SiGe)8
_symmetry_space_group_name_H-M   'P 1'
_cell_length_a   7.29089975
_cell_length_b   7.54388436
_cell_length_c   14.29906922
_cell_angle_alpha   89.96456318
_cell_angle_beta   90.05300290
_cell_angle_gamma   90.05913144
_symmetry_Int_Tables_number   1
_chemical_formula_structural   Pr5Sm3Sc12(SiGe)8
_chemical_formula_sum   'Pr5 Sm3 Sc12 Si8 Ge8'
_cell_volume   786.47227595
_cell_formula_units_Z   1
loop_
 _symmetry_equiv_pos_site_id
 _symmetry_equiv_pos_as_xyz
  1  'x, y, z'
loop_
 _atom_site_type_symbol
 _atom_site_label
 _atom_site_symmetry_multiplicity
 _atom_site_fract_x
 _atom_site_fract_y
 _atom_site_fract_z
 _atom_site_occupancy
  Pr  Pr0  1  0.006210  0.173579  0.099646  1
  Pr  Pr1  1  0.994061  0.826350  0.900210  1
  Pr  Pr2  1  0.493855  0.673306  0.900975  1
  Pr  Pr3  1  0.993348  0.825754  0.598021  1
  Pr  Pr4  1  0.506174  0.326520  0.099516  1
  Sm  Sm5  1  0.006912  0.175638  0.400444  1
  Sm  Sm6  1  0.506029  0.324575  0.400528  1
  Sm  Sm7  1  0.493432  0.674783  0.598971  1
  Sc  Sc8  1  0.165794  0.498132  0.749379  1
  Sc  Sc9  1  0.834241  0.501391  0.250856  1
  Sc  Sc10  1  0.334328  0.998516  0.250958  1
  Sc  Sc11  1  0.665430  0.002244  0.749436  1
  Sc  Sc12  1  0.337074  0.173590  0.626180  1
  Sc  Sc13  1  0.662972  0.826659  0.373889  1
  Sc  Sc14  1  0.163564  0.672419  0.374119  1
  Sc  Sc15  1  0.663485  0.827507  0.127571  1
  Sc  Sc16  1  0.836600  0.327245  0.625667  1
  Sc  Sc17  1  0.336883  0.172632  0.872758  1
  Sc  Sc18  1  0.836627  0.327335  0.872891  1
  Sc  Sc19  1  0.163244  0.672791  0.127574  1
  Si  Si20  1  0.039724  0.126366  0.749280  1
  Si  Si21  1  0.960641  0.875883  0.251464  1
  Si  Si22  1  0.460400  0.624011  0.251218  1
  Si  Si23  1  0.539622  0.375845  0.748782  1
  Si  Si24  1  0.295441  0.880498  0.748622  1
  Si  Si25  1  0.706993  0.120261  0.252426  1
  Si  Si26  1  0.206866  0.379723  0.252441  1
  Si  Si27  1  0.791652  0.618274  0.748441  1
  Ge  Ge28  1  0.168723  0.457811  0.540429  1
  Ge  Ge29  1  0.831264  0.538485  0.458165  1
  Ge  Ge30  1  0.334103  0.960298  0.458655  1
  Ge  Ge31  1  0.835349  0.541972  0.041275  1
  Ge  Ge32  1  0.664244  0.041611  0.540169  1
  Ge  Ge33  1  0.164484  0.458150  0.958864  1
  Ge  Ge34  1  0.665085  0.041668  0.958971  1
  Ge  Ge35  1  0.335146  0.958182  0.041210  1
