# generated using pymatgen
data_Ta2Ti4C5
_symmetry_space_group_name_H-M   'P 1'
_cell_length_a   5.36391917
_cell_length_b   5.36392029
_cell_length_c   5.37931882
_cell_angle_alpha   80.28395800
_cell_angle_beta   80.28394103
_cell_angle_gamma   119.54699111
_symmetry_Int_Tables_number   1
_chemical_formula_structural   Ta2Ti4C5
_chemical_formula_sum   'Ta2 Ti4 C5'
_cell_volume   126.85257659
_cell_formula_units_Z   1
loop_
 _symmetry_equiv_pos_site_id
 _symmetry_equiv_pos_as_xyz
  1  'x, y, z'
loop_
 _atom_site_type_symbol
 _atom_site_label
 _atom_site_symmetry_multiplicity
 _atom_site_fract_x
 _atom_site_fract_y
 _atom_site_fract_z
 _atom_site_occupancy
  Ta  Ta0  1  0.914194  0.565954  0.251182  1
  Ta  Ta1  1  0.434046  0.085806  0.748818  1
  Ti  Ti2  1  0.736866  0.738278  0.734984  1
  Ti  Ti3  1  0.261722  0.263134  0.265016  1
  Ti  Ti4  1  0.088235  0.438520  0.745422  1
  Ti  Ti5  1  0.561480  0.911765  0.254578  1
  C  C6  1  0.498216  0.501784  0.500000  1
  C  C7  1  0.668116  0.331884  0.000000  1
  C  C8  1  0.335787  0.664213  0.000000  1
  C  C9  1  0.834393  0.165607  0.500000  1
  C  C10  1  0.166947  0.833053  0.500000  1
