# generated using pymatgen
data_Dy2ZnP6Ir5Rh7
_symmetry_space_group_name_H-M   'P 1'
_cell_length_a   9.65385056
_cell_length_b   9.63256647
_cell_length_c   3.94362709
_cell_angle_alpha   89.97799940
_cell_angle_beta   90.00099936
_cell_angle_gamma   119.88079015
_symmetry_Int_Tables_number   1
_chemical_formula_structural   Dy2ZnP6Ir5Rh7
_chemical_formula_sum   'Dy2 Zn1 P6 Ir5 Rh7'
_cell_volume   317.97242366
_cell_formula_units_Z   1
loop_
 _symmetry_equiv_pos_site_id
 _symmetry_equiv_pos_as_xyz
  1  'x, y, z'
loop_
 _atom_site_type_symbol
 _atom_site_label
 _atom_site_symmetry_multiplicity
 _atom_site_fract_x
 _atom_site_fract_y
 _atom_site_fract_z
 _atom_site_occupancy
  Dy  Dy0  1  0.333443  0.666346  0.753140  1
  Dy  Dy1  1  0.665789  0.333416  0.246887  1
  Zn  Zn2  1  0.000401  0.000711  0.500055  1
  P  P3  1  0.403442  0.283924  0.749115  1
  P  P4  1  0.717160  0.120954  0.748363  1
  P  P5  1  0.879132  0.597196  0.748698  1
  P  P6  1  0.597262  0.715703  0.251194  1
  P  P7  1  0.282791  0.879476  0.251150  1
  P  P8  1  0.119567  0.401489  0.251506  1
  Ir  Ir9  1  0.454614  0.067871  0.749269  1
  Ir  Ir10  1  0.932711  0.387431  0.749011  1
  Ir  Ir11  1  0.612999  0.547995  0.749220  1
  Ir  Ir12  1  0.544615  0.930637  0.251095  1
  Ir  Ir13  1  0.068534  0.613219  0.250656  1
  Rh  Rh14  1  0.386795  0.452635  0.250799  1
  Rh  Rh15  1  0.160755  0.284671  0.753787  1
  Rh  Rh16  1  0.717058  0.878149  0.753627  1
  Rh  Rh17  1  0.123100  0.839323  0.753058  1
  Rh  Rh18  1  0.840630  0.716530  0.246508  1
  Rh  Rh19  1  0.283525  0.122038  0.246710  1
  Rh  Rh20  1  0.875676  0.160285  0.246153  1
