# generated using pymatgen
data_TbTmTc2F14
_symmetry_space_group_name_H-M   'P 1'
_cell_length_a   5.56489961
_cell_length_b   8.87626437
_cell_length_c   11.98345281
_cell_angle_alpha   62.55905005
_cell_angle_beta   90.08532021
_cell_angle_gamma   90.00390308
_symmetry_Int_Tables_number   1
_chemical_formula_structural   TbTmTc2F14
_chemical_formula_sum   'Tb2 Tm2 Tc4 F28'
_cell_volume   525.32803493
_cell_formula_units_Z   2
loop_
 _symmetry_equiv_pos_site_id
 _symmetry_equiv_pos_as_xyz
  1  'x, y, z'
loop_
 _atom_site_type_symbol
 _atom_site_label
 _atom_site_symmetry_multiplicity
 _atom_site_fract_x
 _atom_site_fract_y
 _atom_site_fract_z
 _atom_site_occupancy
  Tb  Tb0  1  0.758260  0.184482  0.235675  1
  Tb  Tb1  1  0.241740  0.815518  0.764325  1
  Tm  Tm2  1  0.259247  0.813353  0.264364  1
  Tm  Tm3  1  0.740753  0.186647  0.735636  1
  Tc  Tc4  1  0.758169  0.728469  0.044097  1
  Tc  Tc5  1  0.241831  0.271531  0.955903  1
  Tc  Tc6  1  0.258009  0.275423  0.457992  1
  Tc  Tc7  1  0.741991  0.724577  0.542008  1
  F  F8  1  0.944936  0.706757  0.415314  1
  F  F9  1  0.055064  0.293243  0.584686  1
  F  F10  1  0.443157  0.291671  0.082409  1
  F  F11  1  0.556843  0.708329  0.917591  1
  F  F12  1  0.472974  0.730518  0.139982  1
  F  F13  1  0.527026  0.269482  0.860018  1
  F  F14  1  0.973163  0.271677  0.362864  1
  F  F15  1  0.026837  0.728323  0.637136  1
  F  F16  1  0.957128  0.747404  0.173681  1
  F  F17  1  0.042872  0.252596  0.826319  1
  F  F18  1  0.453078  0.256574  0.327723  1
  F  F19  1  0.546922  0.743426  0.672277  1
  F  F20  1  0.772253  0.480360  0.141273  1
  F  F21  1  0.227747  0.519640  0.858727  1
  F  F22  1  0.272368  0.523765  0.359276  1
  F  F23  1  0.727632  0.476235  0.640724  1
  F  F24  1  0.946952  0.277687  0.044550  1
  F  F25  1  0.053048  0.722313  0.955450  1
  F  F26  1  0.444976  0.721982  0.452278  1
  F  F27  1  0.555024  0.278018  0.547722  1
  F  F28  1  0.741847  0.972112  0.446926  1
  F  F29  1  0.258153  0.027888  0.553074  1
  F  F30  1  0.241458  0.024266  0.053811  1
  F  F31  1  0.758542  0.975734  0.946189  1
  F  F32  1  0.578374  0.966744  0.231990  1
  F  F33  1  0.421626  0.033256  0.768010  1
  F  F34  1  0.085577  0.025444  0.268308  1
  F  F35  1  0.914423  0.974556  0.731692  1
