# generated using pymatgen
data_Sr4AlGaPt4
_symmetry_space_group_name_H-M   'P 1'
_cell_length_a   5.88327556
_cell_length_b   5.88327600
_cell_length_c   8.06233006
_cell_angle_alpha   80.13788903
_cell_angle_beta   80.13788645
_cell_angle_gamma   61.80926137
_symmetry_Int_Tables_number   1
_chemical_formula_structural   Sr4AlGaPt4
_chemical_formula_sum   'Sr4 Al1 Ga1 Pt4'
_cell_volume   241.00838782
_cell_formula_units_Z   1
loop_
 _symmetry_equiv_pos_site_id
 _symmetry_equiv_pos_as_xyz
  1  'x, y, z'
loop_
 _atom_site_type_symbol
 _atom_site_label
 _atom_site_symmetry_multiplicity
 _atom_site_fract_x
 _atom_site_fract_y
 _atom_site_fract_z
 _atom_site_occupancy
  Sr  Sr0  1  0.780640  0.519899  0.850299  1
  Sr  Sr1  1  0.480101  0.219360  0.649701  1
  Sr  Sr2  1  0.219282  0.481231  0.147516  1
  Sr  Sr3  1  0.518769  0.780718  0.352484  1
  Al  Al4  1  0.897188  0.102812  0.250000  1
  Ga  Ga5  1  0.114359  0.885641  0.750000  1
  Pt  Pt6  1  0.999597  0.742245  0.500078  1
  Pt  Pt7  1  0.257755  0.000403  0.999922  1
  Pt  Pt8  1  0.994007  0.261697  0.492816  1
  Pt  Pt9  1  0.738303  0.005993  0.007184  1
