# generated using pymatgen
data_Tb2ErTm5(SiBr6)2
_symmetry_space_group_name_H-M   'P 1'
_cell_length_a   4.01885700
_cell_length_b   13.14815405
_cell_length_c   13.88989724
_cell_angle_alpha   90.39242946
_cell_angle_beta   90.00000000
_cell_angle_gamma   90.00000000
_symmetry_Int_Tables_number   1
_chemical_formula_structural   Tb2ErTm5(SiBr6)2
_chemical_formula_sum   'Tb2 Er1 Tm5 Si2 Br12'
_cell_volume   733.93260713
_cell_formula_units_Z   1
loop_
 _symmetry_equiv_pos_site_id
 _symmetry_equiv_pos_as_xyz
  1  'x, y, z'
loop_
 _atom_site_type_symbol
 _atom_site_label
 _atom_site_symmetry_multiplicity
 _atom_site_fract_x
 _atom_site_fract_y
 _atom_site_fract_z
 _atom_site_occupancy
  Tb  Tb0  1  0.000000  0.619121  0.920634  1
  Tb  Tb1  1  0.000000  0.380887  0.079361  1
  Er  Er2  1  0.000000  0.116664  0.577948  1
  Tm  Tm3  1  0.500000  0.117118  0.342533  1
  Tm  Tm4  1  0.500000  0.882848  0.657440  1
  Tm  Tm5  1  0.500000  0.618063  0.158522  1
  Tm  Tm6  1  0.500000  0.381928  0.841465  1
  Tm  Tm7  1  0.000000  0.883393  0.422124  1
  Si  Si8  1  0.500000  0.999551  0.499700  1
  Si  Si9  1  0.500000  0.499997  0.999998  1
  Br  Br10  1  0.500000  0.240639  0.166563  1
  Br  Br11  1  0.500000  0.759357  0.833421  1
  Br  Br12  1  0.500000  0.747208  0.336910  1
  Br  Br13  1  0.500000  0.253351  0.663454  1
  Br  Br14  1  0.000000  0.254008  0.411865  1
  Br  Br15  1  0.000000  0.746114  0.587796  1
  Br  Br16  1  0.000000  0.755464  0.092866  1
  Br  Br17  1  0.000000  0.244569  0.907151  1
  Br  Br18  1  0.000000  0.001827  0.244360  1
  Br  Br19  1  0.000000  0.997871  0.755886  1
  Br  Br20  1  0.000000  0.506573  0.258923  1
  Br  Br21  1  0.000000  0.493450  0.741079  1
