# generated using pymatgen
data_UV2(NiP)3
_symmetry_space_group_name_H-M   'P 1'
_cell_length_a   3.60625300
_cell_length_b   7.15606791
_cell_length_c   9.44750073
_cell_angle_alpha   79.49111089
_cell_angle_beta   90.00000000
_cell_angle_gamma   90.00000000
_symmetry_Int_Tables_number   1
_chemical_formula_structural   UV2(NiP)3
_chemical_formula_sum   'U2 V4 Ni6 P6'
_cell_volume   239.71831080
_cell_formula_units_Z   2
loop_
 _symmetry_equiv_pos_site_id
 _symmetry_equiv_pos_as_xyz
  1  'x, y, z'
loop_
 _atom_site_type_symbol
 _atom_site_label
 _atom_site_symmetry_multiplicity
 _atom_site_fract_x
 _atom_site_fract_y
 _atom_site_fract_z
 _atom_site_occupancy
  U  U0  1  0.250000  0.801651  0.784858  1
  U  U1  1  0.750000  0.198349  0.215142  1
  V  V2  1  0.250000  0.128490  0.489274  1
  V  V3  1  0.750000  0.871510  0.510726  1
  V  V4  1  0.250000  0.316991  0.725896  1
  V  V5  1  0.750000  0.683009  0.274104  1
  Ni  Ni6  1  0.250000  0.544403  0.087343  1
  Ni  Ni7  1  0.750000  0.455597  0.912657  1
  Ni  Ni8  1  0.250000  0.914084  0.089769  1
  Ni  Ni9  1  0.750000  0.085916  0.910231  1
  Ni  Ni10  1  0.250000  0.618779  0.502491  1
  Ni  Ni11  1  0.750000  0.381221  0.497509  1
  P  P12  1  0.250000  0.254372  0.981257  1
  P  P13  1  0.750000  0.745628  0.018743  1
  P  P14  1  0.250000  0.438564  0.330076  1
  P  P15  1  0.750000  0.561436  0.669924  1
  P  P16  1  0.250000  0.900963  0.333472  1
  P  P17  1  0.750000  0.099037  0.666528  1
