# generated using pymatgen
data_Tb3Er4Lu3(In2Pt)4
_symmetry_space_group_name_H-M   'P 1'
_cell_length_a   3.60916600
_cell_length_b   8.11779342
_cell_length_c   18.10105759
_cell_angle_alpha   89.83942317
_cell_angle_beta   90.00000000
_cell_angle_gamma   90.00000000
_symmetry_Int_Tables_number   1
_chemical_formula_structural   Tb3Er4Lu3(In2Pt)4
_chemical_formula_sum   'Tb3 Er4 Lu3 In8 Pt4'
_cell_volume   530.33110156
_cell_formula_units_Z   1
loop_
 _symmetry_equiv_pos_site_id
 _symmetry_equiv_pos_as_xyz
  1  'x, y, z'
loop_
 _atom_site_type_symbol
 _atom_site_label
 _atom_site_symmetry_multiplicity
 _atom_site_fract_x
 _atom_site_fract_y
 _atom_site_fract_z
 _atom_site_occupancy
  Tb  Tb0  1  0.000000  0.740846  0.282385  1
  Tb  Tb1  1  0.000000  0.999329  0.999253  1
  Tb  Tb2  1  0.000000  0.499821  0.500499  1
  Er  Er3  1  0.000000  0.617380  0.085262  1
  Er  Er4  1  0.000000  0.242722  0.219709  1
  Er  Er5  1  0.000000  0.759023  0.780771  1
  Er  Er6  1  0.000000  0.258674  0.717891  1
  Lu  Lu7  1  0.000000  0.116295  0.414158  1
  Lu  Lu8  1  0.000000  0.883210  0.586163  1
  Lu  Lu9  1  0.000000  0.382990  0.913083  1
  In  In10  1  0.500000  0.417637  0.351240  1
  In  In11  1  0.500000  0.581563  0.649972  1
  In  In12  1  0.500000  0.080994  0.849290  1
  In  In13  1  0.500000  0.922603  0.150284  1
  In  In14  1  0.500000  0.295244  0.064803  1
  In  In15  1  0.500000  0.702919  0.933712  1
  In  In16  1  0.500000  0.201687  0.564109  1
  In  In17  1  0.500000  0.797703  0.436692  1
  Pt  Pt18  1  0.500000  0.027412  0.305557  1
  Pt  Pt19  1  0.500000  0.974532  0.694807  1
  Pt  Pt20  1  0.500000  0.473499  0.804103  1
  Pt  Pt21  1  0.500000  0.523916  0.196252  1
