# generated using pymatgen
data_Ca3TbY2(Si3Os)8
_symmetry_space_group_name_H-M   'P 1'
_cell_length_a   10.17017947
_cell_length_b   10.17018019
_cell_length_c   8.18174300
_cell_angle_alpha   90.01738561
_cell_angle_beta   90.01739124
_cell_angle_gamma   132.56317597
_symmetry_Int_Tables_number   1
_chemical_formula_structural   Ca3TbY2(Si3Os)8
_chemical_formula_sum   'Ca3 Tb1 Y2 Si24 Os8'
_cell_volume   623.29633508
_cell_formula_units_Z   1
loop_
 _symmetry_equiv_pos_site_id
 _symmetry_equiv_pos_as_xyz
  1  'x, y, z'
loop_
 _atom_site_type_symbol
 _atom_site_label
 _atom_site_symmetry_multiplicity
 _atom_site_fract_x
 _atom_site_fract_y
 _atom_site_fract_z
 _atom_site_occupancy
  Ca  Ca0  1  0.499488  0.999694  0.750240  1
  Ca  Ca1  1  0.000306  0.500512  0.249760  1
  Ca  Ca2  1  0.999912  0.000088  0.000000  1
  Tb  Tb3  1  0.499515  0.999473  0.249847  1
  Y  Y4  1  0.000527  0.500485  0.750153  1
  Y  Y5  1  0.500021  0.499979  0.500000  1
  Si  Si6  1  0.795183  0.204817  0.500000  1
  Si  Si7  1  0.704486  0.295514  0.000000  1
  Si  Si8  1  0.205419  0.794581  0.500000  1
  Si  Si9  1  0.294892  0.705108  0.000000  1
  Si  Si10  1  0.664315  0.671857  0.166088  1
  Si  Si11  1  0.169438  0.161281  0.331061  1
  Si  Si12  1  0.838719  0.830562  0.668939  1
  Si  Si13  1  0.328143  0.335685  0.833912  1
  Si  Si14  1  0.846695  0.613994  0.992200  1
  Si  Si15  1  0.111315  0.345066  0.506909  1
  Si  Si16  1  0.654934  0.888685  0.493091  1
  Si  Si17  1  0.386006  0.153305  0.007800  1
  Si  Si18  1  0.153559  0.387153  0.005685  1
  Si  Si19  1  0.889613  0.655322  0.495944  1
  Si  Si20  1  0.122312  0.888977  0.729517  1
  Si  Si21  1  0.388922  0.622896  0.771978  1
  Si  Si22  1  0.377104  0.611078  0.228022  1
  Si  Si23  1  0.111023  0.877688  0.270483  1
  Si  Si24  1  0.876045  0.109149  0.270354  1
  Si  Si25  1  0.609373  0.375392  0.228199  1
  Si  Si26  1  0.624608  0.390627  0.771801  1
  Si  Si27  1  0.890851  0.123955  0.729646  1
  Si  Si28  1  0.612847  0.846441  0.994315  1
  Si  Si29  1  0.344678  0.110387  0.504056  1
  Os  Os30  1  0.625826  0.624650  0.872314  1
  Os  Os31  1  0.127677  0.129198  0.624667  1
  Os  Os32  1  0.375350  0.374174  0.127686  1
  Os  Os33  1  0.870802  0.872323  0.375333  1
  Os  Os34  1  0.169806  0.830194  0.000000  1
  Os  Os35  1  0.331196  0.668804  0.500000  1
  Os  Os36  1  0.829198  0.170802  0.000000  1
  Os  Os37  1  0.669900  0.330100  0.500000  1
