# generated using pymatgen
data_Tm2LuPuB16
_symmetry_space_group_name_H-M   'P 1'
_cell_length_a   7.06176101
_cell_length_b   7.06243249
_cell_length_c   3.98962100
_cell_angle_alpha   90.00000000
_cell_angle_beta   90.00000000
_cell_angle_gamma   90.46519065
_symmetry_Int_Tables_number   1
_chemical_formula_structural   Tm2LuPuB16
_chemical_formula_sum   'Tm2 Lu1 Pu1 B16'
_cell_volume   198.96864943
_cell_formula_units_Z   1
loop_
 _symmetry_equiv_pos_site_id
 _symmetry_equiv_pos_as_xyz
  1  'x, y, z'
loop_
 _atom_site_type_symbol
 _atom_site_label
 _atom_site_symmetry_multiplicity
 _atom_site_fract_x
 _atom_site_fract_y
 _atom_site_fract_z
 _atom_site_occupancy
  Tm  Tm0  1  0.183061  0.683054  0.000000  1
  Tm  Tm1  1  0.682759  0.817884  0.000000  1
  Lu  Lu2  1  0.317957  0.182694  0.000000  1
  Pu  Pu3  1  0.814285  0.314252  0.000000  1
  B  B4  1  0.322112  0.462357  0.500000  1
  B  B5  1  0.676667  0.539101  0.500000  1
  B  B6  1  0.537113  0.323715  0.500000  1
  B  B7  1  0.460876  0.677550  0.500000  1
  B  B8  1  0.001964  0.998462  0.201688  1
  B  B9  1  0.498144  0.501516  0.798304  1
  B  B10  1  0.001964  0.998462  0.798312  1
  B  B11  1  0.498144  0.501516  0.201696  1
  B  B12  1  0.587689  0.087991  0.500000  1
  B  B13  1  0.086011  0.414027  0.500000  1
  B  B14  1  0.914020  0.585989  0.500000  1
  B  B15  1  0.413350  0.913665  0.500000  1
  B  B16  1  0.039455  0.176844  0.500000  1
  B  B17  1  0.177790  0.961198  0.500000  1
  B  B18  1  0.823964  0.037427  0.500000  1
  B  B19  1  0.962676  0.822295  0.500000  1
