# generated using pymatgen
data_La5Yb3(CdRu)2
_symmetry_space_group_name_H-M   'P 1'
_cell_length_a   10.03357042
_cell_length_b   10.03357057
_cell_length_c   10.03357100
_cell_angle_alpha   60.00000187
_cell_angle_beta   60.00000140
_cell_angle_gamma   59.99999760
_symmetry_Int_Tables_number   1
_chemical_formula_structural   La5Yb3(CdRu)2
_chemical_formula_sum   'La10 Yb6 Cd4 Ru4'
_cell_volume   714.25213277
_cell_formula_units_Z   2
loop_
 _symmetry_equiv_pos_site_id
 _symmetry_equiv_pos_as_xyz
  1  'x, y, z'
loop_
 _atom_site_type_symbol
 _atom_site_label
 _atom_site_symmetry_multiplicity
 _atom_site_fract_x
 _atom_site_fract_y
 _atom_site_fract_z
 _atom_site_occupancy
  La  La0  1  0.189750  0.810250  0.810250  1
  La  La1  1  0.810251  0.189750  0.189750  1
  La  La2  1  0.810250  0.189750  0.810250  1
  La  La3  1  0.810250  0.810250  0.189750  1
  La  La4  1  0.189750  0.810251  0.189750  1
  La  La5  1  0.189750  0.189750  0.810251  1
  La  La6  1  0.654552  0.654552  0.654552  1
  La  La7  1  0.654552  0.654552  0.036345  1
  La  La8  1  0.036345  0.654552  0.654552  1
  La  La9  1  0.654552  0.036345  0.654552  1
  Yb  Yb10  1  0.059396  0.440603  0.440603  1
  Yb  Yb11  1  0.440603  0.059396  0.059396  1
  Yb  Yb12  1  0.440603  0.059396  0.440603  1
  Yb  Yb13  1  0.440603  0.440603  0.059396  1
  Yb  Yb14  1  0.059396  0.440603  0.059396  1
  Yb  Yb15  1  0.059396  0.059396  0.440603  1
  Cd  Cd16  1  0.420073  0.420073  0.420073  1
  Cd  Cd17  1  0.420073  0.420073  0.739780  1
  Cd  Cd18  1  0.739780  0.420073  0.420073  1
  Cd  Cd19  1  0.420073  0.739780  0.420073  1
  Ru  Ru20  1  0.865367  0.865367  0.865367  1
  Ru  Ru21  1  0.865367  0.865367  0.403901  1
  Ru  Ru22  1  0.403901  0.865367  0.865367  1
  Ru  Ru23  1  0.865367  0.403901  0.865367  1
