# generated using pymatgen
data_GdSc2(H6Ru)2
_symmetry_space_group_name_H-M   'P 1'
_cell_length_a   4.58762000
_cell_length_b   4.58762047
_cell_length_c   7.97972100
_cell_angle_alpha   90.00000000
_cell_angle_beta   90.00000000
_cell_angle_gamma   119.99999665
_symmetry_Int_Tables_number   1
_chemical_formula_structural   GdSc2(H6Ru)2
_chemical_formula_sum   'Gd1 Sc2 H12 Ru2'
_cell_volume   145.44315014
_cell_formula_units_Z   1
loop_
 _symmetry_equiv_pos_site_id
 _symmetry_equiv_pos_as_xyz
  1  'x, y, z'
loop_
 _atom_site_type_symbol
 _atom_site_label
 _atom_site_symmetry_multiplicity
 _atom_site_fract_x
 _atom_site_fract_y
 _atom_site_fract_z
 _atom_site_occupancy
  Gd  Gd0  1  0.000000  0.000000  0.000000  1
  Sc  Sc1  1  0.666667  0.333333  0.366228  1
  Sc  Sc2  1  0.333333  0.666667  0.633772  1
  H  H3  1  0.160323  0.839677  0.389054  1
  H  H4  1  0.679357  0.839677  0.389054  1
  H  H5  1  0.160323  0.320643  0.389054  1
  H  H6  1  0.839677  0.160323  0.610946  1
  H  H7  1  0.320643  0.160323  0.610946  1
  H  H8  1  0.839677  0.679357  0.610946  1
  H  H9  1  0.492034  0.984066  0.862220  1
  H  H10  1  0.492034  0.507966  0.862220  1
  H  H11  1  0.015934  0.507966  0.862220  1
  H  H12  1  0.507966  0.015934  0.137780  1
  H  H13  1  0.507966  0.492034  0.137780  1
  H  H14  1  0.984066  0.492034  0.137780  1
  Ru  Ru15  1  0.666667  0.333333  0.736115  1
  Ru  Ru16  1  0.333333  0.666667  0.263885  1
