# generated using pymatgen
data_RbNa2Nb8Tl5(P2O17)2
_symmetry_space_group_name_H-M   'P 1'
_cell_length_a   11.93337000
_cell_length_b   11.93336973
_cell_length_c   7.47781500
_cell_angle_alpha   90.00000000
_cell_angle_beta   90.00000000
_cell_angle_gamma   130.05342638
_symmetry_Int_Tables_number   1
_chemical_formula_structural   RbNa2Nb8Tl5(P2O17)2
_chemical_formula_sum   'Rb1 Na2 Nb8 Tl5 P4 O34'
_cell_volume   815.10725403
_cell_formula_units_Z   1
loop_
 _symmetry_equiv_pos_site_id
 _symmetry_equiv_pos_as_xyz
  1  'x, y, z'
loop_
 _atom_site_type_symbol
 _atom_site_label
 _atom_site_symmetry_multiplicity
 _atom_site_fract_x
 _atom_site_fract_y
 _atom_site_fract_z
 _atom_site_occupancy
  Rb  Rb0  1  0.722510  0.320117  0.750000  1
  Na  Na1  1  0.632333  0.632185  0.999690  1
  Na  Na2  1  0.632333  0.632185  0.500310  1
  Nb  Nb3  1  0.038449  0.345758  0.499230  1
  Nb  Nb4  1  0.146781  0.673854  0.750000  1
  Nb  Nb5  1  0.038449  0.345758  0.000770  1
  Nb  Nb6  1  0.001263  0.001098  0.500065  1
  Nb  Nb7  1  0.345982  0.038442  0.999295  1
  Nb  Nb8  1  0.001263  0.001098  0.999935  1
  Nb  Nb9  1  0.345982  0.038442  0.500705  1
  Nb  Nb10  1  0.673072  0.146556  0.250000  1
  Tl  Tl11  1  0.965145  0.688452  0.250000  1
  Tl  Tl12  1  0.318129  0.713094  0.250000  1
  Tl  Tl13  1  0.310712  0.366890  0.250000  1
  Tl  Tl14  1  0.367497  0.310801  0.750000  1
  Tl  Tl15  1  0.687709  0.962758  0.750000  1
  P  P16  1  0.580814  0.351438  0.250000  1
  P  P17  1  0.861761  0.687258  0.750000  1
  P  P18  1  0.351476  0.581159  0.750000  1
  P  P19  1  0.686665  0.861809  0.250000  1
  O  O20  1  0.413335  0.113878  0.750000  1
  O  O21  1  0.513647  0.654080  0.750000  1
  O  O22  1  0.776553  0.899279  0.424144  1
  O  O23  1  0.190602  0.060813  0.958736  1
  O  O24  1  0.529800  0.074132  0.061633  1
  O  O25  1  0.190602  0.060813  0.541264  1
  O  O26  1  0.943790  0.000699  0.750000  1
  O  O27  1  0.485033  0.272549  0.079302  1
  O  O28  1  0.529800  0.074132  0.438367  1
  O  O29  1  0.776553  0.899279  0.075856  1
  O  O30  1  0.990682  0.285083  0.750000  1
  O  O31  1  0.116728  0.417188  0.250000  1
  O  O32  1  0.072970  0.528855  0.937364  1
  O  O33  1  0.840131  0.236324  0.067415  1
  O  O34  1  0.000378  0.944147  0.250000  1
  O  O35  1  0.272607  0.485039  0.579452  1
  O  O36  1  0.549933  0.700006  0.250000  1
  O  O37  1  0.060300  0.190764  0.458211  1
  O  O38  1  0.900542  0.777788  0.575756  1
  O  O39  1  0.900542  0.777788  0.924244  1
  O  O40  1  0.639391  0.957572  0.250000  1
  O  O41  1  0.336068  0.703688  0.750000  1
  O  O42  1  0.699980  0.552483  0.750000  1
  O  O43  1  0.284607  0.991353  0.250000  1
  O  O44  1  0.235626  0.839874  0.932422  1
  O  O45  1  0.060300  0.190764  0.041789  1
  O  O46  1  0.653418  0.513507  0.250000  1
  O  O47  1  0.485033  0.272549  0.420698  1
  O  O48  1  0.235626  0.839874  0.567578  1
  O  O49  1  0.840131  0.236324  0.432585  1
  O  O50  1  0.072970  0.528855  0.562636  1
  O  O51  1  0.956684  0.638929  0.750000  1
  O  O52  1  0.272607  0.485039  0.920548  1
  O  O53  1  0.703689  0.336387  0.250000  1
