# generated using pymatgen
data_Pr3NdFe2(CoO6)2
_symmetry_space_group_name_H-M   'P 1'
_cell_length_a   5.46595725
_cell_length_b   5.54777422
_cell_length_c   7.74504721
_cell_angle_alpha   89.98997200
_cell_angle_beta   90.26867758
_cell_angle_gamma   90.10188731
_symmetry_Int_Tables_number   1
_chemical_formula_structural   Pr3NdFe2(CoO6)2
_chemical_formula_sum   'Pr3 Nd1 Fe2 Co2 O12'
_cell_volume   234.85705503
_cell_formula_units_Z   1
loop_
 _symmetry_equiv_pos_site_id
 _symmetry_equiv_pos_as_xyz
  1  'x, y, z'
loop_
 _atom_site_type_symbol
 _atom_site_label
 _atom_site_symmetry_multiplicity
 _atom_site_fract_x
 _atom_site_fract_y
 _atom_site_fract_z
 _atom_site_occupancy
  Pr  Pr0  1  0.010312  0.954834  0.749465  1
  Pr  Pr1  1  0.489235  0.454486  0.750532  1
  Pr  Pr2  1  0.510329  0.545427  0.249453  1
  Nd  Nd3  1  0.989160  0.047882  0.250574  1
  Fe  Fe4  1  0.500143  0.000033  0.499343  1
  Fe  Fe5  1  0.000106  0.500421  0.000477  1
  Co  Co6  1  0.000193  0.500084  0.499442  1
  Co  Co7  1  0.499809  0.999939  0.000697  1
  O  O8  1  0.718154  0.289807  0.457827  1
  O  O9  1  0.784383  0.792626  0.043095  1
  O  O10  1  0.207815  0.216596  0.540907  1
  O  O11  1  0.292333  0.716221  0.958459  1
  O  O12  1  0.283389  0.708730  0.541087  1
  O  O13  1  0.217137  0.208841  0.959551  1
  O  O14  1  0.793561  0.785013  0.456455  1
  O  O15  1  0.709136  0.282326  0.042640  1
  O  O16  1  0.076796  0.481174  0.254173  1
  O  O17  1  0.418478  0.984693  0.245747  1
  O  O18  1  0.576702  0.015313  0.754113  1
  O  O19  1  0.922832  0.515556  0.745963  1
