# generated using pymatgen
data_Hf4CuAsRh10
_symmetry_space_group_name_H-M   'P 1'
_cell_length_a   4.03822300
_cell_length_b   5.54066426
_cell_length_c   11.00141783
_cell_angle_alpha   88.37324887
_cell_angle_beta   90.00000000
_cell_angle_gamma   90.00000000
_symmetry_Int_Tables_number   1
_chemical_formula_structural   Hf4CuAsRh10
_chemical_formula_sum   'Hf4 Cu1 As1 Rh10'
_cell_volume   246.05133320
_cell_formula_units_Z   1
loop_
 _symmetry_equiv_pos_site_id
 _symmetry_equiv_pos_as_xyz
  1  'x, y, z'
loop_
 _atom_site_type_symbol
 _atom_site_label
 _atom_site_symmetry_multiplicity
 _atom_site_fract_x
 _atom_site_fract_y
 _atom_site_fract_z
 _atom_site_occupancy
  Hf  Hf0  1  0.500000  0.289487  0.370419  1
  Hf  Hf1  1  0.500000  0.710513  0.629581  1
  Hf  Hf2  1  0.500000  0.185441  0.857936  1
  Hf  Hf3  1  0.500000  0.814559  0.142064  1
  Cu  Cu4  1  0.000000  0.000000  0.500000  1
  As  As5  1  0.000000  0.500000  0.000000  1
  Rh  Rh6  1  0.500000  0.308326  0.107272  1
  Rh  Rh7  1  0.500000  0.691674  0.892728  1
  Rh  Rh8  1  0.500000  0.786740  0.383266  1
  Rh  Rh9  1  0.500000  0.213260  0.616734  1
  Rh  Rh10  1  0.000000  0.947418  0.747843  1
  Rh  Rh11  1  0.000000  0.052582  0.252157  1
  Rh  Rh12  1  0.000000  0.450911  0.754701  1
  Rh  Rh13  1  0.000000  0.549089  0.245299  1
  Rh  Rh14  1  0.000000  0.500000  0.500000  1
  Rh  Rh15  1  0.000000  0.000000  0.000000  1
