# generated using pymatgen
data_NdThNi2(SnH2)2
_symmetry_space_group_name_H-M   'P 1'
_cell_length_a   4.40218700
_cell_length_b   4.40218521
_cell_length_c   8.44252400
_cell_angle_alpha   90.00000000
_cell_angle_beta   90.00000000
_cell_angle_gamma   120.00000591
_symmetry_Int_Tables_number   1
_chemical_formula_structural   NdThNi2(SnH2)2
_chemical_formula_sum   'Nd1 Th1 Ni2 Sn2 H4'
_cell_volume   141.69016544
_cell_formula_units_Z   1
loop_
 _symmetry_equiv_pos_site_id
 _symmetry_equiv_pos_as_xyz
  1  'x, y, z'
loop_
 _atom_site_type_symbol
 _atom_site_label
 _atom_site_symmetry_multiplicity
 _atom_site_fract_x
 _atom_site_fract_y
 _atom_site_fract_z
 _atom_site_occupancy
  Nd  Nd0  1  0.000000  0.000000  0.500000  1
  Th  Th1  1  0.000000  0.000000  0.000000  1
  Ni  Ni2  1  0.666667  0.333333  0.753801  1
  Ni  Ni3  1  0.333333  0.666667  0.246199  1
  Sn  Sn4  1  0.333333  0.666667  0.747416  1
  Sn  Sn5  1  0.666667  0.333333  0.252584  1
  H  H6  1  0.333333  0.666667  0.436864  1
  H  H7  1  0.666667  0.333333  0.563136  1
  H  H8  1  0.333333  0.666667  0.054524  1
  H  H9  1  0.666667  0.333333  0.945476  1
