# generated using pymatgen
data_Pr3Si2IrRh2
_symmetry_space_group_name_H-M   'P 1'
_cell_length_a   5.75681800
_cell_length_b   7.84034400
_cell_length_c   14.98646000
_cell_angle_alpha   90.00000000
_cell_angle_beta   90.00000000
_cell_angle_gamma   90.00000000
_symmetry_Int_Tables_number   1
_chemical_formula_structural   Pr3Si2IrRh2
_chemical_formula_sum   'Pr12 Si8 Ir4 Rh8'
_cell_volume   676.42036821
_cell_formula_units_Z   4
loop_
 _symmetry_equiv_pos_site_id
 _symmetry_equiv_pos_as_xyz
  1  'x, y, z'
loop_
 _atom_site_type_symbol
 _atom_site_label
 _atom_site_symmetry_multiplicity
 _atom_site_fract_x
 _atom_site_fract_y
 _atom_site_fract_z
 _atom_site_occupancy
  Pr  Pr0  1  0.137248  0.473799  0.890295  1
  Pr  Pr1  1  0.362752  0.973799  0.890295  1
  Pr  Pr2  1  0.603967  0.331936  0.750000  1
  Pr  Pr3  1  0.396033  0.668064  0.250000  1
  Pr  Pr4  1  0.637248  0.026201  0.390295  1
  Pr  Pr5  1  0.862752  0.526201  0.109705  1
  Pr  Pr6  1  0.862752  0.526201  0.390295  1
  Pr  Pr7  1  0.362752  0.973799  0.609705  1
  Pr  Pr8  1  0.896033  0.831936  0.750000  1
  Pr  Pr9  1  0.137248  0.473799  0.609705  1
  Pr  Pr10  1  0.637248  0.026201  0.109705  1
  Pr  Pr11  1  0.103967  0.168064  0.250000  1
  Si  Si12  1  0.371093  0.371749  0.098286  1
  Si  Si13  1  0.628907  0.628251  0.901714  1
  Si  Si14  1  0.871093  0.128251  0.901714  1
  Si  Si15  1  0.371093  0.371749  0.401714  1
  Si  Si16  1  0.871093  0.128251  0.598286  1
  Si  Si17  1  0.628907  0.628251  0.598286  1
  Si  Si18  1  0.128907  0.871749  0.401714  1
  Si  Si19  1  0.128907  0.871749  0.098286  1
  Ir  Ir20  1  0.572874  0.320819  0.250000  1
  Ir  Ir21  1  0.072874  0.179181  0.750000  1
  Ir  Ir22  1  0.427126  0.679181  0.750000  1
  Ir  Ir23  1  0.927126  0.820819  0.250000  1
  Rh  Rh24  1  0.607270  0.340404  0.962305  1
  Rh  Rh25  1  0.392730  0.659596  0.037695  1
  Rh  Rh26  1  0.392730  0.659596  0.462305  1
  Rh  Rh27  1  0.107270  0.159596  0.462305  1
  Rh  Rh28  1  0.107270  0.159596  0.037695  1
  Rh  Rh29  1  0.607270  0.340404  0.537695  1
  Rh  Rh30  1  0.892730  0.840404  0.537695  1
  Rh  Rh31  1  0.892730  0.840404  0.962305  1
