# generated using pymatgen
data_NdHo13(Th3Pb8)2
_symmetry_space_group_name_H-M   'P 1'
_cell_length_a   8.27055521
_cell_length_b   8.32191180
_cell_length_c   15.71414991
_cell_angle_alpha   90.06988166
_cell_angle_beta   90.48411835
_cell_angle_gamma   89.89423468
_symmetry_Int_Tables_number   1
_chemical_formula_structural   NdHo13(Th3Pb8)2
_chemical_formula_sum   'Nd1 Ho13 Th6 Pb16'
_cell_volume   1081.51390491
_cell_formula_units_Z   1
loop_
 _symmetry_equiv_pos_site_id
 _symmetry_equiv_pos_as_xyz
  1  'x, y, z'
loop_
 _atom_site_type_symbol
 _atom_site_label
 _atom_site_symmetry_multiplicity
 _atom_site_fract_x
 _atom_site_fract_y
 _atom_site_fract_z
 _atom_site_occupancy
  Nd  Nd0  1  0.970535  0.824454  0.598611  1
  Ho  Ho1  1  0.631496  0.158828  0.623271  1
  Ho  Ho2  1  0.136004  0.342051  0.876669  1
  Ho  Ho3  1  0.365709  0.839704  0.122592  1
  Ho  Ho4  1  0.869496  0.659838  0.378101  1
  Ho  Ho5  1  0.369464  0.840295  0.378392  1
  Ho  Ho6  1  0.865407  0.659878  0.122469  1
  Ho  Ho7  1  0.634692  0.157596  0.875877  1
  Ho  Ho8  1  0.130648  0.341110  0.623162  1
  Ho  Ho9  1  0.465548  0.672023  0.601121  1
  Ho  Ho10  1  0.800504  0.498998  0.749509  1
  Ho  Ho11  1  0.300572  0.000750  0.749138  1
  Ho  Ho12  1  0.199102  0.500100  0.250301  1
  Ho  Ho13  1  0.699473  0.000343  0.249673  1
  Th  Th14  1  0.973447  0.821593  0.902441  1
  Th  Th15  1  0.526400  0.322510  0.096442  1
  Th  Th16  1  0.030383  0.178019  0.402264  1
  Th  Th17  1  0.529071  0.323002  0.402330  1
  Th  Th18  1  0.026397  0.177042  0.096431  1
  Th  Th19  1  0.475355  0.678744  0.904161  1
  Pb  Pb20  1  0.711081  0.965986  0.454727  1
  Pb  Pb21  1  0.206665  0.538590  0.043538  1
  Pb  Pb22  1  0.293498  0.038771  0.956657  1
  Pb  Pb23  1  0.785463  0.465074  0.544081  1
  Pb  Pb24  1  0.292355  0.037005  0.543505  1
  Pb  Pb25  1  0.794188  0.459554  0.956784  1
  Pb  Pb26  1  0.706674  0.961392  0.043031  1
  Pb  Pb27  1  0.213044  0.538170  0.457201  1
  Pb  Pb28  1  0.437763  0.372674  0.750474  1
  Pb  Pb29  1  0.937394  0.128150  0.750998  1
  Pb  Pb30  1  0.562763  0.628481  0.250454  1
  Pb  Pb31  1  0.062799  0.871743  0.250303  1
  Pb  Pb32  1  0.657730  0.848233  0.747330  1
  Pb  Pb33  1  0.162390  0.649119  0.749136  1
  Pb  Pb34  1  0.338151  0.146929  0.249402  1
  Pb  Pb35  1  0.838337  0.353249  0.249420  1
