# generated using pymatgen
data_NdEu3(SbRh)4
_symmetry_space_group_name_H-M   'P 1'
_cell_length_a   7.49584165
_cell_length_b   4.69160800
_cell_length_c   7.87334949
_cell_angle_alpha   90.00000000
_cell_angle_beta   90.04410396
_cell_angle_gamma   90.00000000
_symmetry_Int_Tables_number   1
_chemical_formula_structural   NdEu3(SbRh)4
_chemical_formula_sum   'Nd1 Eu3 Sb4 Rh4'
_cell_volume   276.88633502
_cell_formula_units_Z   1
loop_
 _symmetry_equiv_pos_site_id
 _symmetry_equiv_pos_as_xyz
  1  'x, y, z'
loop_
 _atom_site_type_symbol
 _atom_site_label
 _atom_site_symmetry_multiplicity
 _atom_site_fract_x
 _atom_site_fract_y
 _atom_site_fract_z
 _atom_site_occupancy
  Nd  Nd0  1  0.983609  0.750000  0.804800  1
  Eu  Eu1  1  0.013474  0.249999  0.195892  1
  Eu  Eu2  1  0.515166  0.249999  0.302924  1
  Eu  Eu3  1  0.484620  0.750000  0.695542  1
  Sb  Sb4  1  0.314314  0.750000  0.089036  1
  Sb  Sb5  1  0.813828  0.750000  0.411983  1
  Sb  Sb6  1  0.187258  0.249999  0.587212  1
  Sb  Sb7  1  0.683068  0.249999  0.910998  1
  Rh  Rh8  1  0.695890  0.750000  0.082882  1
  Rh  Rh9  1  0.187648  0.750000  0.414741  1
  Rh  Rh10  1  0.816684  0.249999  0.590708  1
  Rh  Rh11  1  0.304440  0.249999  0.913279  1
