# generated using pymatgen
data_Y5FeCoB6
_symmetry_space_group_name_H-M   'P 1'
_cell_length_a   8.38197930
_cell_length_b   8.38197881
_cell_length_c   8.38197954
_cell_angle_alpha   37.72384135
_cell_angle_beta   37.72383355
_cell_angle_gamma   37.72383258
_symmetry_Int_Tables_number   1
_chemical_formula_structural   Y5FeCoB6
_chemical_formula_sum   'Y5 Fe1 Co1 B6'
_cell_volume   197.79860557
_cell_formula_units_Z   1
loop_
 _symmetry_equiv_pos_site_id
 _symmetry_equiv_pos_as_xyz
  1  'x, y, z'
loop_
 _atom_site_type_symbol
 _atom_site_label
 _atom_site_symmetry_multiplicity
 _atom_site_fract_x
 _atom_site_fract_y
 _atom_site_fract_z
 _atom_site_occupancy
  Y  Y0  1  0.583025  0.583025  0.583025  1
  Y  Y1  1  0.416877  0.416877  0.416877  1
  Y  Y2  1  0.748987  0.748987  0.748987  1
  Y  Y3  1  0.251133  0.251133  0.251133  1
  Y  Y4  1  0.000659  0.000659  0.000659  1
  Fe  Fe5  1  0.120288  0.120288  0.120288  1
  Co  Co6  1  0.880193  0.880193  0.880193  1
  B  B7  1  0.499557  0.831896  0.167966  1
  B  B8  1  0.167966  0.499557  0.831896  1
  B  B9  1  0.831896  0.167966  0.499557  1
  B  B10  1  0.499557  0.167966  0.831896  1
  B  B11  1  0.831896  0.499557  0.167966  1
  B  B12  1  0.167966  0.831896  0.499557  1
