# generated using pymatgen
data_Pr3Si2Ir2Rh
_symmetry_space_group_name_H-M   'P 1'
_cell_length_a   5.76744246
_cell_length_b   7.81188555
_cell_length_c   15.04464383
_cell_angle_alpha   89.99444587
_cell_angle_beta   89.85614679
_cell_angle_gamma   89.90734608
_symmetry_Int_Tables_number   1
_chemical_formula_structural   Pr3Si2Ir2Rh
_chemical_formula_sum   'Pr12 Si8 Ir8 Rh4'
_cell_volume   677.82738988
_cell_formula_units_Z   4
loop_
 _symmetry_equiv_pos_site_id
 _symmetry_equiv_pos_as_xyz
  1  'x, y, z'
loop_
 _atom_site_type_symbol
 _atom_site_label
 _atom_site_symmetry_multiplicity
 _atom_site_fract_x
 _atom_site_fract_y
 _atom_site_fract_z
 _atom_site_occupancy
  Pr  Pr0  1  0.135718  0.473382  0.890270  1
  Pr  Pr1  1  0.362157  0.975845  0.891028  1
  Pr  Pr2  1  0.601596  0.331790  0.750003  1
  Pr  Pr3  1  0.398303  0.668324  0.249941  1
  Pr  Pr4  1  0.637179  0.024424  0.390531  1
  Pr  Pr5  1  0.864143  0.526847  0.110406  1
  Pr  Pr6  1  0.862775  0.525965  0.390529  1
  Pr  Pr7  1  0.363569  0.974800  0.609775  1
  Pr  Pr8  1  0.897485  0.831272  0.749841  1
  Pr  Pr9  1  0.136524  0.473343  0.609801  1
  Pr  Pr10  1  0.637769  0.024434  0.109369  1
  Pr  Pr11  1  0.102170  0.168994  0.250170  1
  Si  Si12  1  0.374854  0.370304  0.097709  1
  Si  Si13  1  0.625023  0.629946  0.901990  1
  Si  Si14  1  0.870626  0.127621  0.901660  1
  Si  Si15  1  0.371279  0.371411  0.401930  1
  Si  Si16  1  0.873748  0.128497  0.597945  1
  Si  Si17  1  0.625301  0.628785  0.598012  1
  Si  Si18  1  0.129747  0.871746  0.402011  1
  Si  Si19  1  0.129468  0.872535  0.098258  1
  Ir  Ir20  1  0.608020  0.339461  0.960756  1
  Ir  Ir21  1  0.393315  0.661135  0.039419  1
  Ir  Ir22  1  0.571341  0.320562  0.249905  1
  Ir  Ir23  1  0.394056  0.660352  0.460968  1
  Ir  Ir24  1  0.071566  0.179016  0.749952  1
  Ir  Ir25  1  0.105149  0.160914  0.460619  1
  Ir  Ir26  1  0.426637  0.679786  0.750117  1
  Ir  Ir27  1  0.930380  0.821284  0.250177  1
  Rh  Rh28  1  0.104894  0.161360  0.038643  1
  Rh  Rh29  1  0.607650  0.338834  0.538084  1
  Rh  Rh30  1  0.893486  0.838173  0.538533  1
  Rh  Rh31  1  0.894072  0.838860  0.961647  1
