# generated using pymatgen
data_Th3Zn3IrPt2
_symmetry_space_group_name_H-M   'P 1'
_cell_length_a   7.48429700
_cell_length_b   7.48429560
_cell_length_c   3.93638100
_cell_angle_alpha   90.00000000
_cell_angle_beta   90.00000000
_cell_angle_gamma   120.00000178
_symmetry_Int_Tables_number   1
_chemical_formula_structural   Th3Zn3IrPt2
_chemical_formula_sum   'Th3 Zn3 Ir1 Pt2'
_cell_volume   190.95441148
_cell_formula_units_Z   1
loop_
 _symmetry_equiv_pos_site_id
 _symmetry_equiv_pos_as_xyz
  1  'x, y, z'
loop_
 _atom_site_type_symbol
 _atom_site_label
 _atom_site_symmetry_multiplicity
 _atom_site_fract_x
 _atom_site_fract_y
 _atom_site_fract_z
 _atom_site_occupancy
  Th  Th0  1  0.409490  0.415306  0.500000  1
  Th  Th1  1  0.584694  0.994184  0.500000  1
  Th  Th2  1  0.005816  0.590510  0.500000  1
  Zn  Zn3  1  0.756124  0.757318  0.000000  1
  Zn  Zn4  1  0.242682  0.998805  0.000000  1
  Zn  Zn5  1  0.001195  0.243876  0.000000  1
  Ir  Ir6  1  0.333333  0.666667  0.000000  1
  Pt  Pt7  1  0.666667  0.333333  0.000000  1
  Pt  Pt8  1  0.000000  0.000000  0.500000  1
