# generated using pymatgen
data_Ho20Bi8Ru3Rh
_symmetry_space_group_name_H-M   'P 1'
_cell_length_a   7.96174647
_cell_length_b   8.98844600
_cell_length_c   12.41422943
_cell_angle_alpha   90.00000000
_cell_angle_beta   89.94754206
_cell_angle_gamma   90.00000000
_symmetry_Int_Tables_number   1
_chemical_formula_structural   Ho20Bi8Ru3Rh
_chemical_formula_sum   'Ho20 Bi8 Ru3 Rh1'
_cell_volume   888.40816830
_cell_formula_units_Z   1
loop_
 _symmetry_equiv_pos_site_id
 _symmetry_equiv_pos_as_xyz
  1  'x, y, z'
loop_
 _atom_site_type_symbol
 _atom_site_label
 _atom_site_symmetry_multiplicity
 _atom_site_fract_x
 _atom_site_fract_y
 _atom_site_fract_z
 _atom_site_occupancy
  Ho  Ho0  1  0.342317  0.750000  0.707309  1
  Ho  Ho1  1  0.657025  0.250000  0.293273  1
  Ho  Ho2  1  0.843136  0.250000  0.792783  1
  Ho  Ho3  1  0.155327  0.750000  0.205619  1
  Ho  Ho4  1  0.879601  0.750000  0.806892  1
  Ho  Ho5  1  0.119651  0.250000  0.192656  1
  Ho  Ho6  1  0.379542  0.250000  0.692185  1
  Ho  Ho7  1  0.621750  0.750000  0.307205  1
  Ho  Ho8  1  0.678460  0.540876  0.565137  1
  Ho  Ho9  1  0.323728  0.455797  0.435697  1
  Ho  Ho10  1  0.175218  0.457857  0.935985  1
  Ho  Ho11  1  0.323728  0.044203  0.435697  1
  Ho  Ho12  1  0.824195  0.542773  0.064246  1
  Ho  Ho13  1  0.678460  0.959124  0.565137  1
  Ho  Ho14  1  0.824195  0.957227  0.064246  1
  Ho  Ho15  1  0.175218  0.042143  0.935985  1
  Ho  Ho16  1  0.051094  0.750000  0.497080  1
  Ho  Ho17  1  0.946713  0.250000  0.502982  1
  Ho  Ho18  1  0.555261  0.250000  0.003477  1
  Ho  Ho19  1  0.445130  0.750000  0.996298  1
  Bi  Bi20  1  0.570794  0.508391  0.827200  1
  Bi  Bi21  1  0.429000  0.491993  0.172767  1
  Bi  Bi22  1  0.071505  0.491652  0.672161  1
  Bi  Bi23  1  0.429000  0.008007  0.172767  1
  Bi  Bi24  1  0.928976  0.508610  0.328129  1
  Bi  Bi25  1  0.570794  0.991609  0.827200  1
  Bi  Bi26  1  0.928976  0.991390  0.328129  1
  Bi  Bi27  1  0.071505  0.008348  0.672161  1
  Ru  Ru28  1  0.073928  0.750000  0.988912  1
  Ru  Ru29  1  0.925565  0.250000  0.010407  1
  Ru  Ru30  1  0.572891  0.250000  0.510272  1
  Rh  Rh31  1  0.427317  0.750000  0.490005  1
