# generated using pymatgen
data_ErCd2(Ni10P3)2
_symmetry_space_group_name_H-M   'P 1'
_cell_length_a   7.93212496
_cell_length_b   7.93212472
_cell_length_c   7.93212500
_cell_angle_alpha   60.00000302
_cell_angle_beta   60.00000401
_cell_angle_gamma   60.00000409
_symmetry_Int_Tables_number   1
_chemical_formula_structural   ErCd2(Ni10P3)2
_chemical_formula_sum   'Er1 Cd2 Ni20 P6'
_cell_volume   352.90163463
_cell_formula_units_Z   1
loop_
 _symmetry_equiv_pos_site_id
 _symmetry_equiv_pos_as_xyz
  1  'x, y, z'
loop_
 _atom_site_type_symbol
 _atom_site_label
 _atom_site_symmetry_multiplicity
 _atom_site_fract_x
 _atom_site_fract_y
 _atom_site_fract_z
 _atom_site_occupancy
  Er  Er0  1  0.000000  0.000000  0.000000  1
  Cd  Cd1  1  0.250000  0.250000  0.250000  1
  Cd  Cd2  1  0.750000  0.750000  0.750000  1
  Ni  Ni3  1  0.385148  0.385148  0.844557  1
  Ni  Ni4  1  0.614853  0.614853  0.614852  1
  Ni  Ni5  1  0.000000  0.350192  0.000000  1
  Ni  Ni6  1  0.350192  0.000000  0.000000  1
  Ni  Ni7  1  0.000000  0.350192  0.649808  1
  Ni  Ni8  1  0.844557  0.385148  0.385147  1
  Ni  Ni9  1  0.350192  0.000000  0.649808  1
  Ni  Ni10  1  0.000000  0.000000  0.350192  1
  Ni  Ni11  1  0.649808  0.350192  0.000000  1
  Ni  Ni12  1  0.000000  0.649808  0.350192  1
  Ni  Ni13  1  0.000000  0.000000  0.649808  1
  Ni  Ni14  1  0.350192  0.649808  0.000000  1
  Ni  Ni15  1  0.649808  0.000000  0.000000  1
  Ni  Ni16  1  0.000000  0.649808  0.000000  1
  Ni  Ni17  1  0.385148  0.844558  0.385148  1
  Ni  Ni18  1  0.614852  0.614853  0.155442  1
  Ni  Ni19  1  0.614852  0.155443  0.614852  1
  Ni  Ni20  1  0.155443  0.614853  0.614853  1
  Ni  Ni21  1  0.385147  0.385148  0.385147  1
  Ni  Ni22  1  0.649808  0.000000  0.350192  1
  P  P23  1  0.265394  0.265394  0.734606  1
  P  P24  1  0.734606  0.734606  0.265394  1
  P  P25  1  0.734606  0.265394  0.265394  1
  P  P26  1  0.265394  0.734606  0.734606  1
  P  P27  1  0.265394  0.734606  0.265394  1
  P  P28  1  0.734606  0.265394  0.734606  1
