# generated using pymatgen
data_La8TbErIr6
_symmetry_space_group_name_H-M   'P 1'
_cell_length_a   11.37998300
_cell_length_b   11.37998300
_cell_length_c   6.54865400
_cell_angle_alpha   90.00000000
_cell_angle_beta   90.00000000
_cell_angle_gamma   90.00000000
_symmetry_Int_Tables_number   1
_chemical_formula_structural   La8TbErIr6
_chemical_formula_sum   'La16 Tb2 Er2 Ir12'
_cell_volume   848.07697327
_cell_formula_units_Z   2
loop_
 _symmetry_equiv_pos_site_id
 _symmetry_equiv_pos_as_xyz
  1  'x, y, z'
loop_
 _atom_site_type_symbol
 _atom_site_label
 _atom_site_symmetry_multiplicity
 _atom_site_fract_x
 _atom_site_fract_y
 _atom_site_fract_z
 _atom_site_occupancy
  La  La0  1  0.287196  0.088206  0.389611  1
  La  La1  1  0.287196  0.911794  0.889611  1
  La  La2  1  0.712804  0.088206  0.889611  1
  La  La3  1  0.712804  0.911794  0.389611  1
  La  La4  1  0.588225  0.788400  0.889431  1
  La  La5  1  0.588225  0.211600  0.389431  1
  La  La6  1  0.411775  0.788400  0.389431  1
  La  La7  1  0.411775  0.211600  0.889431  1
  La  La8  1  0.211600  0.411775  0.610569  1
  La  La9  1  0.211600  0.588225  0.110569  1
  La  La10  1  0.788400  0.411775  0.110569  1
  La  La11  1  0.788400  0.588225  0.610569  1
  La  La12  1  0.911794  0.712804  0.110389  1
  La  La13  1  0.911794  0.287196  0.610389  1
  La  La14  1  0.088206  0.712804  0.610389  1
  La  La15  1  0.088206  0.287196  0.110389  1
  Tb  Tb16  1  0.500000  0.500000  0.000000  1
  Tb  Tb17  1  0.500000  0.500000  0.500000  1
  Er  Er18  1  0.000000  0.000000  0.500000  1
  Er  Er19  1  0.000000  0.000000  0.000000  1
  Ir  Ir20  1  0.852351  0.147649  0.250000  1
  Ir  Ir21  1  0.852351  0.852351  0.750000  1
  Ir  Ir22  1  0.147649  0.147649  0.750000  1
  Ir  Ir23  1  0.147649  0.852351  0.250000  1
  Ir  Ir24  1  0.649840  0.350160  0.750000  1
  Ir  Ir25  1  0.649840  0.649840  0.250000  1
  Ir  Ir26  1  0.350160  0.350160  0.250000  1
  Ir  Ir27  1  0.350160  0.649840  0.750000  1
  Ir  Ir28  1  0.500000  0.000000  0.122206  1
  Ir  Ir29  1  0.500000  0.000000  0.622206  1
  Ir  Ir30  1  0.000000  0.500000  0.877794  1
  Ir  Ir31  1  0.000000  0.500000  0.377794  1
