# generated using pymatgen
data_Cs5Pu3Br12
_symmetry_space_group_name_H-M   'P 1'
_cell_length_a   4.64880900
_cell_length_b   14.81569281
_cell_length_c   14.81569300
_cell_angle_alpha   120.00000267
_cell_angle_beta   90.00000000
_cell_angle_gamma   90.00000000
_symmetry_Int_Tables_number   1
_chemical_formula_structural   Cs5Pu3Br12
_chemical_formula_sum   'Cs5 Pu3 Br12'
_cell_volume   883.72320339
_cell_formula_units_Z   1
loop_
 _symmetry_equiv_pos_site_id
 _symmetry_equiv_pos_as_xyz
  1  'x, y, z'
loop_
 _atom_site_type_symbol
 _atom_site_label
 _atom_site_symmetry_multiplicity
 _atom_site_fract_x
 _atom_site_fract_y
 _atom_site_fract_z
 _atom_site_occupancy
  Cs  Cs0  1  0.000000  0.666667  0.333333  1
  Cs  Cs1  1  0.000000  0.333333  0.666667  1
  Cs  Cs2  1  0.000000  0.285598  0.285598  1
  Cs  Cs3  1  0.000000  0.000000  0.714402  1
  Cs  Cs4  1  0.000000  0.714402  0.000000  1
  Pu  Pu5  1  0.500000  0.672533  0.672533  1
  Pu  Pu6  1  0.500000  0.000000  0.327467  1
  Pu  Pu7  1  0.500000  0.327467  0.000000  1
  Br  Br8  1  0.000000  0.806364  0.806364  1
  Br  Br9  1  0.000000  0.000000  0.193636  1
  Br  Br10  1  0.000000  0.193636  0.000000  1
  Br  Br11  1  0.000000  0.542044  0.542044  1
  Br  Br12  1  0.000000  0.000000  0.457956  1
  Br  Br13  1  0.000000  0.457956  0.000000  1
  Br  Br14  1  0.500000  0.769599  0.210368  1
  Br  Br15  1  0.500000  0.440769  0.230401  1
  Br  Br16  1  0.500000  0.559231  0.789632  1
  Br  Br17  1  0.500000  0.789632  0.559231  1
  Br  Br18  1  0.500000  0.210368  0.769599  1
  Br  Br19  1  0.500000  0.230401  0.440769  1
