# generated using pymatgen
data_Li7Hg(PPd3)4
_symmetry_space_group_name_H-M   'P 1'
_cell_length_a   7.21723233
_cell_length_b   7.21723606
_cell_length_c   7.21723157
_cell_angle_alpha   89.86556908
_cell_angle_beta   89.86556075
_cell_angle_gamma   89.86552510
_symmetry_Int_Tables_number   1
_chemical_formula_structural   Li7Hg(PPd3)4
_chemical_formula_sum   'Li7 Hg1 P4 Pd12'
_cell_volume   375.93144557
_cell_formula_units_Z   1
loop_
 _symmetry_equiv_pos_site_id
 _symmetry_equiv_pos_as_xyz
  1  'x, y, z'
loop_
 _atom_site_type_symbol
 _atom_site_label
 _atom_site_symmetry_multiplicity
 _atom_site_fract_x
 _atom_site_fract_y
 _atom_site_fract_z
 _atom_site_occupancy
  Li  Li0  1  0.042995  0.455273  0.549537  1
  Li  Li1  1  0.549537  0.042995  0.455273  1
  Li  Li2  1  0.455273  0.549537  0.042995  1
  Li  Li3  1  0.202920  0.707546  0.798213  1
  Li  Li4  1  0.954262  0.954261  0.954262  1
  Li  Li5  1  0.798216  0.202920  0.707546  1
  Li  Li6  1  0.707545  0.798216  0.202919  1
  Hg  Hg7  1  0.304859  0.304858  0.304858  1
  P  P8  1  0.868078  0.371555  0.115633  1
  P  P9  1  0.371556  0.115634  0.868078  1
  P  P10  1  0.627107  0.627108  0.627108  1
  P  P11  1  0.115633  0.868078  0.371556  1
  Pd  Pd12  1  0.177883  0.069473  0.618684  1
  Pd  Pd13  1  0.435243  0.373702  0.683984  1
  Pd  Pd14  1  0.069473  0.618684  0.177883  1
  Pd  Pd15  1  0.927678  0.126171  0.317407  1
  Pd  Pd16  1  0.317407  0.927678  0.126171  1
  Pd  Pd17  1  0.683984  0.435244  0.373702  1
  Pd  Pd18  1  0.573485  0.873266  0.825044  1
  Pd  Pd19  1  0.618685  0.177882  0.069474  1
  Pd  Pd20  1  0.373702  0.683984  0.435243  1
  Pd  Pd21  1  0.873265  0.825043  0.573485  1
  Pd  Pd22  1  0.126171  0.317407  0.927677  1
  Pd  Pd23  1  0.825043  0.573485  0.873266  1
