# generated using pymatgen
data_Ac(ErSe2)3
_symmetry_space_group_name_H-M   'P 1'
_cell_length_a   4.19591200
_cell_length_b   11.69367895
_cell_length_c   11.95558816
_cell_angle_alpha   70.96811556
_cell_angle_beta   90.00000000
_cell_angle_gamma   90.00000000
_symmetry_Int_Tables_number   1
_chemical_formula_structural   Ac(ErSe2)3
_chemical_formula_sum   'Ac2 Er6 Se12'
_cell_volume   554.54303722
_cell_formula_units_Z   2
loop_
 _symmetry_equiv_pos_site_id
 _symmetry_equiv_pos_as_xyz
  1  'x, y, z'
loop_
 _atom_site_type_symbol
 _atom_site_label
 _atom_site_symmetry_multiplicity
 _atom_site_fract_x
 _atom_site_fract_y
 _atom_site_fract_z
 _atom_site_occupancy
  Ac  Ac0  1  0.750000  0.550728  0.802107  1
  Ac  Ac1  1  0.250000  0.449272  0.197893  1
  Er  Er2  1  0.750000  0.177242  0.000138  1
  Er  Er3  1  0.250000  0.822758  0.999862  1
  Er  Er4  1  0.750000  0.945160  0.665134  1
  Er  Er5  1  0.250000  0.054840  0.334866  1
  Er  Er6  1  0.750000  0.660857  0.410942  1
  Er  Er7  1  0.250000  0.339143  0.589058  1
  Se  Se8  1  0.750000  0.978715  0.887950  1
  Se  Se9  1  0.250000  0.021285  0.112050  1
  Se  Se10  1  0.750000  0.296581  0.748604  1
  Se  Se11  1  0.250000  0.703419  0.251396  1
  Se  Se12  1  0.750000  0.892643  0.442845  1
  Se  Se13  1  0.250000  0.107357  0.557155  1
  Se  Se14  1  0.750000  0.417088  0.411830  1
  Se  Se15  1  0.250000  0.582912  0.588170  1
  Se  Se16  1  0.750000  0.227417  0.230968  1
  Se  Se17  1  0.250000  0.772583  0.769032  1
  Se  Se18  1  0.750000  0.626825  0.035091  1
  Se  Se19  1  0.250000  0.373175  0.964909  1
