# generated using pymatgen
data_Tb2Fe6Co5P7W
_symmetry_space_group_name_H-M   'P 1'
_cell_length_a   3.65869300
_cell_length_b   8.95569258
_cell_length_c   9.03927320
_cell_angle_alpha   119.69646161
_cell_angle_beta   90.00000000
_cell_angle_gamma   90.00000000
_symmetry_Int_Tables_number   1
_chemical_formula_structural   Tb2Fe6Co5P7W
_chemical_formula_sum   'Tb2 Fe6 Co5 P7 W1'
_cell_volume   257.28208002
_cell_formula_units_Z   1
loop_
 _symmetry_equiv_pos_site_id
 _symmetry_equiv_pos_as_xyz
  1  'x, y, z'
loop_
 _atom_site_type_symbol
 _atom_site_label
 _atom_site_symmetry_multiplicity
 _atom_site_fract_x
 _atom_site_fract_y
 _atom_site_fract_z
 _atom_site_occupancy
  Tb  Tb0  1  0.000000  0.667814  0.334989  1
  Tb  Tb1  1  0.500000  0.335683  0.667734  1
  Fe  Fe2  1  0.000000  0.570853  0.628462  1
  Fe  Fe3  1  0.000000  0.879518  0.726744  1
  Fe  Fe4  1  0.000000  0.275918  0.160237  1
  Fe  Fe5  1  0.000000  0.844757  0.120552  1
  Fe  Fe6  1  0.500000  0.100725  0.225405  1
  Fe  Fe7  1  0.500000  0.777675  0.873041  1
  Co  Co8  1  0.000000  0.372262  0.939315  1
  Co  Co9  1  0.000000  0.059721  0.430144  1
  Co  Co10  1  0.500000  0.944273  0.559456  1
  Co  Co11  1  0.500000  0.435132  0.385197  1
  Co  Co12  1  0.500000  0.616638  0.049289  1
  P  P13  1  0.000000  0.110324  0.696769  1
  P  P14  1  0.000000  0.299083  0.410792  1
  P  P15  1  0.000000  0.594474  0.887670  1
  P  P16  1  0.500000  0.707328  0.598286  1
  P  P17  1  0.500000  0.408404  0.117836  1
  P  P18  1  0.500000  0.886281  0.285465  1
  P  P19  1  0.000000  0.998160  0.004260  1
  W  W20  1  0.500000  0.114977  0.898356  1
