# generated using pymatgen
data_Os2RuBr12
_symmetry_space_group_name_H-M   'P 1'
_cell_length_a   9.28162432
_cell_length_b   9.28162364
_cell_length_c   7.04458949
_cell_angle_alpha   70.48488638
_cell_angle_beta   70.48488471
_cell_angle_gamma   81.53237774
_symmetry_Int_Tables_number   1
_chemical_formula_structural   Os2RuBr12
_chemical_formula_sum   'Os2 Ru1 Br12'
_cell_volume   538.72294064
_cell_formula_units_Z   1
loop_
 _symmetry_equiv_pos_site_id
 _symmetry_equiv_pos_as_xyz
  1  'x, y, z'
loop_
 _atom_site_type_symbol
 _atom_site_label
 _atom_site_symmetry_multiplicity
 _atom_site_fract_x
 _atom_site_fract_y
 _atom_site_fract_z
 _atom_site_occupancy
  Os  Os0  1  0.255626  0.255626  0.750004  1
  Os  Os1  1  0.744374  0.744374  0.249996  1
  Ru  Ru2  1  0.000000  0.000000  0.000000  1
  Br  Br3  1  0.979290  0.260435  0.743275  1
  Br  Br4  1  0.260435  0.979290  0.743275  1
  Br  Br5  1  0.020710  0.739565  0.256725  1
  Br  Br6  1  0.739565  0.020710  0.256725  1
  Br  Br7  1  0.218118  0.509759  0.788565  1
  Br  Br8  1  0.509759  0.218118  0.788565  1
  Br  Br9  1  0.781882  0.490241  0.211435  1
  Br  Br10  1  0.490241  0.781882  0.211435  1
  Br  Br11  1  0.132745  0.132745  0.149795  1
  Br  Br12  1  0.867255  0.867255  0.850205  1
  Br  Br13  1  0.649988  0.649988  0.633510  1
  Br  Br14  1  0.350012  0.350012  0.366490  1
