# generated using pymatgen
data_Hf18CuRe8As
_symmetry_space_group_name_H-M   'P 1'
_cell_length_a   8.58333093
_cell_length_b   8.58333130
_cell_length_c   8.63492600
_cell_angle_alpha   90.00000000
_cell_angle_beta   90.00000000
_cell_angle_gamma   119.99505157
_symmetry_Int_Tables_number   1
_chemical_formula_structural   Hf18CuRe8As
_chemical_formula_sum   'Hf18 Cu1 Re8 As1'
_cell_volume   550.96325762
_cell_formula_units_Z   1
loop_
 _symmetry_equiv_pos_site_id
 _symmetry_equiv_pos_as_xyz
  1  'x, y, z'
loop_
 _atom_site_type_symbol
 _atom_site_label
 _atom_site_symmetry_multiplicity
 _atom_site_fract_x
 _atom_site_fract_y
 _atom_site_fract_z
 _atom_site_occupancy
  Hf  Hf0  1  0.804090  0.608104  0.553926  1
  Hf  Hf1  1  0.804050  0.195950  0.554033  1
  Hf  Hf2  1  0.391896  0.195910  0.553926  1
  Hf  Hf3  1  0.192739  0.385591  0.451963  1
  Hf  Hf4  1  0.192787  0.807213  0.451936  1
  Hf  Hf5  1  0.614409  0.807261  0.451963  1
  Hf  Hf6  1  0.192739  0.385591  0.048037  1
  Hf  Hf7  1  0.192787  0.807213  0.048064  1
  Hf  Hf8  1  0.614409  0.807261  0.048037  1
  Hf  Hf9  1  0.804090  0.608104  0.946074  1
  Hf  Hf10  1  0.804050  0.195950  0.945967  1
  Hf  Hf11  1  0.391896  0.195910  0.946074  1
  Hf  Hf12  1  0.458378  0.916710  0.750000  1
  Hf  Hf13  1  0.458467  0.541533  0.750000  1
  Hf  Hf14  1  0.083290  0.541622  0.750000  1
  Hf  Hf15  1  0.542023  0.084127  0.250000  1
  Hf  Hf16  1  0.542011  0.457989  0.250000  1
  Hf  Hf17  1  0.915873  0.457977  0.250000  1
  Cu  Cu18  1  0.666755  0.333245  0.750000  1
  Re  Re19  1  0.110296  0.220487  0.750000  1
  Re  Re20  1  0.110297  0.889703  0.750000  1
  Re  Re21  1  0.779513  0.889704  0.750000  1
  Re  Re22  1  0.890015  0.780248  0.250000  1
  Re  Re23  1  0.890106  0.109894  0.250000  1
  Re  Re24  1  0.219752  0.109985  0.250000  1
  Re  Re25  1  0.999965  0.000035  0.500639  1
  Re  Re26  1  0.999965  0.000035  0.999361  1
  As  As27  1  0.333356  0.666644  0.250000  1
