# generated using pymatgen
data_K2UCuCl6
_symmetry_space_group_name_H-M   'P 1'
_cell_length_a   7.08364302
_cell_length_b   7.08274912
_cell_length_c   13.91592510
_cell_angle_alpha   89.99493544
_cell_angle_beta   90.01003244
_cell_angle_gamma   120.00421683
_symmetry_Int_Tables_number   1
_chemical_formula_structural   K2UCuCl6
_chemical_formula_sum   'K4 U2 Cu2 Cl12'
_cell_volume   604.62037416
_cell_formula_units_Z   2
loop_
 _symmetry_equiv_pos_site_id
 _symmetry_equiv_pos_as_xyz
  1  'x, y, z'
loop_
 _atom_site_type_symbol
 _atom_site_label
 _atom_site_symmetry_multiplicity
 _atom_site_fract_x
 _atom_site_fract_y
 _atom_site_fract_z
 _atom_site_occupancy
  K  K0  1  0.666657  0.333423  0.026369  1
  K  K1  1  0.666676  0.333337  0.473618  1
  K  K2  1  0.333229  0.666631  0.526354  1
  K  K3  1  0.333379  0.666651  0.973642  1
  U  U4  1  0.999978  0.000020  0.250020  1
  U  U5  1  0.000010  0.999997  0.749986  1
  Cu  Cu6  1  0.332907  0.665717  0.249946  1
  Cu  Cu7  1  0.667133  0.334042  0.750007  1
  Cl  Cl8  1  0.301175  0.349452  0.141601  1
  Cl  Cl9  1  0.048267  0.699129  0.141496  1
  Cl  Cl10  1  0.651024  0.952033  0.141458  1
  Cl  Cl11  1  0.048184  0.349278  0.358512  1
  Cl  Cl12  1  0.650774  0.699041  0.358486  1
  Cl  Cl13  1  0.300917  0.951923  0.358541  1
  Cl  Cl14  1  0.699079  0.048037  0.641422  1
  Cl  Cl15  1  0.349153  0.300928  0.641478  1
  Cl  Cl16  1  0.951697  0.650610  0.641541  1
  Cl  Cl17  1  0.349080  0.048108  0.858522  1
  Cl  Cl18  1  0.951735  0.300901  0.858512  1
  Cl  Cl19  1  0.698947  0.650748  0.858488  1
