# generated using pymatgen
data_Sm3MgCd2Si2Au
_symmetry_space_group_name_H-M   'P 1'
_cell_length_a   7.33966401
_cell_length_b   7.33966358
_cell_length_c   4.44289400
_cell_angle_alpha   90.00000000
_cell_angle_beta   90.00000000
_cell_angle_gamma   120.73993677
_symmetry_Int_Tables_number   1
_chemical_formula_structural   Sm3MgCd2Si2Au
_chemical_formula_sum   'Sm3 Mg1 Cd2 Si2 Au1'
_cell_volume   205.71324099
_cell_formula_units_Z   1
loop_
 _symmetry_equiv_pos_site_id
 _symmetry_equiv_pos_as_xyz
  1  'x, y, z'
loop_
 _atom_site_type_symbol
 _atom_site_label
 _atom_site_symmetry_multiplicity
 _atom_site_fract_x
 _atom_site_fract_y
 _atom_site_fract_z
 _atom_site_occupancy
  Sm  Sm0  1  0.582322  0.001546  0.000000  1
  Sm  Sm1  1  0.001546  0.582322  0.000000  1
  Sm  Sm2  1  0.414831  0.414831  0.000000  1
  Mg  Mg3  1  0.760506  0.760506  0.500000  1
  Cd  Cd4  1  0.251976  0.999032  0.500000  1
  Cd  Cd5  1  0.999032  0.251976  0.500000  1
  Si  Si6  1  0.337273  0.666546  0.500000  1
  Si  Si7  1  0.666546  0.337273  0.500000  1
  Au  Au8  1  0.985968  0.985968  0.000000  1
