# generated using pymatgen
data_Gd2CoPCl2
_symmetry_space_group_name_H-M   'P 1'
_cell_length_a   3.91389900
_cell_length_b   3.91389842
_cell_length_c   11.08210100
_cell_angle_alpha   90.00000000
_cell_angle_beta   90.00000000
_cell_angle_gamma   120.00001338
_symmetry_Int_Tables_number   1
_chemical_formula_structural   Gd2CoPCl2
_chemical_formula_sum   'Gd2 Co1 P1 Cl2'
_cell_volume   147.01845042
_cell_formula_units_Z   1
loop_
 _symmetry_equiv_pos_site_id
 _symmetry_equiv_pos_as_xyz
  1  'x, y, z'
loop_
 _atom_site_type_symbol
 _atom_site_label
 _atom_site_symmetry_multiplicity
 _atom_site_fract_x
 _atom_site_fract_y
 _atom_site_fract_z
 _atom_site_occupancy
  Gd  Gd0  1  0.000000  0.000000  0.830481  1
  Gd  Gd1  1  0.000000  0.000000  0.170012  1
  Co  Co2  1  0.333333  0.666667  0.992267  1
  P  P3  1  0.666667  0.333333  0.007517  1
  Cl  Cl4  1  0.333333  0.666667  0.324428  1
  Cl  Cl5  1  0.666667  0.333333  0.675297  1
