# generated using pymatgen
data_InN5O14
_symmetry_space_group_name_H-M   'P 1'
_cell_length_a   7.47060687
_cell_length_b   7.47226593
_cell_length_c   7.47023522
_cell_angle_alpha   100.35706010
_cell_angle_beta   100.34425488
_cell_angle_gamma   129.85147772
_symmetry_Int_Tables_number   1
_chemical_formula_structural   InN5O14
_chemical_formula_sum   'In1 N5 O14'
_cell_volume   289.94346156
_cell_formula_units_Z   1
loop_
 _symmetry_equiv_pos_site_id
 _symmetry_equiv_pos_as_xyz
  1  'x, y, z'
loop_
 _atom_site_type_symbol
 _atom_site_label
 _atom_site_symmetry_multiplicity
 _atom_site_fract_x
 _atom_site_fract_y
 _atom_site_fract_z
 _atom_site_occupancy
  In  In0  1  0.000173  0.000228  0.000065  1
  N  N1  1  0.544048  0.575302  0.702570  1
  N  N2  1  0.424847  0.127329  0.968729  1
  N  N3  1  0.872758  0.841493  0.297467  1
  N  N4  1  0.158695  0.456261  0.031279  1
  N  N5  1  0.249500  0.749320  0.499860  1
  O  O6  1  0.103167  0.297913  0.871874  1
  O  O7  1  0.613640  0.179122  0.958402  1
  O  O8  1  0.820628  0.779016  0.434263  1
  O  O9  1  0.037151  0.856618  0.244833  1
  O  O10  1  0.769025  0.897230  0.194800  1
  O  O11  1  0.220867  0.655336  0.041528  1
  O  O12  1  0.143681  0.388656  0.180616  1
  O  O13  1  0.611850  0.792318  0.755188  1
  O  O14  1  0.344802  0.386452  0.565658  1
  O  O15  1  0.069435  0.569521  0.499974  1
  O  O16  1  0.207788  0.963044  0.819435  1
  O  O17  1  0.702356  0.574209  0.805363  1
  O  O18  1  0.426048  0.231296  0.128206  1
  O  O19  1  0.429539  0.929337  0.499888  1
