# generated using pymatgen
data_PuTh7(CoSi3)4
_symmetry_space_group_name_H-M   'P 1'
_cell_length_a   8.06141600
_cell_length_b   8.06138641
_cell_length_c   8.37650000
_cell_angle_alpha   90.00000000
_cell_angle_beta   90.00000000
_cell_angle_gamma   119.99994909
_symmetry_Int_Tables_number   1
_chemical_formula_structural   PuTh7(CoSi3)4
_chemical_formula_sum   'Pu1 Th7 Co4 Si12'
_cell_volume   471.42707256
_cell_formula_units_Z   1
loop_
 _symmetry_equiv_pos_site_id
 _symmetry_equiv_pos_as_xyz
  1  'x, y, z'
loop_
 _atom_site_type_symbol
 _atom_site_label
 _atom_site_symmetry_multiplicity
 _atom_site_fract_x
 _atom_site_fract_y
 _atom_site_fract_z
 _atom_site_occupancy
  Pu  Pu0  1  0.000000  0.000000  0.750000  1
  Th  Th1  1  0.500197  0.000395  0.250000  1
  Th  Th2  1  0.500041  0.000083  0.750000  1
  Th  Th3  1  0.999605  0.499803  0.250000  1
  Th  Th4  1  0.999917  0.499959  0.750000  1
  Th  Th5  1  0.500198  0.499803  0.250000  1
  Th  Th6  1  0.500041  0.499958  0.750000  1
  Th  Th7  1  0.000000  0.999999  0.250000  1
  Co  Co8  1  0.333333  0.666665  0.999442  1
  Co  Co9  1  0.666666  0.333335  0.998454  1
  Co  Co10  1  0.666666  0.333335  0.501546  1
  Co  Co11  1  0.333333  0.666665  0.500558  1
  Si  Si12  1  0.170193  0.340386  0.997985  1
  Si  Si13  1  0.829931  0.659861  0.997690  1
  Si  Si14  1  0.659613  0.829807  0.997985  1
  Si  Si15  1  0.829931  0.659861  0.502310  1
  Si  Si16  1  0.340139  0.170069  0.997690  1
  Si  Si17  1  0.170193  0.340386  0.502015  1
  Si  Si18  1  0.170195  0.829807  0.997987  1
  Si  Si19  1  0.340139  0.170069  0.502310  1
  Si  Si20  1  0.829929  0.170070  0.997692  1
  Si  Si21  1  0.659613  0.829807  0.502015  1
  Si  Si22  1  0.829929  0.170070  0.502308  1
  Si  Si23  1  0.170195  0.829807  0.502013  1
