# generated using pymatgen
data_YbN4
_symmetry_space_group_name_H-M   'P 1'
_cell_length_a   3.73294610
_cell_length_b   4.82891639
_cell_length_c   6.91023500
_cell_angle_alpha   70.11932283
_cell_angle_beta   85.91986736
_cell_angle_gamma   129.39451865
_symmetry_Int_Tables_number   1
_chemical_formula_structural   YbN4
_chemical_formula_sum   'Yb1 N4'
_cell_volume   83.16894813
_cell_formula_units_Z   1
loop_
 _symmetry_equiv_pos_site_id
 _symmetry_equiv_pos_as_xyz
  1  'x, y, z'
loop_
 _atom_site_type_symbol
 _atom_site_label
 _atom_site_symmetry_multiplicity
 _atom_site_fract_x
 _atom_site_fract_y
 _atom_site_fract_z
 _atom_site_occupancy
  Yb  Yb0  1  0.769369  0.448685  0.298837  1
  N  N1  1  0.559440  0.842894  0.300383  1
  N  N2  1  0.979398  0.054479  0.297212  1
  N  N3  1  0.172119  0.854143  0.893837  1
  N  N4  1  0.365793  0.044529  0.703873  1
