# generated using pymatgen
data_MgSc3Zn2(B2Ir5)2
_symmetry_space_group_name_H-M   'P 1'
_cell_length_a   9.49142139
_cell_length_b   9.49142139
_cell_length_c   2.99167400
_cell_angle_alpha   90.00000000
_cell_angle_beta   90.00000000
_cell_angle_gamma   89.57138934
_symmetry_Int_Tables_number   1
_chemical_formula_structural   MgSc3Zn2(B2Ir5)2
_chemical_formula_sum   'Mg1 Sc3 Zn2 B4 Ir10'
_cell_volume   269.50363420
_cell_formula_units_Z   1
loop_
 _symmetry_equiv_pos_site_id
 _symmetry_equiv_pos_as_xyz
  1  'x, y, z'
loop_
 _atom_site_type_symbol
 _atom_site_label
 _atom_site_symmetry_multiplicity
 _atom_site_fract_x
 _atom_site_fract_y
 _atom_site_fract_z
 _atom_site_occupancy
  Mg  Mg0  1  0.177501  0.322499  0.000000  1
  Sc  Sc1  1  0.322033  0.823275  0.000000  1
  Sc  Sc2  1  0.676725  0.177967  0.000000  1
  Sc  Sc3  1  0.824965  0.675035  0.000000  1
  Zn  Zn4  1  0.999924  0.000110  0.000000  1
  Zn  Zn5  1  0.499890  0.500076  0.000000  1
  B  B6  1  0.125873  0.625152  0.000000  1
  B  B7  1  0.874848  0.374127  0.000000  1
  B  B8  1  0.626038  0.873962  0.000000  1
  B  B9  1  0.371521  0.128479  0.000000  1
  Ir  Ir10  1  0.215971  0.067488  0.500000  1
  Ir  Ir11  1  0.783697  0.930337  0.500000  1
  Ir  Ir12  1  0.716494  0.432254  0.500000  1
  Ir  Ir13  1  0.284874  0.571072  0.500000  1
  Ir  Ir14  1  0.432512  0.284029  0.500000  1
  Ir  Ir15  1  0.569663  0.716304  0.500000  1
  Ir  Ir16  1  0.067746  0.783507  0.500000  1
  Ir  Ir17  1  0.928928  0.215126  0.500000  1
  Ir  Ir18  1  0.000958  0.499042  0.500000  1
  Ir  Ir19  1  0.499840  0.000160  0.500000  1
