# generated using pymatgen
data_Zn3CdP6PtN12
_symmetry_space_group_name_H-M   'P 1'
_cell_length_a   7.25494787
_cell_length_b   7.23341576
_cell_length_c   7.25494799
_cell_angle_alpha   109.41110978
_cell_angle_beta   109.53126965
_cell_angle_gamma   109.41110584
_symmetry_Int_Tables_number   1
_chemical_formula_structural   Zn3CdP6PtN12
_chemical_formula_sum   'Zn3 Cd1 P6 Pt1 N12'
_cell_volume   293.29980454
_cell_formula_units_Z   1
loop_
 _symmetry_equiv_pos_site_id
 _symmetry_equiv_pos_as_xyz
  1  'x, y, z'
loop_
 _atom_site_type_symbol
 _atom_site_label
 _atom_site_symmetry_multiplicity
 _atom_site_fract_x
 _atom_site_fract_y
 _atom_site_fract_z
 _atom_site_occupancy
  Zn  Zn0  1  0.635009  0.642590  0.635009  1
  Zn  Zn1  1  0.364991  0.007582  0.000000  1
  Zn  Zn2  1  0.000000  0.007582  0.364991  1
  Cd  Cd3  1  0.000000  0.291395  0.000000  1
  P  P4  1  0.749057  0.256768  0.500513  1
  P  P5  1  0.248544  0.756255  0.499487  1
  P  P6  1  0.499487  0.756255  0.248544  1
  P  P7  1  0.500513  0.256768  0.749057  1
  P  P8  1  0.751456  0.507711  0.250943  1
  P  P9  1  0.250943  0.507711  0.751456  1
  Pt  Pt10  1  0.000000  0.930927  0.000000  1
  N  N11  1  0.559295  0.283216  0.000000  1
  N  N12  1  0.438310  0.445140  0.712244  1
  N  N13  1  0.000000  0.283216  0.559295  1
  N  N14  1  0.273934  0.006830  0.561690  1
  N  N15  1  0.712244  0.445140  0.438310  1
  N  N16  1  0.000000  0.565780  0.278972  1
  N  N17  1  0.561690  0.006830  0.273934  1
  N  N18  1  0.440705  0.723921  0.440705  1
  N  N19  1  0.278972  0.565780  0.000000  1
  N  N20  1  0.721028  0.286809  0.721028  1
  N  N21  1  0.726066  0.732896  0.287756  1
  N  N22  1  0.287756  0.732896  0.726066  1
