# generated using pymatgen
data_Tb11In9AgPt3
_symmetry_space_group_name_H-M   'P 1'
_cell_length_a   3.72633000
_cell_length_b   13.19365607
_cell_length_c   13.19957300
_cell_angle_alpha   111.81264526
_cell_angle_beta   90.00000000
_cell_angle_gamma   90.00000000
_symmetry_Int_Tables_number   1
_chemical_formula_structural   Tb11In9AgPt3
_chemical_formula_sum   'Tb11 In9 Ag1 Pt3'
_cell_volume   602.48090016
_cell_formula_units_Z   1
loop_
 _symmetry_equiv_pos_site_id
 _symmetry_equiv_pos_as_xyz
  1  'x, y, z'
loop_
 _atom_site_type_symbol
 _atom_site_label
 _atom_site_symmetry_multiplicity
 _atom_site_fract_x
 _atom_site_fract_y
 _atom_site_fract_z
 _atom_site_occupancy
  Tb  Tb0  1  0.000000  0.939421  0.586204  1
  Tb  Tb1  1  0.000000  0.075728  0.419841  1
  Tb  Tb2  1  0.000000  0.580852  0.928801  1
  Tb  Tb3  1  0.000000  0.416522  0.070875  1
  Tb  Tb4  1  0.000000  0.159151  0.842561  1
  Tb  Tb5  1  0.000000  0.840869  0.158628  1
  Tb  Tb6  1  0.000000  0.371731  0.627818  1
  Tb  Tb7  1  0.000000  0.620950  0.361727  1
  Tb  Tb8  1  0.000000  0.686662  0.696547  1
  Tb  Tb9  1  0.000000  0.306400  0.306993  1
  Tb  Tb10  1  0.000000  0.998535  0.000233  1
  In  In11  1  0.500000  0.161217  0.635007  1
  In  In12  1  0.500000  0.845241  0.369063  1
  In  In13  1  0.500000  0.634102  0.155747  1
  In  In14  1  0.500000  0.366414  0.842492  1
  In  In15  1  0.500000  0.928361  0.782867  1
  In  In16  1  0.500000  0.070893  0.217013  1
  In  In17  1  0.500000  0.782358  0.928781  1
  In  In18  1  0.500000  0.215231  0.071682  1
  In  In19  1  0.500000  0.499358  0.498763  1
  Ag  Ag20  1  0.500000  0.752476  0.549090  1
  Pt  Pt21  1  0.500000  0.249186  0.449747  1
  Pt  Pt22  1  0.500000  0.549744  0.753840  1
  Pt  Pt23  1  0.500000  0.448599  0.245678  1
