# generated using pymatgen
data_Ta2Co2SiP
_symmetry_space_group_name_H-M   'P 1'
_cell_length_a   3.62663000
_cell_length_b   6.16496923
_cell_length_c   7.00420727
_cell_angle_alpha   90.03158606
_cell_angle_beta   90.00000000
_cell_angle_gamma   90.00000000
_symmetry_Int_Tables_number   1
_chemical_formula_structural   Ta2Co2SiP
_chemical_formula_sum   'Ta4 Co4 Si2 P2'
_cell_volume   156.60047914
_cell_formula_units_Z   2
loop_
 _symmetry_equiv_pos_site_id
 _symmetry_equiv_pos_as_xyz
  1  'x, y, z'
loop_
 _atom_site_type_symbol
 _atom_site_label
 _atom_site_symmetry_multiplicity
 _atom_site_fract_x
 _atom_site_fract_y
 _atom_site_fract_z
 _atom_site_occupancy
  Ta  Ta0  1  0.250000  0.022212  0.822665  1
  Ta  Ta1  1  0.250000  0.522189  0.677281  1
  Ta  Ta2  1  0.750000  0.974379  0.172297  1
  Ta  Ta3  1  0.750000  0.474359  0.327738  1
  Co  Co4  1  0.250000  0.144848  0.442610  1
  Co  Co5  1  0.250000  0.645003  0.057423  1
  Co  Co6  1  0.750000  0.858530  0.567223  1
  Co  Co7  1  0.750000  0.358528  0.932741  1
  Si  Si8  1  0.250000  0.275861  0.120848  1
  Si  Si9  1  0.250000  0.775856  0.379229  1
  P  P10  1  0.750000  0.724122  0.879641  1
  P  P11  1  0.750000  0.224115  0.620304  1
