# generated using pymatgen
data_Pr8NdLu3In20
_symmetry_space_group_name_H-M   'P 1'
_cell_length_a   6.68585247
_cell_length_b   10.54140300
_cell_length_c   12.47257600
_cell_angle_alpha   90.00000000
_cell_angle_beta   90.02144140
_cell_angle_gamma   90.00000000
_symmetry_Int_Tables_number   1
_chemical_formula_structural   Pr8NdLu3In20
_chemical_formula_sum   'Pr8 Nd1 Lu3 In20'
_cell_volume   879.04545832
_cell_formula_units_Z   1
loop_
 _symmetry_equiv_pos_site_id
 _symmetry_equiv_pos_as_xyz
  1  'x, y, z'
loop_
 _atom_site_type_symbol
 _atom_site_label
 _atom_site_symmetry_multiplicity
 _atom_site_fract_x
 _atom_site_fract_y
 _atom_site_fract_z
 _atom_site_occupancy
  Pr  Pr0  1  0.888587  0.489010  0.143812  1
  Pr  Pr1  1  0.610650  0.009769  0.644786  1
  Pr  Pr2  1  0.112091  0.988129  0.856631  1
  Pr  Pr3  1  0.387626  0.510723  0.356368  1
  Pr  Pr4  1  0.112091  0.511871  0.856631  1
  Pr  Pr5  1  0.387626  0.989277  0.356368  1
  Pr  Pr6  1  0.888587  0.010990  0.143812  1
  Pr  Pr7  1  0.610650  0.490231  0.644786  1
  Nd  Nd8  1  0.851373  0.250000  0.440647  1
  Lu  Lu9  1  0.348542  0.750000  0.058815  1
  Lu  Lu10  1  0.151120  0.750000  0.559454  1
  Lu  Lu11  1  0.651298  0.250000  0.941657  1
  In  In12  1  0.613158  0.750000  0.503642  1
  In  In13  1  0.885486  0.750000  0.003715  1
  In  In14  1  0.377418  0.250000  0.498060  1
  In  In15  1  0.114829  0.250000  0.995193  1
  In  In16  1  0.652191  0.750000  0.241811  1
  In  In17  1  0.847696  0.750000  0.742781  1
  In  In18  1  0.347876  0.250000  0.758969  1
  In  In19  1  0.159446  0.250000  0.253892  1
  In  In20  1  0.110427  0.750000  0.281651  1
  In  In21  1  0.391095  0.750000  0.782667  1
  In  In22  1  0.890891  0.250000  0.719601  1
  In  In23  1  0.608746  0.250000  0.213244  1
  In  In24  1  0.874119  0.549157  0.404462  1
  In  In25  1  0.626219  0.955748  0.904795  1
  In  In26  1  0.125687  0.042557  0.596343  1
  In  In27  1  0.374222  0.456106  0.094903  1
  In  In28  1  0.125687  0.457443  0.596343  1
  In  In29  1  0.374222  0.043894  0.094903  1
  In  In30  1  0.874119  0.950843  0.404462  1
  In  In31  1  0.626219  0.544252  0.904795  1
