# generated using pymatgen
data_BaMn(Sb4Ru)3
_symmetry_space_group_name_H-M   'P 1'
_cell_length_a   8.20109682
_cell_length_b   8.20109591
_cell_length_c   8.17819300
_cell_angle_alpha   109.41466411
_cell_angle_beta   109.41466186
_cell_angle_gamma   109.52771797
_symmetry_Int_Tables_number   1
_chemical_formula_structural   BaMn(Sb4Ru)3
_chemical_formula_sum   'Ba1 Mn1 Sb12 Ru3'
_cell_volume   423.72292403
_cell_formula_units_Z   1
loop_
 _symmetry_equiv_pos_site_id
 _symmetry_equiv_pos_as_xyz
  1  'x, y, z'
loop_
 _atom_site_type_symbol
 _atom_site_label
 _atom_site_symmetry_multiplicity
 _atom_site_fract_x
 _atom_site_fract_y
 _atom_site_fract_z
 _atom_site_occupancy
  Ba  Ba0  1  0.000000  0.000000  0.000000  1
  Mn  Mn1  1  0.000000  0.000000  0.500000  1
  Sb  Sb2  1  0.160782  0.813148  0.659479  1
  Sb  Sb3  1  0.159292  0.499779  0.340481  1
  Sb  Sb4  1  0.500221  0.659514  0.840702  1
  Sb  Sb5  1  0.340486  0.840708  0.181189  1
  Sb  Sb6  1  0.813148  0.652366  0.153669  1
  Sb  Sb7  1  0.652366  0.839218  0.498697  1
  Sb  Sb8  1  0.186852  0.347634  0.846331  1
  Sb  Sb9  1  0.659514  0.159292  0.818811  1
  Sb  Sb10  1  0.347634  0.160782  0.501303  1
  Sb  Sb11  1  0.499779  0.340486  0.159298  1
  Sb  Sb12  1  0.840708  0.500221  0.659519  1
  Sb  Sb13  1  0.839218  0.186852  0.340521  1
  Ru  Ru14  1  0.500000  0.500000  0.500000  1
  Ru  Ru15  1  0.500000  0.000000  0.000000  1
  Ru  Ru16  1  0.000000  0.500000  0.000000  1
