# generated using pymatgen
data_Y2Lu10Tc3Ir
_symmetry_space_group_name_H-M   'P 1'
_cell_length_a   6.16234097
_cell_length_b   7.38384140
_cell_length_c   8.88795900
_cell_angle_alpha   90.00000000
_cell_angle_beta   90.00000000
_cell_angle_gamma   89.54571451
_symmetry_Int_Tables_number   1
_chemical_formula_structural   Y2Lu10Tc3Ir
_chemical_formula_sum   'Y2 Lu10 Tc3 Ir1'
_cell_volume   404.40496188
_cell_formula_units_Z   1
loop_
 _symmetry_equiv_pos_site_id
 _symmetry_equiv_pos_as_xyz
  1  'x, y, z'
loop_
 _atom_site_type_symbol
 _atom_site_label
 _atom_site_symmetry_multiplicity
 _atom_site_fract_x
 _atom_site_fract_y
 _atom_site_fract_z
 _atom_site_occupancy
  Y  Y0  1  0.880563  0.536639  0.250000  1
  Y  Y1  1  0.123221  0.461163  0.750000  1
  Lu  Lu2  1  0.343002  0.679574  0.063360  1
  Lu  Lu3  1  0.159805  0.171178  0.437656  1
  Lu  Lu4  1  0.654555  0.319576  0.561427  1
  Lu  Lu5  1  0.839413  0.830078  0.938668  1
  Lu  Lu6  1  0.654555  0.319576  0.938573  1
  Lu  Lu7  1  0.839413  0.830078  0.561332  1
  Lu  Lu8  1  0.343002  0.679574  0.436640  1
  Lu  Lu9  1  0.159805  0.171178  0.062344  1
  Lu  Lu10  1  0.622957  0.039435  0.250000  1
  Lu  Lu11  1  0.374558  0.958886  0.750000  1
  Tc  Tc12  1  0.040752  0.882374  0.250000  1
  Tc  Tc13  1  0.454170  0.383058  0.250000  1
  Tc  Tc14  1  0.959600  0.117818  0.750000  1
  Ir  Ir15  1  0.550630  0.619814  0.750000  1
