# generated using pymatgen
data_NdSm5RhAu7
_symmetry_space_group_name_H-M   'P 1'
_cell_length_a   8.27541635
_cell_length_b   8.24409790
_cell_length_c   8.26356736
_cell_angle_alpha   114.24968407
_cell_angle_beta   114.54540952
_cell_angle_gamma   114.44589859
_symmetry_Int_Tables_number   1
_chemical_formula_structural   NdSm5RhAu7
_chemical_formula_sum   'Nd1 Sm5 Rh1 Au7'
_cell_volume   331.74919853
_cell_formula_units_Z   1
loop_
 _symmetry_equiv_pos_site_id
 _symmetry_equiv_pos_as_xyz
  1  'x, y, z'
loop_
 _atom_site_type_symbol
 _atom_site_label
 _atom_site_symmetry_multiplicity
 _atom_site_fract_x
 _atom_site_fract_y
 _atom_site_fract_z
 _atom_site_occupancy
  Nd  Nd0  1  0.383299  0.013466  0.264137  1
  Sm  Sm1  1  0.735312  0.615976  0.986314  1
  Sm  Sm2  1  0.986410  0.736354  0.615675  1
  Sm  Sm3  1  0.617260  0.986532  0.737461  1
  Sm  Sm4  1  0.263915  0.383334  0.013782  1
  Sm  Sm5  1  0.013891  0.263707  0.383692  1
  Rh  Rh6  1  0.996820  0.999655  0.997689  1
  Au  Au7  1  0.569626  0.235444  0.070743  1
  Au  Au8  1  0.070533  0.567597  0.234411  1
  Au  Au9  1  0.233603  0.071481  0.570002  1
  Au  Au10  1  0.432091  0.764199  0.926463  1
  Au  Au11  1  0.930230  0.431158  0.766545  1
  Au  Au12  1  0.766287  0.928263  0.431707  1
  Au  Au13  1  0.500724  0.502835  0.501380  1
