# generated using pymatgen
data_Dy2Tm10AlCo4Sn
_symmetry_space_group_name_H-M   'P 1'
_cell_length_a   8.24299602
_cell_length_b   8.20251762
_cell_length_c   8.20251858
_cell_angle_alpha   111.92640862
_cell_angle_beta   109.53590822
_cell_angle_gamma   106.80468578
_symmetry_Int_Tables_number   1
_chemical_formula_structural   Dy2Tm10AlCo4Sn
_chemical_formula_sum   'Dy2 Tm10 Al1 Co4 Sn1'
_cell_volume   427.06059627
_cell_formula_units_Z   1
loop_
 _symmetry_equiv_pos_site_id
 _symmetry_equiv_pos_as_xyz
  1  'x, y, z'
loop_
 _atom_site_type_symbol
 _atom_site_label
 _atom_site_symmetry_multiplicity
 _atom_site_fract_x
 _atom_site_fract_y
 _atom_site_fract_z
 _atom_site_occupancy
  Dy  Dy0  1  0.436889  0.233880  0.203009  1
  Dy  Dy1  1  0.563111  0.766120  0.796991  1
  Tm  Tm2  1  0.033810  0.236421  0.797389  1
  Tm  Tm3  1  0.966190  0.763579  0.202611  1
  Tm  Tm4  1  0.180219  0.281030  0.462188  1
  Tm  Tm5  1  0.819781  0.718970  0.537812  1
  Tm  Tm6  1  0.180219  0.718031  0.899188  1
  Tm  Tm7  1  0.819781  0.281969  0.100812  1
  Tm  Tm8  1  0.322304  0.637155  0.310971  1
  Tm  Tm9  1  0.677696  0.362845  0.689029  1
  Tm  Tm10  1  0.322304  0.011333  0.685151  1
  Tm  Tm11  1  0.677696  0.988667  0.314849  1
  Al  Al12  1  0.000000  0.000000  0.000000  1
  Co  Co13  1  0.335546  0.998694  0.336852  1
  Co  Co14  1  0.664454  0.001306  0.663148  1
  Co  Co15  1  0.110657  0.614931  0.495727  1
  Co  Co16  1  0.889343  0.385069  0.504273  1
  Sn  Sn17  1  0.500000  0.500000  0.000000  1
