# generated using pymatgen
data_Yb8ZrSnN8
_symmetry_space_group_name_H-M   'P 1'
_cell_length_a   6.07066951
_cell_length_b   6.06589767
_cell_length_c   9.18413963
_cell_angle_alpha   84.80991608
_cell_angle_beta   109.00833641
_cell_angle_gamma   111.65324966
_symmetry_Int_Tables_number   1
_chemical_formula_structural   Yb8ZrSnN8
_chemical_formula_sum   'Yb8 Zr1 Sn1 N8'
_cell_volume   297.02187690
_cell_formula_units_Z   1
loop_
 _symmetry_equiv_pos_site_id
 _symmetry_equiv_pos_as_xyz
  1  'x, y, z'
loop_
 _atom_site_type_symbol
 _atom_site_label
 _atom_site_symmetry_multiplicity
 _atom_site_fract_x
 _atom_site_fract_y
 _atom_site_fract_z
 _atom_site_occupancy
  Yb  Yb0  1  0.814678  0.271587  0.197280  1
  Yb  Yb1  1  0.187253  0.729573  0.804261  1
  Yb  Yb2  1  0.241154  0.244067  0.992365  1
  Yb  Yb3  1  0.759325  0.750757  0.005054  1
  Yb  Yb4  1  0.055221  0.262250  0.576770  1
  Yb  Yb5  1  0.951978  0.737252  0.427572  1
  Yb  Yb6  1  0.545279  0.752434  0.599134  1
  Yb  Yb7  1  0.466588  0.247001  0.410844  1
  Zr  Zr8  1  0.392738  0.719564  0.235566  1
  Sn  Sn9  1  0.605416  0.280744  0.764043  1
  N  N10  1  0.302024  0.008196  0.610513  1
  N  N11  1  0.688520  0.991109  0.385422  1
  N  N12  1  0.810583  0.150187  0.952183  1
  N  N13  1  0.186154  0.844229  0.042833  1
  N  N14  1  0.413745  0.494370  0.799631  1
  N  N15  1  0.579190  0.508905  0.196507  1
  N  N16  1  0.198359  0.510092  0.385134  1
  N  N17  1  0.801796  0.497683  0.614889  1
