# generated using pymatgen
data_SmTm2Nb(Co4P3)2
_symmetry_space_group_name_H-M   'P 1'
_cell_length_a   3.70709700
_cell_length_b   10.61766100
_cell_length_c   12.31026400
_cell_angle_alpha   90.00000000
_cell_angle_beta   90.00000000
_cell_angle_gamma   90.00000000
_symmetry_Int_Tables_number   1
_chemical_formula_structural   SmTm2Nb(Co4P3)2
_chemical_formula_sum   'Sm2 Tm4 Nb2 Co16 P12'
_cell_volume   484.54059887
_cell_formula_units_Z   2
loop_
 _symmetry_equiv_pos_site_id
 _symmetry_equiv_pos_as_xyz
  1  'x, y, z'
loop_
 _atom_site_type_symbol
 _atom_site_label
 _atom_site_symmetry_multiplicity
 _atom_site_fract_x
 _atom_site_fract_y
 _atom_site_fract_z
 _atom_site_occupancy
  Sm  Sm0  1  0.000000  0.500000  0.527398  1
  Sm  Sm1  1  0.500000  0.000000  0.472602  1
  Tm  Tm2  1  0.500000  0.820336  0.204064  1
  Tm  Tm3  1  0.500000  0.179664  0.204064  1
  Tm  Tm4  1  0.000000  0.679664  0.795936  1
  Tm  Tm5  1  0.000000  0.320336  0.795936  1
  Nb  Nb6  1  0.500000  0.500000  0.155587  1
  Nb  Nb7  1  0.000000  0.000000  0.844413  1
  Co  Co8  1  0.500000  0.500000  0.705015  1
  Co  Co9  1  0.000000  0.000000  0.294985  1
  Co  Co10  1  0.000000  0.500000  0.985460  1
  Co  Co11  1  0.500000  0.000000  0.014540  1
  Co  Co12  1  0.500000  0.331941  0.991405  1
  Co  Co13  1  0.500000  0.668059  0.991405  1
  Co  Co14  1  0.000000  0.168059  0.008595  1
  Co  Co15  1  0.000000  0.831941  0.008595  1
  Co  Co16  1  0.500000  0.295050  0.431681  1
  Co  Co17  1  0.500000  0.704950  0.431681  1
  Co  Co18  1  0.000000  0.204950  0.568319  1
  Co  Co19  1  0.000000  0.795050  0.568319  1
  Co  Co20  1  0.500000  0.877087  0.706421  1
  Co  Co21  1  0.500000  0.122913  0.706421  1
  Co  Co22  1  0.000000  0.622913  0.293579  1
  Co  Co23  1  0.000000  0.377087  0.293579  1
  P  P24  1  0.500000  0.500000  0.882359  1
  P  P25  1  0.000000  0.000000  0.117641  1
  P  P26  1  0.500000  0.500000  0.353417  1
  P  P27  1  0.000000  0.000000  0.646583  1
  P  P28  1  0.500000  0.309473  0.617527  1
  P  P29  1  0.500000  0.690527  0.617527  1
  P  P30  1  0.000000  0.190527  0.382473  1
  P  P31  1  0.000000  0.809473  0.382473  1
  P  P32  1  0.500000  0.840873  0.892903  1
  P  P33  1  0.500000  0.159127  0.892903  1
  P  P34  1  0.000000  0.659127  0.107097  1
  P  P35  1  0.000000  0.340873  0.107097  1
