# generated using pymatgen
data_UPa3B16
_symmetry_space_group_name_H-M   'P 1'
_cell_length_a   7.09070136
_cell_length_b   7.09070136
_cell_length_c   3.99551300
_cell_angle_alpha   90.00000000
_cell_angle_beta   90.00000000
_cell_angle_gamma   89.81379493
_symmetry_Int_Tables_number   1
_chemical_formula_structural   UPa3B16
_chemical_formula_sum   'U1 Pa3 B16'
_cell_volume   200.88552473
_cell_formula_units_Z   1
loop_
 _symmetry_equiv_pos_site_id
 _symmetry_equiv_pos_as_xyz
  1  'x, y, z'
loop_
 _atom_site_type_symbol
 _atom_site_label
 _atom_site_symmetry_multiplicity
 _atom_site_fract_x
 _atom_site_fract_y
 _atom_site_fract_z
 _atom_site_occupancy
  U  U0  1  0.189448  0.689448  0.000000  1
  Pa  Pa1  1  0.811155  0.311155  0.000000  1
  Pa  Pa2  1  0.310129  0.189826  0.000000  1
  Pa  Pa3  1  0.689826  0.810129  0.000000  1
  B  B4  1  0.000959  0.998896  0.199614  1
  B  B5  1  0.498896  0.500959  0.800386  1
  B  B6  1  0.000959  0.998896  0.800386  1
  B  B7  1  0.498896  0.500959  0.199614  1
  B  B8  1  0.587698  0.087698  0.500000  1
  B  B9  1  0.087769  0.412505  0.500000  1
  B  B10  1  0.912505  0.587769  0.500000  1
  B  B11  1  0.412809  0.912809  0.500000  1
  B  B12  1  0.038587  0.177532  0.500000  1
  B  B13  1  0.178730  0.959697  0.500000  1
  B  B14  1  0.822501  0.038035  0.500000  1
  B  B15  1  0.963157  0.820714  0.500000  1
  B  B16  1  0.459697  0.678730  0.500000  1
  B  B17  1  0.538035  0.322501  0.500000  1
  B  B18  1  0.677532  0.538587  0.500000  1
  B  B19  1  0.320714  0.463157  0.500000  1
