# generated using pymatgen
data_Ta13Fe8Ge3N4
_symmetry_space_group_name_H-M   'P 1'
_cell_length_a   8.09738379
_cell_length_b   8.07761636
_cell_length_c   8.09738400
_cell_angle_alpha   59.91901381
_cell_angle_beta   59.99999912
_cell_angle_gamma   59.91900937
_symmetry_Int_Tables_number   1
_chemical_formula_structural   Ta13Fe8Ge3N4
_chemical_formula_sum   'Ta13 Fe8 Ge3 N4'
_cell_volume   374.04595113
_cell_formula_units_Z   1
loop_
 _symmetry_equiv_pos_site_id
 _symmetry_equiv_pos_as_xyz
  1  'x, y, z'
loop_
 _atom_site_type_symbol
 _atom_site_label
 _atom_site_symmetry_multiplicity
 _atom_site_fract_x
 _atom_site_fract_y
 _atom_site_fract_z
 _atom_site_occupancy
  Ta  Ta0  1  0.625000  0.125000  0.625000  1
  Ta  Ta1  1  0.805671  0.804008  0.195161  1
  Ta  Ta2  1  0.189269  0.194600  0.808066  1
  Ta  Ta3  1  0.808066  0.194600  0.808066  1
  Ta  Ta4  1  0.195161  0.804008  0.195161  1
  Ta  Ta5  1  0.195161  0.804008  0.805671  1
  Ta  Ta6  1  0.808066  0.194600  0.189269  1
  Ta  Ta7  1  0.444329  0.445992  0.054839  1
  Ta  Ta8  1  0.060731  0.055400  0.441934  1
  Ta  Ta9  1  0.441934  0.055400  0.441934  1
  Ta  Ta10  1  0.054839  0.445992  0.054839  1
  Ta  Ta11  1  0.054839  0.445992  0.444329  1
  Ta  Ta12  1  0.441934  0.055400  0.060731  1
  Fe  Fe13  1  0.749860  0.420319  0.414911  1
  Fe  Fe14  1  0.419616  0.741151  0.419616  1
  Fe  Fe15  1  0.414911  0.420319  0.749860  1
  Fe  Fe16  1  0.414911  0.420319  0.414911  1
  Fe  Fe17  1  0.500140  0.829681  0.835089  1
  Fe  Fe18  1  0.830384  0.508849  0.830384  1
  Fe  Fe19  1  0.835089  0.829681  0.500140  1
  Fe  Fe20  1  0.835089  0.829681  0.835089  1
  Ge  Ge21  1  0.125000  0.625000  0.625000  1
  Ge  Ge22  1  0.625000  0.625000  0.125000  1
  Ge  Ge23  1  0.625000  0.625000  0.625000  1
  N  N24  1  0.625000  0.125000  0.125000  1
  N  N25  1  0.125000  0.625000  0.125000  1
  N  N26  1  0.125000  0.125000  0.625000  1
  N  N27  1  0.125000  0.125000  0.125000  1
