# generated using pymatgen
data_Cs4TaV3(CuTe2)8
_symmetry_space_group_name_H-M   'P 1'
_cell_length_a   5.99329216
_cell_length_b   8.31227669
_cell_length_c   20.94241492
_cell_angle_alpha   90.01445614
_cell_angle_beta   90.24162057
_cell_angle_gamma   89.82589380
_symmetry_Int_Tables_number   1
_chemical_formula_structural   Cs4TaV3(CuTe2)8
_chemical_formula_sum   'Cs4 Ta1 V3 Cu8 Te16'
_cell_volume   1043.29306466
_cell_formula_units_Z   1
loop_
 _symmetry_equiv_pos_site_id
 _symmetry_equiv_pos_as_xyz
  1  'x, y, z'
loop_
 _atom_site_type_symbol
 _atom_site_label
 _atom_site_symmetry_multiplicity
 _atom_site_fract_x
 _atom_site_fract_y
 _atom_site_fract_z
 _atom_site_occupancy
  Cs  Cs0  1  0.017422  0.706771  0.439690  1
  Cs  Cs1  1  0.517430  0.293317  0.561171  1
  Cs  Cs2  1  0.514348  0.794259  0.937025  1
  Cs  Cs3  1  0.019527  0.206936  0.060250  1
  Ta  Ta4  1  0.259734  0.705881  0.148524  1
  V  V5  1  0.759693  0.294336  0.850484  1
  V  V6  1  0.759274  0.794431  0.649481  1
  V  V7  1  0.259146  0.206125  0.351256  1
  Cu  Cu8  1  0.266739  0.963212  0.247950  1
  Cu  Cu9  1  0.766845  0.037623  0.752535  1
  Cu  Cu10  1  0.766368  0.537084  0.747403  1
  Cu  Cu11  1  0.267968  0.461976  0.252801  1
  Cu  Cu12  1  0.258376  0.792679  0.647138  1
  Cu  Cu13  1  0.757833  0.206710  0.352613  1
  Cu  Cu14  1  0.759446  0.706264  0.147384  1
  Cu  Cu15  1  0.258951  0.292318  0.852321  1
  Te  Te16  1  0.511766  0.966451  0.144206  1
  Te  Te17  1  0.001897  0.041839  0.856644  1
  Te  Te18  1  0.001315  0.541860  0.643513  1
  Te  Te19  1  0.500482  0.457723  0.357354  1
  Te  Te20  1  0.502659  0.956263  0.351483  1
  Te  Te21  1  0.001899  0.043927  0.649238  1
  Te  Te22  1  0.002594  0.543478  0.850825  1
  Te  Te23  1  0.514039  0.446592  0.150158  1
  Te  Te24  1  0.000336  0.712662  0.251958  1
  Te  Te25  1  0.505758  0.288021  0.750808  1
  Te  Te26  1  0.506876  0.788226  0.748800  1
  Te  Te27  1  0.006172  0.212854  0.251511  1
  Te  Te28  1  0.009090  0.693750  0.045284  1
  Te  Te29  1  0.523592  0.306074  0.949903  1
  Te  Te30  1  0.521516  0.805863  0.549780  1
  Te  Te31  1  0.022512  0.194497  0.450508  1
