# generated using pymatgen
data_PrNd9(Ga2Sn)2
_symmetry_space_group_name_H-M   'P 1'
_cell_length_a   9.17269207
_cell_length_b   9.17269220
_cell_length_c   9.16968877
_cell_angle_alpha   127.43241945
_cell_angle_beta   127.43242729
_cell_angle_gamma   77.58115757
_symmetry_Int_Tables_number   1
_chemical_formula_structural   PrNd9(Ga2Sn)2
_chemical_formula_sum   'Pr1 Nd9 Ga4 Sn2'
_cell_volume   471.67280461
_cell_formula_units_Z   1
loop_
 _symmetry_equiv_pos_site_id
 _symmetry_equiv_pos_as_xyz
  1  'x, y, z'
loop_
 _atom_site_type_symbol
 _atom_site_label
 _atom_site_symmetry_multiplicity
 _atom_site_fract_x
 _atom_site_fract_y
 _atom_site_fract_z
 _atom_site_occupancy
  Pr  Pr0  1  0.524133  0.024133  0.839953  1
  Nd  Nd1  1  0.500023  0.500263  0.000194  1
  Nd  Nd2  1  0.000263  0.000023  0.000194  1
  Nd  Nd3  1  0.184763  0.684763  0.160075  1
  Nd  Nd4  1  0.024274  0.185008  0.500050  1
  Nd  Nd5  1  0.685008  0.524274  0.500050  1
  Nd  Nd6  1  0.475572  0.975572  0.160320  1
  Nd  Nd7  1  0.815234  0.315234  0.839610  1
  Nd  Nd8  1  0.975298  0.815112  0.499852  1
  Nd  Nd9  1  0.315112  0.475298  0.499852  1
  Ga  Ga10  1  0.879506  0.379506  0.258681  1
  Ga  Ga11  1  0.121049  0.621049  0.742019  1
  Ga  Ga12  1  0.378809  0.121128  0.499389  1
  Ga  Ga13  1  0.621128  0.878809  0.499389  1
  Sn  Sn14  1  0.249469  0.250359  0.000185  1
  Sn  Sn15  1  0.750359  0.749469  0.000185  1
