# generated using pymatgen
data_Ca2CuReN4
_symmetry_space_group_name_H-M   'P 1'
_cell_length_a   5.80195500
_cell_length_b   5.93717253
_cell_length_c   6.53105678
_cell_angle_alpha   73.87463992
_cell_angle_beta   90.00000000
_cell_angle_gamma   90.00000000
_symmetry_Int_Tables_number   1
_chemical_formula_structural   Ca2CuReN4
_chemical_formula_sum   'Ca4 Cu2 Re2 N8'
_cell_volume   216.12525938
_cell_formula_units_Z   2
loop_
 _symmetry_equiv_pos_site_id
 _symmetry_equiv_pos_as_xyz
  1  'x, y, z'
loop_
 _atom_site_type_symbol
 _atom_site_label
 _atom_site_symmetry_multiplicity
 _atom_site_fract_x
 _atom_site_fract_y
 _atom_site_fract_z
 _atom_site_occupancy
  Ca  Ca0  1  0.250000  0.270948  0.055114  1
  Ca  Ca1  1  0.750000  0.729052  0.944886  1
  Ca  Ca2  1  0.750000  0.772339  0.432400  1
  Ca  Ca3  1  0.250000  0.227661  0.567600  1
  Cu  Cu4  1  0.750000  0.284186  0.312844  1
  Cu  Cu5  1  0.250000  0.715814  0.687156  1
  Re  Re6  1  0.250000  0.730759  0.196300  1
  Re  Re7  1  0.750000  0.269241  0.803700  1
  N  N8  1  0.501856  0.468654  0.752997  1
  N  N9  1  0.001856  0.531346  0.247003  1
  N  N10  1  0.498144  0.531346  0.247003  1
  N  N11  1  0.998144  0.468654  0.752997  1
  N  N12  1  0.750000  0.074873  0.623617  1
  N  N13  1  0.250000  0.925127  0.376383  1
  N  N14  1  0.750000  0.091496  0.084631  1
  N  N15  1  0.250000  0.908504  0.915369  1
