# generated using pymatgen
data_DyHoEr2(Co3Si5)2
_symmetry_space_group_name_H-M   'P 1'
_cell_length_a   7.82550452
_cell_length_b   7.82626477
_cell_length_c   5.48599400
_cell_angle_alpha   70.74391297
_cell_angle_beta   70.75406062
_cell_angle_gamma   93.38249190
_symmetry_Int_Tables_number   1
_chemical_formula_structural   DyHoEr2(Co3Si5)2
_chemical_formula_sum   'Dy1 Ho1 Er2 Co6 Si10'
_cell_volume   294.11365018
_cell_formula_units_Z   1
loop_
 _symmetry_equiv_pos_site_id
 _symmetry_equiv_pos_as_xyz
  1  'x, y, z'
loop_
 _atom_site_type_symbol
 _atom_site_label
 _atom_site_symmetry_multiplicity
 _atom_site_fract_x
 _atom_site_fract_y
 _atom_site_fract_z
 _atom_site_occupancy
  Dy  Dy0  1  0.598016  0.869818  0.263159  1
  Ho  Ho1  1  0.130018  0.402211  0.236665  1
  Er  Er2  1  0.869569  0.597940  0.763652  1
  Er  Er3  1  0.402119  0.130027  0.736502  1
  Co  Co4  1  0.538370  0.262180  0.125812  1
  Co  Co5  1  0.996959  0.003397  0.249895  1
  Co  Co6  1  0.261809  0.538301  0.626167  1
  Co  Co7  1  0.461287  0.737702  0.874442  1
  Co  Co8  1  0.738076  0.461679  0.374055  1
  Co  Co9  1  0.003629  0.996652  0.749898  1
  Si  Si10  1  0.770716  0.229582  0.749761  1
  Si  Si11  1  0.228686  0.770967  0.250235  1
  Si  Si12  1  0.511198  0.488487  0.749996  1
  Si  Si13  1  0.488705  0.510578  0.250477  1
  Si  Si14  1  0.214364  0.785617  0.749697  1
  Si  Si15  1  0.785572  0.214821  0.249957  1
  Si  Si16  1  0.064223  0.261815  0.834640  1
  Si  Si17  1  0.262037  0.064392  0.334539  1
  Si  Si18  1  0.936298  0.737848  0.165238  1
  Si  Si19  1  0.738349  0.935985  0.665211  1
