# generated using pymatgen
data_Hf2InRhAu
_symmetry_space_group_name_H-M   'P 1'
_cell_length_a   7.66416670
_cell_length_b   7.66416730
_cell_length_c   3.35846000
_cell_angle_alpha   90.00000000
_cell_angle_beta   90.00000000
_cell_angle_gamma   89.68425913
_symmetry_Int_Tables_number   1
_chemical_formula_structural   Hf2InRhAu
_chemical_formula_sum   'Hf4 In2 Rh2 Au2'
_cell_volume   197.27111736
_cell_formula_units_Z   2
loop_
 _symmetry_equiv_pos_site_id
 _symmetry_equiv_pos_as_xyz
  1  'x, y, z'
loop_
 _atom_site_type_symbol
 _atom_site_label
 _atom_site_symmetry_multiplicity
 _atom_site_fract_x
 _atom_site_fract_y
 _atom_site_fract_z
 _atom_site_occupancy
  Hf  Hf0  1  0.179315  0.320685  0.000000  1
  Hf  Hf1  1  0.820685  0.679315  0.000000  1
  Hf  Hf2  1  0.655553  0.155553  0.000000  1
  Hf  Hf3  1  0.344447  0.844447  0.000000  1
  In  In4  1  0.000000  0.000000  0.500000  1
  In  In5  1  0.500000  0.500000  0.500000  1
  Rh  Rh6  1  0.368841  0.131159  0.500000  1
  Rh  Rh7  1  0.631159  0.868841  0.500000  1
  Au  Au8  1  0.869243  0.369243  0.500000  1
  Au  Au9  1  0.130757  0.630757  0.500000  1
