# generated using pymatgen
data_TbEr15In4(IrPd)2
_symmetry_space_group_name_H-M   'P 1'
_cell_length_a   9.59796661
_cell_length_b   9.62275568
_cell_length_c   9.61863429
_cell_angle_alpha   60.14622284
_cell_angle_beta   60.03483436
_cell_angle_gamma   60.02931244
_symmetry_Int_Tables_number   1
_chemical_formula_structural   TbEr15In4(IrPd)2
_chemical_formula_sum   'Tb1 Er15 In4 Ir2 Pd2'
_cell_volume   629.16647921
_cell_formula_units_Z   1
loop_
 _symmetry_equiv_pos_site_id
 _symmetry_equiv_pos_as_xyz
  1  'x, y, z'
loop_
 _atom_site_type_symbol
 _atom_site_label
 _atom_site_symmetry_multiplicity
 _atom_site_fract_x
 _atom_site_fract_y
 _atom_site_fract_z
 _atom_site_occupancy
  Tb  Tb0  1  0.062394  0.061105  0.435000  1
  Er  Er1  1  0.649651  0.056017  0.643252  1
  Er  Er2  1  0.185929  0.808713  0.194357  1
  Er  Er3  1  0.441463  0.062060  0.434937  1
  Er  Er4  1  0.185791  0.194597  0.809063  1
  Er  Er5  1  0.655076  0.648924  0.649056  1
  Er  Er6  1  0.049151  0.647513  0.647919  1
  Er  Er7  1  0.438000  0.062465  0.061800  1
  Er  Er8  1  0.650040  0.643139  0.055866  1
  Er  Er9  1  0.190862  0.808988  0.809820  1
  Er  Er10  1  0.810408  0.194697  0.809957  1
  Er  Er11  1  0.809918  0.189626  0.189255  1
  Er  Er12  1  0.810756  0.809445  0.194669  1
  Er  Er13  1  0.062842  0.438370  0.437908  1
  Er  Er14  1  0.440928  0.434831  0.062137  1
  Er  Er15  1  0.062147  0.435672  0.060298  1
  In  In16  1  0.749353  0.417491  0.416852  1
  In  In17  1  0.416531  0.417200  0.749592  1
  In  In18  1  0.417129  0.748969  0.417281  1
  In  In19  1  0.415678  0.416494  0.416539  1
  Ir  Ir20  1  0.856255  0.860204  0.427215  1
  Ir  Ir21  1  0.856522  0.427314  0.860448  1
  Pd  Pd22  1  0.854766  0.857645  0.858286  1
  Pd  Pd23  1  0.428411  0.858523  0.858494  1
