# generated using pymatgen
data_Ho3Ni14Sn
_symmetry_space_group_name_H-M   'P 1'
_cell_length_a   4.90017653
_cell_length_b   4.90017564
_cell_length_c   12.33108621
_cell_angle_alpha   78.50113281
_cell_angle_beta   78.50113592
_cell_angle_gamma   59.87413603
_symmetry_Int_Tables_number   1
_chemical_formula_structural   Ho3Ni14Sn
_chemical_formula_sum   'Ho3 Ni14 Sn1'
_cell_volume   249.22786941
_cell_formula_units_Z   1
loop_
 _symmetry_equiv_pos_site_id
 _symmetry_equiv_pos_as_xyz
  1  'x, y, z'
loop_
 _atom_site_type_symbol
 _atom_site_label
 _atom_site_symmetry_multiplicity
 _atom_site_fract_x
 _atom_site_fract_y
 _atom_site_fract_z
 _atom_site_occupancy
  Ho  Ho0  1  0.948912  0.948912  0.152801  1
  Ho  Ho1  1  0.053676  0.053676  0.838807  1
  Ho  Ho2  1  0.850427  0.850427  0.449236  1
  Ni  Ni3  1  0.500527  0.500527  0.498958  1
  Ni  Ni4  1  0.722024  0.722024  0.834670  1
  Ni  Ni5  1  0.278109  0.278109  0.165405  1
  Ni  Ni6  1  0.611156  0.611156  0.166167  1
  Ni  Ni7  1  0.387750  0.387750  0.835776  1
  Ni  Ni8  1  0.999682  0.500143  0.999970  1
  Ni  Ni9  1  0.500143  0.999682  0.999970  1
  Ni  Ni10  1  0.500214  0.500214  0.999696  1
  Ni  Ni11  1  0.388725  0.388725  0.329974  1
  Ni  Ni12  1  0.892407  0.388547  0.330070  1
  Ni  Ni13  1  0.388547  0.892407  0.330070  1
  Ni  Ni14  1  0.610872  0.610872  0.668423  1
  Ni  Ni15  1  0.109900  0.611125  0.668305  1
  Ni  Ni16  1  0.611125  0.109900  0.668305  1
  Sn  Sn17  1  0.145805  0.145805  0.563400  1
