# generated using pymatgen
data_Hf9Zr9Ta5(ReO2)3
_symmetry_space_group_name_H-M   'P 1'
_cell_length_a   8.66748493
_cell_length_b   8.69893069
_cell_length_c   8.52870428
_cell_angle_alpha   89.89785180
_cell_angle_beta   90.00461838
_cell_angle_gamma   119.59279849
_symmetry_Int_Tables_number   1
_chemical_formula_structural   Hf9Zr9Ta5(ReO2)3
_chemical_formula_sum   'Hf9 Zr9 Ta5 Re3 O6'
_cell_volume   559.16400476
_cell_formula_units_Z   1
loop_
 _symmetry_equiv_pos_site_id
 _symmetry_equiv_pos_as_xyz
  1  'x, y, z'
loop_
 _atom_site_type_symbol
 _atom_site_label
 _atom_site_symmetry_multiplicity
 _atom_site_fract_x
 _atom_site_fract_y
 _atom_site_fract_z
 _atom_site_occupancy
  Hf  Hf0  1  0.452365  0.906390  0.249510  1
  Hf  Hf1  1  0.547191  0.093807  0.750044  1
  Hf  Hf2  1  0.094120  0.548385  0.249857  1
  Hf  Hf3  1  0.906979  0.452488  0.750203  1
  Hf  Hf4  1  0.453293  0.547447  0.249990  1
  Hf  Hf5  1  0.545370  0.452514  0.750093  1
  Hf  Hf6  1  0.589121  0.795510  0.936837  1
  Hf  Hf7  1  0.794904  0.203563  0.061472  1
  Hf  Hf8  1  0.204177  0.796544  0.938349  1
  Zr  Zr9  1  0.202962  0.407158  0.564065  1
  Zr  Zr10  1  0.794422  0.588386  0.437129  1
  Zr  Zr11  1  0.586567  0.794076  0.564843  1
  Zr  Zr12  1  0.793657  0.587187  0.063588  1
  Zr  Zr13  1  0.409448  0.204018  0.438096  1
  Zr  Zr14  1  0.205055  0.410359  0.935493  1
  Zr  Zr15  1  0.205582  0.794708  0.563835  1
  Zr  Zr16  1  0.410688  0.205126  0.062408  1
  Zr  Zr17  1  0.793163  0.205174  0.436258  1
  Ta  Ta18  1  0.113241  0.223172  0.249425  1
  Ta  Ta19  1  0.889128  0.778769  0.750484  1
  Ta  Ta20  1  0.778318  0.886983  0.249237  1
  Ta  Ta21  1  0.003073  0.002415  0.996582  1
  Ta  Ta22  1  0.003573  0.002545  0.503704  1
  Re  Re23  1  0.226021  0.112478  0.750579  1
  Re  Re24  1  0.112740  0.888087  0.249259  1
  Re  Re25  1  0.887227  0.112908  0.751092  1
  O  O26  1  0.498502  0.997065  0.997599  1
  O  O27  1  0.001475  0.501516  0.999570  1
  O  O28  1  0.498637  0.000562  0.501011  1
  O  O29  1  0.499461  0.502027  0.997833  1
  O  O30  1  0.001049  0.500706  0.500466  1
  O  O31  1  0.498496  0.497931  0.501089  1
