# generated using pymatgen
data_Bi(Sb3Pd10)2
_symmetry_space_group_name_H-M   'P 1'
_cell_length_a   7.86717577
_cell_length_b   7.86717558
_cell_length_c   7.86717487
_cell_angle_alpha   99.43376416
_cell_angle_beta   99.43375486
_cell_angle_gamma   99.43376641
_symmetry_Int_Tables_number   1
_chemical_formula_structural   Bi(Sb3Pd10)2
_chemical_formula_sum   'Bi1 Sb6 Pd20'
_cell_volume   464.64303980
_cell_formula_units_Z   1
loop_
 _symmetry_equiv_pos_site_id
 _symmetry_equiv_pos_as_xyz
  1  'x, y, z'
loop_
 _atom_site_type_symbol
 _atom_site_label
 _atom_site_symmetry_multiplicity
 _atom_site_fract_x
 _atom_site_fract_y
 _atom_site_fract_z
 _atom_site_occupancy
  Bi  Bi0  1  0.000000  0.000000  0.000000  1
  Sb  Sb1  1  0.456209  0.878047  0.725738  1
  Sb  Sb2  1  0.878047  0.725738  0.456209  1
  Sb  Sb3  1  0.725738  0.456209  0.878047  1
  Sb  Sb4  1  0.543791  0.121953  0.274262  1
  Sb  Sb5  1  0.121953  0.274262  0.543791  1
  Sb  Sb6  1  0.274262  0.543791  0.121953  1
  Pd  Pd7  1  0.375681  0.375681  0.375681  1
  Pd  Pd8  1  0.624319  0.624319  0.624319  1
  Pd  Pd9  1  0.998371  0.344410  0.228479  1
  Pd  Pd10  1  0.344410  0.228479  0.998371  1
  Pd  Pd11  1  0.228479  0.998370  0.344410  1
  Pd  Pd12  1  0.001629  0.655590  0.771521  1
  Pd  Pd13  1  0.655590  0.771521  0.001630  1
  Pd  Pd14  1  0.771521  0.001630  0.655590  1
  Pd  Pd15  1  0.684195  0.145810  0.987762  1
  Pd  Pd16  1  0.145810  0.987762  0.684195  1
  Pd  Pd17  1  0.987762  0.684195  0.145810  1
  Pd  Pd18  1  0.315805  0.854190  0.012238  1
  Pd  Pd19  1  0.854190  0.012238  0.315805  1
  Pd  Pd20  1  0.012238  0.315805  0.854190  1
  Pd  Pd21  1  0.208727  0.664051  0.477394  1
  Pd  Pd22  1  0.664051  0.477394  0.208727  1
  Pd  Pd23  1  0.477394  0.208727  0.664051  1
  Pd  Pd24  1  0.791273  0.335949  0.522606  1
  Pd  Pd25  1  0.335949  0.522606  0.791273  1
  Pd  Pd26  1  0.522606  0.791273  0.335949  1
