# generated using pymatgen
data_Li2Lu(Rh2Pb)3
_symmetry_space_group_name_H-M   'P 1'
_cell_length_a   4.59153300
_cell_length_b   6.42175700
_cell_length_c   13.74586500
_cell_angle_alpha   90.00000000
_cell_angle_beta   89.99917123
_cell_angle_gamma   90.00000000
_symmetry_Int_Tables_number   1
_chemical_formula_structural   Li2Lu(Rh2Pb)3
_chemical_formula_sum   'Li4 Lu2 Rh12 Pb6'
_cell_volume   405.30657784
_cell_formula_units_Z   2
loop_
 _symmetry_equiv_pos_site_id
 _symmetry_equiv_pos_as_xyz
  1  'x, y, z'
loop_
 _atom_site_type_symbol
 _atom_site_label
 _atom_site_symmetry_multiplicity
 _atom_site_fract_x
 _atom_site_fract_y
 _atom_site_fract_z
 _atom_site_occupancy
  Li  Li0  1  0.999837  0.000000  0.336107  1
  Li  Li1  1  0.500015  0.500000  0.500867  1
  Li  Li2  1  0.000155  0.000000  0.665798  1
  Li  Li3  1  0.500147  0.500000  0.830600  1
  Lu  Lu4  1  0.999999  0.000000  0.997492  1
  Lu  Lu5  1  0.499870  0.500000  0.169141  1
  Rh  Rh6  1  0.500001  0.250681  0.996070  1
  Rh  Rh7  1  0.500001  0.749318  0.996070  1
  Rh  Rh8  1  0.999890  0.249258  0.170610  1
  Rh  Rh9  1  0.999890  0.750741  0.170610  1
  Rh  Rh10  1  0.499829  0.248185  0.337899  1
  Rh  Rh11  1  0.499829  0.751815  0.337899  1
  Rh  Rh12  1  0.000015  0.243261  0.501230  1
  Rh  Rh13  1  0.000015  0.756738  0.501230  1
  Rh  Rh14  1  0.500193  0.256778  0.665407  1
  Rh  Rh15  1  0.500193  0.743222  0.665407  1
  Rh  Rh16  1  0.000105  0.251831  0.828782  1
  Rh  Rh17  1  0.000105  0.748168  0.828782  1
  Pb  Pb18  1  0.999996  0.500000  0.993321  1
  Pb  Pb19  1  0.500011  0.000000  0.173392  1
  Pb  Pb20  1  0.999786  0.500000  0.343969  1
  Pb  Pb21  1  0.500006  0.000000  0.504934  1
  Pb  Pb22  1  0.000195  0.500000  0.661742  1
  Pb  Pb23  1  0.499916  0.000000  0.822644  1
