# generated using pymatgen
data_Tb2Hf3P7Rh9
_symmetry_space_group_name_H-M   'P 1'
_cell_length_a   3.86601900
_cell_length_b   9.83551467
_cell_length_c   9.83545034
_cell_angle_alpha   120.00065598
_cell_angle_beta   89.99991898
_cell_angle_gamma   89.99996957
_symmetry_Int_Tables_number   1
_chemical_formula_structural   Tb2Hf3P7Rh9
_chemical_formula_sum   'Tb2 Hf3 P7 Rh9'
_cell_volume   323.87922037
_cell_formula_units_Z   1
loop_
 _symmetry_equiv_pos_site_id
 _symmetry_equiv_pos_as_xyz
  1  'x, y, z'
loop_
 _atom_site_type_symbol
 _atom_site_label
 _atom_site_symmetry_multiplicity
 _atom_site_fract_x
 _atom_site_fract_y
 _atom_site_fract_z
 _atom_site_occupancy
  Tb  Tb0  1  0.261673  0.666676  0.333356  1
  Tb  Tb1  1  0.761903  0.333331  0.666659  1
  Hf  Hf2  1  0.762095  0.103867  0.875497  1
  Hf  Hf3  1  0.762093  0.124484  0.228355  1
  Hf  Hf4  1  0.762092  0.771610  0.896126  1
  P  P5  1  0.263907  0.999983  0.999989  1
  P  P6  1  0.761691  0.865381  0.578899  1
  P  P7  1  0.761689  0.421119  0.286490  1
  P  P8  1  0.761690  0.713534  0.134668  1
  P  P9  1  0.261751  0.113431  0.422034  1
  P  P10  1  0.261753  0.577956  0.691373  1
  P  P11  1  0.261755  0.308611  0.886570  1
  Rh  Rh12  1  0.261320  0.880147  0.161392  1
  Rh  Rh13  1  0.261325  0.838626  0.718782  1
  Rh  Rh14  1  0.261322  0.281204  0.119820  1
  Rh  Rh15  1  0.761765  0.607649  0.554450  1
  Rh  Rh16  1  0.761767  0.445554  0.053214  1
  Rh  Rh17  1  0.761762  0.946815  0.392346  1
  Rh  Rh18  1  0.262217  0.360490  0.436554  1
  Rh  Rh19  1  0.262220  0.563428  0.923893  1
  Rh  Rh20  1  0.262210  0.076107  0.639530  1
