# generated using pymatgen
data_Li2Tm3AgPb3
_symmetry_space_group_name_H-M   'P 1'
_cell_length_a   7.34203000
_cell_length_b   7.32413042
_cell_length_c   4.61300700
_cell_angle_alpha   90.00000000
_cell_angle_beta   90.00000000
_cell_angle_gamma   120.08086810
_symmetry_Int_Tables_number   1
_chemical_formula_structural   Li2Tm3AgPb3
_chemical_formula_sum   'Li2 Tm3 Ag1 Pb3'
_cell_volume   214.65079150
_cell_formula_units_Z   1
loop_
 _symmetry_equiv_pos_site_id
 _symmetry_equiv_pos_as_xyz
  1  'x, y, z'
loop_
 _atom_site_type_symbol
 _atom_site_label
 _atom_site_symmetry_multiplicity
 _atom_site_fract_x
 _atom_site_fract_y
 _atom_site_fract_z
 _atom_site_occupancy
  Li  Li0  1  0.770643  0.766977  0.000000  1
  Li  Li1  1  0.003666  0.233023  0.000000  1
  Tm  Tm2  1  0.551680  0.000000  0.500000  1
  Tm  Tm3  1  0.433135  0.429153  0.500000  1
  Tm  Tm4  1  0.003983  0.570847  0.500000  1
  Ag  Ag5  1  0.237387  0.000000  0.000000  1
  Pb  Pb6  1  0.985377  0.000000  0.500000  1
  Pb  Pb7  1  0.335983  0.657836  0.000000  1
  Pb  Pb8  1  0.678147  0.342164  0.000000  1
