# generated using pymatgen
data_CaY4Ni16(MoAs4)3
_symmetry_space_group_name_H-M   'P 1'
_cell_length_a   12.64224700
_cell_length_b   12.64224770
_cell_length_c   3.87686900
_cell_angle_alpha   90.00000000
_cell_angle_beta   90.00000000
_cell_angle_gamma   120.00000603
_symmetry_Int_Tables_number   1
_chemical_formula_structural   CaY4Ni16(MoAs4)3
_chemical_formula_sum   'Ca1 Y4 Ni16 Mo3 As12'
_cell_volume   536.61189814
_cell_formula_units_Z   1
loop_
 _symmetry_equiv_pos_site_id
 _symmetry_equiv_pos_as_xyz
  1  'x, y, z'
loop_
 _atom_site_type_symbol
 _atom_site_label
 _atom_site_symmetry_multiplicity
 _atom_site_fract_x
 _atom_site_fract_y
 _atom_site_fract_z
 _atom_site_occupancy
  Ca  Ca0  1  0.333333  0.666667  0.000000  1
  Y  Y1  1  0.185909  0.185971  0.500000  1
  Y  Y2  1  0.814029  0.999938  0.500000  1
  Y  Y3  1  0.000062  0.814091  0.500000  1
  Y  Y4  1  0.666667  0.333333  0.000000  1
  Ni  Ni5  1  0.718216  0.718097  0.500000  1
  Ni  Ni6  1  0.281903  0.000118  0.500000  1
  Ni  Ni7  1  0.999882  0.281784  0.500000  1
  Ni  Ni8  1  0.181892  0.375015  0.000000  1
  Ni  Ni9  1  0.624985  0.806877  0.000000  1
  Ni  Ni10  1  0.193123  0.818108  0.000000  1
  Ni  Ni11  1  0.806448  0.623527  0.000000  1
  Ni  Ni12  1  0.817079  0.193552  0.000000  1
  Ni  Ni13  1  0.376473  0.182921  0.000000  1
  Ni  Ni14  1  0.359883  0.481497  0.500000  1
  Ni  Ni15  1  0.518503  0.878388  0.500000  1
  Ni  Ni16  1  0.121612  0.640117  0.500000  1
  Ni  Ni17  1  0.876946  0.517389  0.500000  1
  Ni  Ni18  1  0.640444  0.123054  0.500000  1
  Ni  Ni19  1  0.482611  0.359556  0.500000  1
  Ni  Ni20  1  0.000000  0.000000  0.000000  1
  Mo  Mo21  1  0.562559  0.562685  0.000000  1
  Mo  Mo22  1  0.437315  0.999874  0.000000  1
  Mo  Mo23  1  0.000126  0.437441  0.000000  1
  As  As24  1  0.821645  0.821341  0.000000  1
  As  As25  1  0.178659  0.000304  0.000000  1
  As  As26  1  0.999696  0.178355  0.000000  1
  As  As27  1  0.167210  0.480952  0.500000  1
  As  As28  1  0.519048  0.686257  0.500000  1
  As  As29  1  0.313743  0.832790  0.500000  1
  As  As30  1  0.686437  0.519022  0.500000  1
  As  As31  1  0.832584  0.313563  0.500000  1
  As  As32  1  0.480978  0.167416  0.500000  1
  As  As33  1  0.364749  0.365032  0.000000  1
  As  As34  1  0.634968  0.999717  0.000000  1
  As  As35  1  0.000283  0.635251  0.000000  1
