# generated using pymatgen
data_Ce3Th(Ge2Ir)4
_symmetry_space_group_name_H-M   'P 1'
_cell_length_a   9.52771920
_cell_length_b   9.52771951
_cell_length_c   9.52771939
_cell_angle_alpha   153.31458618
_cell_angle_beta   124.26857408
_cell_angle_gamma   62.83473870
_symmetry_Int_Tables_number   1
_chemical_formula_structural   Ce3Th(Ge2Ir)4
_chemical_formula_sum   'Ce3 Th1 Ge8 Ir4'
_cell_volume   318.45951046
_cell_formula_units_Z   1
loop_
 _symmetry_equiv_pos_site_id
 _symmetry_equiv_pos_as_xyz
  1  'x, y, z'
loop_
 _atom_site_type_symbol
 _atom_site_label
 _atom_site_symmetry_multiplicity
 _atom_site_fract_x
 _atom_site_fract_y
 _atom_site_fract_z
 _atom_site_occupancy
  Ce  Ce0  1  0.707650  0.207562  0.500088  1
  Ce  Ce1  1  0.292526  0.792439  0.500089  1
  Ce  Ce2  1  0.737896  0.000000  0.737896  1
  Th  Th3  1  0.264031  0.000000  0.264031  1
  Ge  Ge4  1  0.424150  0.422859  0.001291  1
  Ge  Ge5  1  0.578431  0.577140  0.001291  1
  Ge  Ge6  1  0.353968  0.198929  0.155040  1
  Ge  Ge7  1  0.956110  0.801070  0.155040  1
  Ge  Ge8  1  0.921712  0.423163  0.498549  1
  Ge  Ge9  1  0.075388  0.576838  0.498550  1
  Ge  Ge10  1  0.043330  0.198730  0.844600  1
  Ge  Ge11  1  0.645870  0.801270  0.844600  1
  Ir  Ir12  1  0.604384  0.352532  0.251853  1
  Ir  Ir13  1  0.899322  0.647468  0.251853  1
  Ir  Ir14  1  0.101729  0.354116  0.747614  1
  Ir  Ir15  1  0.393499  0.645885  0.747615  1
