# generated using pymatgen
data_Dy3Ho(Al8Pd3)3
_symmetry_space_group_name_H-M   'P 1'
_cell_length_a   7.52700377
_cell_length_b   7.54736223
_cell_length_c   13.16744900
_cell_angle_alpha   84.56904437
_cell_angle_beta   79.10821776
_cell_angle_gamma   59.97695458
_symmetry_Int_Tables_number   1
_chemical_formula_structural   Dy3Ho(Al8Pd3)3
_chemical_formula_sum   'Dy3 Ho1 Al24 Pd9'
_cell_volume   635.99532054
_cell_formula_units_Z   1
loop_
 _symmetry_equiv_pos_site_id
 _symmetry_equiv_pos_as_xyz
  1  'x, y, z'
loop_
 _atom_site_type_symbol
 _atom_site_label
 _atom_site_symmetry_multiplicity
 _atom_site_fract_x
 _atom_site_fract_y
 _atom_site_fract_z
 _atom_site_occupancy
  Dy  Dy0  1  0.606634  0.831572  0.191704  1
  Dy  Dy1  1  0.733676  0.498442  0.808250  1
  Dy  Dy2  1  0.266383  0.501420  0.191785  1
  Ho  Ho3  1  0.393341  0.168528  0.808267  1
  Al  Al4  1  0.684443  0.833910  0.944604  1
  Al  Al5  1  0.315490  0.166267  0.055084  1
  Al  Al6  1  0.146224  0.832991  0.561694  1
  Al  Al7  1  0.853715  0.167028  0.438393  1
  Al  Al8  1  0.479574  0.166795  0.559150  1
  Al  Al9  1  0.520385  0.833240  0.440972  1
  Al  Al10  1  0.216458  0.165191  0.330235  1
  Al  Al11  1  0.783367  0.834940  0.669899  1
  Al  Al12  1  0.437199  0.506536  0.670086  1
  Al  Al13  1  0.562710  0.493356  0.330066  1
  Al  Al14  1  0.109474  0.159531  0.669096  1
  Al  Al15  1  0.890581  0.840473  0.331082  1
  Al  Al16  1  0.352868  0.499236  0.944681  1
  Al  Al17  1  0.647180  0.500557  0.055146  1
  Al  Al18  1  0.015456  0.167574  0.953646  1
  Al  Al19  1  0.984773  0.832385  0.046126  1
  Al  Al20  1  0.186702  0.499247  0.440950  1
  Al  Al21  1  0.813272  0.500746  0.559126  1
  Al  Al22  1  0.733923  0.163951  0.183846  1
  Al  Al23  1  0.266009  0.836327  0.816134  1
  Al  Al24  1  0.061919  0.630643  0.815025  1
  Al  Al25  1  0.938359  0.369136  0.184931  1
  Al  Al26  1  0.854739  0.041894  0.815920  1
  Al  Al27  1  0.145094  0.958100  0.184033  1
  Pd  Pd28  1  0.120155  0.492484  0.638330  1
  Pd  Pd29  1  0.879975  0.507250  0.361841  1
  Pd  Pd30  1  0.657114  0.171412  0.999880  1
  Pd  Pd31  1  0.342986  0.828613  0.999885  1
  Pd  Pd32  1  0.537845  0.166813  0.361811  1
  Pd  Pd33  1  0.462062  0.833388  0.638330  1
  Pd  Pd34  1  0.778509  0.174908  0.637588  1
  Pd  Pd35  1  0.221345  0.825216  0.362554  1
  Pd  Pd36  1  0.000058  0.499896  0.999851  1
