# generated using pymatgen
data_Nd4Cd3Co2
_symmetry_space_group_name_H-M   'P 1'
_cell_length_a   3.83542400
_cell_length_b   7.55072620
_cell_length_c   8.23813651
_cell_angle_alpha   70.59708318
_cell_angle_beta   90.00000000
_cell_angle_gamma   90.00000000
_symmetry_Int_Tables_number   1
_chemical_formula_structural   Nd4Cd3Co2
_chemical_formula_sum   'Nd4 Cd3 Co2'
_cell_volume   225.02850074
_cell_formula_units_Z   1
loop_
 _symmetry_equiv_pos_site_id
 _symmetry_equiv_pos_as_xyz
  1  'x, y, z'
loop_
 _atom_site_type_symbol
 _atom_site_label
 _atom_site_symmetry_multiplicity
 _atom_site_fract_x
 _atom_site_fract_y
 _atom_site_fract_z
 _atom_site_occupancy
  Nd  Nd0  1  0.500000  0.602971  0.189258  1
  Nd  Nd1  1  0.500000  0.907865  0.722689  1
  Nd  Nd2  1  0.500000  0.092135  0.277311  1
  Nd  Nd3  1  0.500000  0.397029  0.810742  1
  Cd  Cd4  1  0.000000  0.703796  0.503399  1
  Cd  Cd5  1  0.000000  0.296204  0.496601  1
  Cd  Cd6  1  0.000000  0.000000  0.000000  1
  Co  Co7  1  0.000000  0.354198  0.103060  1
  Co  Co8  1  0.000000  0.645802  0.896940  1
