# generated using pymatgen
data_Tb8Nd12Sn11Bi5
_symmetry_space_group_name_H-M   'P 1'
_cell_length_a   8.33849219
_cell_length_b   8.36070627
_cell_length_c   15.90239032
_cell_angle_alpha   89.94295746
_cell_angle_beta   90.17066730
_cell_angle_gamma   89.96394796
_symmetry_Int_Tables_number   1
_chemical_formula_structural   Tb8Nd12Sn11Bi5
_chemical_formula_sum   'Tb8 Nd12 Sn11 Bi5'
_cell_volume   1108.64032849
_cell_formula_units_Z   1
loop_
 _symmetry_equiv_pos_site_id
 _symmetry_equiv_pos_as_xyz
  1  'x, y, z'
loop_
 _atom_site_type_symbol
 _atom_site_label
 _atom_site_symmetry_multiplicity
 _atom_site_fract_x
 _atom_site_fract_y
 _atom_site_fract_z
 _atom_site_occupancy
  Tb  Tb0  1  0.386716  0.660669  0.122343  1
  Tb  Tb1  1  0.888506  0.841505  0.377932  1
  Tb  Tb2  1  0.611640  0.340727  0.621757  1
  Tb  Tb3  1  0.118856  0.160570  0.876905  1
  Tb  Tb4  1  0.283239  0.499379  0.746446  1
  Tb  Tb5  1  0.782986  0.999151  0.748798  1
  Tb  Tb6  1  0.716720  0.500498  0.247671  1
  Tb  Tb7  1  0.216340  0.000617  0.253054  1
  Nd  Nd8  1  0.459902  0.823256  0.893299  1
  Nd  Nd9  1  0.962208  0.671645  0.606157  1
  Nd  Nd10  1  0.537276  0.173379  0.393364  1
  Nd  Nd11  1  0.037179  0.329600  0.106559  1
  Nd  Nd12  1  0.545516  0.176959  0.107993  1
  Nd  Nd13  1  0.053891  0.326746  0.392373  1
  Nd  Nd14  1  0.445451  0.827055  0.607927  1
  Nd  Nd15  1  0.950872  0.668942  0.893306  1
  Nd  Nd16  1  0.617509  0.341356  0.879485  1
  Nd  Nd17  1  0.116037  0.162213  0.619052  1
  Nd  Nd18  1  0.384977  0.663341  0.381726  1
  Nd  Nd19  1  0.882461  0.835078  0.121786  1
  Sn  Sn20  1  0.279117  0.473708  0.547144  1
  Sn  Sn21  1  0.220870  0.974709  0.452861  1
  Sn  Sn22  1  0.718985  0.528140  0.046615  1
  Sn  Sn23  1  0.650892  0.641876  0.748314  1
  Sn  Sn24  1  0.148768  0.857757  0.752647  1
  Sn  Sn25  1  0.348995  0.360744  0.248185  1
  Sn  Sn26  1  0.848618  0.142107  0.251341  1
  Sn  Sn27  1  0.419047  0.127408  0.751086  1
  Sn  Sn28  1  0.918266  0.371130  0.749846  1
  Sn  Sn29  1  0.581539  0.873334  0.250621  1
  Sn  Sn30  1  0.083653  0.628029  0.250414  1
  Bi  Bi31  1  0.226889  0.974040  0.044652  1
  Bi  Bi32  1  0.731552  0.522796  0.454642  1
  Bi  Bi33  1  0.768799  0.022383  0.544768  1
  Bi  Bi34  1  0.274251  0.472646  0.955587  1
  Bi  Bi35  1  0.781478  0.026505  0.953341  1
