# generated using pymatgen
data_Dy3Ho6ErRu4
_symmetry_space_group_name_H-M   'P 1'
_cell_length_a   6.31522235
_cell_length_b   7.26573389
_cell_length_c   8.44704592
_cell_angle_alpha   96.74164897
_cell_angle_beta   112.05683425
_cell_angle_gamma   89.95493952
_symmetry_Int_Tables_number   1
_chemical_formula_structural   Dy3Ho6ErRu4
_chemical_formula_sum   'Dy3 Ho6 Er1 Ru4'
_cell_volume   356.34457798
_cell_formula_units_Z   1
loop_
 _symmetry_equiv_pos_site_id
 _symmetry_equiv_pos_as_xyz
  1  'x, y, z'
loop_
 _atom_site_type_symbol
 _atom_site_label
 _atom_site_symmetry_multiplicity
 _atom_site_fract_x
 _atom_site_fract_y
 _atom_site_fract_z
 _atom_site_occupancy
  Dy  Dy0  1  0.791087  0.583995  0.812561  1
  Dy  Dy1  1  0.977516  0.915962  0.186614  1
  Dy  Dy2  1  0.209112  0.415726  0.187091  1
  Ho  Ho3  1  0.022017  0.084449  0.813431  1
  Ho  Ho4  1  0.205623  0.684938  0.565760  1
  Ho  Ho5  1  0.640407  0.815444  0.434894  1
  Ho  Ho6  1  0.794350  0.314845  0.434351  1
  Ho  Ho7  1  0.359598  0.184896  0.565670  1
  Ho  Ho8  1  0.419512  0.749722  0.999653  1
  Er  Er9  1  0.580011  0.250257  0.000062  1
  Ru  Ru10  1  0.602669  0.924887  0.779156  1
  Ru  Ru11  1  0.822682  0.576365  0.220789  1
  Ru  Ru12  1  0.398217  0.075546  0.220546  1
  Ru  Ru13  1  0.177201  0.422968  0.779422  1
