# generated using pymatgen
data_Ce3Er13(InRu)4
_symmetry_space_group_name_H-M   'P 1'
_cell_length_a   9.66037881
_cell_length_b   9.73951327
_cell_length_c   9.73951300
_cell_angle_alpha   59.99999751
_cell_angle_beta   59.72864785
_cell_angle_gamma   59.72865049
_symmetry_Int_Tables_number   1
_chemical_formula_structural   Ce3Er13(InRu)4
_chemical_formula_sum   'Ce3 Er13 In4 Ru4'
_cell_volume   645.29778110
_cell_formula_units_Z   1
loop_
 _symmetry_equiv_pos_site_id
 _symmetry_equiv_pos_as_xyz
  1  'x, y, z'
loop_
 _atom_site_type_symbol
 _atom_site_label
 _atom_site_symmetry_multiplicity
 _atom_site_fract_x
 _atom_site_fract_y
 _atom_site_fract_z
 _atom_site_occupancy
  Ce  Ce0  1  0.592347  0.595680  0.595680  1
  Ce  Ce1  1  0.592347  0.595680  0.216292  1
  Ce  Ce2  1  0.592347  0.216292  0.595680  1
  Er  Er3  1  0.197795  0.600735  0.600735  1
  Er  Er4  1  0.062535  0.439385  0.439385  1
  Er  Er5  1  0.436534  0.061082  0.061082  1
  Er  Er6  1  0.436534  0.061082  0.441301  1
  Er  Er7  1  0.062535  0.439385  0.058694  1
  Er  Er8  1  0.436534  0.441301  0.061082  1
  Er  Er9  1  0.062535  0.058694  0.439385  1
  Er  Er10  1  0.188546  0.811015  0.811015  1
  Er  Er11  1  0.808877  0.192233  0.192233  1
  Er  Er12  1  0.808877  0.192233  0.806657  1
  Er  Er13  1  0.188546  0.811015  0.189424  1
  Er  Er14  1  0.808877  0.806657  0.192233  1
  Er  Er15  1  0.188546  0.189424  0.811015  1
  In  In16  1  0.832778  0.833713  0.833713  1
  In  In17  1  0.832778  0.833713  0.499796  1
  In  In18  1  0.832778  0.499796  0.833713  1
  In  In19  1  0.499370  0.833543  0.833543  1
  Ru  Ru20  1  0.405559  0.387124  0.387124  1
  Ru  Ru21  1  0.405559  0.387124  0.820194  1
  Ru  Ru22  1  0.405559  0.820194  0.387124  1
  Ru  Ru23  1  0.821303  0.392899  0.392899  1
