# generated using pymatgen
data_Sc3Si2Tc3As
_symmetry_space_group_name_H-M   'P 1'
_cell_length_a   6.97023400
_cell_length_b   6.97023511
_cell_length_c   3.44426200
_cell_angle_alpha   90.00000000
_cell_angle_beta   90.00000000
_cell_angle_gamma   119.99999472
_symmetry_Int_Tables_number   1
_chemical_formula_structural   Sc3Si2Tc3As
_chemical_formula_sum   'Sc3 Si2 Tc3 As1'
_cell_volume   144.91776275
_cell_formula_units_Z   1
loop_
 _symmetry_equiv_pos_site_id
 _symmetry_equiv_pos_as_xyz
  1  'x, y, z'
loop_
 _atom_site_type_symbol
 _atom_site_label
 _atom_site_symmetry_multiplicity
 _atom_site_fract_x
 _atom_site_fract_y
 _atom_site_fract_z
 _atom_site_occupancy
  Sc  Sc0  1  0.398391  0.393455  0.500000  1
  Sc  Sc1  1  0.606545  0.004936  0.500000  1
  Sc  Sc2  1  0.995064  0.601609  0.500000  1
  Si  Si3  1  0.333333  0.666667  0.000000  1
  Si  Si4  1  0.000000  0.000000  0.500000  1
  Tc  Tc5  1  0.740458  0.748267  0.000000  1
  Tc  Tc6  1  0.251733  0.992191  0.000000  1
  Tc  Tc7  1  0.007809  0.259542  0.000000  1
  As  As8  1  0.666667  0.333333  0.000000  1
