# generated using pymatgen
data_LiMg(MnPt2)2
_symmetry_space_group_name_H-M   'P 1'
_cell_length_a   5.80570800
_cell_length_b   7.01048700
_cell_length_c   5.80645700
_cell_angle_alpha   90.00000000
_cell_angle_beta   89.99982237
_cell_angle_gamma   90.00000000
_symmetry_Int_Tables_number   1
_chemical_formula_structural   LiMg(MnPt2)2
_chemical_formula_sum   'Li2 Mg2 Mn4 Pt8'
_cell_volume   236.32767999
_cell_formula_units_Z   2
loop_
 _symmetry_equiv_pos_site_id
 _symmetry_equiv_pos_as_xyz
  1  'x, y, z'
loop_
 _atom_site_type_symbol
 _atom_site_label
 _atom_site_symmetry_multiplicity
 _atom_site_fract_x
 _atom_site_fract_y
 _atom_site_fract_z
 _atom_site_occupancy
  Li  Li0  1  0.249996  0.750001  0.499994  1
  Li  Li1  1  0.749999  0.250000  0.500006  1
  Mg  Mg2  1  0.749999  0.250000  0.000004  1
  Mg  Mg3  1  0.249999  0.750001  0.999998  1
  Mn  Mn4  1  0.250001  0.250000  0.999999  1
  Mn  Mn5  1  0.750003  0.750001  0.999996  1
  Mn  Mn6  1  0.750014  0.750001  0.499990  1
  Mn  Mn7  1  0.250001  0.250000  0.500009  1
  Pt  Pt8  1  0.999999  0.000006  0.254224  1
  Pt  Pt9  1  0.999999  0.499998  0.254224  1
  Pt  Pt10  1  0.499986  0.000002  0.254228  1
  Pt  Pt11  1  0.499986  0.499995  0.254228  1
  Pt  Pt12  1  0.500002  0.000003  0.745774  1
  Pt  Pt13  1  0.500002  0.500001  0.745774  1
  Pt  Pt14  1  0.000006  0.999999  0.745776  1
  Pt  Pt15  1  0.000006  0.499996  0.745776  1
