# generated using pymatgen
data_Lu8AlHg3
_symmetry_space_group_name_H-M   'P 1'
_cell_length_a   6.72485152
_cell_length_b   5.04049300
_cell_length_c   9.09908434
_cell_angle_alpha   90.00000000
_cell_angle_beta   90.18932463
_cell_angle_gamma   90.00000000
_symmetry_Int_Tables_number   1
_chemical_formula_structural   Lu8AlHg3
_chemical_formula_sum   'Lu8 Al1 Hg3'
_cell_volume   308.42603836
_cell_formula_units_Z   1
loop_
 _symmetry_equiv_pos_site_id
 _symmetry_equiv_pos_as_xyz
  1  'x, y, z'
loop_
 _atom_site_type_symbol
 _atom_site_label
 _atom_site_symmetry_multiplicity
 _atom_site_fract_x
 _atom_site_fract_y
 _atom_site_fract_z
 _atom_site_occupancy
  Lu  Lu0  1  0.172148  0.250000  0.072094  1
  Lu  Lu1  1  0.478141  0.750001  0.202482  1
  Lu  Lu2  1  0.979725  0.750001  0.297570  1
  Lu  Lu3  1  0.675972  0.250000  0.428585  1
  Lu  Lu4  1  0.325922  0.750001  0.570007  1
  Lu  Lu5  1  0.025425  0.250000  0.706567  1
  Lu  Lu6  1  0.517491  0.250000  0.798127  1
  Lu  Lu7  1  0.818154  0.750001  0.926430  1
  Al  Al8  1  0.276736  0.750001  0.896385  1
  Hg  Hg9  1  0.726670  0.250000  0.102090  1
  Hg  Hg10  1  0.230978  0.250000  0.397870  1
  Hg  Hg11  1  0.772638  0.750001  0.601797  1
