# generated using pymatgen
data_Pr8ErSc11Si15Au
_symmetry_space_group_name_H-M   'P 1'
_cell_length_a   7.25427351
_cell_length_b   7.61054777
_cell_length_c   14.35878800
_cell_angle_alpha   90.00000000
_cell_angle_beta   90.00000000
_cell_angle_gamma   90.57151863
_symmetry_Int_Tables_number   1
_chemical_formula_structural   Pr8ErSc11Si15Au
_chemical_formula_sum   'Pr8 Er1 Sc11 Si15 Au1'
_cell_volume   792.69481793
_cell_formula_units_Z   1
loop_
 _symmetry_equiv_pos_site_id
 _symmetry_equiv_pos_as_xyz
  1  'x, y, z'
loop_
 _atom_site_type_symbol
 _atom_site_label
 _atom_site_symmetry_multiplicity
 _atom_site_fract_x
 _atom_site_fract_y
 _atom_site_fract_z
 _atom_site_occupancy
  Pr  Pr0  1  0.013237  0.175515  0.400472  1
  Pr  Pr1  1  0.513014  0.326792  0.400144  1
  Pr  Pr2  1  0.490571  0.664501  0.908138  1
  Pr  Pr3  1  0.490571  0.664501  0.591862  1
  Pr  Pr4  1  0.987755  0.825590  0.593078  1
  Pr  Pr5  1  0.987755  0.825590  0.906922  1
  Pr  Pr6  1  0.513014  0.326792  0.099856  1
  Pr  Pr7  1  0.013237  0.175515  0.099528  1
  Er  Er8  1  0.656549  0.990242  0.750000  1
  Sc  Sc9  1  0.326582  0.185551  0.621618  1
  Sc  Sc10  1  0.671617  0.825554  0.373145  1
  Sc  Sc11  1  0.172180  0.675416  0.374356  1
  Sc  Sc12  1  0.829986  0.323214  0.877556  1
  Sc  Sc13  1  0.829986  0.323214  0.622444  1
  Sc  Sc14  1  0.840714  0.502968  0.250000  1
  Sc  Sc15  1  0.341312  0.997380  0.250000  1
  Sc  Sc16  1  0.326582  0.185551  0.878382  1
  Sc  Sc17  1  0.172180  0.675416  0.125644  1
  Sc  Sc18  1  0.671617  0.825554  0.126855  1
  Sc  Sc19  1  0.163256  0.497337  0.750000  1
  Si  Si20  1  0.465961  0.626259  0.250000  1
  Si  Si21  1  0.033965  0.135005  0.750000  1
  Si  Si22  1  0.537020  0.378733  0.750000  1
  Si  Si23  1  0.149790  0.464611  0.538647  1
  Si  Si24  1  0.970446  0.874253  0.250000  1
  Si  Si25  1  0.711784  0.117618  0.250000  1
  Si  Si26  1  0.846881  0.537085  0.042197  1
  Si  Si27  1  0.348897  0.963015  0.039271  1
  Si  Si28  1  0.149790  0.464611  0.961353  1
  Si  Si29  1  0.650153  0.037667  0.536491  1
  Si  Si30  1  0.348897  0.963015  0.460729  1
  Si  Si31  1  0.846881  0.537085  0.457803  1
  Si  Si32  1  0.787741  0.608896  0.750000  1
  Si  Si33  1  0.212956  0.385565  0.250000  1
  Si  Si34  1  0.650153  0.037667  0.963509  1
  Au  Au35  1  0.276970  0.876725  0.750000  1
