# generated using pymatgen
data_TmB2Pt6Au
_symmetry_space_group_name_H-M   'P 1'
_cell_length_a   5.59124800
_cell_length_b   5.59125040
_cell_length_c   5.62956300
_cell_angle_alpha   90.00000000
_cell_angle_beta   90.00000000
_cell_angle_gamma   119.99999764
_symmetry_Int_Tables_number   1
_chemical_formula_structural   TmB2Pt6Au
_chemical_formula_sum   'Tm1 B2 Pt6 Au1'
_cell_volume   152.41335522
_cell_formula_units_Z   1
loop_
 _symmetry_equiv_pos_site_id
 _symmetry_equiv_pos_as_xyz
  1  'x, y, z'
loop_
 _atom_site_type_symbol
 _atom_site_label
 _atom_site_symmetry_multiplicity
 _atom_site_fract_x
 _atom_site_fract_y
 _atom_site_fract_z
 _atom_site_occupancy
  Tm  Tm0  1  0.000000  0.000000  0.500000  1
  B  B1  1  0.666667  0.333333  0.500000  1
  B  B2  1  0.333333  0.666667  0.500000  1
  Pt  Pt3  1  0.500000  0.500000  0.757231  1
  Pt  Pt4  1  0.000000  0.500000  0.757231  1
  Pt  Pt5  1  0.500000  0.000000  0.757231  1
  Pt  Pt6  1  0.000000  0.500000  0.242769  1
  Pt  Pt7  1  0.500000  0.500000  0.242769  1
  Pt  Pt8  1  0.500000  0.000000  0.242769  1
  Au  Au9  1  0.000000  0.000000  0.000000  1
