# generated using pymatgen
data_Sr6DyErSb6
_symmetry_space_group_name_H-M   'P 1'
_cell_length_a   8.45258413
_cell_length_b   8.45399488
_cell_length_c   8.49986510
_cell_angle_alpha   109.33371756
_cell_angle_beta   109.30718788
_cell_angle_gamma   108.93187907
_symmetry_Int_Tables_number   1
_chemical_formula_structural   Sr6DyErSb6
_chemical_formula_sum   'Sr6 Dy1 Er1 Sb6'
_cell_volume   472.34900261
_cell_formula_units_Z   1
loop_
 _symmetry_equiv_pos_site_id
 _symmetry_equiv_pos_as_xyz
  1  'x, y, z'
loop_
 _atom_site_type_symbol
 _atom_site_label
 _atom_site_symmetry_multiplicity
 _atom_site_fract_x
 _atom_site_fract_y
 _atom_site_fract_z
 _atom_site_occupancy
  Sr  Sr0  1  0.999814  0.135787  0.495777  1
  Sr  Sr1  1  0.359882  0.357353  0.359653  1
  Sr  Sr2  1  0.635652  0.499761  0.995637  1
  Sr  Sr3  1  0.857241  0.859887  0.859772  1
  Sr  Sr4  1  0.502514  0.004052  0.644666  1
  Sr  Sr5  1  0.503812  0.002234  0.144610  1
  Dy  Dy6  1  0.999454  0.636095  0.497514  1
  Er  Er7  1  0.135619  0.499557  0.997568  1
  Sb  Sb8  1  0.241260  0.123446  0.870547  1
  Sb  Sb9  1  0.123475  0.850975  0.246475  1
  Sb  Sb10  1  0.775406  0.391005  0.635507  1
  Sb  Sb11  1  0.891390  0.275236  0.134545  1
  Sb  Sb12  1  0.622873  0.741205  0.370336  1
  Sb  Sb13  1  0.351608  0.623407  0.747392  1
