# generated using pymatgen
data_NdSm(Cu3Ni2)2
_symmetry_space_group_name_H-M   'P 1'
_cell_length_a   4.06144100
_cell_length_b   5.00080300
_cell_length_c   8.69011900
_cell_angle_alpha   90.00000000
_cell_angle_beta   90.00000000
_cell_angle_gamma   90.00000000
_symmetry_Int_Tables_number   1
_chemical_formula_structural   NdSm(Cu3Ni2)2
_chemical_formula_sum   'Nd1 Sm1 Cu6 Ni4'
_cell_volume   176.50036942
_cell_formula_units_Z   1
loop_
 _symmetry_equiv_pos_site_id
 _symmetry_equiv_pos_as_xyz
  1  'x, y, z'
loop_
 _atom_site_type_symbol
 _atom_site_label
 _atom_site_symmetry_multiplicity
 _atom_site_fract_x
 _atom_site_fract_y
 _atom_site_fract_z
 _atom_site_occupancy
  Nd  Nd0  1  0.000000  0.000000  0.994417  1
  Sm  Sm1  1  0.000000  0.500000  0.505797  1
  Cu  Cu2  1  0.000000  0.000000  0.333274  1
  Cu  Cu3  1  0.500000  0.000000  0.500821  1
  Cu  Cu4  1  0.500000  0.252913  0.249957  1
  Cu  Cu5  1  0.500000  0.747869  0.749271  1
  Cu  Cu6  1  0.500000  0.747087  0.249957  1
  Cu  Cu7  1  0.500000  0.252131  0.749271  1
  Ni  Ni8  1  0.000000  0.500000  0.837845  1
  Ni  Ni9  1  0.000000  0.500000  0.164407  1
  Ni  Ni10  1  0.000000  0.000000  0.664614  1
  Ni  Ni11  1  0.500000  0.500000  0.000366  1
