# generated using pymatgen
data_DyY4Er3(Si3Rh)4
_symmetry_space_group_name_H-M   'P 1'
_cell_length_a   8.16844501
_cell_length_b   8.17234256
_cell_length_c   7.89736300
_cell_angle_alpha   90.00000000
_cell_angle_beta   90.00000000
_cell_angle_gamma   120.01577226
_symmetry_Int_Tables_number   1
_chemical_formula_structural   DyY4Er3(Si3Rh)4
_chemical_formula_sum   'Dy1 Y4 Er3 Si12 Rh4'
_cell_volume   456.48828801
_cell_formula_units_Z   1
loop_
 _symmetry_equiv_pos_site_id
 _symmetry_equiv_pos_as_xyz
  1  'x, y, z'
loop_
 _atom_site_type_symbol
 _atom_site_label
 _atom_site_symmetry_multiplicity
 _atom_site_fract_x
 _atom_site_fract_y
 _atom_site_fract_z
 _atom_site_occupancy
  Dy  Dy0  1  0.016027  0.508013  0.250000  1
  Y  Y1  1  0.000118  0.000059  0.250000  1
  Y  Y2  1  0.000198  0.000099  0.750000  1
  Y  Y3  1  0.491213  0.508817  0.250000  1
  Y  Y4  1  0.491213  0.982396  0.250000  1
  Er  Er5  1  0.508981  0.490901  0.750000  1
  Er  Er6  1  0.981911  0.490955  0.750000  1
  Er  Er7  1  0.508981  0.018080  0.750000  1
  Si  Si8  1  0.833088  0.166913  0.501453  1
  Si  Si9  1  0.833088  0.666176  0.501453  1
  Si  Si10  1  0.334302  0.167152  0.501722  1
  Si  Si11  1  0.833088  0.166913  0.998547  1
  Si  Si12  1  0.833088  0.666176  0.998547  1
  Si  Si13  1  0.334302  0.167152  0.998278  1
  Si  Si14  1  0.167349  0.832622  0.999359  1
  Si  Si15  1  0.665229  0.832614  0.998489  1
  Si  Si16  1  0.167349  0.334726  0.999359  1
  Si  Si17  1  0.167349  0.832622  0.500641  1
  Si  Si18  1  0.665229  0.832614  0.501511  1
  Si  Si19  1  0.167349  0.334726  0.500641  1
  Rh  Rh20  1  0.667224  0.333612  0.470154  1
  Rh  Rh21  1  0.667224  0.333612  0.029846  1
  Rh  Rh22  1  0.333051  0.666526  0.961756  1
  Rh  Rh23  1  0.333051  0.666526  0.538244  1
