# generated using pymatgen
data_Ti8Al14SiOs4Rh3
_symmetry_space_group_name_H-M   'P 1'
_cell_length_a   8.62925948
_cell_length_b   8.63433956
_cell_length_c   8.65354339
_cell_angle_alpha   119.94831566
_cell_angle_beta   119.95344645
_cell_angle_gamma   89.99266758
_symmetry_Int_Tables_number   1
_chemical_formula_structural   Ti8Al14SiOs4Rh3
_chemical_formula_sum   'Ti8 Al14 Si1 Os4 Rh3'
_cell_volume   456.61780307
_cell_formula_units_Z   1
loop_
 _symmetry_equiv_pos_site_id
 _symmetry_equiv_pos_as_xyz
  1  'x, y, z'
loop_
 _atom_site_type_symbol
 _atom_site_label
 _atom_site_symmetry_multiplicity
 _atom_site_fract_x
 _atom_site_fract_y
 _atom_site_fract_z
 _atom_site_occupancy
  Ti  Ti0  1  0.788739  0.294444  0.086487  1
  Ti  Ti1  1  0.216260  0.302634  0.507172  1
  Ti  Ti2  1  0.207467  0.706929  0.508937  1
  Ti  Ti3  1  0.217165  0.712311  0.913824  1
  Ti  Ti4  1  0.796898  0.710387  0.496176  1
  Ti  Ti5  1  0.782683  0.282695  0.489209  1
  Ti  Ti6  1  0.374989  0.120827  0.743091  1
  Ti  Ti7  1  0.382506  0.634501  0.260244  1
  Al  Al8  1  0.151319  0.342142  0.185259  1
  Al  Al9  1  0.156131  0.973997  0.817503  1
  Al  Al10  1  0.150346  0.345351  0.808049  1
  Al  Al11  1  0.530425  0.343914  0.188917  1
  Al  Al12  1  0.847078  0.653050  0.806786  1
  Al  Al13  1  0.848162  0.033107  0.189489  1
  Al  Al14  1  0.843382  0.655280  0.183184  1
  Al  Al15  1  0.479744  0.660078  0.819797  1
  Al  Al16  1  0.378776  0.120636  0.259377  1
  Al  Al17  1  0.859611  0.120939  0.739961  1
  Al  Al18  1  0.620609  0.876317  0.256109  1
  Al  Al19  1  0.621014  0.362888  0.742747  1
  Al  Al20  1  0.619042  0.877506  0.740672  1
  Al  Al21  1  0.137709  0.879085  0.259873  1
  Si  Si22  1  0.996525  0.496066  0.500105  1
  Os  Os23  1  0.000457  0.998685  0.501230  1
  Os  Os24  1  0.499985  0.001207  0.000260  1
  Os  Os25  1  0.497516  0.497927  0.999478  1
  Os  Os26  1  0.496803  0.499245  0.497655  1
  Rh  Rh27  1  0.000481  0.500114  0.000277  1
  Rh  Rh28  1  0.999119  0.999062  0.998781  1
  Rh  Rh29  1  0.499052  0.998673  0.499347  1
