# generated using pymatgen
data_Rb4BiSbCl12
_symmetry_space_group_name_H-M   'P 1'
_cell_length_a   13.03528232
_cell_length_b   13.03528253
_cell_length_c   13.03528243
_cell_angle_alpha   131.93501086
_cell_angle_beta   131.93501482
_cell_angle_gamma   70.33168917
_symmetry_Int_Tables_number   1
_chemical_formula_structural   Rb4BiSbCl12
_chemical_formula_sum   'Rb8 Bi2 Sb2 Cl24'
_cell_volume   1201.25457587
_cell_formula_units_Z   2
loop_
 _symmetry_equiv_pos_site_id
 _symmetry_equiv_pos_as_xyz
  1  'x, y, z'
loop_
 _atom_site_type_symbol
 _atom_site_label
 _atom_site_symmetry_multiplicity
 _atom_site_fract_x
 _atom_site_fract_y
 _atom_site_fract_z
 _atom_site_occupancy
  Rb  Rb0  1  0.375000  0.840514  0.965514  1
  Rb  Rb1  1  0.590514  0.625000  0.465514  1
  Rb  Rb2  1  0.875000  0.840514  0.465514  1
  Rb  Rb3  1  0.590514  0.125000  0.965514  1
  Rb  Rb4  1  0.875000  0.409486  0.034486  1
  Rb  Rb5  1  0.159486  0.125000  0.534486  1
  Rb  Rb6  1  0.375000  0.409486  0.534486  1
  Rb  Rb7  1  0.159486  0.625000  0.034486  1
  Bi  Bi8  1  0.500000  0.500000  0.000000  1
  Bi  Bi9  1  0.250000  0.750000  0.500000  1
  Sb  Sb10  1  0.000000  0.000000  0.000000  1
  Sb  Sb11  1  0.750000  0.250000  0.500000  1
  Cl  Cl12  1  0.752136  0.495636  0.256501  1
  Cl  Cl13  1  0.504364  0.247864  0.743499  1
  Cl  Cl14  1  0.372152  0.372152  0.000000  1
  Cl  Cl15  1  0.122152  0.622152  0.500000  1
  Cl  Cl16  1  0.377848  0.877848  0.500000  1
  Cl  Cl17  1  0.627848  0.627848  0.000000  1
  Cl  Cl18  1  0.113447  0.113447  0.000000  1
  Cl  Cl19  1  0.863447  0.363447  0.500000  1
  Cl  Cl20  1  0.636553  0.136553  0.500000  1
  Cl  Cl21  1  0.886553  0.886553  0.000000  1
  Cl  Cl22  1  0.228320  0.000180  0.228140  1
  Cl  Cl23  1  0.750180  0.022041  0.271860  1
  Cl  Cl24  1  0.504364  0.760864  0.256501  1
  Cl  Cl25  1  0.521680  0.249820  0.271860  1
  Cl  Cl26  1  0.977959  0.249820  0.728140  1
  Cl  Cl27  1  0.999820  0.227959  0.228140  1
  Cl  Cl28  1  0.999820  0.771680  0.771860  1
  Cl  Cl29  1  0.772041  0.000180  0.771860  1
  Cl  Cl30  1  0.750180  0.478320  0.728140  1
  Cl  Cl31  1  0.245636  0.489136  0.243499  1
  Cl  Cl32  1  0.245636  0.002136  0.756501  1
  Cl  Cl33  1  0.997864  0.754364  0.243499  1
  Cl  Cl34  1  0.510864  0.754364  0.756501  1
  Cl  Cl35  1  0.239136  0.495636  0.743499  1
