# generated using pymatgen
data_Dy8Ho4GaTc2Ni2Sn
_symmetry_space_group_name_H-M   'P 1'
_cell_length_a   8.43811127
_cell_length_b   8.43811283
_cell_length_c   8.43811300
_cell_angle_alpha   113.58540112
_cell_angle_beta   110.59211533
_cell_angle_gamma   104.36935152
_symmetry_Int_Tables_number   1
_chemical_formula_structural   Dy8Ho4GaTc2Ni2Sn
_chemical_formula_sum   'Dy8 Ho4 Ga1 Tc2 Ni2 Sn1'
_cell_volume   459.43889195
_cell_formula_units_Z   1
loop_
 _symmetry_equiv_pos_site_id
 _symmetry_equiv_pos_as_xyz
  1  'x, y, z'
loop_
 _atom_site_type_symbol
 _atom_site_label
 _atom_site_symmetry_multiplicity
 _atom_site_fract_x
 _atom_site_fract_y
 _atom_site_fract_z
 _atom_site_occupancy
  Dy  Dy0  1  0.432437  0.237417  0.195020  1
  Dy  Dy1  1  0.567563  0.762583  0.804980  1
  Dy  Dy2  1  0.042397  0.237417  0.804980  1
  Dy  Dy3  1  0.957603  0.762583  0.195020  1
  Dy  Dy4  1  0.179144  0.281422  0.460566  1
  Dy  Dy5  1  0.820856  0.718578  0.539434  1
  Dy  Dy6  1  0.179144  0.718578  0.897723  1
  Dy  Dy7  1  0.820856  0.281422  0.102277  1
  Ho  Ho8  1  0.332215  0.648552  0.316337  1
  Ho  Ho9  1  0.667785  0.351448  0.683663  1
  Ho  Ho10  1  0.332215  0.015878  0.683663  1
  Ho  Ho11  1  0.667785  0.984122  0.316337  1
  Ga  Ga12  1  0.000000  0.000000  0.000000  1
  Tc  Tc13  1  0.323968  0.000000  0.323968  1
  Tc  Tc14  1  0.676032  0.000000  0.676032  1
  Ni  Ni15  1  0.117001  0.617001  0.500000  1
  Ni  Ni16  1  0.882999  0.382999  0.500000  1
  Sn  Sn17  1  0.500000  0.500000  0.000000  1
