# generated using pymatgen
data_Yb4Zr2ScRe4B24W
_symmetry_space_group_name_H-M   'P 1'
_cell_length_a   3.52199000
_cell_length_b   8.88859995
_cell_length_c   11.24740400
_cell_angle_alpha   90.03794751
_cell_angle_beta   90.00000000
_cell_angle_gamma   90.00000000
_symmetry_Int_Tables_number   1
_chemical_formula_structural   Yb4Zr2ScRe4B24W
_chemical_formula_sum   'Yb4 Zr2 Sc1 Re4 B24 W1'
_cell_volume   352.10620507
_cell_formula_units_Z   1
loop_
 _symmetry_equiv_pos_site_id
 _symmetry_equiv_pos_as_xyz
  1  'x, y, z'
loop_
 _atom_site_type_symbol
 _atom_site_label
 _atom_site_symmetry_multiplicity
 _atom_site_fract_x
 _atom_site_fract_y
 _atom_site_fract_z
 _atom_site_occupancy
  Yb  Yb0  1  0.000000  0.323924  0.415285  1
  Yb  Yb1  1  0.000000  0.674971  0.586354  1
  Yb  Yb2  1  0.000000  0.823000  0.084110  1
  Yb  Yb3  1  0.000000  0.177550  0.914909  1
  Zr  Zr4  1  0.000000  0.945071  0.369510  1
  Zr  Zr5  1  0.000000  0.053907  0.629472  1
  Sc  Sc6  1  0.000000  0.553261  0.873809  1
  Re  Re7  1  0.000000  0.638341  0.312891  1
  Re  Re8  1  0.000000  0.357612  0.683836  1
  Re  Re9  1  0.000000  0.149741  0.181707  1
  Re  Re10  1  0.000000  0.855941  0.818817  1
  B  B11  1  0.500000  0.552474  0.433159  1
  B  B12  1  0.500000  0.446070  0.567450  1
  B  B13  1  0.500000  0.056915  0.064955  1
  B  B14  1  0.500000  0.946383  0.933773  1
  B  B15  1  0.500000  0.751167  0.416951  1
  B  B16  1  0.500000  0.247156  0.581703  1
  B  B17  1  0.500000  0.258260  0.080759  1
  B  B18  1  0.500000  0.745354  0.919416  1
  B  B19  1  0.500000  0.796269  0.260386  1
  B  B20  1  0.500000  0.203527  0.737635  1
  B  B21  1  0.500000  0.299469  0.236680  1
  B  B22  1  0.500000  0.701519  0.764922  1
  B  B23  1  0.500000  0.628690  0.179198  1
  B  B24  1  0.500000  0.369441  0.818932  1
  B  B25  1  0.500000  0.134260  0.317884  1
  B  B26  1  0.500000  0.866299  0.683010  1
  B  B27  1  0.500000  0.984596  0.211083  1
  B  B28  1  0.500000  0.017198  0.787587  1
  B  B29  1  0.500000  0.480613  0.286008  1
  B  B30  1  0.500000  0.517629  0.714357  1
  B  B31  1  0.500000  0.595761  0.028328  1
  B  B32  1  0.500000  0.402998  0.977380  1
  B  B33  1  0.500000  0.098389  0.473666  1
  B  B34  1  0.500000  0.900173  0.525222  1
  W  W35  1  0.000000  0.446069  0.128852  1
