# generated using pymatgen
data_Sc6Al6Si2GeAu3
_symmetry_space_group_name_H-M   'P 1'
_cell_length_a   6.76137000
_cell_length_b   6.76137071
_cell_length_c   8.22221400
_cell_angle_alpha   90.00000000
_cell_angle_beta   90.00000000
_cell_angle_gamma   119.99999654
_symmetry_Int_Tables_number   1
_chemical_formula_structural   Sc6Al6Si2GeAu3
_chemical_formula_sum   'Sc6 Al6 Si2 Ge1 Au3'
_cell_volume   325.52839192
_cell_formula_units_Z   1
loop_
 _symmetry_equiv_pos_site_id
 _symmetry_equiv_pos_as_xyz
  1  'x, y, z'
loop_
 _atom_site_type_symbol
 _atom_site_label
 _atom_site_symmetry_multiplicity
 _atom_site_fract_x
 _atom_site_fract_y
 _atom_site_fract_z
 _atom_site_occupancy
  Sc  Sc0  1  0.578836  0.998560  0.740502  1
  Sc  Sc1  1  0.001440  0.580275  0.740502  1
  Sc  Sc2  1  0.419725  0.421164  0.740502  1
  Sc  Sc3  1  0.000872  0.580008  0.259559  1
  Sc  Sc4  1  0.579136  0.999128  0.259559  1
  Sc  Sc5  1  0.419992  0.420864  0.259559  1
  Al  Al6  1  0.743592  0.754301  0.999957  1
  Al  Al7  1  0.245699  0.989292  0.999957  1
  Al  Al8  1  0.010708  0.256408  0.999957  1
  Al  Al9  1  0.753596  0.753337  0.499996  1
  Al  Al10  1  0.246663  0.000259  0.499996  1
  Al  Al11  1  0.999741  0.246404  0.499996  1
  Si  Si12  1  0.666667  0.333333  0.500108  1
  Si  Si13  1  0.333333  0.666667  0.499938  1
  Ge  Ge14  1  0.666667  0.333333  0.999686  1
  Au  Au15  1  0.000000  0.000000  0.752699  1
  Au  Au16  1  0.000000  0.000000  0.247098  1
  Au  Au17  1  0.333333  0.666667  0.000430  1
