# generated using pymatgen
data_LuZr7Ti9Si16Mo3
_symmetry_space_group_name_H-M   'P 1'
_cell_length_a   6.63344861
_cell_length_b   6.79981225
_cell_length_c   12.97842923
_cell_angle_alpha   90.05288433
_cell_angle_beta   89.95100174
_cell_angle_gamma   89.97848271
_symmetry_Int_Tables_number   1
_chemical_formula_structural   LuZr7Ti9Si16Mo3
_chemical_formula_sum   'Lu1 Zr7 Ti9 Si16 Mo3'
_cell_volume   585.40718626
_cell_formula_units_Z   1
loop_
 _symmetry_equiv_pos_site_id
 _symmetry_equiv_pos_as_xyz
  1  'x, y, z'
loop_
 _atom_site_type_symbol
 _atom_site_label
 _atom_site_symmetry_multiplicity
 _atom_site_fract_x
 _atom_site_fract_y
 _atom_site_fract_z
 _atom_site_occupancy
  Lu  Lu0  1  0.000063  0.171146  0.093757  1
  Zr  Zr1  1  0.499173  0.327994  0.095220  1
  Zr  Zr2  1  0.998934  0.173168  0.405718  1
  Zr  Zr3  1  0.501693  0.672802  0.594981  1
  Zr  Zr4  1  0.000521  0.824704  0.903594  1
  Zr  Zr5  1  0.501713  0.673010  0.903590  1
  Zr  Zr6  1  0.001095  0.825973  0.594688  1
  Zr  Zr7  1  0.496905  0.327434  0.405753  1
  Ti  Ti8  1  0.834235  0.329087  0.625045  1
  Ti  Ti9  1  0.333545  0.172005  0.874826  1
  Ti  Ti10  1  0.167217  0.670390  0.125500  1
  Ti  Ti11  1  0.664401  0.828749  0.375343  1
  Ti  Ti12  1  0.166019  0.669656  0.376167  1
  Ti  Ti13  1  0.665463  0.828562  0.125732  1
  Ti  Ti14  1  0.833370  0.330983  0.874202  1
  Ti  Ti15  1  0.334073  0.172070  0.624947  1
  Ti  Ti16  1  0.661952  0.006653  0.749328  1
  Si  Si17  1  0.668702  0.038567  0.539402  1
  Si  Si18  1  0.169869  0.463391  0.959073  1
  Si  Si19  1  0.336040  0.959358  0.038859  1
  Si  Si20  1  0.831143  0.538049  0.460931  1
  Si  Si21  1  0.331150  0.961232  0.460932  1
  Si  Si22  1  0.830597  0.540829  0.038630  1
  Si  Si23  1  0.665520  0.036936  0.959094  1
  Si  Si24  1  0.168723  0.461081  0.540257  1
  Si  Si25  1  0.535961  0.380216  0.749837  1
  Si  Si26  1  0.035284  0.119056  0.749894  1
  Si  Si27  1  0.464632  0.618823  0.250613  1
  Si  Si28  1  0.964865  0.879899  0.251199  1
  Si  Si29  1  0.794902  0.635573  0.749281  1
  Si  Si30  1  0.296530  0.866548  0.749476  1
  Si  Si31  1  0.203892  0.364843  0.250771  1
  Si  Si32  1  0.702841  0.135807  0.250749  1
  Mo  Mo33  1  0.161501  0.494692  0.749733  1
  Mo  Mo34  1  0.339092  0.992024  0.251234  1
  Mo  Mo35  1  0.838389  0.508687  0.251642  1
