# generated using pymatgen
data_Ho3ErZn4Ir3Pd
_symmetry_space_group_name_H-M   'P 1'
_cell_length_a   4.05839700
_cell_length_b   6.98212169
_cell_length_c   8.12318576
_cell_angle_alpha   90.12499321
_cell_angle_beta   90.00000000
_cell_angle_gamma   90.00000000
_symmetry_Int_Tables_number   1
_chemical_formula_structural   Ho3ErZn4Ir3Pd
_chemical_formula_sum   'Ho3 Er1 Zn4 Ir3 Pd1'
_cell_volume   230.17984504
_cell_formula_units_Z   1
loop_
 _symmetry_equiv_pos_site_id
 _symmetry_equiv_pos_as_xyz
  1  'x, y, z'
loop_
 _atom_site_type_symbol
 _atom_site_label
 _atom_site_symmetry_multiplicity
 _atom_site_fract_x
 _atom_site_fract_y
 _atom_site_fract_z
 _atom_site_occupancy
  Ho  Ho0  1  0.250000  0.030966  0.323620  1
  Ho  Ho1  1  0.250000  0.547773  0.183536  1
  Ho  Ho2  1  0.750000  0.467661  0.810212  1
  Er  Er3  1  0.750000  0.961321  0.682407  1
  Zn  Zn4  1  0.250000  0.637897  0.564711  1
  Zn  Zn5  1  0.250000  0.136971  0.933983  1
  Zn  Zn6  1  0.750000  0.361373  0.437636  1
  Zn  Zn7  1  0.750000  0.860516  0.064552  1
  Ir  Ir8  1  0.250000  0.252935  0.623026  1
  Ir  Ir9  1  0.250000  0.756675  0.878074  1
  Ir  Ir10  1  0.750000  0.742622  0.376241  1
  Pd  Pd11  1  0.750000  0.243289  0.122002  1
