# generated using pymatgen
data_Ce5HoGa10
_symmetry_space_group_name_H-M   'P 1'
_cell_length_a   6.25032900
_cell_length_b   9.79880300
_cell_length_c   11.71813400
_cell_angle_alpha   90.00000000
_cell_angle_beta   90.00000000
_cell_angle_gamma   90.00000000
_symmetry_Int_Tables_number   1
_chemical_formula_structural   Ce5HoGa10
_chemical_formula_sum   'Ce10 Ho2 Ga20'
_cell_volume   717.68581820
_cell_formula_units_Z   2
loop_
 _symmetry_equiv_pos_site_id
 _symmetry_equiv_pos_as_xyz
  1  'x, y, z'
loop_
 _atom_site_type_symbol
 _atom_site_label
 _atom_site_symmetry_multiplicity
 _atom_site_fract_x
 _atom_site_fract_y
 _atom_site_fract_z
 _atom_site_occupancy
  Ce  Ce0  1  0.849022  0.750000  0.074462  1
  Ce  Ce1  1  0.650978  0.750000  0.574462  1
  Ce  Ce2  1  0.888255  0.508379  0.352134  1
  Ce  Ce3  1  0.611745  0.991621  0.852134  1
  Ce  Ce4  1  0.112163  0.010091  0.646948  1
  Ce  Ce5  1  0.387837  0.489909  0.146948  1
  Ce  Ce6  1  0.112163  0.489909  0.646948  1
  Ce  Ce7  1  0.387837  0.010091  0.146948  1
  Ce  Ce8  1  0.888255  0.991621  0.352134  1
  Ce  Ce9  1  0.611745  0.508379  0.852134  1
  Ho  Ho10  1  0.145682  0.250000  0.924087  1
  Ho  Ho11  1  0.354318  0.250000  0.424087  1
  Ga  Ga12  1  0.873542  0.056978  0.091198  1
  Ga  Ga13  1  0.626458  0.443022  0.591198  1
  Ga  Ga14  1  0.124839  0.552919  0.909815  1
  Ga  Ga15  1  0.375161  0.947081  0.409815  1
  Ga  Ga16  1  0.124839  0.947081  0.909815  1
  Ga  Ga17  1  0.375161  0.552919  0.409815  1
  Ga  Ga18  1  0.873542  0.443022  0.091198  1
  Ga  Ga19  1  0.626458  0.056978  0.591198  1
  Ga  Ga20  1  0.175556  0.750000  0.254388  1
  Ga  Ga21  1  0.324444  0.750000  0.754388  1
  Ga  Ga22  1  0.827177  0.250000  0.744408  1
  Ga  Ga23  1  0.672823  0.250000  0.244408  1
  Ga  Ga24  1  0.363160  0.750000  0.002063  1
  Ga  Ga25  1  0.136840  0.750000  0.502063  1
  Ga  Ga26  1  0.626885  0.250000  0.997989  1
  Ga  Ga27  1  0.873115  0.250000  0.497989  1
  Ga  Ga28  1  0.595377  0.750000  0.301142  1
  Ga  Ga29  1  0.904623  0.750000  0.801142  1
  Ga  Ga30  1  0.402725  0.250000  0.701271  1
  Ga  Ga31  1  0.097275  0.250000  0.201271  1
