# generated using pymatgen
data_Dy4Y3Er(CdPt)2
_symmetry_space_group_name_H-M   'P 1'
_cell_length_a   9.68618068
_cell_length_b   9.68618018
_cell_length_c   9.68070800
_cell_angle_alpha   60.01867973
_cell_angle_beta   60.01868142
_cell_angle_gamma   59.96262383
_symmetry_Int_Tables_number   1
_chemical_formula_structural   Dy4Y3Er(CdPt)2
_chemical_formula_sum   'Dy8 Y6 Er2 Cd4 Pt4'
_cell_volume   642.23934210
_cell_formula_units_Z   2
loop_
 _symmetry_equiv_pos_site_id
 _symmetry_equiv_pos_as_xyz
  1  'x, y, z'
loop_
 _atom_site_type_symbol
 _atom_site_label
 _atom_site_symmetry_multiplicity
 _atom_site_fract_x
 _atom_site_fract_y
 _atom_site_fract_z
 _atom_site_occupancy
  Dy  Dy0  1  0.352303  0.352303  0.352655  1
  Dy  Dy1  1  0.352303  0.352303  0.942738  1
  Dy  Dy2  1  0.352655  0.942738  0.352303  1
  Dy  Dy3  1  0.942738  0.352655  0.352303  1
  Dy  Dy4  1  0.810864  0.189136  0.189136  1
  Dy  Dy5  1  0.189136  0.810864  0.810864  1
  Dy  Dy6  1  0.189136  0.810864  0.189136  1
  Dy  Dy7  1  0.810864  0.189136  0.810864  1
  Y  Y8  1  0.936024  0.563976  0.563976  1
  Y  Y9  1  0.563976  0.936024  0.936024  1
  Y  Y10  1  0.563976  0.936024  0.563976  1
  Y  Y11  1  0.936024  0.563976  0.936024  1
  Y  Y12  1  0.564002  0.564002  0.935998  1
  Y  Y13  1  0.935998  0.935998  0.564002  1
  Er  Er14  1  0.189228  0.189228  0.810772  1
  Er  Er15  1  0.810772  0.810772  0.189228  1
  Cd  Cd16  1  0.581858  0.581858  0.581683  1
  Cd  Cd17  1  0.581858  0.581858  0.254601  1
  Cd  Cd18  1  0.581683  0.254601  0.581858  1
  Cd  Cd19  1  0.254601  0.581683  0.581858  1
  Pt  Pt20  1  0.143530  0.143530  0.142895  1
  Pt  Pt21  1  0.143530  0.143530  0.570045  1
  Pt  Pt22  1  0.142895  0.570045  0.143530  1
  Pt  Pt23  1  0.570045  0.142895  0.143530  1
