# generated using pymatgen
data_Zr10AgBi4Pb2Au
_symmetry_space_group_name_H-M   'P 1'
_cell_length_a   8.91352954
_cell_length_b   8.91353067
_cell_length_c   5.99294709
_cell_angle_alpha   89.99028636
_cell_angle_beta   89.99029340
_cell_angle_gamma   119.91399060
_symmetry_Int_Tables_number   1
_chemical_formula_structural   Zr10AgBi4Pb2Au
_chemical_formula_sum   'Zr10 Ag1 Bi4 Pb2 Au1'
_cell_volume   412.71121164
_cell_formula_units_Z   1
loop_
 _symmetry_equiv_pos_site_id
 _symmetry_equiv_pos_as_xyz
  1  'x, y, z'
loop_
 _atom_site_type_symbol
 _atom_site_label
 _atom_site_symmetry_multiplicity
 _atom_site_fract_x
 _atom_site_fract_y
 _atom_site_fract_z
 _atom_site_occupancy
  Zr  Zr0  1  0.666924  0.333157  0.001155  1
  Zr  Zr1  1  0.333157  0.666924  0.001155  1
  Zr  Zr2  1  0.333150  0.666809  0.498759  1
  Zr  Zr3  1  0.666809  0.333150  0.498759  1
  Zr  Zr4  1  0.723788  0.723788  0.753068  1
  Zr  Zr5  1  0.275616  0.000001  0.753436  1
  Zr  Zr6  1  0.000001  0.275616  0.753436  1
  Zr  Zr7  1  0.275668  0.275668  0.246674  1
  Zr  Zr8  1  0.724461  0.001350  0.246489  1
  Zr  Zr9  1  0.001350  0.724461  0.246489  1
  Ag  Ag10  1  0.000475  0.000475  0.499501  1
  Bi  Bi11  1  0.381496  0.381496  0.749037  1
  Bi  Bi12  1  0.617562  0.000495  0.749167  1
  Bi  Bi13  1  0.000495  0.617562  0.749167  1
  Bi  Bi14  1  0.618304  0.618304  0.251099  1
  Pb  Pb15  1  0.380270  0.000019  0.251118  1
  Pb  Pb16  1  0.000019  0.380270  0.251118  1
  Au  Au17  1  0.000457  0.000457  0.000372  1
