# generated using pymatgen
data_Y7Th5Au12
_symmetry_space_group_name_H-M   'P 1'
_cell_length_a   22.05055312
_cell_length_b   4.68188300
_cell_length_c   5.90510926
_cell_angle_alpha   90.00000000
_cell_angle_beta   89.84810728
_cell_angle_gamma   90.00000000
_symmetry_Int_Tables_number   1
_chemical_formula_structural   Y7Th5Au12
_chemical_formula_sum   'Y7 Th5 Au12'
_cell_volume   609.63017541
_cell_formula_units_Z   1
loop_
 _symmetry_equiv_pos_site_id
 _symmetry_equiv_pos_as_xyz
  1  'x, y, z'
loop_
 _atom_site_type_symbol
 _atom_site_label
 _atom_site_symmetry_multiplicity
 _atom_site_fract_x
 _atom_site_fract_y
 _atom_site_fract_z
 _atom_site_occupancy
  Y  Y0  1  0.728666  0.750001  0.430402  1
  Y  Y1  1  0.274693  0.250000  0.576717  1
  Y  Y2  1  0.892198  0.750001  0.640093  1
  Y  Y3  1  0.561458  0.750001  0.645590  1
  Y  Y4  1  0.059101  0.750001  0.854120  1
  Y  Y5  1  0.393042  0.750001  0.859089  1
  Y  Y6  1  0.772844  0.250000  0.927333  1
  Th  Th7  1  0.228316  0.750001  0.072338  1
  Th  Th8  1  0.607596  0.250000  0.133392  1
  Th  Th9  1  0.937602  0.250000  0.147373  1
  Th  Th10  1  0.439209  0.250000  0.353813  1
  Th  Th11  1  0.105972  0.250000  0.364107  1
  Au  Au12  1  0.319810  0.250000  0.064142  1
  Au  Au13  1  0.846483  0.750001  0.117417  1
  Au  Au14  1  0.515280  0.750001  0.161119  1
  Au  Au15  1  0.014182  0.750001  0.338594  1
  Au  Au16  1  0.347509  0.750001  0.381662  1
  Au  Au17  1  0.817691  0.250000  0.435672  1
  Au  Au18  1  0.182206  0.750001  0.563763  1
  Au  Au19  1  0.652970  0.250000  0.621810  1
  Au  Au20  1  0.984486  0.250000  0.657864  1
  Au  Au21  1  0.484901  0.250000  0.842826  1
  Au  Au22  1  0.150678  0.250000  0.872970  1
  Au  Au23  1  0.683106  0.750001  0.937790  1
