# generated using pymatgen
data_Dy4Co16Mo(P4W)3
_symmetry_space_group_name_H-M   'P 1'
_cell_length_a   3.70848100
_cell_length_b   10.42935628
_cell_length_c   11.87203031
_cell_angle_alpha   90.02638015
_cell_angle_beta   90.00000000
_cell_angle_gamma   90.00000000
_symmetry_Int_Tables_number   1
_chemical_formula_structural   Dy4Co16Mo(P4W)3
_chemical_formula_sum   'Dy4 Co16 Mo1 P12 W3'
_cell_volume   459.17529402
_cell_formula_units_Z   1
loop_
 _symmetry_equiv_pos_site_id
 _symmetry_equiv_pos_as_xyz
  1  'x, y, z'
loop_
 _atom_site_type_symbol
 _atom_site_label
 _atom_site_symmetry_multiplicity
 _atom_site_fract_x
 _atom_site_fract_y
 _atom_site_fract_z
 _atom_site_occupancy
  Dy  Dy0  1  0.250000  0.582760  0.704265  1
  Dy  Dy1  1  0.250000  0.917109  0.204257  1
  Dy  Dy2  1  0.750000  0.417097  0.295892  1
  Dy  Dy3  1  0.750000  0.082779  0.795515  1
  Co  Co4  1  0.250000  0.405910  0.489427  1
  Co  Co5  1  0.250000  0.094848  0.989067  1
  Co  Co6  1  0.750000  0.594689  0.510964  1
  Co  Co7  1  0.750000  0.905179  0.010910  1
  Co  Co8  1  0.250000  0.222332  0.177397  1
  Co  Co9  1  0.250000  0.278251  0.677876  1
  Co  Co10  1  0.750000  0.777601  0.822450  1
  Co  Co11  1  0.750000  0.722611  0.322485  1
  Co  Co12  1  0.250000  0.887353  0.700134  1
  Co  Co13  1  0.250000  0.612495  0.199983  1
  Co  Co14  1  0.750000  0.112614  0.299752  1
  Co  Co15  1  0.750000  0.387382  0.799808  1
  Co  Co16  1  0.250000  0.465591  0.933414  1
  Co  Co17  1  0.250000  0.034166  0.433356  1
  Co  Co18  1  0.750000  0.534363  0.066471  1
  Co  Co19  1  0.750000  0.965415  0.566797  1
  Mo  Mo20  1  0.750000  0.208409  0.512390  1
  P  P21  1  0.250000  0.420021  0.115718  1
  P  P22  1  0.250000  0.080057  0.615395  1
  P  P23  1  0.750000  0.579940  0.884258  1
  P  P24  1  0.750000  0.920543  0.384532  1
  P  P25  1  0.250000  0.268907  0.864755  1
  P  P26  1  0.250000  0.230780  0.364842  1
  P  P27  1  0.750000  0.731082  0.135211  1
  P  P28  1  0.750000  0.769089  0.635254  1
  P  P29  1  0.250000  0.595092  0.391106  1
  P  P30  1  0.250000  0.904874  0.891092  1
  P  P31  1  0.750000  0.404256  0.608616  1
  P  P32  1  0.750000  0.095214  0.108986  1
  W  W33  1  0.250000  0.708609  0.987612  1
  W  W34  1  0.250000  0.791211  0.487627  1
  W  W35  1  0.750000  0.291370  0.012386  1
