# generated using pymatgen
data_Dy19Tm(Bi2Ru)4
_symmetry_space_group_name_H-M   'P 1'
_cell_length_a   7.97806538
_cell_length_b   9.02010345
_cell_length_c   12.46356157
_cell_angle_alpha   89.97489831
_cell_angle_beta   90.02370270
_cell_angle_gamma   89.97381175
_symmetry_Int_Tables_number   1
_chemical_formula_structural   Dy19Tm(Bi2Ru)4
_chemical_formula_sum   'Dy19 Tm1 Bi8 Ru4'
_cell_volume   896.91471361
_cell_formula_units_Z   1
loop_
 _symmetry_equiv_pos_site_id
 _symmetry_equiv_pos_as_xyz
  1  'x, y, z'
loop_
 _atom_site_type_symbol
 _atom_site_label
 _atom_site_symmetry_multiplicity
 _atom_site_fract_x
 _atom_site_fract_y
 _atom_site_fract_z
 _atom_site_occupancy
  Dy  Dy0  1  0.842234  0.750104  0.793039  1
  Dy  Dy1  1  0.157697  0.249921  0.206821  1
  Dy  Dy2  1  0.342693  0.249750  0.706652  1
  Dy  Dy3  1  0.657678  0.750068  0.293356  1
  Dy  Dy4  1  0.376002  0.750237  0.691810  1
  Dy  Dy5  1  0.624636  0.249594  0.308337  1
  Dy  Dy6  1  0.875480  0.249898  0.807894  1
  Dy  Dy7  1  0.124488  0.750059  0.192043  1
  Dy  Dy8  1  0.945864  0.750400  0.504399  1
  Dy  Dy9  1  0.053253  0.249737  0.495740  1
  Dy  Dy10  1  0.446407  0.249960  0.995714  1
  Dy  Dy11  1  0.553790  0.749991  0.004215  1
  Dy  Dy12  1  0.325155  0.958781  0.436061  1
  Dy  Dy13  1  0.175519  0.958539  0.935752  1
  Dy  Dy14  1  0.324245  0.541432  0.435738  1
  Dy  Dy15  1  0.824438  0.041414  0.064206  1
  Dy  Dy16  1  0.675407  0.458424  0.564171  1
  Dy  Dy17  1  0.824400  0.458591  0.064171  1
  Dy  Dy18  1  0.175495  0.541427  0.935772  1
  Tm  Tm19  1  0.673623  0.041718  0.563982  1
  Bi  Bi20  1  0.569152  0.493137  0.827333  1
  Bi  Bi21  1  0.430853  0.506808  0.172691  1
  Bi  Bi22  1  0.069250  0.506825  0.672619  1
  Bi  Bi23  1  0.430805  0.993174  0.172677  1
  Bi  Bi24  1  0.930782  0.493088  0.327400  1
  Bi  Bi25  1  0.569330  0.006855  0.827186  1
  Bi  Bi26  1  0.930971  0.006859  0.327400  1
  Bi  Bi27  1  0.068609  0.993232  0.672392  1
  Ru  Ru28  1  0.573906  0.750725  0.511028  1
  Ru  Ru29  1  0.427900  0.249213  0.489352  1
  Ru  Ru30  1  0.073370  0.250065  0.989055  1
  Ru  Ru31  1  0.926567  0.749976  0.010990  1
