# generated using pymatgen
data_Cs2Th(PdSe2)3
_symmetry_space_group_name_H-M   'P 1'
_cell_length_a   12.14512463
_cell_length_b   10.42409497
_cell_length_c   9.63819530
_cell_angle_alpha   74.39524568
_cell_angle_beta   55.75694935
_cell_angle_gamma   49.84778895
_symmetry_Int_Tables_number   1
_chemical_formula_structural   Cs2Th(PdSe2)3
_chemical_formula_sum   'Cs4 Th2 Pd6 Se12'
_cell_volume   762.43256671
_cell_formula_units_Z   2
loop_
 _symmetry_equiv_pos_site_id
 _symmetry_equiv_pos_as_xyz
  1  'x, y, z'
loop_
 _atom_site_type_symbol
 _atom_site_label
 _atom_site_symmetry_multiplicity
 _atom_site_fract_x
 _atom_site_fract_y
 _atom_site_fract_z
 _atom_site_occupancy
  Cs  Cs0  1  0.250000  0.249999  0.250000  1
  Cs  Cs1  1  0.750000  0.750000  0.750000  1
  Cs  Cs2  1  0.311830  0.688170  0.311831  1
  Cs  Cs3  1  0.688170  0.311831  0.688170  1
  Th  Th4  1  0.168455  0.168456  0.831545  1
  Th  Th5  1  0.831544  0.831545  0.168456  1
  Pd  Pd6  1  0.825501  0.174499  0.174499  1
  Pd  Pd7  1  0.174500  0.825501  0.825500  1
  Pd  Pd8  1  0.819495  0.495298  0.180505  1
  Pd  Pd9  1  0.495298  0.819495  0.504702  1
  Pd  Pd10  1  0.504702  0.180505  0.495298  1
  Pd  Pd11  1  0.180506  0.504702  0.819494  1
  Se  Se12  1  0.010329  0.187903  0.201776  1
  Se  Se13  1  0.187904  0.010328  0.599990  1
  Se  Se14  1  0.599990  0.201776  0.187904  1
  Se  Se15  1  0.201776  0.599989  0.010328  1
  Se  Se16  1  0.989671  0.812096  0.798224  1
  Se  Se17  1  0.812096  0.989672  0.400010  1
  Se  Se18  1  0.400010  0.798224  0.812096  1
  Se  Se19  1  0.798224  0.400010  0.989672  1
  Se  Se20  1  0.407940  0.197783  0.802217  1
  Se  Se21  1  0.197783  0.407940  0.592060  1
  Se  Se22  1  0.592060  0.802218  0.197783  1
  Se  Se23  1  0.802217  0.592061  0.407940  1
