# generated using pymatgen
data_Rb6NaV5Br18
_symmetry_space_group_name_H-M   'P 1'
_cell_length_a   13.20960700
_cell_length_b   13.20960714
_cell_length_c   6.49761900
_cell_angle_alpha   90.00000000
_cell_angle_beta   90.00000000
_cell_angle_gamma   119.99999445
_symmetry_Int_Tables_number   1
_chemical_formula_structural   Rb6NaV5Br18
_chemical_formula_sum   'Rb6 Na1 V5 Br18'
_cell_volume   981.89420513
_cell_formula_units_Z   1
loop_
 _symmetry_equiv_pos_site_id
 _symmetry_equiv_pos_as_xyz
  1  'x, y, z'
loop_
 _atom_site_type_symbol
 _atom_site_label
 _atom_site_symmetry_multiplicity
 _atom_site_fract_x
 _atom_site_fract_y
 _atom_site_fract_z
 _atom_site_occupancy
  Rb  Rb0  1  0.000109  0.315559  0.753714  1
  Rb  Rb1  1  0.315559  0.315450  0.246286  1
  Rb  Rb2  1  0.684441  0.684550  0.753714  1
  Rb  Rb3  1  0.999891  0.684441  0.246286  1
  Rb  Rb4  1  0.315450  0.999891  0.753714  1
  Rb  Rb5  1  0.684550  0.000109  0.246286  1
  Na  Na6  1  0.000000  0.000000  0.500000  1
  V  V7  1  0.333333  0.666667  0.527352  1
  V  V8  1  0.666667  0.333333  0.472648  1
  V  V9  1  0.000000  0.000000  0.000000  1
  V  V10  1  0.666667  0.333333  0.972539  1
  V  V11  1  0.333333  0.666667  0.027461  1
  Br  Br12  1  0.823882  0.489063  0.721657  1
  Br  Br13  1  0.335410  0.511417  0.777695  1
  Br  Br14  1  0.176007  0.664590  0.777695  1
  Br  Br15  1  0.823993  0.335410  0.222305  1
  Br  Br16  1  0.176118  0.510937  0.278343  1
  Br  Br17  1  0.168001  0.999593  0.224501  1
  Br  Br18  1  0.334819  0.823882  0.278343  1
  Br  Br19  1  0.488583  0.823993  0.777695  1
  Br  Br20  1  0.665181  0.176118  0.721657  1
  Br  Br21  1  0.664590  0.488583  0.222305  1
  Br  Br22  1  0.000407  0.168408  0.224501  1
  Br  Br23  1  0.168408  0.168001  0.775499  1
  Br  Br24  1  0.831999  0.000407  0.775499  1
  Br  Br25  1  0.999593  0.831592  0.775499  1
  Br  Br26  1  0.831592  0.831999  0.224501  1
  Br  Br27  1  0.511417  0.176007  0.222305  1
  Br  Br28  1  0.489063  0.665181  0.278343  1
  Br  Br29  1  0.510937  0.334819  0.721657  1
