# generated using pymatgen
data_TbU(TcB4)2
_symmetry_space_group_name_H-M   'P 1'
_cell_length_a   3.61380400
_cell_length_b   5.95618211
_cell_length_c   11.50729521
_cell_angle_alpha   89.97826091
_cell_angle_beta   90.00000000
_cell_angle_gamma   90.00000000
_symmetry_Int_Tables_number   1
_chemical_formula_structural   TbU(TcB4)2
_chemical_formula_sum   'Tb2 U2 Tc4 B16'
_cell_volume   247.68846699
_cell_formula_units_Z   2
loop_
 _symmetry_equiv_pos_site_id
 _symmetry_equiv_pos_as_xyz
  1  'x, y, z'
loop_
 _atom_site_type_symbol
 _atom_site_label
 _atom_site_symmetry_multiplicity
 _atom_site_fract_x
 _atom_site_fract_y
 _atom_site_fract_z
 _atom_site_occupancy
  Tb  Tb0  1  0.000000  0.627386  0.648786  1
  Tb  Tb1  1  0.000000  0.372614  0.351214  1
  U  U2  1  0.000000  0.127395  0.849273  1
  U  U3  1  0.000000  0.872605  0.150727  1
  Tc  Tc4  1  0.000000  0.641308  0.909157  1
  Tc  Tc5  1  0.000000  0.358692  0.090843  1
  Tc  Tc6  1  0.000000  0.135153  0.592205  1
  Tc  Tc7  1  0.000000  0.864847  0.407795  1
  B  B8  1  0.500000  0.978307  0.692829  1
  B  B9  1  0.500000  0.021693  0.307171  1
  B  B10  1  0.500000  0.472809  0.808926  1
  B  B11  1  0.500000  0.527191  0.191074  1
  B  B12  1  0.500000  0.867360  0.968474  1
  B  B13  1  0.500000  0.132640  0.031526  1
  B  B14  1  0.500000  0.363112  0.531687  1
  B  B15  1  0.500000  0.636888  0.468313  1
  B  B16  1  0.500000  0.791050  0.814461  1
  B  B17  1  0.500000  0.208950  0.185539  1
  B  B18  1  0.500000  0.286956  0.687524  1
  B  B19  1  0.500000  0.713044  0.312476  1
  B  B20  1  0.500000  0.887062  0.546103  1
  B  B21  1  0.500000  0.112938  0.453897  1
  B  B22  1  0.500000  0.385900  0.953120  1
  B  B23  1  0.500000  0.614100  0.046880  1
