# generated using pymatgen
data_CaY3(ReB4)4
_symmetry_space_group_name_H-M   'P 1'
_cell_length_a   3.61271100
_cell_length_b   5.98794804
_cell_length_c   11.58819308
_cell_angle_alpha   89.98653916
_cell_angle_beta   90.00000000
_cell_angle_gamma   90.00000000
_symmetry_Int_Tables_number   1
_chemical_formula_structural   CaY3(ReB4)4
_chemical_formula_sum   'Ca1 Y3 Re4 B16'
_cell_volume   250.68419599
_cell_formula_units_Z   1
loop_
 _symmetry_equiv_pos_site_id
 _symmetry_equiv_pos_as_xyz
  1  'x, y, z'
loop_
 _atom_site_type_symbol
 _atom_site_label
 _atom_site_symmetry_multiplicity
 _atom_site_fract_x
 _atom_site_fract_y
 _atom_site_fract_z
 _atom_site_occupancy
  Ca  Ca0  1  0.000000  0.127071  0.150294  1
  Y  Y1  1  0.000000  0.873695  0.850011  1
  Y  Y2  1  0.000000  0.628104  0.349502  1
  Y  Y3  1  0.000000  0.372514  0.649908  1
  Re  Re4  1  0.000000  0.133712  0.413316  1
  Re  Re5  1  0.000000  0.866755  0.587694  1
  Re  Re6  1  0.000000  0.632033  0.084639  1
  Re  Re7  1  0.000000  0.370079  0.913870  1
  B  B8  1  0.500000  0.477724  0.191834  1
  B  B9  1  0.500000  0.522354  0.807875  1
  B  B10  1  0.500000  0.975985  0.307848  1
  B  B11  1  0.500000  0.023477  0.692263  1
  B  B12  1  0.500000  0.285752  0.315131  1
  B  B13  1  0.500000  0.713344  0.685083  1
  B  B14  1  0.500000  0.785789  0.184281  1
  B  B15  1  0.500000  0.213337  0.815856  1
  B  B16  1  0.500000  0.363268  0.468943  1
  B  B17  1  0.500000  0.636631  0.531346  1
  B  B18  1  0.500000  0.863764  0.031556  1
  B  B19  1  0.500000  0.136496  0.968096  1
  B  B20  1  0.500000  0.385013  0.047638  1
  B  B21  1  0.500000  0.613202  0.953000  1
  B  B22  1  0.500000  0.886562  0.452650  1
  B  B23  1  0.500000  0.113339  0.547364  1
