# generated using pymatgen
data_Tm7Te8
_symmetry_space_group_name_H-M   'P 1'
_cell_length_a   8.29630303
_cell_length_b   8.29630305
_cell_length_c   10.28322935
_cell_angle_alpha   54.15724150
_cell_angle_beta   54.15723930
_cell_angle_gamma   62.62489747
_symmetry_Int_Tables_number   1
_chemical_formula_structural   Tm7Te8
_chemical_formula_sum   'Tm7 Te8'
_cell_volume   457.67153547
_cell_formula_units_Z   1
loop_
 _symmetry_equiv_pos_site_id
 _symmetry_equiv_pos_as_xyz
  1  'x, y, z'
loop_
 _atom_site_type_symbol
 _atom_site_label
 _atom_site_symmetry_multiplicity
 _atom_site_fract_x
 _atom_site_fract_y
 _atom_site_fract_z
 _atom_site_occupancy
  Tm  Tm0  1  0.740054  0.259946  0.500000  1
  Tm  Tm1  1  0.259946  0.740054  0.500000  1
  Tm  Tm2  1  0.500000  0.000000  0.500000  1
  Tm  Tm3  1  0.000000  0.500000  0.500000  1
  Tm  Tm4  1  0.747158  0.747158  0.003090  1
  Tm  Tm5  1  0.252842  0.252842  0.996910  1
  Tm  Tm6  1  0.000000  0.000000  0.000000  1
  Te  Te7  1  0.959727  0.959727  0.334613  1
  Te  Te8  1  0.040273  0.040273  0.665387  1
  Te  Te9  1  0.543264  0.041763  0.166092  1
  Te  Te10  1  0.456736  0.958237  0.833908  1
  Te  Te11  1  0.958237  0.456736  0.833908  1
  Te  Te12  1  0.041763  0.543264  0.166092  1
  Te  Te13  1  0.457751  0.457751  0.325583  1
  Te  Te14  1  0.542249  0.542249  0.674417  1
