# generated using pymatgen
data_SmErBeCoSi4
_symmetry_space_group_name_H-M   'P 1'
_cell_length_a   8.48095974
_cell_length_b   8.48096113
_cell_length_c   3.93871000
_cell_angle_alpha   90.00000000
_cell_angle_beta   90.00000000
_cell_angle_gamma   152.44315143
_symmetry_Int_Tables_number   1
_chemical_formula_structural   SmErBeCoSi4
_chemical_formula_sum   'Sm1 Er1 Be1 Co1 Si4'
_cell_volume   131.06189376
_cell_formula_units_Z   1
loop_
 _symmetry_equiv_pos_site_id
 _symmetry_equiv_pos_as_xyz
  1  'x, y, z'
loop_
 _atom_site_type_symbol
 _atom_site_label
 _atom_site_symmetry_multiplicity
 _atom_site_fract_x
 _atom_site_fract_y
 _atom_site_fract_z
 _atom_site_occupancy
  Sm  Sm0  1  0.112497  0.887503  0.250000  1
  Er  Er1  1  0.897819  0.102181  0.750000  1
  Be  Be2  1  0.671864  0.328136  0.750000  1
  Co  Co3  1  0.318959  0.681041  0.250000  1
  Si  Si4  1  0.754922  0.245078  0.250000  1
  Si  Si5  1  0.252524  0.747476  0.750000  1
  Si  Si6  1  0.536982  0.463018  0.750000  1
  Si  Si7  1  0.454433  0.545567  0.250000  1
