# generated using pymatgen
data_Sc4Co16Si11PRu4
_symmetry_space_group_name_H-M   'P 1'
_cell_length_a   3.68450900
_cell_length_b   10.39295049
_cell_length_c   11.83265355
_cell_angle_alpha   89.96494999
_cell_angle_beta   90.00000000
_cell_angle_gamma   90.00000000
_symmetry_Int_Tables_number   1
_chemical_formula_structural   Sc4Co16Si11PRu4
_chemical_formula_sum   'Sc4 Co16 Si11 P1 Ru4'
_cell_volume   453.10676643
_cell_formula_units_Z   1
loop_
 _symmetry_equiv_pos_site_id
 _symmetry_equiv_pos_as_xyz
  1  'x, y, z'
loop_
 _atom_site_type_symbol
 _atom_site_label
 _atom_site_symmetry_multiplicity
 _atom_site_fract_x
 _atom_site_fract_y
 _atom_site_fract_z
 _atom_site_occupancy
  Sc  Sc0  1  0.250000  0.581139  0.703848  1
  Sc  Sc1  1  0.250000  0.919615  0.202878  1
  Sc  Sc2  1  0.750000  0.419569  0.296866  1
  Sc  Sc3  1  0.750000  0.081430  0.794924  1
  Co  Co4  1  0.250000  0.407871  0.488666  1
  Co  Co5  1  0.250000  0.092005  0.991691  1
  Co  Co6  1  0.750000  0.592232  0.511528  1
  Co  Co7  1  0.750000  0.912165  0.013817  1
  Co  Co8  1  0.250000  0.212705  0.174327  1
  Co  Co9  1  0.250000  0.285239  0.674943  1
  Co  Co10  1  0.750000  0.786671  0.825870  1
  Co  Co11  1  0.750000  0.714341  0.324724  1
  Co  Co12  1  0.250000  0.885367  0.700404  1
  Co  Co13  1  0.250000  0.615099  0.200845  1
  Co  Co14  1  0.750000  0.113256  0.295178  1
  Co  Co15  1  0.750000  0.384515  0.799867  1
  Co  Co16  1  0.250000  0.466531  0.931595  1
  Co  Co17  1  0.250000  0.032669  0.429036  1
  Co  Co18  1  0.750000  0.531808  0.069587  1
  Co  Co19  1  0.750000  0.967811  0.568572  1
  Si  Si20  1  0.250000  0.416704  0.116489  1
  Si  Si21  1  0.250000  0.083428  0.614416  1
  Si  Si22  1  0.750000  0.583422  0.884893  1
  Si  Si23  1  0.750000  0.916069  0.384188  1
  Si  Si24  1  0.250000  0.265224  0.865911  1
  Si  Si25  1  0.250000  0.234737  0.365404  1
  Si  Si26  1  0.750000  0.733949  0.133859  1
  Si  Si27  1  0.750000  0.765966  0.634389  1
  Si  Si28  1  0.250000  0.596083  0.391193  1
  Si  Si29  1  0.250000  0.905241  0.890853  1
  Si  Si30  1  0.750000  0.403708  0.609040  1
  P  P31  1  0.750000  0.095717  0.109631  1
  Ru  Ru32  1  0.250000  0.707467  0.990813  1
  Ru  Ru33  1  0.250000  0.793987  0.490598  1
  Ru  Ru34  1  0.750000  0.289841  0.011428  1
  Ru  Ru35  1  0.750000  0.206421  0.507729  1
