# generated using pymatgen
data_Na3Ni2IrO6
_symmetry_space_group_name_H-M   'P 1'
_cell_length_a   5.35575612
_cell_length_b   9.28905297
_cell_length_c   5.57953200
_cell_angle_alpha   106.18049358
_cell_angle_beta   99.26373827
_cell_angle_gamma   89.97639018
_symmetry_Int_Tables_number   1
_chemical_formula_structural   Na3Ni2IrO6
_chemical_formula_sum   'Na6 Ni4 Ir2 O12'
_cell_volume   262.81950277
_cell_formula_units_Z   2
loop_
 _symmetry_equiv_pos_site_id
 _symmetry_equiv_pos_as_xyz
  1  'x, y, z'
loop_
 _atom_site_type_symbol
 _atom_site_label
 _atom_site_symmetry_multiplicity
 _atom_site_fract_x
 _atom_site_fract_y
 _atom_site_fract_z
 _atom_site_occupancy
  Na  Na0  1  0.250000  0.250000  0.499999  1
  Na  Na1  1  0.750000  0.750000  0.499999  1
  Na  Na2  1  0.757812  0.414061  0.499981  1
  Na  Na3  1  0.257812  0.914061  0.499981  1
  Na  Na4  1  0.742187  0.085939  0.500019  1
  Na  Na5  1  0.242187  0.585939  0.500019  1
  Ni  Ni6  1  0.500787  0.832993  0.000012  1
  Ni  Ni7  1  0.999213  0.667007  0.999986  1
  Ni  Ni8  1  0.000787  0.332993  0.000012  1
  Ni  Ni9  1  0.499213  0.167007  0.999986  1
  Ir  Ir10  1  0.000000  0.000000  0.000000  1
  Ir  Ir11  1  0.500000  0.500000  0.000000  1
  O  O12  1  0.125870  0.125827  0.798982  1
  O  O13  1  0.625870  0.625827  0.798982  1
  O  O14  1  0.374131  0.374173  0.201018  1
  O  O15  1  0.874131  0.874173  0.201018  1
  O  O16  1  0.873636  0.193255  0.201447  1
  O  O17  1  0.373636  0.693255  0.201447  1
  O  O18  1  0.353034  0.033482  0.201460  1
  O  O19  1  0.853034  0.533482  0.201460  1
  O  O20  1  0.146967  0.466517  0.798539  1
  O  O21  1  0.646967  0.966517  0.798539  1
  O  O22  1  0.626363  0.306746  0.798552  1
  O  O23  1  0.126363  0.806746  0.798552  1
