# generated using pymatgen
data_Ca19Cd6In2N7
_symmetry_space_group_name_H-M   'P 1'
_cell_length_a   10.45644404
_cell_length_b   10.45644382
_cell_length_c   10.42923200
_cell_angle_alpha   60.08604934
_cell_angle_beta   60.08605004
_cell_angle_gamma   60.11952294
_symmetry_Int_Tables_number   1
_chemical_formula_structural   Ca19Cd6In2N7
_chemical_formula_sum   'Ca19 Cd6 In2 N7'
_cell_volume   808.09194055
_cell_formula_units_Z   1
loop_
 _symmetry_equiv_pos_site_id
 _symmetry_equiv_pos_as_xyz
  1  'x, y, z'
loop_
 _atom_site_type_symbol
 _atom_site_label
 _atom_site_symmetry_multiplicity
 _atom_site_fract_x
 _atom_site_fract_y
 _atom_site_fract_z
 _atom_site_occupancy
  Ca  Ca0  1  0.175116  0.499984  0.825737  1
  Ca  Ca1  1  0.499757  0.825629  0.174771  1
  Ca  Ca2  1  0.825944  0.174684  0.499686  1
  Ca  Ca3  1  0.165422  0.834728  0.164833  1
  Ca  Ca4  1  0.825629  0.499757  0.174771  1
  Ca  Ca5  1  0.174684  0.825944  0.499686  1
  Ca  Ca6  1  0.164827  0.164827  0.835173  1
  Ca  Ca7  1  0.175116  0.499984  0.499164  1
  Ca  Ca8  1  0.834994  0.834994  0.165006  1
  Ca  Ca9  1  0.834728  0.165422  0.835017  1
  Ca  Ca10  1  0.499757  0.825629  0.499843  1
  Ca  Ca11  1  0.500053  0.500053  0.499947  1
  Ca  Ca12  1  0.499804  0.499804  0.175076  1
  Ca  Ca13  1  0.165422  0.834728  0.835017  1
  Ca  Ca14  1  0.499984  0.175116  0.825737  1
  Ca  Ca15  1  0.499984  0.175116  0.499164  1
  Ca  Ca16  1  0.825629  0.499757  0.499843  1
  Ca  Ca17  1  0.834728  0.165422  0.164833  1
  Ca  Ca18  1  0.499804  0.499804  0.825317  1
  Cd  Cd19  1  0.174974  0.174974  0.474694  1
  Cd  Cd20  1  0.825829  0.522272  0.825950  1
  Cd  Cd21  1  0.475135  0.175106  0.174879  1
  Cd  Cd22  1  0.175106  0.475135  0.174879  1
  Cd  Cd23  1  0.522272  0.825829  0.825950  1
  Cd  Cd24  1  0.174974  0.174974  0.175356  1
  In  In25  1  0.825130  0.825130  0.825437  1
  In  In26  1  0.825130  0.825130  0.524305  1
  N  N27  1  0.673382  0.326853  0.673706  1
  N  N28  1  0.673382  0.326853  0.326059  1
  N  N29  1  0.326853  0.673382  0.673706  1
  N  N30  1  0.326853  0.673382  0.326059  1
  N  N31  1  0.326091  0.326091  0.673909  1
  N  N32  1  0.673902  0.673902  0.326098  1
  N  N33  1  0.999606  0.999606  0.000394  1
