# generated using pymatgen
data_Lu2FeSi5Rh2
_symmetry_space_group_name_H-M   'P 1'
_cell_length_a   8.07017352
_cell_length_b   8.07008720
_cell_length_c   8.07042627
_cell_angle_alpha   139.86564740
_cell_angle_beta   106.40009918
_cell_angle_gamma   87.31017689
_symmetry_Int_Tables_number   1
_chemical_formula_structural   Lu2FeSi5Rh2
_chemical_formula_sum   'Lu4 Fe2 Si10 Rh4'
_cell_volume   312.64589855
_cell_formula_units_Z   2
loop_
 _symmetry_equiv_pos_site_id
 _symmetry_equiv_pos_as_xyz
  1  'x, y, z'
loop_
 _atom_site_type_symbol
 _atom_site_label
 _atom_site_symmetry_multiplicity
 _atom_site_fract_x
 _atom_site_fract_y
 _atom_site_fract_z
 _atom_site_occupancy
  Lu  Lu0  1  0.866043  0.633899  0.232157  1
  Lu  Lu1  1  0.133957  0.366101  0.767843  1
  Lu  Lu2  1  0.401740  0.133894  0.267840  1
  Lu  Lu3  1  0.598260  0.866106  0.732160  1
  Fe  Fe4  1  0.999982  0.749957  0.749996  1
  Fe  Fe5  1  0.000018  0.250043  0.250004  1
  Si  Si6  1  0.500014  0.750001  0.249988  1
  Si  Si7  1  0.499986  0.249999  0.750012  1
  Si  Si8  1  0.210893  0.960893  0.750003  1
  Si  Si9  1  0.789124  0.539129  0.749999  1
  Si  Si10  1  0.789107  0.039107  0.249997  1
  Si  Si11  1  0.210876  0.460871  0.250001  1
  Si  Si12  1  0.061216  0.906260  0.154956  1
  Si  Si13  1  0.938784  0.093740  0.845044  1
  Si  Si14  1  0.751331  0.406266  0.345054  1
  Si  Si15  1  0.248669  0.593734  0.654946  1
  Rh  Rh16  1  0.248751  0.856864  0.391819  1
  Rh  Rh17  1  0.751249  0.143136  0.608181  1
  Rh  Rh18  1  0.465057  0.356920  0.108192  1
  Rh  Rh19  1  0.534943  0.643080  0.891808  1
