# generated using pymatgen
data_CaDy2Er4Co6Sn23
_symmetry_space_group_name_H-M   'P 1'
_cell_length_a   9.70513508
_cell_length_b   9.70654427
_cell_length_c   9.94452706
_cell_angle_alpha   90.00000222
_cell_angle_beta   90.01082362
_cell_angle_gamma   120.00479860
_symmetry_Int_Tables_number   1
_chemical_formula_structural   CaDy2Er4Co6Sn23
_chemical_formula_sum   'Ca1 Dy2 Er4 Co6 Sn23'
_cell_volume   811.25983966
_cell_formula_units_Z   1
loop_
 _symmetry_equiv_pos_site_id
 _symmetry_equiv_pos_as_xyz
  1  'x, y, z'
loop_
 _atom_site_type_symbol
 _atom_site_label
 _atom_site_symmetry_multiplicity
 _atom_site_fract_x
 _atom_site_fract_y
 _atom_site_fract_z
 _atom_site_occupancy
  Ca  Ca0  1  0.000000  0.000000  0.000000  1
  Dy  Dy1  1  0.041678  0.520839  0.305714  1
  Dy  Dy2  1  0.958322  0.479161  0.694286  1
  Er  Er3  1  0.479449  0.520668  0.305722  1
  Er  Er4  1  0.520551  0.479332  0.694278  1
  Er  Er5  1  0.479449  0.958781  0.305722  1
  Er  Er6  1  0.520551  0.041219  0.694278  1
  Co  Co7  1  0.831222  0.168377  0.198709  1
  Co  Co8  1  0.168778  0.831623  0.801291  1
  Co  Co9  1  0.831222  0.662844  0.198709  1
  Co  Co10  1  0.168778  0.337156  0.801291  1
  Co  Co11  1  0.337333  0.168666  0.198808  1
  Co  Co12  1  0.662667  0.831334  0.801192  1
  Sn  Sn13  1  0.346014  0.000069  0.999991  1
  Sn  Sn14  1  0.653986  0.999931  0.000009  1
  Sn  Sn15  1  0.000000  0.345960  0.000000  1
  Sn  Sn16  1  0.000000  0.654040  0.000000  1
  Sn  Sn17  1  0.653986  0.654055  0.000009  1
  Sn  Sn18  1  0.346014  0.345945  0.999991  1
  Sn  Sn19  1  0.333457  0.666729  0.816132  1
  Sn  Sn20  1  0.666543  0.333271  0.183868  1
  Sn  Sn21  1  0.000000  0.000000  0.500000  1
  Sn  Sn22  1  0.780481  0.218623  0.452045  1
  Sn  Sn23  1  0.219519  0.781377  0.547955  1
  Sn  Sn24  1  0.780481  0.561859  0.452045  1
  Sn  Sn25  1  0.219519  0.438141  0.547955  1
  Sn  Sn26  1  0.438119  0.219060  0.452030  1
  Sn  Sn27  1  0.561881  0.780940  0.547970  1
  Sn  Sn28  1  0.333820  0.666910  0.118717  1
  Sn  Sn29  1  0.666180  0.333090  0.881283  1
  Sn  Sn30  1  0.117609  0.882818  0.274527  1
  Sn  Sn31  1  0.882391  0.117182  0.725473  1
  Sn  Sn32  1  0.117609  0.234791  0.274527  1
  Sn  Sn33  1  0.882391  0.765209  0.725473  1
  Sn  Sn34  1  0.764780  0.882390  0.274611  1
  Sn  Sn35  1  0.235220  0.117610  0.725389  1
