# generated using pymatgen
data_Y5Er(SnIr)6
_symmetry_space_group_name_H-M   'P 1'
_cell_length_a   7.46774646
_cell_length_b   7.53665405
_cell_length_c   7.94076200
_cell_angle_alpha   90.00000000
_cell_angle_beta   90.00000000
_cell_angle_gamma   120.35941650
_symmetry_Int_Tables_number   1
_chemical_formula_structural   Y5Er(SnIr)6
_chemical_formula_sum   'Y5 Er1 Sn6 Ir6'
_cell_volume   385.63517765
_cell_formula_units_Z   1
loop_
 _symmetry_equiv_pos_site_id
 _symmetry_equiv_pos_as_xyz
  1  'x, y, z'
loop_
 _atom_site_type_symbol
 _atom_site_label
 _atom_site_symmetry_multiplicity
 _atom_site_fract_x
 _atom_site_fract_y
 _atom_site_fract_z
 _atom_site_occupancy
  Y  Y0  1  0.406617  0.003946  0.250000  1
  Y  Y1  1  0.595589  0.594581  0.750000  1
  Y  Y2  1  0.594173  0.596080  0.250000  1
  Y  Y3  1  0.000836  0.405438  0.750000  1
  Y  Y4  1  0.404219  0.998212  0.750000  1
  Er  Er5  1  0.998955  0.402332  0.250000  1
  Sn  Sn6  1  0.260383  0.259510  0.500533  1
  Sn  Sn7  1  0.260383  0.259510  0.999467  1
  Sn  Sn8  1  0.739299  0.998491  0.999607  1
  Sn  Sn9  1  0.000218  0.743227  0.497217  1
  Sn  Sn10  1  0.739299  0.998491  0.500393  1
  Sn  Sn11  1  0.000218  0.743227  0.002783  1
  Ir  Ir12  1  0.672666  0.334678  0.498715  1
  Ir  Ir13  1  0.672666  0.334678  0.001285  1
  Ir  Ir14  1  0.327250  0.662179  0.003865  1
  Ir  Ir15  1  0.327250  0.662179  0.496135  1
  Ir  Ir16  1  0.999984  0.999241  0.750000  1
  Ir  Ir17  1  0.999994  0.003997  0.250000  1
