# generated using pymatgen
data_YHo7(AgRh)2
_symmetry_space_group_name_H-M   'P 1'
_cell_length_a   9.50572239
_cell_length_b   9.47034139
_cell_length_c   9.50268858
_cell_angle_alpha   60.13348786
_cell_angle_beta   60.27257925
_cell_angle_gamma   60.10274504
_symmetry_Int_Tables_number   1
_chemical_formula_structural   YHo7(AgRh)2
_chemical_formula_sum   'Y2 Ho14 Ag4 Rh4'
_cell_volume   607.21868410
_cell_formula_units_Z   2
loop_
 _symmetry_equiv_pos_site_id
 _symmetry_equiv_pos_as_xyz
  1  'x, y, z'
loop_
 _atom_site_type_symbol
 _atom_site_label
 _atom_site_symmetry_multiplicity
 _atom_site_fract_x
 _atom_site_fract_y
 _atom_site_fract_z
 _atom_site_occupancy
  Y  Y0  1  0.934300  0.934559  0.565802  1
  Y  Y1  1  0.565828  0.565353  0.934286  1
  Ho  Ho2  1  0.687761  0.687053  0.313134  1
  Ho  Ho3  1  0.147198  0.558245  0.147003  1
  Ho  Ho4  1  0.688143  0.311842  0.688165  1
  Ho  Ho5  1  0.146985  0.147564  0.147238  1
  Ho  Ho6  1  0.557972  0.147672  0.146877  1
  Ho  Ho7  1  0.687996  0.311863  0.312847  1
  Ho  Ho8  1  0.146887  0.147497  0.557913  1
  Ho  Ho9  1  0.312785  0.687204  0.312804  1
  Ho  Ho10  1  0.312829  0.687282  0.688020  1
  Ho  Ho11  1  0.936066  0.563635  0.564081  1
  Ho  Ho12  1  0.936322  0.563685  0.936313  1
  Ho  Ho13  1  0.563998  0.936014  0.563975  1
  Ho  Ho14  1  0.564091  0.936220  0.936041  1
  Ho  Ho15  1  0.313110  0.312025  0.687788  1
  Ag  Ag16  1  0.917584  0.918078  0.245173  1
  Ag  Ag17  1  0.245175  0.919163  0.917581  1
  Ag  Ag18  1  0.917584  0.918075  0.918438  1
  Ag  Ag19  1  0.918441  0.245909  0.917578  1
  Rh  Rh20  1  0.355402  0.356621  0.930230  1
  Rh  Rh21  1  0.357271  0.929422  0.356044  1
  Rh  Rh22  1  0.930218  0.357754  0.355418  1
  Rh  Rh23  1  0.356052  0.357260  0.357245  1
