# generated using pymatgen
data_Y8Ho2CoHg3
_symmetry_space_group_name_H-M   'P 1'
_cell_length_a   9.65452829
_cell_length_b   9.65457337
_cell_length_c   9.57694569
_cell_angle_alpha   90.05910374
_cell_angle_beta   89.94112288
_cell_angle_gamma   120.00542919
_symmetry_Int_Tables_number   1
_chemical_formula_structural   Y8Ho2CoHg3
_chemical_formula_sum   'Y16 Ho4 Co2 Hg6'
_cell_volume   773.03246627
_cell_formula_units_Z   2
loop_
 _symmetry_equiv_pos_site_id
 _symmetry_equiv_pos_as_xyz
  1  'x, y, z'
loop_
 _atom_site_type_symbol
 _atom_site_label
 _atom_site_symmetry_multiplicity
 _atom_site_fract_x
 _atom_site_fract_y
 _atom_site_fract_z
 _atom_site_occupancy
  Y  Y0  1  0.999794  0.000208  0.499809  1
  Y  Y1  1  0.999994  0.000002  0.999977  1
  Y  Y2  1  0.541928  0.458072  0.250529  1
  Y  Y3  1  0.542192  0.084085  0.250930  1
  Y  Y4  1  0.915916  0.457810  0.250928  1
  Y  Y5  1  0.457559  0.542440  0.749221  1
  Y  Y6  1  0.457991  0.915637  0.749040  1
  Y  Y7  1  0.084364  0.542006  0.749042  1
  Y  Y8  1  0.789147  0.577840  0.564148  1
  Y  Y9  1  0.422157  0.210843  0.564148  1
  Y  Y10  1  0.788973  0.211031  0.935214  1
  Y  Y11  1  0.788881  0.577813  0.935675  1
  Y  Y12  1  0.422183  0.211123  0.935676  1
  Y  Y13  1  0.211035  0.788961  0.064642  1
  Y  Y14  1  0.210954  0.422017  0.064641  1
  Y  Y15  1  0.577981  0.789045  0.064640  1
  Ho  Ho16  1  0.211941  0.788059  0.435148  1
  Ho  Ho17  1  0.211684  0.423937  0.435259  1
  Ho  Ho18  1  0.576063  0.788316  0.435253  1
  Ho  Ho19  1  0.788494  0.211514  0.564693  1
  Co  Co20  1  0.333362  0.666636  0.252534  1
  Co  Co21  1  0.667396  0.332607  0.748924  1
  Hg  Hg22  1  0.880623  0.119383  0.250141  1
  Hg  Hg23  1  0.880668  0.761252  0.250030  1
  Hg  Hg24  1  0.238747  0.119333  0.250027  1
  Hg  Hg25  1  0.119421  0.880578  0.749885  1
  Hg  Hg26  1  0.119375  0.238824  0.749923  1
  Hg  Hg27  1  0.761175  0.880626  0.749923  1
