# generated using pymatgen
data_TmAg3(NO3)8
_symmetry_space_group_name_H-M   'P 1'
_cell_length_a   8.04092530
_cell_length_b   8.04092510
_cell_length_c   8.04092525
_cell_angle_alpha   88.01609568
_cell_angle_beta   88.01610323
_cell_angle_gamma   88.01610445
_symmetry_Int_Tables_number   1
_chemical_formula_structural   TmAg3(NO3)8
_chemical_formula_sum   'Tm1 Ag3 N8 O24'
_cell_volume   518.98406567
_cell_formula_units_Z   1
loop_
 _symmetry_equiv_pos_site_id
 _symmetry_equiv_pos_as_xyz
  1  'x, y, z'
loop_
 _atom_site_type_symbol
 _atom_site_label
 _atom_site_symmetry_multiplicity
 _atom_site_fract_x
 _atom_site_fract_y
 _atom_site_fract_z
 _atom_site_occupancy
  Tm  Tm0  1  0.000000  0.000000  0.000000  1
  Ag  Ag1  1  0.500000  0.500000  0.000000  1
  Ag  Ag2  1  0.000000  0.500000  0.500000  1
  Ag  Ag3  1  0.500000  0.000000  0.500000  1
  N  N4  1  0.325714  0.154673  0.819667  1
  N  N5  1  0.819667  0.325714  0.154673  1
  N  N6  1  0.154673  0.819667  0.325714  1
  N  N7  1  0.667569  0.667569  0.667569  1
  N  N8  1  0.674286  0.845327  0.180333  1
  N  N9  1  0.180333  0.674286  0.845327  1
  N  N10  1  0.845327  0.180333  0.674286  1
  N  N11  1  0.332431  0.332431  0.332431  1
  O  O12  1  0.442635  0.250212  0.803177  1
  O  O13  1  0.803177  0.442635  0.250212  1
  O  O14  1  0.250212  0.803177  0.442635  1
  O  O15  1  0.220196  0.166494  0.943729  1
  O  O16  1  0.302841  0.040967  0.717068  1
  O  O17  1  0.717068  0.302841  0.040967  1
  O  O18  1  0.684398  0.546925  0.771403  1
  O  O19  1  0.166494  0.943729  0.220196  1
  O  O20  1  0.771403  0.684398  0.546925  1
  O  O21  1  0.943729  0.220196  0.166494  1
  O  O22  1  0.546925  0.771403  0.684398  1
  O  O23  1  0.040967  0.717068  0.302841  1
  O  O24  1  0.557365  0.749788  0.196823  1
  O  O25  1  0.196823  0.557365  0.749788  1
  O  O26  1  0.749788  0.196823  0.557365  1
  O  O27  1  0.779804  0.833506  0.056271  1
  O  O28  1  0.697159  0.959033  0.282932  1
  O  O29  1  0.282932  0.697159  0.959033  1
  O  O30  1  0.315602  0.453075  0.228597  1
  O  O31  1  0.833506  0.056271  0.779804  1
  O  O32  1  0.228597  0.315602  0.453075  1
  O  O33  1  0.056271  0.779804  0.833506  1
  O  O34  1  0.453075  0.228597  0.315602  1
  O  O35  1  0.959033  0.282932  0.697159  1
