# generated using pymatgen
data_Rb8CeBi4
_symmetry_space_group_name_H-M   'P 1'
_cell_length_a   12.46653611
_cell_length_b   12.46653681
_cell_length_c   12.46653700
_cell_angle_alpha   60.00000216
_cell_angle_beta   60.00000029
_cell_angle_gamma   60.00000206
_symmetry_Int_Tables_number   1
_chemical_formula_structural   Rb8CeBi4
_chemical_formula_sum   'Rb16 Ce2 Bi8'
_cell_volume   1370.00600387
_cell_formula_units_Z   2
loop_
 _symmetry_equiv_pos_site_id
 _symmetry_equiv_pos_as_xyz
  1  'x, y, z'
loop_
 _atom_site_type_symbol
 _atom_site_label
 _atom_site_symmetry_multiplicity
 _atom_site_fract_x
 _atom_site_fract_y
 _atom_site_fract_z
 _atom_site_occupancy
  Rb  Rb0  1  0.625000  0.125000  0.625000  1
  Rb  Rb1  1  0.625000  0.625000  0.125000  1
  Rb  Rb2  1  0.125000  0.625000  0.625000  1
  Rb  Rb3  1  0.625000  0.625000  0.625000  1
  Rb  Rb4  1  0.032631  0.032631  0.467369  1
  Rb  Rb5  1  0.782631  0.217369  0.217369  1
  Rb  Rb6  1  0.217369  0.782631  0.782631  1
  Rb  Rb7  1  0.782631  0.782631  0.217369  1
  Rb  Rb8  1  0.782631  0.217369  0.782631  1
  Rb  Rb9  1  0.217369  0.782631  0.217369  1
  Rb  Rb10  1  0.467369  0.032631  0.467369  1
  Rb  Rb11  1  0.467369  0.032631  0.032631  1
  Rb  Rb12  1  0.032631  0.467369  0.467369  1
  Rb  Rb13  1  0.032631  0.467369  0.032631  1
  Rb  Rb14  1  0.217369  0.217369  0.782631  1
  Rb  Rb15  1  0.467369  0.467369  0.032631  1
  Ce  Ce16  1  0.750000  0.750000  0.750000  1
  Ce  Ce17  1  0.500000  0.500000  0.500000  1
  Bi  Bi18  1  0.397077  0.808767  0.397077  1
  Bi  Bi19  1  0.852923  0.852923  0.441233  1
  Bi  Bi20  1  0.441233  0.852923  0.852923  1
  Bi  Bi21  1  0.852923  0.852923  0.852923  1
  Bi  Bi22  1  0.808767  0.397077  0.397077  1
  Bi  Bi23  1  0.397077  0.397077  0.397077  1
  Bi  Bi24  1  0.397077  0.397077  0.808767  1
  Bi  Bi25  1  0.852923  0.441233  0.852923  1
