# generated using pymatgen
data_Dy3Ho5Re(B8Os)3
_symmetry_space_group_name_H-M   'P 1'
_cell_length_a   3.65914500
_cell_length_b   9.14334623
_cell_length_c   11.52860000
_cell_angle_alpha   90.08495501
_cell_angle_beta   90.00000000
_cell_angle_gamma   90.00000000
_symmetry_Int_Tables_number   1
_chemical_formula_structural   Dy3Ho5Re(B8Os)3
_chemical_formula_sum   'Dy3 Ho5 Re1 B24 Os3'
_cell_volume   385.70998220
_cell_formula_units_Z   1
loop_
 _symmetry_equiv_pos_site_id
 _symmetry_equiv_pos_as_xyz
  1  'x, y, z'
loop_
 _atom_site_type_symbol
 _atom_site_label
 _atom_site_symmetry_multiplicity
 _atom_site_fract_x
 _atom_site_fract_y
 _atom_site_fract_z
 _atom_site_occupancy
  Dy  Dy0  1  0.000000  0.322340  0.414918  1
  Dy  Dy1  1  0.000000  0.679924  0.588136  1
  Dy  Dy2  1  0.000000  0.822717  0.083786  1
  Ho  Ho3  1  0.000000  0.176332  0.913230  1
  Ho  Ho4  1  0.000000  0.943553  0.371817  1
  Ho  Ho5  1  0.000000  0.055696  0.627743  1
  Ho  Ho6  1  0.000000  0.443117  0.127940  1
  Ho  Ho7  1  0.000000  0.556290  0.872638  1
  Re  Re8  1  0.000000  0.862509  0.821259  1
  B  B9  1  0.500000  0.553798  0.433191  1
  B  B10  1  0.500000  0.446300  0.567114  1
  B  B11  1  0.500000  0.053711  0.067224  1
  B  B12  1  0.500000  0.947202  0.933144  1
  B  B13  1  0.500000  0.748396  0.419436  1
  B  B14  1  0.500000  0.251709  0.580405  1
  B  B15  1  0.500000  0.248004  0.080584  1
  B  B16  1  0.500000  0.751671  0.919268  1
  B  B17  1  0.500000  0.790525  0.266090  1
  B  B18  1  0.500000  0.209016  0.733306  1
  B  B19  1  0.500000  0.291027  0.233837  1
  B  B20  1  0.500000  0.708348  0.766144  1
  B  B21  1  0.500000  0.630964  0.185397  1
  B  B22  1  0.500000  0.368433  0.814242  1
  B  B23  1  0.500000  0.131553  0.314736  1
  B  B24  1  0.500000  0.868831  0.685600  1
  B  B25  1  0.500000  0.983386  0.212670  1
  B  B26  1  0.500000  0.017805  0.787293  1
  B  B27  1  0.500000  0.483105  0.287647  1
  B  B28  1  0.500000  0.516930  0.712755  1
  B  B29  1  0.500000  0.605682  0.029999  1
  B  B30  1  0.500000  0.392714  0.970608  1
  B  B31  1  0.500000  0.107008  0.470017  1
  B  B32  1  0.500000  0.893528  0.528972  1
  Os  Os33  1  0.000000  0.637402  0.321323  1
  Os  Os34  1  0.000000  0.362555  0.678288  1
  Os  Os35  1  0.000000  0.137919  0.179244  1
