# generated using pymatgen
data_Tb5Y7Tc3Ni
_symmetry_space_group_name_H-M   'P 1'
_cell_length_a   6.31867920
_cell_length_b   7.36952451
_cell_length_c   9.29599726
_cell_angle_alpha   89.99941141
_cell_angle_beta   90.02700983
_cell_angle_gamma   90.28631366
_symmetry_Int_Tables_number   1
_chemical_formula_structural   Tb5Y7Tc3Ni
_chemical_formula_sum   'Tb5 Y7 Tc3 Ni1'
_cell_volume   432.86880616
_cell_formula_units_Z   1
loop_
 _symmetry_equiv_pos_site_id
 _symmetry_equiv_pos_as_xyz
  1  'x, y, z'
loop_
 _atom_site_type_symbol
 _atom_site_label
 _atom_site_symmetry_multiplicity
 _atom_site_fract_x
 _atom_site_fract_y
 _atom_site_fract_z
 _atom_site_occupancy
  Tb  Tb0  1  0.833988  0.823733  0.562524  1
  Tb  Tb1  1  0.328096  0.677205  0.432064  1
  Tb  Tb2  1  0.164569  0.176737  0.063338  1
  Tb  Tb3  1  0.869276  0.542600  0.250121  1
  Tb  Tb4  1  0.625992  0.041828  0.250134  1
  Y  Y5  1  0.328094  0.677796  0.067589  1
  Y  Y6  1  0.164294  0.177482  0.436847  1
  Y  Y7  1  0.667981  0.323561  0.563091  1
  Y  Y8  1  0.834004  0.823163  0.937920  1
  Y  Y9  1  0.667548  0.323637  0.937242  1
  Y  Y10  1  0.141378  0.455759  0.750227  1
  Y  Y11  1  0.371045  0.956907  0.749644  1
  Tc  Tc12  1  0.036393  0.886472  0.249857  1
  Tc  Tc13  1  0.461266  0.388258  0.250179  1
  Tc  Tc14  1  0.957704  0.111101  0.749421  1
  Ni  Ni15  1  0.548372  0.613759  0.749804  1
