# generated using pymatgen
data_Pa2NiS5
_symmetry_space_group_name_H-M   'P 1'
_cell_length_a   6.87681971
_cell_length_b   6.87681940
_cell_length_c   16.86892800
_cell_angle_alpha   90.00000000
_cell_angle_beta   90.00000000
_cell_angle_gamma   146.37707647
_symmetry_Int_Tables_number   1
_chemical_formula_structural   Pa2NiS5
_chemical_formula_sum   'Pa4 Ni2 S10'
_cell_volume   441.72977855
_cell_formula_units_Z   2
loop_
 _symmetry_equiv_pos_site_id
 _symmetry_equiv_pos_as_xyz
  1  'x, y, z'
loop_
 _atom_site_type_symbol
 _atom_site_label
 _atom_site_symmetry_multiplicity
 _atom_site_fract_x
 _atom_site_fract_y
 _atom_site_fract_z
 _atom_site_occupancy
  Pa  Pa0  1  0.779691  0.220309  0.606152  1
  Pa  Pa1  1  0.220309  0.779691  0.393848  1
  Pa  Pa2  1  0.220309  0.779691  0.106152  1
  Pa  Pa3  1  0.779691  0.220309  0.893848  1
  Ni  Ni4  1  0.704546  0.295454  0.250000  1
  Ni  Ni5  1  0.295454  0.704546  0.750000  1
  S  S6  1  0.297606  0.702394  0.250000  1
  S  S7  1  0.702394  0.297606  0.750000  1
  S  S8  1  0.841709  0.158291  0.450882  1
  S  S9  1  0.158291  0.841709  0.549118  1
  S  S10  1  0.158291  0.841709  0.950882  1
  S  S11  1  0.841709  0.158291  0.049118  1
  S  S12  1  0.399285  0.600715  0.856227  1
  S  S13  1  0.600715  0.399285  0.143773  1
  S  S14  1  0.600715  0.399285  0.356227  1
  S  S15  1  0.399285  0.600715  0.643773  1
