# generated using pymatgen
data_CaTb(NiB4)2
_symmetry_space_group_name_H-M   'P 1'
_cell_length_a   6.84163965
_cell_length_b   6.84163903
_cell_length_c   6.84163867
_cell_angle_alpha   112.88466665
_cell_angle_beta   112.88466792
_cell_angle_gamma   102.84094265
_symmetry_Int_Tables_number   1
_chemical_formula_structural   CaTb(NiB4)2
_chemical_formula_sum   'Ca2 Tb2 Ni4 B16'
_cell_volume   244.08727866
_cell_formula_units_Z   2
loop_
 _symmetry_equiv_pos_site_id
 _symmetry_equiv_pos_as_xyz
  1  'x, y, z'
loop_
 _atom_site_type_symbol
 _atom_site_label
 _atom_site_symmetry_multiplicity
 _atom_site_fract_x
 _atom_site_fract_y
 _atom_site_fract_z
 _atom_site_occupancy
  Ca  Ca0  1  0.202719  0.202719  0.000000  1
  Ca  Ca1  1  0.797281  0.797281  0.000000  1
  Tb  Tb2  1  0.750000  0.250000  0.500000  1
  Tb  Tb3  1  0.250000  0.750000  0.500000  1
  Ni  Ni4  1  0.500000  0.272185  0.772185  1
  Ni  Ni5  1  0.500000  0.727815  0.227815  1
  Ni  Ni6  1  0.727815  0.500000  0.227815  1
  Ni  Ni7  1  0.272185  0.500000  0.772185  1
  B  B8  1  0.112265  0.276723  0.388988  1
  B  B9  1  0.887735  0.723277  0.611012  1
  B  B10  1  0.887735  0.276723  0.164458  1
  B  B11  1  0.112265  0.723277  0.835542  1
  B  B12  1  0.723277  0.887735  0.611012  1
  B  B13  1  0.276723  0.112265  0.388988  1
  B  B14  1  0.723277  0.112265  0.835542  1
  B  B15  1  0.276723  0.887735  0.164458  1
  B  B16  1  0.416767  0.416767  0.529820  1
  B  B17  1  0.886949  0.886949  0.470180  1
  B  B18  1  0.583233  0.113051  0.000000  1
  B  B19  1  0.113051  0.583233  0.000000  1
  B  B20  1  0.583233  0.583233  0.470180  1
  B  B21  1  0.113051  0.113051  0.529820  1
  B  B22  1  0.886949  0.416767  0.000000  1
  B  B23  1  0.416767  0.886949  0.000000  1
