# generated using pymatgen
data_Hf3ZrNi2(Sb2Os)2
_symmetry_space_group_name_H-M   'P 1'
_cell_length_a   7.67876475
_cell_length_b   7.66661475
_cell_length_c   6.27337000
_cell_angle_alpha   114.15053771
_cell_angle_beta   114.10989475
_cell_angle_gamma   109.36307568
_symmetry_Int_Tables_number   1
_chemical_formula_structural   Hf3ZrNi2(Sb2Os)2
_chemical_formula_sum   'Hf3 Zr1 Ni2 Sb4 Os2'
_cell_volume   246.36190134
_cell_formula_units_Z   1
loop_
 _symmetry_equiv_pos_site_id
 _symmetry_equiv_pos_as_xyz
  1  'x, y, z'
loop_
 _atom_site_type_symbol
 _atom_site_label
 _atom_site_symmetry_multiplicity
 _atom_site_fract_x
 _atom_site_fract_y
 _atom_site_fract_z
 _atom_site_occupancy
  Hf  Hf0  1  0.871758  0.621827  0.496377  1
  Hf  Hf1  1  0.378241  0.128173  0.502793  1
  Hf  Hf2  1  0.125000  0.375000  0.996257  1
  Zr  Zr3  1  0.625001  0.875000  0.003798  1
  Ni  Ni4  1  0.499307  0.498051  0.000099  1
  Ni  Ni5  1  0.750693  0.251950  0.502740  1
  Sb  Sb6  1  0.379299  0.129922  0.004479  1
  Sb  Sb7  1  0.625000  0.874999  0.495787  1
  Sb  Sb8  1  0.125000  0.375000  0.504750  1
  Sb  Sb9  1  0.870700  0.620078  0.995257  1
  Os  Os10  1  0.001749  0.000577  0.999993  1
  Os  Os11  1  0.248251  0.749424  0.497668  1
