# generated using pymatgen
data_Sm4Ho4Re(B8Os)3
_symmetry_space_group_name_H-M   'P 1'
_cell_length_a   3.68822000
_cell_length_b   9.19905310
_cell_length_c   11.61680601
_cell_angle_alpha   90.08321185
_cell_angle_beta   90.00000000
_cell_angle_gamma   90.00000000
_symmetry_Int_Tables_number   1
_chemical_formula_structural   Sm4Ho4Re(B8Os)3
_chemical_formula_sum   'Sm4 Ho4 Re1 B24 Os3'
_cell_volume   394.13610743
_cell_formula_units_Z   1
loop_
 _symmetry_equiv_pos_site_id
 _symmetry_equiv_pos_as_xyz
  1  'x, y, z'
loop_
 _atom_site_type_symbol
 _atom_site_label
 _atom_site_symmetry_multiplicity
 _atom_site_fract_x
 _atom_site_fract_y
 _atom_site_fract_z
 _atom_site_occupancy
  Sm  Sm0  1  0.000000  0.322768  0.414679  1
  Sm  Sm1  1  0.000000  0.679509  0.587764  1
  Sm  Sm2  1  0.000000  0.822632  0.084064  1
  Sm  Sm3  1  0.000000  0.176524  0.913096  1
  Ho  Ho4  1  0.000000  0.943441  0.371650  1
  Ho  Ho5  1  0.000000  0.055760  0.627893  1
  Ho  Ho6  1  0.000000  0.443022  0.127986  1
  Ho  Ho7  1  0.000000  0.556495  0.872626  1
  Re  Re8  1  0.000000  0.861642  0.820454  1
  B  B9  1  0.500000  0.554946  0.431759  1
  B  B10  1  0.500000  0.445204  0.568616  1
  B  B11  1  0.500000  0.054706  0.068715  1
  B  B12  1  0.500000  0.946113  0.931623  1
  B  B13  1  0.500000  0.748900  0.418075  1
  B  B14  1  0.500000  0.251200  0.581707  1
  B  B15  1  0.500000  0.248727  0.082156  1
  B  B16  1  0.500000  0.751036  0.917865  1
  B  B17  1  0.500000  0.789954  0.266643  1
  B  B18  1  0.500000  0.209565  0.732583  1
  B  B19  1  0.500000  0.290487  0.233391  1
  B  B20  1  0.500000  0.708954  0.766673  1
  B  B21  1  0.500000  0.630395  0.185730  1
  B  B22  1  0.500000  0.369100  0.813904  1
  B  B23  1  0.500000  0.131066  0.314471  1
  B  B24  1  0.500000  0.869225  0.685904  1
  B  B25  1  0.500000  0.984611  0.213496  1
  B  B26  1  0.500000  0.016429  0.786370  1
  B  B27  1  0.500000  0.484311  0.286999  1
  B  B28  1  0.500000  0.515738  0.713659  1
  B  B29  1  0.500000  0.602931  0.029164  1
  B  B30  1  0.500000  0.395475  0.971582  1
  B  B31  1  0.500000  0.104351  0.470813  1
  B  B32  1  0.500000  0.896216  0.528086  1
  Os  Os33  1  0.000000  0.638188  0.320289  1
  Os  Os34  1  0.000000  0.361906  0.679270  1
  Os  Os35  1  0.000000  0.138474  0.180242  1
