# generated using pymatgen
data_CaV2(CO3)4
_symmetry_space_group_name_H-M   'P 1'
_cell_length_a   6.13613116
_cell_length_b   9.73578627
_cell_length_c   7.84851912
_cell_angle_alpha   89.56238781
_cell_angle_beta   107.90812417
_cell_angle_gamma   89.80838574
_symmetry_Int_Tables_number   1
_chemical_formula_structural   CaV2(CO3)4
_chemical_formula_sum   'Ca2 V4 C8 O24'
_cell_volume   446.13359759
_cell_formula_units_Z   2
loop_
 _symmetry_equiv_pos_site_id
 _symmetry_equiv_pos_as_xyz
  1  'x, y, z'
loop_
 _atom_site_type_symbol
 _atom_site_label
 _atom_site_symmetry_multiplicity
 _atom_site_fract_x
 _atom_site_fract_y
 _atom_site_fract_z
 _atom_site_occupancy
  Ca  Ca0  1  0.499881  0.250008  0.500000  1
  Ca  Ca1  1  0.500013  0.749978  0.500065  1
  V  V2  1  0.500152  0.750015  0.999966  1
  V  V3  1  0.500007  0.250045  0.999974  1
  V  V4  1  0.999967  0.999974  0.500043  1
  V  V5  1  0.999896  0.499990  0.500022  1
  C  C6  1  0.024835  0.245711  0.731774  1
  C  C7  1  0.025017  0.745662  0.731816  1
  C  C8  1  0.975006  0.254246  0.268242  1
  C  C9  1  0.975198  0.754224  0.268230  1
  C  C10  1  0.518126  0.000148  0.236946  1
  C  C11  1  0.518137  0.500160  0.236938  1
  C  C12  1  0.481911  0.499915  0.763016  1
  C  C13  1  0.481897  0.999922  0.762987  1
  O  O14  1  0.346137  0.447673  0.613065  1
  O  O15  1  0.346134  0.947627  0.613071  1
  O  O16  1  0.653549  0.052407  0.387013  1
  O  O17  1  0.653580  0.552381  0.387045  1
  O  O18  1  0.593556  0.420794  0.889358  1
  O  O19  1  0.593628  0.920800  0.889303  1
  O  O20  1  0.406536  0.079263  0.110585  1
  O  O21  1  0.406643  0.579301  0.110585  1
  O  O22  1  0.005898  0.384760  0.294379  1
  O  O23  1  0.005906  0.884739  0.294425  1
  O  O24  1  0.994128  0.115198  0.705626  1
  O  O25  1  0.994234  0.615141  0.705712  1
  O  O26  1  0.497230  0.367267  0.227056  1
  O  O27  1  0.497377  0.867237  0.227081  1
  O  O28  1  0.502591  0.132856  0.772699  1
  O  O29  1  0.502824  0.632841  0.772779  1
  O  O30  1  0.887827  0.329847  0.614871  1
  O  O31  1  0.888050  0.829929  0.615099  1
  O  O32  1  0.111837  0.170005  0.385059  1
  O  O33  1  0.112039  0.670069  0.385244  1
  O  O34  1  0.174454  0.293003  0.869804  1
  O  O35  1  0.174687  0.792980  0.869767  1
  O  O36  1  0.825413  0.206985  0.130188  1
  O  O37  1  0.825696  0.706897  0.130165  1
