# generated using pymatgen
data_YPaCoNi
_symmetry_space_group_name_H-M   'P 1'
_cell_length_a   5.99309513
_cell_length_b   5.99309562
_cell_length_c   3.80996000
_cell_angle_alpha   90.00000000
_cell_angle_beta   90.00000000
_cell_angle_gamma   145.13726306
_symmetry_Int_Tables_number   1
_chemical_formula_structural   YPaCoNi
_chemical_formula_sum   'Y1 Pa1 Co1 Ni1'
_cell_volume   78.22118711
_cell_formula_units_Z   1
loop_
 _symmetry_equiv_pos_site_id
 _symmetry_equiv_pos_as_xyz
  1  'x, y, z'
loop_
 _atom_site_type_symbol
 _atom_site_label
 _atom_site_symmetry_multiplicity
 _atom_site_fract_x
 _atom_site_fract_y
 _atom_site_fract_z
 _atom_site_occupancy
  Y  Y0  1  0.150690  0.849310  0.000000  1
  Pa  Pa1  1  0.884068  0.115932  0.500000  1
  Co  Co2  1  0.403537  0.596463  0.000000  1
  Ni  Ni3  1  0.561704  0.438296  0.500000  1
