# generated using pymatgen
data_Er8Sc2(IrPt)3
_symmetry_space_group_name_H-M   'P 1'
_cell_length_a   10.82598763
_cell_length_b   10.82034700
_cell_length_c   6.22673995
_cell_angle_alpha   90.00000000
_cell_angle_beta   90.06302350
_cell_angle_gamma   90.00000000
_symmetry_Int_Tables_number   1
_chemical_formula_structural   Er8Sc2(IrPt)3
_chemical_formula_sum   'Er16 Sc4 Ir6 Pt6'
_cell_volume   729.40574642
_cell_formula_units_Z   2
loop_
 _symmetry_equiv_pos_site_id
 _symmetry_equiv_pos_as_xyz
  1  'x, y, z'
loop_
 _atom_site_type_symbol
 _atom_site_label
 _atom_site_symmetry_multiplicity
 _atom_site_fract_x
 _atom_site_fract_y
 _atom_site_fract_z
 _atom_site_occupancy
  Er  Er0  1  0.292100  0.088017  0.374885  1
  Er  Er1  1  0.292100  0.911983  0.874885  1
  Er  Er2  1  0.708237  0.085673  0.875027  1
  Er  Er3  1  0.708237  0.914327  0.375027  1
  Er  Er4  1  0.582833  0.789328  0.874781  1
  Er  Er5  1  0.582833  0.210672  0.374781  1
  Er  Er6  1  0.413142  0.789847  0.378974  1
  Er  Er7  1  0.413142  0.210153  0.878974  1
  Er  Er8  1  0.212016  0.415778  0.622341  1
  Er  Er9  1  0.212016  0.584222  0.122341  1
  Er  Er10  1  0.791419  0.414209  0.123562  1
  Er  Er11  1  0.791419  0.585791  0.623562  1
  Er  Er12  1  0.914829  0.708278  0.124917  1
  Er  Er13  1  0.914829  0.291722  0.624917  1
  Er  Er14  1  0.088568  0.707792  0.625268  1
  Er  Er15  1  0.088568  0.292208  0.125268  1
  Sc  Sc16  1  0.000070  0.999869  0.499910  1
  Sc  Sc17  1  0.000070  0.000131  0.999910  1
  Sc  Sc18  1  0.496223  0.499409  0.000091  1
  Sc  Sc19  1  0.496223  0.500591  0.500091  1
  Ir  Ir20  1  0.352299  0.351316  0.250208  1
  Ir  Ir21  1  0.352299  0.648684  0.750208  1
  Ir  Ir22  1  0.500337  0.999848  0.121895  1
  Ir  Ir23  1  0.500337  0.000152  0.621895  1
  Ir  Ir24  1  0.999039  0.500130  0.878206  1
  Ir  Ir25  1  0.999039  0.499870  0.378206  1
  Pt  Pt26  1  0.851654  0.148193  0.250030  1
  Pt  Pt27  1  0.851654  0.851807  0.750030  1
  Pt  Pt28  1  0.147897  0.148037  0.749880  1
  Pt  Pt29  1  0.147897  0.851963  0.249880  1
  Pt  Pt30  1  0.649337  0.351144  0.750025  1
  Pt  Pt31  1  0.649337  0.648856  0.250025  1
