# generated using pymatgen
data_Ho9Zn(Co2Ag)2
_symmetry_space_group_name_H-M   'P 1'
_cell_length_a   8.47606222
_cell_length_b   8.47606308
_cell_length_c   8.47606219
_cell_angle_alpha   128.70100542
_cell_angle_beta   128.70101854
_cell_angle_gamma   75.49213545
_symmetry_Int_Tables_number   1
_chemical_formula_structural   Ho9Zn(Co2Ag)2
_chemical_formula_sum   'Ho9 Zn1 Co4 Ag2'
_cell_volume   360.89071861
_cell_formula_units_Z   1
loop_
 _symmetry_equiv_pos_site_id
 _symmetry_equiv_pos_as_xyz
  1  'x, y, z'
loop_
 _atom_site_type_symbol
 _atom_site_label
 _atom_site_symmetry_multiplicity
 _atom_site_fract_x
 _atom_site_fract_y
 _atom_site_fract_z
 _atom_site_occupancy
  Ho  Ho0  1  0.719896  0.555088  0.531976  1
  Ho  Ho1  1  0.444912  0.976888  0.164808  1
  Ho  Ho2  1  0.812080  0.280104  0.835192  1
  Ho  Ho3  1  0.555088  0.023112  0.835192  1
  Ho  Ho4  1  0.023112  0.187920  0.468024  1
  Ho  Ho5  1  0.280104  0.444912  0.468024  1
  Ho  Ho6  1  0.187920  0.719896  0.164808  1
  Ho  Ho7  1  0.976888  0.812080  0.531976  1
  Ho  Ho8  1  0.500000  0.500000  0.000000  1
  Zn  Zn9  1  0.000000  0.000000  0.000000  1
  Co  Co10  1  0.133881  0.627019  0.760899  1
  Co  Co11  1  0.866119  0.372981  0.239101  1
  Co  Co12  1  0.627019  0.866119  0.493138  1
  Co  Co13  1  0.372981  0.133881  0.506862  1
  Ag  Ag14  1  0.260612  0.260612  0.000000  1
  Ag  Ag15  1  0.739388  0.739388  0.000000  1
