# generated using pymatgen
data_Dy15PaCd4(CoNi)2
_symmetry_space_group_name_H-M   'P 1'
_cell_length_a   9.46525610
_cell_length_b   9.55960054
_cell_length_c   9.49613974
_cell_angle_alpha   60.07277756
_cell_angle_beta   60.17922372
_cell_angle_gamma   60.48008075
_symmetry_Int_Tables_number   1
_chemical_formula_structural   Dy15PaCd4(CoNi)2
_chemical_formula_sum   'Dy15 Pa1 Cd4 Co2 Ni2'
_cell_volume   610.92088320
_cell_formula_units_Z   1
loop_
 _symmetry_equiv_pos_site_id
 _symmetry_equiv_pos_as_xyz
  1  'x, y, z'
loop_
 _atom_site_type_symbol
 _atom_site_label
 _atom_site_symmetry_multiplicity
 _atom_site_fract_x
 _atom_site_fract_y
 _atom_site_fract_z
 _atom_site_occupancy
  Dy  Dy0  1  0.690011  0.315418  0.683231  1
  Dy  Dy1  1  0.687206  0.313151  0.310651  1
  Dy  Dy2  1  0.937207  0.563462  0.563054  1
  Dy  Dy3  1  0.548137  0.149438  0.150061  1
  Dy  Dy4  1  0.150444  0.149540  0.547535  1
  Dy  Dy5  1  0.935749  0.934583  0.563769  1
  Dy  Dy6  1  0.308757  0.690002  0.309523  1
  Dy  Dy7  1  0.564072  0.935683  0.934376  1
  Dy  Dy8  1  0.563744  0.936078  0.563900  1
  Dy  Dy9  1  0.689665  0.690331  0.310040  1
  Dy  Dy10  1  0.558445  0.562918  0.942190  1
  Dy  Dy11  1  0.936557  0.563253  0.940409  1
  Dy  Dy12  1  0.310671  0.687713  0.692026  1
  Dy  Dy13  1  0.152320  0.151938  0.152260  1
  Dy  Dy14  1  0.310290  0.312662  0.684874  1
  Pa  Pa15  1  0.156542  0.512998  0.174789  1
  Cd  Cd16  1  0.919893  0.242117  0.919648  1
  Cd  Cd17  1  0.921398  0.915605  0.922297  1
  Cd  Cd18  1  0.920349  0.915512  0.245479  1
  Cd  Cd19  1  0.243319  0.914688  0.922198  1
  Co  Co20  1  0.939603  0.376855  0.339433  1
  Co  Co21  1  0.344820  0.375187  0.339110  1
  Ni  Ni22  1  0.353290  0.364815  0.930096  1
  Ni  Ni23  1  0.357511  0.926050  0.359049  1
