# generated using pymatgen
data_La3Pr3U4O20
_symmetry_space_group_name_H-M   'P 1'
_cell_length_a   6.83775304
_cell_length_b   7.77197893
_cell_length_c   8.69979444
_cell_angle_alpha   101.60196234
_cell_angle_beta   97.85529837
_cell_angle_gamma   107.06713820
_symmetry_Int_Tables_number   1
_chemical_formula_structural   La3Pr3U4O20
_chemical_formula_sum   'La3 Pr3 U4 O20'
_cell_volume   423.38194285
_cell_formula_units_Z   1
loop_
 _symmetry_equiv_pos_site_id
 _symmetry_equiv_pos_as_xyz
  1  'x, y, z'
loop_
 _atom_site_type_symbol
 _atom_site_label
 _atom_site_symmetry_multiplicity
 _atom_site_fract_x
 _atom_site_fract_y
 _atom_site_fract_z
 _atom_site_occupancy
  La  La0  1  0.199791  0.897007  0.895939  1
  La  La1  1  0.000000  0.500000  0.500000  1
  La  La2  1  0.800209  0.102993  0.104061  1
  Pr  Pr3  1  0.609741  0.701582  0.700440  1
  Pr  Pr4  1  0.390259  0.298418  0.299560  1
  Pr  Pr5  1  0.000000  0.000000  0.500000  1
  U  U6  1  0.402574  0.803549  0.302362  1
  U  U7  1  0.199935  0.403091  0.903322  1
  U  U8  1  0.800065  0.596909  0.096678  1
  U  U9  1  0.597426  0.196451  0.697638  1
  O  O10  1  0.438110  0.533297  0.131976  1
  O  O11  1  0.558998  0.995624  0.835288  1
  O  O12  1  0.278202  0.154847  0.746976  1
  O  O13  1  0.363502  0.600711  0.436462  1
  O  O14  1  0.058003  0.730118  0.323886  1
  O  O15  1  0.441002  0.004376  0.164712  1
  O  O16  1  0.150745  0.193367  0.028238  1
  O  O17  1  0.561890  0.466703  0.868024  1
  O  O18  1  0.854003  0.343918  0.948928  1
  O  O19  1  0.256654  0.599653  0.766010  1
  O  O20  1  0.952458  0.771836  0.652563  1
  O  O21  1  0.359932  0.060304  0.455976  1
  O  O22  1  0.640068  0.939696  0.544024  1
  O  O23  1  0.047542  0.228164  0.347437  1
  O  O24  1  0.743346  0.400347  0.233990  1
  O  O25  1  0.145997  0.656082  0.051072  1
  O  O26  1  0.849255  0.806633  0.971762  1
  O  O27  1  0.941997  0.269882  0.676114  1
  O  O28  1  0.636498  0.399289  0.563538  1
  O  O29  1  0.721798  0.845153  0.253024  1
