# generated using pymatgen
data_Er5Si9P3Ir10Ru9
_symmetry_space_group_name_H-M   'P 1'
_cell_length_a   12.72906500
_cell_length_b   12.72906555
_cell_length_c   3.97812300
_cell_angle_alpha   90.00000000
_cell_angle_beta   90.00000000
_cell_angle_gamma   120.00000118
_symmetry_Int_Tables_number   1
_chemical_formula_structural   Er5Si9P3Ir10Ru9
_chemical_formula_sum   'Er5 Si9 P3 Ir10 Ru9'
_cell_volume   558.21546040
_cell_formula_units_Z   1
loop_
 _symmetry_equiv_pos_site_id
 _symmetry_equiv_pos_as_xyz
  1  'x, y, z'
loop_
 _atom_site_type_symbol
 _atom_site_label
 _atom_site_symmetry_multiplicity
 _atom_site_fract_x
 _atom_site_fract_y
 _atom_site_fract_z
 _atom_site_occupancy
  Er  Er0  1  0.666667  0.333333  0.000000  1
  Er  Er1  1  0.333333  0.666667  0.000000  1
  Er  Er2  1  0.813946  0.813946  0.500000  1
  Er  Er3  1  0.186054  0.000000  0.500000  1
  Er  Er4  1  0.000000  0.186054  0.500000  1
  Si  Si5  1  0.688718  0.165331  0.500000  1
  Si  Si6  1  0.834669  0.523387  0.500000  1
  Si  Si7  1  0.476613  0.311282  0.500000  1
  Si  Si8  1  0.165331  0.688718  0.500000  1
  Si  Si9  1  0.523387  0.834669  0.500000  1
  Si  Si10  1  0.311282  0.476613  0.500000  1
  Si  Si11  1  0.625333  0.625333  0.000000  1
  Si  Si12  1  0.374667  0.000000  0.000000  1
  Si  Si13  1  0.000000  0.374667  0.000000  1
  P  P14  1  0.181746  0.181746  0.000000  1
  P  P15  1  0.818254  0.000000  0.000000  1
  P  P16  1  0.000000  0.818254  0.000000  1
  Ir  Ir17  1  0.275737  0.275737  0.500000  1
  Ir  Ir18  1  0.724263  0.000000  0.500000  1
  Ir  Ir19  1  0.000000  0.724263  0.500000  1
  Ir  Ir20  1  0.873066  0.361101  0.500000  1
  Ir  Ir21  1  0.638899  0.511966  0.500000  1
  Ir  Ir22  1  0.488034  0.126934  0.500000  1
  Ir  Ir23  1  0.361101  0.873066  0.500000  1
  Ir  Ir24  1  0.511966  0.638899  0.500000  1
  Ir  Ir25  1  0.126934  0.488034  0.500000  1
  Ir  Ir26  1  0.000000  0.000000  0.000000  1
  Ru  Ru27  1  0.809767  0.181729  0.000000  1
  Ru  Ru28  1  0.818271  0.628038  0.000000  1
  Ru  Ru29  1  0.371962  0.190233  0.000000  1
  Ru  Ru30  1  0.181729  0.809767  0.000000  1
  Ru  Ru31  1  0.628038  0.818271  0.000000  1
  Ru  Ru32  1  0.190233  0.371962  0.000000  1
  Ru  Ru33  1  0.439692  0.439692  0.000000  1
  Ru  Ru34  1  0.560308  0.000000  0.000000  1
  Ru  Ru35  1  0.000000  0.560308  0.000000  1
