# generated using pymatgen
data_Li5Cd4Au9
_symmetry_space_group_name_H-M   'P 1'
_cell_length_a   7.92611046
_cell_length_b   7.94087870
_cell_length_c   5.83524512
_cell_angle_alpha   90.10267620
_cell_angle_beta   89.94856906
_cell_angle_gamma   120.06164542
_symmetry_Int_Tables_number   1
_chemical_formula_structural   Li5Cd4Au9
_chemical_formula_sum   'Li5 Cd4 Au9'
_cell_volume   317.86858683
_cell_formula_units_Z   1
loop_
 _symmetry_equiv_pos_site_id
 _symmetry_equiv_pos_as_xyz
  1  'x, y, z'
loop_
 _atom_site_type_symbol
 _atom_site_label
 _atom_site_symmetry_multiplicity
 _atom_site_fract_x
 _atom_site_fract_y
 _atom_site_fract_z
 _atom_site_occupancy
  Li  Li0  1  0.000000  0.646410  0.255074  1
  Li  Li1  1  0.685940  0.019476  0.249190  1
  Li  Li2  1  0.314060  0.333536  0.249190  1
  Li  Li3  1  0.333458  0.001215  0.837325  1
  Li  Li4  1  0.666542  0.667757  0.837325  1
  Cd  Cd5  1  0.000000  0.331338  0.992472  1
  Cd  Cd6  1  0.355970  0.691294  0.539829  1
  Cd  Cd7  1  0.000000  0.973497  0.544632  1
  Cd  Cd8  1  0.644030  0.335322  0.539829  1
  Au  Au9  1  0.000000  0.651465  0.768816  1
  Au  Au10  1  0.679429  0.013965  0.760846  1
  Au  Au11  1  0.320571  0.334536  0.760846  1
  Au  Au12  1  0.334548  0.001535  0.308273  1
  Au  Au13  1  0.665452  0.666987  0.308273  1
  Au  Au14  1  0.000000  0.330606  0.484333  1
  Au  Au15  1  0.366093  0.700752  0.039227  1
  Au  Au16  1  0.000000  0.965653  0.043654  1
  Au  Au17  1  0.633907  0.334658  0.039227  1
