# generated using pymatgen
data_Lu4ZrSc3Ir4
_symmetry_space_group_name_H-M   'P 1'
_cell_length_a   4.41084100
_cell_length_b   7.00186399
_cell_length_c   8.33623153
_cell_angle_alpha   91.09895644
_cell_angle_beta   90.00000000
_cell_angle_gamma   90.00000000
_symmetry_Int_Tables_number   1
_chemical_formula_structural   Lu4ZrSc3Ir4
_chemical_formula_sum   'Lu4 Zr1 Sc3 Ir4'
_cell_volume   257.40972529
_cell_formula_units_Z   1
loop_
 _symmetry_equiv_pos_site_id
 _symmetry_equiv_pos_as_xyz
  1  'x, y, z'
loop_
 _atom_site_type_symbol
 _atom_site_label
 _atom_site_symmetry_multiplicity
 _atom_site_fract_x
 _atom_site_fract_y
 _atom_site_fract_z
 _atom_site_occupancy
  Lu  Lu0  1  0.250000  0.017695  0.673160  1
  Lu  Lu1  1  0.250000  0.515752  0.830242  1
  Lu  Lu2  1  0.750000  0.980810  0.327067  1
  Lu  Lu3  1  0.750000  0.483527  0.170253  1
  Zr  Zr4  1  0.750000  0.359333  0.570896  1
  Sc  Sc5  1  0.250000  0.145997  0.072543  1
  Sc  Sc6  1  0.250000  0.642164  0.427880  1
  Sc  Sc7  1  0.750000  0.856656  0.928644  1
  Ir  Ir8  1  0.250000  0.255150  0.401886  1
  Ir  Ir9  1  0.250000  0.756157  0.104540  1
  Ir  Ir10  1  0.750000  0.743984  0.600519  1
  Ir  Ir11  1  0.750000  0.242773  0.892371  1
