# generated using pymatgen
data_Yb2Ce(Si3Pd10)2
_symmetry_space_group_name_H-M   'P 1'
_cell_length_a   8.71237382
_cell_length_b   8.71237413
_cell_length_c   8.71237400
_cell_angle_alpha   60.00000049
_cell_angle_beta   59.99999931
_cell_angle_gamma   60.00000510
_symmetry_Int_Tables_number   1
_chemical_formula_structural   Yb2Ce(Si3Pd10)2
_chemical_formula_sum   'Yb2 Ce1 Si6 Pd20'
_cell_volume   467.62158154
_cell_formula_units_Z   1
loop_
 _symmetry_equiv_pos_site_id
 _symmetry_equiv_pos_as_xyz
  1  'x, y, z'
loop_
 _atom_site_type_symbol
 _atom_site_label
 _atom_site_symmetry_multiplicity
 _atom_site_fract_x
 _atom_site_fract_y
 _atom_site_fract_z
 _atom_site_occupancy
  Yb  Yb0  1  0.250000  0.250000  0.250000  1
  Yb  Yb1  1  0.750000  0.750000  0.750000  1
  Ce  Ce2  1  0.000000  0.000000  0.000000  1
  Si  Si3  1  0.729537  0.270463  0.270463  1
  Si  Si4  1  0.270463  0.729537  0.729537  1
  Si  Si5  1  0.270463  0.729537  0.270463  1
  Si  Si6  1  0.729537  0.270463  0.729537  1
  Si  Si7  1  0.270463  0.270463  0.729537  1
  Si  Si8  1  0.729537  0.729537  0.270463  1
  Pd  Pd9  1  0.383565  0.383565  0.383565  1
  Pd  Pd10  1  0.616435  0.616435  0.616435  1
  Pd  Pd11  1  0.383565  0.383565  0.849307  1
  Pd  Pd12  1  0.383565  0.849307  0.383565  1
  Pd  Pd13  1  0.616435  0.616435  0.150693  1
  Pd  Pd14  1  0.616435  0.150693  0.616435  1
  Pd  Pd15  1  0.849307  0.383565  0.383565  1
  Pd  Pd16  1  0.150693  0.616435  0.616435  1
  Pd  Pd17  1  0.344682  0.000000  0.000000  1
  Pd  Pd18  1  0.655318  0.000000  0.000000  1
  Pd  Pd19  1  0.000000  0.344682  0.655318  1
  Pd  Pd20  1  0.000000  0.655318  0.344682  1
  Pd  Pd21  1  0.000000  0.344682  0.000000  1
  Pd  Pd22  1  0.655318  0.000000  0.344682  1
  Pd  Pd23  1  0.000000  0.655318  0.000000  1
  Pd  Pd24  1  0.344682  0.000000  0.655318  1
  Pd  Pd25  1  0.000000  0.000000  0.344682  1
  Pd  Pd26  1  0.000000  0.000000  0.655318  1
  Pd  Pd27  1  0.655318  0.344682  0.000000  1
  Pd  Pd28  1  0.344682  0.655318  0.000000  1
