# generated using pymatgen
data_HfMnFe4P3
_symmetry_space_group_name_H-M   'P 1'
_cell_length_a   3.59657100
_cell_length_b   10.12695800
_cell_length_c   11.72174600
_cell_angle_alpha   90.00000000
_cell_angle_beta   90.00000000
_cell_angle_gamma   90.00000000
_symmetry_Int_Tables_number   1
_chemical_formula_structural   HfMnFe4P3
_chemical_formula_sum   'Hf4 Mn4 Fe16 P12'
_cell_volume   426.93322434
_cell_formula_units_Z   4
loop_
 _symmetry_equiv_pos_site_id
 _symmetry_equiv_pos_as_xyz
  1  'x, y, z'
loop_
 _atom_site_type_symbol
 _atom_site_label
 _atom_site_symmetry_multiplicity
 _atom_site_fract_x
 _atom_site_fract_y
 _atom_site_fract_z
 _atom_site_occupancy
  Hf  Hf0  1  0.250000  0.578208  0.705546  1
  Hf  Hf1  1  0.250000  0.921792  0.205546  1
  Hf  Hf2  1  0.750000  0.421792  0.294454  1
  Hf  Hf3  1  0.750000  0.078208  0.794454  1
  Mn  Mn4  1  0.250000  0.704366  0.991811  1
  Mn  Mn5  1  0.250000  0.795634  0.491811  1
  Mn  Mn6  1  0.750000  0.295634  0.008189  1
  Mn  Mn7  1  0.750000  0.204366  0.508189  1
  Fe  Fe8  1  0.250000  0.405494  0.485532  1
  Fe  Fe9  1  0.250000  0.094506  0.985532  1
  Fe  Fe10  1  0.750000  0.594506  0.514468  1
  Fe  Fe11  1  0.750000  0.905494  0.014468  1
  Fe  Fe12  1  0.250000  0.222977  0.172652  1
  Fe  Fe13  1  0.250000  0.277023  0.672652  1
  Fe  Fe14  1  0.750000  0.777023  0.827348  1
  Fe  Fe15  1  0.750000  0.722977  0.327348  1
  Fe  Fe16  1  0.250000  0.879728  0.701597  1
  Fe  Fe17  1  0.250000  0.620272  0.201597  1
  Fe  Fe18  1  0.750000  0.120272  0.298403  1
  Fe  Fe19  1  0.750000  0.379728  0.798403  1
  Fe  Fe20  1  0.250000  0.462389  0.933104  1
  Fe  Fe21  1  0.250000  0.037611  0.433104  1
  Fe  Fe22  1  0.750000  0.537611  0.066896  1
  Fe  Fe23  1  0.750000  0.962389  0.566896  1
  P  P24  1  0.250000  0.424081  0.117177  1
  P  P25  1  0.250000  0.075919  0.617177  1
  P  P26  1  0.750000  0.575919  0.882823  1
  P  P27  1  0.750000  0.924081  0.382823  1
  P  P28  1  0.250000  0.263344  0.862432  1
  P  P29  1  0.250000  0.236656  0.362432  1
  P  P30  1  0.750000  0.736656  0.137568  1
  P  P31  1  0.750000  0.763344  0.637568  1
  P  P32  1  0.250000  0.596887  0.390167  1
  P  P33  1  0.250000  0.903113  0.890167  1
  P  P34  1  0.750000  0.403113  0.609833  1
  P  P35  1  0.750000  0.096887  0.109833  1
