# generated using pymatgen
data_Tb9Sm(Bi3C)2
_symmetry_space_group_name_H-M   'P 1'
_cell_length_a   9.20850600
_cell_length_b   9.20850726
_cell_length_c   6.54267400
_cell_angle_alpha   90.00000000
_cell_angle_beta   90.00000000
_cell_angle_gamma   120.00000267
_symmetry_Int_Tables_number   1
_chemical_formula_structural   Tb9Sm(Bi3C)2
_chemical_formula_sum   'Tb9 Sm1 Bi6 C2'
_cell_volume   480.46782656
_cell_formula_units_Z   1
loop_
 _symmetry_equiv_pos_site_id
 _symmetry_equiv_pos_as_xyz
  1  'x, y, z'
loop_
 _atom_site_type_symbol
 _atom_site_label
 _atom_site_symmetry_multiplicity
 _atom_site_fract_x
 _atom_site_fract_y
 _atom_site_fract_z
 _atom_site_occupancy
  Tb  Tb0  1  0.333333  0.666667  0.000000  1
  Tb  Tb1  1  0.333333  0.666667  0.500000  1
  Tb  Tb2  1  0.666667  0.333333  0.500000  1
  Tb  Tb3  1  0.792163  0.792128  0.749824  1
  Tb  Tb4  1  0.207872  0.000035  0.749824  1
  Tb  Tb5  1  0.999965  0.207837  0.749824  1
  Tb  Tb6  1  0.207872  0.207837  0.250176  1
  Tb  Tb7  1  0.792163  0.000035  0.250176  1
  Tb  Tb8  1  0.999965  0.792128  0.250176  1
  Sm  Sm9  1  0.666667  0.333333  0.000000  1
  Bi  Bi10  1  0.400877  0.402153  0.748869  1
  Bi  Bi11  1  0.597847  0.998724  0.748869  1
  Bi  Bi12  1  0.001276  0.599123  0.748869  1
  Bi  Bi13  1  0.597847  0.599123  0.251131  1
  Bi  Bi14  1  0.400877  0.998724  0.251131  1
  Bi  Bi15  1  0.001276  0.402153  0.251131  1
  C  C16  1  0.000000  0.000000  0.000000  1
  C  C17  1  0.000000  0.000000  0.500000  1
