# generated using pymatgen
data_Pr2Er(LuSi2)2
_symmetry_space_group_name_H-M   'P 1'
_cell_length_a   7.37055243
_cell_length_b   7.68560872
_cell_length_c   14.58124500
_cell_angle_alpha   90.00145371
_cell_angle_beta   90.04650172
_cell_angle_gamma   90.11214357
_symmetry_Int_Tables_number   1
_chemical_formula_structural   Pr2Er(LuSi2)2
_chemical_formula_sum   'Pr8 Er4 Lu8 Si16'
_cell_volume   825.98458539
_cell_formula_units_Z   4
loop_
 _symmetry_equiv_pos_site_id
 _symmetry_equiv_pos_as_xyz
  1  'x, y, z'
loop_
 _atom_site_type_symbol
 _atom_site_label
 _atom_site_symmetry_multiplicity
 _atom_site_fract_x
 _atom_site_fract_y
 _atom_site_fract_z
 _atom_site_occupancy
  Pr  Pr0  1  0.015336  0.176235  0.097557  1
  Pr  Pr1  1  0.985156  0.823801  0.902074  1
  Pr  Pr2  1  0.485070  0.675968  0.901916  1
  Pr  Pr3  1  0.984608  0.823912  0.598502  1
  Pr  Pr4  1  0.514894  0.323678  0.097476  1
  Pr  Pr5  1  0.015476  0.176425  0.402016  1
  Pr  Pr6  1  0.515597  0.323766  0.401828  1
  Pr  Pr7  1  0.485058  0.676123  0.598420  1
  Er  Er8  1  0.327752  0.177912  0.624388  1
  Er  Er9  1  0.672409  0.821954  0.376690  1
  Er  Er10  1  0.172530  0.677557  0.376967  1
  Er  Er11  1  0.671943  0.822185  0.122294  1
  Lu  Lu12  1  0.159897  0.507790  0.750558  1
  Lu  Lu13  1  0.839961  0.491514  0.249684  1
  Lu  Lu14  1  0.339819  0.008115  0.249383  1
  Lu  Lu15  1  0.660077  0.992676  0.750233  1
  Lu  Lu16  1  0.827566  0.322735  0.624729  1
  Lu  Lu17  1  0.328174  0.177513  0.875921  1
  Lu  Lu18  1  0.827995  0.322996  0.876095  1
  Lu  Lu19  1  0.171993  0.677212  0.123249  1
  Si  Si20  1  0.032684  0.116697  0.751021  1
  Si  Si21  1  0.967118  0.884237  0.249222  1
  Si  Si22  1  0.465543  0.614599  0.249003  1
  Si  Si23  1  0.534397  0.384488  0.750799  1
  Si  Si24  1  0.281371  0.878533  0.750755  1
  Si  Si25  1  0.719288  0.121800  0.249668  1
  Si  Si26  1  0.219064  0.378859  0.249255  1
  Si  Si27  1  0.781533  0.620687  0.750293  1
  Si  Si28  1  0.150482  0.466227  0.540086  1
  Si  Si29  1  0.846729  0.532541  0.462026  1
  Si  Si30  1  0.347995  0.966813  0.461313  1
  Si  Si31  1  0.848488  0.532850  0.038495  1
  Si  Si32  1  0.653660  0.034726  0.539526  1
  Si  Si33  1  0.153195  0.465655  0.960716  1
  Si  Si34  1  0.651996  0.035117  0.959888  1
  Si  Si35  1  0.345144  0.966107  0.037954  1
