# generated using pymatgen
data_Ce2Dy(SnIr)3
_symmetry_space_group_name_H-M   'P 1'
_cell_length_a   7.50590630
_cell_length_b   7.50590697
_cell_length_c   4.04851200
_cell_angle_alpha   90.00000000
_cell_angle_beta   90.00000000
_cell_angle_gamma   120.37081079
_symmetry_Int_Tables_number   1
_chemical_formula_structural   Ce2Dy(SnIr)3
_chemical_formula_sum   'Ce2 Dy1 Sn3 Ir3'
_cell_volume   196.78748000
_cell_formula_units_Z   1
loop_
 _symmetry_equiv_pos_site_id
 _symmetry_equiv_pos_as_xyz
  1  'x, y, z'
loop_
 _atom_site_type_symbol
 _atom_site_label
 _atom_site_symmetry_multiplicity
 _atom_site_fract_x
 _atom_site_fract_y
 _atom_site_fract_z
 _atom_site_occupancy
  Ce  Ce0  1  0.586241  0.998932  0.000000  1
  Ce  Ce1  1  0.998932  0.586241  0.000000  1
  Dy  Dy2  1  0.406904  0.406904  0.000000  1
  Sn  Sn3  1  0.005399  0.255264  0.500000  1
  Sn  Sn4  1  0.740835  0.740835  0.500000  1
  Sn  Sn5  1  0.255264  0.005399  0.500000  1
  Ir  Ir6  1  0.998846  0.998846  0.000000  1
  Ir  Ir7  1  0.675134  0.332445  0.500000  1
  Ir  Ir8  1  0.332445  0.675134  0.500000  1
