# generated using pymatgen
data_Tb2Ga(AsRh2)6
_symmetry_space_group_name_H-M   'P 1'
_cell_length_a   9.97447900
_cell_length_b   9.97447907
_cell_length_c   3.96420800
_cell_angle_alpha   90.00000000
_cell_angle_beta   90.00000000
_cell_angle_gamma   120.00000307
_symmetry_Int_Tables_number   1
_chemical_formula_structural   Tb2Ga(AsRh2)6
_chemical_formula_sum   'Tb2 Ga1 As6 Rh12'
_cell_volume   341.56038603
_cell_formula_units_Z   1
loop_
 _symmetry_equiv_pos_site_id
 _symmetry_equiv_pos_as_xyz
  1  'x, y, z'
loop_
 _atom_site_type_symbol
 _atom_site_label
 _atom_site_symmetry_multiplicity
 _atom_site_fract_x
 _atom_site_fract_y
 _atom_site_fract_z
 _atom_site_occupancy
  Tb  Tb0  1  0.333333  0.666667  0.751453  1
  Tb  Tb1  1  0.000000  0.000000  0.249733  1
  Ga  Ga2  1  0.666667  0.333333  0.580940  1
  As  As3  1  0.953089  0.216608  0.750731  1
  As  As4  1  0.783392  0.736481  0.750731  1
  As  As5  1  0.263519  0.046911  0.750731  1
  As  As6  1  0.379359  0.448552  0.251412  1
  As  As7  1  0.551448  0.930808  0.251412  1
  As  As8  1  0.069192  0.620641  0.251412  1
  Rh  Rh9  1  0.732570  0.951156  0.751705  1
  Rh  Rh10  1  0.048844  0.781414  0.751705  1
  Rh  Rh11  1  0.218586  0.267430  0.751705  1
  Rh  Rh12  1  0.602913  0.717666  0.250579  1
  Rh  Rh13  1  0.282334  0.885247  0.250579  1
  Rh  Rh14  1  0.114753  0.397087  0.250579  1
  Rh  Rh15  1  0.945295  0.456725  0.752150  1
  Rh  Rh16  1  0.543275  0.488570  0.752150  1
  Rh  Rh17  1  0.511430  0.054705  0.752150  1
  Rh  Rh18  1  0.400236  0.213927  0.250776  1
  Rh  Rh19  1  0.786073  0.186309  0.250776  1
  Rh  Rh20  1  0.813691  0.599764  0.250776  1
