# generated using pymatgen
data_Hf8SiTe6
_symmetry_space_group_name_H-M   'P 1'
_cell_length_a   3.87029800
_cell_length_b   7.62181800
_cell_length_c   25.49926500
_cell_angle_alpha   90.00000000
_cell_angle_beta   90.00000000
_cell_angle_gamma   90.00000000
_symmetry_Int_Tables_number   1
_chemical_formula_structural   Hf8SiTe6
_chemical_formula_sum   'Hf16 Si2 Te12'
_cell_volume   752.19534598
_cell_formula_units_Z   2
loop_
 _symmetry_equiv_pos_site_id
 _symmetry_equiv_pos_as_xyz
  1  'x, y, z'
loop_
 _atom_site_type_symbol
 _atom_site_label
 _atom_site_symmetry_multiplicity
 _atom_site_fract_x
 _atom_site_fract_y
 _atom_site_fract_z
 _atom_site_occupancy
  Hf  Hf0  1  0.000000  0.424478  0.000000  1
  Hf  Hf1  1  0.500000  0.444606  0.303335  1
  Hf  Hf2  1  0.000000  0.550087  0.595289  1
  Hf  Hf3  1  0.500000  0.449913  0.904711  1
  Hf  Hf4  1  0.500000  0.231675  0.567355  1
  Hf  Hf5  1  0.500000  0.575522  0.500000  1
  Hf  Hf6  1  0.000000  0.954500  0.500000  1
  Hf  Hf7  1  0.000000  0.768325  0.932645  1
  Hf  Hf8  1  0.500000  0.045500  0.000000  1
  Hf  Hf9  1  0.500000  0.231675  0.432645  1
  Hf  Hf10  1  0.000000  0.555394  0.803335  1
  Hf  Hf11  1  0.500000  0.449913  0.095289  1
  Hf  Hf12  1  0.000000  0.768325  0.067355  1
  Hf  Hf13  1  0.000000  0.555394  0.196665  1
  Hf  Hf14  1  0.000000  0.550087  0.404711  1
  Hf  Hf15  1  0.500000  0.444606  0.696665  1
  Si  Si16  1  0.500000  0.676324  0.000000  1
  Si  Si17  1  0.000000  0.323676  0.500000  1
  Te  Te18  1  0.000000  0.201617  0.343588  1
  Te  Te19  1  0.500000  0.278689  0.798107  1
  Te  Te20  1  0.500000  0.798383  0.843588  1
  Te  Te21  1  0.000000  0.721311  0.298107  1
  Te  Te22  1  0.500000  0.850974  0.581509  1
  Te  Te23  1  0.500000  0.278689  0.201893  1
  Te  Te24  1  0.500000  0.850974  0.418491  1
  Te  Te25  1  0.000000  0.721311  0.701893  1
  Te  Te26  1  0.000000  0.201617  0.656412  1
  Te  Te27  1  0.500000  0.798383  0.156412  1
  Te  Te28  1  0.000000  0.149026  0.918491  1
  Te  Te29  1  0.000000  0.149026  0.081509  1
