# generated using pymatgen
data_Yb2Sm(BPt2)3
_symmetry_space_group_name_H-M   'P 1'
_cell_length_a   5.45573353
_cell_length_b   5.46482897
_cell_length_c   7.68381300
_cell_angle_alpha   90.00000000
_cell_angle_beta   90.00000000
_cell_angle_gamma   120.05516080
_symmetry_Int_Tables_number   1
_chemical_formula_structural   Yb2Sm(BPt2)3
_chemical_formula_sum   'Yb2 Sm1 B3 Pt6'
_cell_volume   198.28756447
_cell_formula_units_Z   1
loop_
 _symmetry_equiv_pos_site_id
 _symmetry_equiv_pos_as_xyz
  1  'x, y, z'
loop_
 _atom_site_type_symbol
 _atom_site_label
 _atom_site_symmetry_multiplicity
 _atom_site_fract_x
 _atom_site_fract_y
 _atom_site_fract_z
 _atom_site_occupancy
  Yb  Yb0  1  0.500000  0.500000  0.829264  1
  Yb  Yb1  1  0.500000  0.000000  0.504069  1
  Sm  Sm2  1  0.000000  0.500000  0.166667  1
  B  B3  1  0.500000  0.500000  0.337396  1
  B  B4  1  0.500000  0.000000  0.995937  1
  B  B5  1  0.000000  0.500000  0.666667  1
  Pt  Pt6  1  0.144927  0.851403  0.832531  1
  Pt  Pt7  1  0.144927  0.293524  0.500802  1
  Pt  Pt8  1  0.696585  0.848292  0.166667  1
  Pt  Pt9  1  0.855073  0.148597  0.832531  1
  Pt  Pt10  1  0.855073  0.706476  0.500802  1
  Pt  Pt11  1  0.303415  0.151708  0.166667  1
