# generated using pymatgen
data_CaNd19(SnPb)8
_symmetry_space_group_name_H-M   'P 1'
_cell_length_a   8.36420842
_cell_length_b   8.47559779
_cell_length_c   16.14654700
_cell_angle_alpha   90.00000000
_cell_angle_beta   90.00000000
_cell_angle_gamma   89.91361728
_symmetry_Int_Tables_number   1
_chemical_formula_structural   CaNd19(SnPb)8
_chemical_formula_sum   'Ca1 Nd19 Sn8 Pb8'
_cell_volume   1144.65432267
_cell_formula_units_Z   1
loop_
 _symmetry_equiv_pos_site_id
 _symmetry_equiv_pos_as_xyz
  1  'x, y, z'
loop_
 _atom_site_type_symbol
 _atom_site_label
 _atom_site_symmetry_multiplicity
 _atom_site_fract_x
 _atom_site_fract_y
 _atom_site_fract_z
 _atom_site_occupancy
  Ca  Ca0  1  0.791596  0.497322  0.750000  1
  Nd  Nd1  1  0.624277  0.163722  0.621097  1
  Nd  Nd2  1  0.120781  0.337500  0.878792  1
  Nd  Nd3  1  0.375314  0.838639  0.121565  1
  Nd  Nd4  1  0.875575  0.663488  0.378071  1
  Nd  Nd5  1  0.375314  0.838639  0.378435  1
  Nd  Nd6  1  0.875575  0.663488  0.121929  1
  Nd  Nd7  1  0.624277  0.163722  0.878903  1
  Nd  Nd8  1  0.120781  0.337500  0.621208  1
  Nd  Nd9  1  0.474577  0.679010  0.602275  1
  Nd  Nd10  1  0.972771  0.816532  0.897252  1
  Nd  Nd11  1  0.527803  0.321357  0.103719  1
  Nd  Nd12  1  0.027821  0.180173  0.396225  1
  Nd  Nd13  1  0.527803  0.321357  0.396281  1
  Nd  Nd14  1  0.027821  0.180173  0.103775  1
  Nd  Nd15  1  0.474577  0.679010  0.897725  1
  Nd  Nd16  1  0.972771  0.816532  0.602748  1
  Nd  Nd17  1  0.294003  0.001371  0.750000  1
  Nd  Nd18  1  0.207349  0.502286  0.250000  1
  Nd  Nd19  1  0.707016  0.997437  0.250000  1
  Sn  Sn20  1  0.423946  0.383035  0.750000  1
  Sn  Sn21  1  0.923681  0.112740  0.750000  1
  Sn  Sn22  1  0.574566  0.618529  0.250000  1
  Sn  Sn23  1  0.074851  0.881851  0.250000  1
  Sn  Sn24  1  0.667088  0.860280  0.750000  1
  Sn  Sn25  1  0.174172  0.642233  0.750000  1
  Sn  Sn26  1  0.332654  0.144562  0.250000  1
  Sn  Sn27  1  0.832100  0.357352  0.250000  1
  Pb  Pb28  1  0.716419  0.966802  0.458277  1
  Pb  Pb29  1  0.215682  0.534933  0.041346  1
  Pb  Pb30  1  0.283623  0.033227  0.957633  1
  Pb  Pb31  1  0.783848  0.465115  0.540012  1
  Pb  Pb32  1  0.283623  0.033227  0.542367  1
  Pb  Pb33  1  0.783848  0.465115  0.959988  1
  Pb  Pb34  1  0.716419  0.966802  0.041723  1
  Pb  Pb35  1  0.215682  0.534933  0.458654  1
