# generated using pymatgen
data_TbDy11(ErRh3)2
_symmetry_space_group_name_H-M   'P 1'
_cell_length_a   9.79682503
_cell_length_b   9.79776305
_cell_length_c   6.17368001
_cell_angle_alpha   89.99999587
_cell_angle_beta   90.00564601
_cell_angle_gamma   120.00316041
_symmetry_Int_Tables_number   1
_chemical_formula_structural   TbDy11(ErRh3)2
_chemical_formula_sum   'Tb1 Dy11 Er2 Rh6'
_cell_volume   513.18410518
_cell_formula_units_Z   1
loop_
 _symmetry_equiv_pos_site_id
 _symmetry_equiv_pos_as_xyz
  1  'x, y, z'
loop_
 _atom_site_type_symbol
 _atom_site_label
 _atom_site_symmetry_multiplicity
 _atom_site_fract_x
 _atom_site_fract_y
 _atom_site_fract_z
 _atom_site_occupancy
  Tb  Tb0  1  0.752074  0.876038  0.991993  1
  Dy  Dy1  1  0.876059  0.124042  0.491845  1
  Dy  Dy2  1  0.540988  0.458913  0.797670  1
  Dy  Dy3  1  0.082042  0.541021  0.297683  1
  Dy  Dy4  1  0.458929  0.917951  0.297740  1
  Dy  Dy5  1  0.540988  0.082074  0.797670  1
  Dy  Dy6  1  0.917939  0.458969  0.797642  1
  Dy  Dy7  1  0.458929  0.540978  0.297740  1
  Dy  Dy8  1  0.124070  0.248029  0.991850  1
  Dy  Dy9  1  0.876059  0.752016  0.491845  1
  Dy  Dy10  1  0.247956  0.123978  0.491866  1
  Dy  Dy11  1  0.124070  0.876042  0.991850  1
  Er  Er12  1  0.666688  0.333343  0.284151  1
  Er  Er13  1  0.333303  0.666652  0.784122  1
  Rh  Rh14  1  0.190104  0.809859  0.563081  1
  Rh  Rh15  1  0.380249  0.190124  0.063085  1
  Rh  Rh16  1  0.809901  0.619620  0.063102  1
  Rh  Rh17  1  0.190104  0.380248  0.563081  1
  Rh  Rh18  1  0.619646  0.809824  0.562889  1
  Rh  Rh19  1  0.809901  0.190279  0.063102  1
