# generated using pymatgen
data_Ni2Pd5PtO12
_symmetry_space_group_name_H-M   'P 1'
_cell_length_a   3.16818900
_cell_length_b   7.22537697
_cell_length_c   9.98251948
_cell_angle_alpha   89.93909279
_cell_angle_beta   90.00000000
_cell_angle_gamma   90.00000000
_symmetry_Int_Tables_number   1
_chemical_formula_structural   Ni2Pd5PtO12
_chemical_formula_sum   'Ni2 Pd5 Pt1 O12'
_cell_volume   228.51331642
_cell_formula_units_Z   1
loop_
 _symmetry_equiv_pos_site_id
 _symmetry_equiv_pos_as_xyz
  1  'x, y, z'
loop_
 _atom_site_type_symbol
 _atom_site_label
 _atom_site_symmetry_multiplicity
 _atom_site_fract_x
 _atom_site_fract_y
 _atom_site_fract_z
 _atom_site_occupancy
  Ni  Ni0  1  0.000000  0.000586  0.998874  1
  Ni  Ni1  1  0.000000  0.498457  0.501650  1
  Pd  Pd2  1  0.000000  0.000904  0.500619  1
  Pd  Pd3  1  0.000000  0.499220  0.999033  1
  Pd  Pd4  1  0.500000  0.242251  0.245922  1
  Pd  Pd5  1  0.500000  0.757899  0.754062  1
  Pd  Pd6  1  0.500000  0.257739  0.745897  1
  Pt  Pt7  1  0.500000  0.742584  0.254008  1
  O  O8  1  0.500000  0.989601  0.146479  1
  O  O9  1  0.500000  0.008475  0.854042  1
  O  O10  1  0.500000  0.508421  0.646070  1
  O  O11  1  0.500000  0.493502  0.354124  1
  O  O12  1  0.000000  0.201624  0.368350  1
  O  O13  1  0.000000  0.799343  0.631643  1
  O  O14  1  0.000000  0.297915  0.868269  1
  O  O15  1  0.000000  0.702243  0.132496  1
  O  O16  1  0.000000  0.282115  0.120187  1
  O  O17  1  0.000000  0.717189  0.879486  1
  O  O18  1  0.000000  0.218340  0.620356  1
  O  O19  1  0.000000  0.781591  0.378435  1
