# generated using pymatgen
data_Er3U(BRu)16
_symmetry_space_group_name_H-M   'P 1'
_cell_length_a   9.21468840
_cell_length_b   7.47988707
_cell_length_c   7.47988600
_cell_angle_alpha   89.91217064
_cell_angle_beta   113.98452048
_cell_angle_gamma   113.98451372
_symmetry_Int_Tables_number   1
_chemical_formula_structural   Er3U(BRu)16
_chemical_formula_sum   'Er3 U1 B16 Ru16'
_cell_volume   422.00720266
_cell_formula_units_Z   1
loop_
 _symmetry_equiv_pos_site_id
 _symmetry_equiv_pos_as_xyz
  1  'x, y, z'
loop_
 _atom_site_type_symbol
 _atom_site_label
 _atom_site_symmetry_multiplicity
 _atom_site_fract_x
 _atom_site_fract_y
 _atom_site_fract_z
 _atom_site_occupancy
  Er  Er0  1  0.749999  0.875000  0.125000  1
  Er  Er1  1  0.250000  0.625000  0.375000  1
  Er  Er2  1  0.749999  0.375000  0.625000  1
  U  U3  1  0.250000  0.125000  0.875000  1
  B  B4  1  0.913677  0.622849  0.065187  1
  B  B5  1  0.415243  0.849103  0.127568  1
  B  B6  1  0.084756  0.872432  0.150897  1
  B  B7  1  0.590069  0.435163  0.213600  1
  B  B8  1  0.418294  0.347091  0.291575  1
  B  B9  1  0.913677  0.290827  0.348490  1
  B  B10  1  0.586323  0.934813  0.377151  1
  B  B11  1  0.084756  0.212324  0.433860  1
  B  B12  1  0.909931  0.786400  0.564837  1
  B  B13  1  0.418294  0.071204  0.626720  1
  B  B14  1  0.081705  0.708425  0.652909  1
  B  B15  1  0.586323  0.651510  0.709172  1
  B  B16  1  0.415243  0.566140  0.787676  1
  B  B17  1  0.909931  0.123531  0.845094  1
  B  B18  1  0.590069  0.154906  0.876469  1
  B  B19  1  0.081705  0.373280  0.928796  1
  Ru  Ru20  1  0.875362  0.322354  0.041114  1
  Ru  Ru21  1  0.371512  0.527721  0.048645  1
  Ru  Ru22  1  0.128488  0.177133  0.156210  1
  Ru  Ru23  1  0.624303  0.165378  0.176724  1
  Ru  Ru24  1  0.369701  0.035149  0.320169  1
  Ru  Ru25  1  0.875362  0.553008  0.334248  1
  Ru  Ru26  1  0.624638  0.665752  0.446992  1
  Ru  Ru27  1  0.128488  0.951355  0.472278  1
  Ru  Ru28  1  0.875697  0.052421  0.541076  1
  Ru  Ru29  1  0.369701  0.334551  0.549532  1
  Ru  Ru30  1  0.130299  0.450468  0.665448  1
  Ru  Ru31  1  0.624638  0.958886  0.677646  1
  Ru  Ru32  1  0.371512  0.843789  0.822867  1
  Ru  Ru33  1  0.875697  0.823276  0.834622  1
  Ru  Ru34  1  0.624303  0.458924  0.947579  1
  Ru  Ru35  1  0.130299  0.679831  0.964850  1
