# generated using pymatgen
data_Rb8Na4TaNb2VSe16
_symmetry_space_group_name_H-M   'P 1'
_cell_length_a   7.64214844
_cell_length_b   7.64214995
_cell_length_c   19.78193600
_cell_angle_alpha   86.87192148
_cell_angle_beta   86.87192086
_cell_angle_gamma   77.42339582
_symmetry_Int_Tables_number   1
_chemical_formula_structural   Rb8Na4TaNb2VSe16
_chemical_formula_sum   'Rb8 Na4 Ta1 Nb2 V1 Se16'
_cell_volume   1124.83192391
_cell_formula_units_Z   1
loop_
 _symmetry_equiv_pos_site_id
 _symmetry_equiv_pos_as_xyz
  1  'x, y, z'
loop_
 _atom_site_type_symbol
 _atom_site_label
 _atom_site_symmetry_multiplicity
 _atom_site_fract_x
 _atom_site_fract_y
 _atom_site_fract_z
 _atom_site_occupancy
  Rb  Rb0  1  0.839097  0.893442  0.928385  1
  Rb  Rb1  1  0.895901  0.838176  0.427463  1
  Rb  Rb2  1  0.319656  0.679596  0.750719  1
  Rb  Rb3  1  0.502868  0.469866  0.498770  1
  Rb  Rb4  1  0.679019  0.319564  0.251660  1
  Rb  Rb5  1  0.472012  0.500555  0.000816  1
  Rb  Rb6  1  0.105125  0.153361  0.571422  1
  Rb  Rb7  1  0.152589  0.105395  0.073506  1
  Na  Na8  1  0.882036  0.402524  0.787389  1
  Na  Na9  1  0.398505  0.879818  0.288750  1
  Na  Na10  1  0.598317  0.115990  0.713637  1
  Na  Na11  1  0.115736  0.595770  0.215231  1
  Ta  Ta12  1  0.298293  0.183873  0.857278  1
  Nb  Nb13  1  0.817375  0.701167  0.642392  1
  Nb  Nb14  1  0.700495  0.817730  0.142742  1
  V  V15  1  0.185177  0.299053  0.356609  1
  Se  Se16  1  0.838861  0.786651  0.757520  1
  Se  Se17  1  0.601704  0.927741  0.583600  1
  Se  Se18  1  0.785893  0.839918  0.257851  1
  Se  Se19  1  0.927529  0.602275  0.084418  1
  Se  Se20  1  0.333660  0.895283  0.916019  1
  Se  Se21  1  0.910043  0.333311  0.412723  1
  Se  Se22  1  0.715996  0.419976  0.649091  1
  Se  Se23  1  0.419252  0.716252  0.149539  1
  Se  Se24  1  0.578140  0.284245  0.851450  1
  Se  Se25  1  0.280520  0.567184  0.351390  1
  Se  Se26  1  0.106972  0.665411  0.583530  1
  Se  Se27  1  0.665320  0.106852  0.083419  1
  Se  Se28  1  0.074649  0.400453  0.916250  1
  Se  Se29  1  0.211557  0.163170  0.742500  1
  Se  Se30  1  0.389608  0.087151  0.413719  1
  Se  Se31  1  0.164200  0.214351  0.247895  1
