# generated using pymatgen
data_Hf15Sc3Be2(CrRe3)2
_symmetry_space_group_name_H-M   'P 1'
_cell_length_a   8.58576701
_cell_length_b   8.58576625
_cell_length_c   8.35750700
_cell_angle_alpha   90.00000000
_cell_angle_beta   90.00000000
_cell_angle_gamma   120.00109677
_symmetry_Int_Tables_number   1
_chemical_formula_structural   Hf15Sc3Be2(CrRe3)2
_chemical_formula_sum   'Hf15 Sc3 Be2 Cr2 Re6'
_cell_volume   533.53232880
_cell_formula_units_Z   1
loop_
 _symmetry_equiv_pos_site_id
 _symmetry_equiv_pos_as_xyz
  1  'x, y, z'
loop_
 _atom_site_type_symbol
 _atom_site_label
 _atom_site_symmetry_multiplicity
 _atom_site_fract_x
 _atom_site_fract_y
 _atom_site_fract_z
 _atom_site_occupancy
  Hf  Hf0  1  0.803951  0.607875  0.553780  1
  Hf  Hf1  1  0.803931  0.196069  0.553764  1
  Hf  Hf2  1  0.392125  0.196049  0.553780  1
  Hf  Hf3  1  0.195738  0.391411  0.446030  1
  Hf  Hf4  1  0.195643  0.804357  0.445960  1
  Hf  Hf5  1  0.608589  0.804262  0.446030  1
  Hf  Hf6  1  0.195738  0.391411  0.053970  1
  Hf  Hf7  1  0.195643  0.804357  0.054040  1
  Hf  Hf8  1  0.608589  0.804262  0.053970  1
  Hf  Hf9  1  0.803951  0.607875  0.946220  1
  Hf  Hf10  1  0.803931  0.196069  0.946236  1
  Hf  Hf11  1  0.392125  0.196049  0.946220  1
  Hf  Hf12  1  0.539543  0.079020  0.250000  1
  Hf  Hf13  1  0.539573  0.460427  0.250000  1
  Hf  Hf14  1  0.920980  0.460457  0.250000  1
  Sc  Sc15  1  0.460649  0.921342  0.750000  1
  Sc  Sc16  1  0.460722  0.539278  0.750000  1
  Sc  Sc17  1  0.078658  0.539351  0.750000  1
  Be  Be18  1  0.666665  0.333335  0.750000  1
  Be  Be19  1  0.333305  0.666695  0.250000  1
  Cr  Cr20  1  0.999993  0.000007  0.504261  1
  Cr  Cr21  1  0.999993  0.000007  0.995739  1
  Re  Re22  1  0.108066  0.216153  0.750000  1
  Re  Re23  1  0.108061  0.891939  0.750000  1
  Re  Re24  1  0.783847  0.891934  0.750000  1
  Re  Re25  1  0.892065  0.784158  0.250000  1
  Re  Re26  1  0.892083  0.107917  0.250000  1
  Re  Re27  1  0.215842  0.107935  0.250000  1
