# generated using pymatgen
data_Cd3SnPd2
_symmetry_space_group_name_H-M   'P 1'
_cell_length_a   8.73407248
_cell_length_b   8.73401162
_cell_length_c   8.73390200
_cell_angle_alpha   60.00277851
_cell_angle_beta   60.00119863
_cell_angle_gamma   59.99825926
_symmetry_Int_Tables_number   1
_chemical_formula_structural   Cd3SnPd2
_chemical_formula_sum   'Cd12 Sn4 Pd8'
_cell_volume   471.11964308
_cell_formula_units_Z   4
loop_
 _symmetry_equiv_pos_site_id
 _symmetry_equiv_pos_as_xyz
  1  'x, y, z'
loop_
 _atom_site_type_symbol
 _atom_site_label
 _atom_site_symmetry_multiplicity
 _atom_site_fract_x
 _atom_site_fract_y
 _atom_site_fract_z
 _atom_site_occupancy
  Cd  Cd0  1  0.815746  0.815754  0.184245  1
  Cd  Cd1  1  0.184248  0.184254  0.815743  1
  Cd  Cd2  1  0.815754  0.184246  0.815753  1
  Cd  Cd3  1  0.184255  0.815746  0.184250  1
  Cd  Cd4  1  0.184245  0.815755  0.815747  1
  Cd  Cd5  1  0.815744  0.184255  0.184244  1
  Cd  Cd6  1  0.434254  0.434246  0.065755  1
  Cd  Cd7  1  0.065752  0.065746  0.434257  1
  Cd  Cd8  1  0.434246  0.065754  0.434247  1
  Cd  Cd9  1  0.065745  0.434254  0.065750  1
  Cd  Cd10  1  0.065755  0.434245  0.434253  1
  Cd  Cd11  1  0.434256  0.065745  0.065756  1
  Sn  Sn12  1  0.125000  0.625000  0.625000  1
  Sn  Sn13  1  0.625000  0.125000  0.625000  1
  Sn  Sn14  1  0.625000  0.625000  0.125000  1
  Sn  Sn15  1  0.625000  0.625000  0.625000  1
  Pd  Pd16  1  0.770355  0.409874  0.409888  1
  Pd  Pd17  1  0.409879  0.770324  0.409917  1
  Pd  Pd18  1  0.409885  0.409909  0.770353  1
  Pd  Pd19  1  0.409897  0.409889  0.409865  1
  Pd  Pd20  1  0.479645  0.840126  0.840112  1
  Pd  Pd21  1  0.840121  0.479676  0.840083  1
  Pd  Pd22  1  0.840115  0.840091  0.479647  1
  Pd  Pd23  1  0.840103  0.840111  0.840135  1
