# generated using pymatgen
data_Ba8La4AlFe3O20
_symmetry_space_group_name_H-M   'P 1'
_cell_length_a   6.29035640
_cell_length_b   7.96057847
_cell_length_c   13.09308559
_cell_angle_alpha   91.58633866
_cell_angle_beta   90.02969252
_cell_angle_gamma   90.02733334
_symmetry_Int_Tables_number   1
_chemical_formula_structural   Ba8La4AlFe3O20
_chemical_formula_sum   'Ba8 La4 Al1 Fe3 O20'
_cell_volume   655.38319010
_cell_formula_units_Z   1
loop_
 _symmetry_equiv_pos_site_id
 _symmetry_equiv_pos_as_xyz
  1  'x, y, z'
loop_
 _atom_site_type_symbol
 _atom_site_label
 _atom_site_symmetry_multiplicity
 _atom_site_fract_x
 _atom_site_fract_y
 _atom_site_fract_z
 _atom_site_occupancy
  Ba  Ba0  1  0.767358  0.475658  0.331163  1
  Ba  Ba1  1  0.732695  0.971867  0.827320  1
  Ba  Ba2  1  0.236548  0.529727  0.668521  1
  Ba  Ba3  1  0.265497  0.026092  0.172256  1
  Ba  Ba4  1  0.761972  0.983684  0.378277  1
  Ba  Ba5  1  0.734503  0.488325  0.873758  1
  Ba  Ba6  1  0.238749  0.011111  0.621912  1
  Ba  Ba7  1  0.262758  0.513488  0.124531  1
  La  La8  1  0.753644  0.279640  0.619428  1
  La  La9  1  0.746165  0.779967  0.119957  1
  La  La10  1  0.246865  0.719049  0.382916  1
  La  La11  1  0.252280  0.220458  0.879688  1
  Al  Al12  1  0.730390  0.744778  0.581295  1
  Fe  Fe13  1  0.772176  0.242755  0.080916  1
  Fe  Fe14  1  0.273075  0.256172  0.419022  1
  Fe  Fe15  1  0.226130  0.757212  0.918034  1
  O  O16  1  0.777424  0.962126  0.620261  1
  O  O17  1  0.716774  0.472147  0.122238  1
  O  O18  1  0.217666  0.026321  0.380578  1
  O  O19  1  0.282131  0.528470  0.876924  1
  O  O20  1  0.718596  0.081976  0.182862  1
  O  O21  1  0.772337  0.592478  0.677914  1
  O  O22  1  0.278689  0.917429  0.816137  1
  O  O23  1  0.217991  0.416744  0.317574  1
  O  O24  1  0.540978  0.743590  0.275081  1
  O  O25  1  0.954809  0.245462  0.773117  1
  O  O26  1  0.455934  0.256492  0.724135  1
  O  O27  1  0.040264  0.755054  0.228302  1
  O  O28  1  0.592330  0.206312  0.965552  1
  O  O29  1  0.911470  0.706816  0.476433  1
  O  O30  1  0.405974  0.795361  0.033602  1
  O  O31  1  0.092725  0.294913  0.533671  1
  O  O32  1  0.066910  0.234069  0.042262  1
  O  O33  1  0.456834  0.734194  0.538941  1
  O  O34  1  0.932174  0.765149  0.957697  1
  O  O35  1  0.567187  0.264916  0.457728  1
