# generated using pymatgen
data_Y3Tm2Sn3
_symmetry_space_group_name_H-M   'P 1'
_cell_length_a   8.93297800
_cell_length_b   8.93297798
_cell_length_c   6.49669300
_cell_angle_alpha   90.00000000
_cell_angle_beta   90.00000000
_cell_angle_gamma   120.00022267
_symmetry_Int_Tables_number   1
_chemical_formula_structural   Y3Tm2Sn3
_chemical_formula_sum   'Y6 Tm4 Sn6'
_cell_volume   448.96711290
_cell_formula_units_Z   2
loop_
 _symmetry_equiv_pos_site_id
 _symmetry_equiv_pos_as_xyz
  1  'x, y, z'
loop_
 _atom_site_type_symbol
 _atom_site_label
 _atom_site_symmetry_multiplicity
 _atom_site_fract_x
 _atom_site_fract_y
 _atom_site_fract_z
 _atom_site_occupancy
  Y  Y0  1  0.239537  0.000018  0.249999  1
  Y  Y1  1  0.760464  0.999981  0.749999  1
  Y  Y2  1  0.000017  0.239536  0.249999  1
  Y  Y3  1  0.760475  0.760475  0.249999  1
  Y  Y4  1  0.239526  0.239526  0.749999  1
  Y  Y5  1  0.999983  0.760465  0.749999  1
  Tm  Tm6  1  0.333329  0.666672  0.000000  1
  Tm  Tm7  1  0.666671  0.333328  0.500000  1
  Tm  Tm8  1  0.666671  0.333328  0.000000  1
  Tm  Tm9  1  0.333329  0.666672  0.500000  1
  Sn  Sn10  1  0.603701  0.999999  0.249999  1
  Sn  Sn11  1  0.396299  0.000000  0.749999  1
  Sn  Sn12  1  0.999999  0.603702  0.249999  1
  Sn  Sn13  1  0.396352  0.396351  0.249999  1
  Sn  Sn14  1  0.603649  0.603648  0.749999  1
  Sn  Sn15  1  0.000002  0.396299  0.749999  1
