# generated using pymatgen
data_TbDy3(Ga5Ir3)2
_symmetry_space_group_name_H-M   'P 1'
_cell_length_a   8.60742754
_cell_length_b   8.60651859
_cell_length_c   8.60651763
_cell_angle_alpha   141.30332515
_cell_angle_beta   109.61435409
_cell_angle_gamma   83.32845478
_symmetry_Int_Tables_number   1
_chemical_formula_structural   TbDy3(Ga5Ir3)2
_chemical_formula_sum   'Tb1 Dy3 Ga10 Ir6'
_cell_volume   363.78633053
_cell_formula_units_Z   1
loop_
 _symmetry_equiv_pos_site_id
 _symmetry_equiv_pos_as_xyz
  1  'x, y, z'
loop_
 _atom_site_type_symbol
 _atom_site_label
 _atom_site_symmetry_multiplicity
 _atom_site_fract_x
 _atom_site_fract_y
 _atom_site_fract_z
 _atom_site_occupancy
  Tb  Tb0  1  0.872164  0.644730  0.227434  1
  Dy  Dy1  1  0.127847  0.355203  0.772645  1
  Dy  Dy2  1  0.417446  0.144825  0.272621  1
  Dy  Dy3  1  0.582536  0.855168  0.727368  1
  Ga  Ga4  1  0.499923  0.750005  0.249966  1
  Ga  Ga5  1  0.499923  0.249957  0.749917  1
  Ga  Ga6  1  0.200950  0.950957  0.750175  1
  Ga  Ga7  1  0.799154  0.549186  0.749967  1
  Ga  Ga8  1  0.799154  0.049187  0.249967  1
  Ga  Ga9  1  0.200950  0.450775  0.249993  1
  Ga  Ga10  1  0.097411  0.916833  0.180576  1
  Ga  Ga11  1  0.902661  0.083143  0.819519  1
  Ga  Ga12  1  0.736245  0.416755  0.319490  1
  Ga  Ga13  1  0.263682  0.583156  0.680526  1
  Ir  Ir14  1  0.000021  0.750002  0.750045  1
  Ir  Ir15  1  0.000021  0.249976  0.250019  1
  Ir  Ir16  1  0.258538  0.847526  0.411012  1
  Ir  Ir17  1  0.741498  0.152565  0.588932  1
  Ir  Ir18  1  0.436567  0.347469  0.089099  1
  Ir  Ir19  1  0.563312  0.652581  0.910730  1
