# generated using pymatgen
data_Hf4Ta4GaP3
_symmetry_space_group_name_H-M   'P 1'
_cell_length_a   3.54508000
_cell_length_b   6.94044252
_cell_length_c   8.41785004
_cell_angle_alpha   89.36563013
_cell_angle_beta   90.00000000
_cell_angle_gamma   90.00000000
_symmetry_Int_Tables_number   1
_chemical_formula_structural   Hf4Ta4GaP3
_chemical_formula_sum   'Hf4 Ta4 Ga1 P3'
_cell_volume   207.10365660
_cell_formula_units_Z   1
loop_
 _symmetry_equiv_pos_site_id
 _symmetry_equiv_pos_as_xyz
  1  'x, y, z'
loop_
 _atom_site_type_symbol
 _atom_site_label
 _atom_site_symmetry_multiplicity
 _atom_site_fract_x
 _atom_site_fract_y
 _atom_site_fract_z
 _atom_site_occupancy
  Hf  Hf0  1  0.250000  0.036965  0.669414  1
  Hf  Hf1  1  0.250000  0.533284  0.829139  1
  Hf  Hf2  1  0.750000  0.470503  0.160066  1
  Hf  Hf3  1  0.750000  0.956095  0.332253  1
  Ta  Ta4  1  0.750000  0.855284  0.939429  1
  Ta  Ta5  1  0.250000  0.641574  0.442806  1
  Ta  Ta6  1  0.750000  0.369254  0.568652  1
  Ta  Ta7  1  0.250000  0.134877  0.053971  1
  Ga  Ga8  1  0.250000  0.257758  0.356698  1
  P  P9  1  0.250000  0.764073  0.147420  1
  P  P10  1  0.750000  0.744668  0.643502  1
  P  P11  1  0.750000  0.235666  0.856648  1
