# generated using pymatgen
data_CsEuI3
_symmetry_space_group_name_H-M   'P 1'
_cell_length_a   8.81320900
_cell_length_b   9.19438900
_cell_length_c   12.69187800
_cell_angle_alpha   90.00000000
_cell_angle_beta   90.00000000
_cell_angle_gamma   90.00000000
_symmetry_Int_Tables_number   1
_chemical_formula_structural   CsEuI3
_chemical_formula_sum   'Cs4 Eu4 I12'
_cell_volume   1028.44917044
_cell_formula_units_Z   4
loop_
 _symmetry_equiv_pos_site_id
 _symmetry_equiv_pos_as_xyz
  1  'x, y, z'
loop_
 _atom_site_type_symbol
 _atom_site_label
 _atom_site_symmetry_multiplicity
 _atom_site_fract_x
 _atom_site_fract_y
 _atom_site_fract_z
 _atom_site_occupancy
  Cs  Cs0  1  0.026631  0.429727  0.250000  1
  Cs  Cs1  1  0.973369  0.570273  0.750000  1
  Cs  Cs2  1  0.526631  0.070273  0.750000  1
  Cs  Cs3  1  0.473369  0.929727  0.250000  1
  Eu  Eu4  1  0.000000  0.000000  0.000000  1
  Eu  Eu5  1  0.500000  0.500000  0.000000  1
  Eu  Eu6  1  0.000000  0.000000  0.500000  1
  Eu  Eu7  1  0.500000  0.500000  0.500000  1
  I  I8  1  0.295980  0.207229  0.040087  1
  I  I9  1  0.704020  0.792771  0.959913  1
  I  I10  1  0.795980  0.292771  0.959913  1
  I  I11  1  0.704020  0.792771  0.540087  1
  I  I12  1  0.204020  0.707229  0.040087  1
  I  I13  1  0.295980  0.207229  0.459913  1
  I  I14  1  0.204020  0.707229  0.459913  1
  I  I15  1  0.795980  0.292771  0.540087  1
  I  I16  1  0.583927  0.510981  0.250000  1
  I  I17  1  0.416073  0.489019  0.750000  1
  I  I18  1  0.083927  0.989019  0.750000  1
  I  I19  1  0.916073  0.010981  0.250000  1
