# generated using pymatgen
data_LaNi3BRh
_symmetry_space_group_name_H-M   'P 1'
_cell_length_a   5.25977231
_cell_length_b   5.25977238
_cell_length_c   7.11224800
_cell_angle_alpha   90.00000000
_cell_angle_beta   90.00000000
_cell_angle_gamma   122.37354428
_symmetry_Int_Tables_number   1
_chemical_formula_structural   LaNi3BRh
_chemical_formula_sum   'La2 Ni6 B2 Rh2'
_cell_volume   166.18014567
_cell_formula_units_Z   2
loop_
 _symmetry_equiv_pos_site_id
 _symmetry_equiv_pos_as_xyz
  1  'x, y, z'
loop_
 _atom_site_type_symbol
 _atom_site_label
 _atom_site_symmetry_multiplicity
 _atom_site_fract_x
 _atom_site_fract_y
 _atom_site_fract_z
 _atom_site_occupancy
  La  La0  1  0.000000  0.000000  0.500000  1
  La  La1  1  0.000000  0.000000  0.000000  1
  Ni  Ni2  1  0.316934  0.683066  0.000000  1
  Ni  Ni3  1  0.683066  0.316934  0.000000  1
  Ni  Ni4  1  0.500000  0.000000  0.296804  1
  Ni  Ni5  1  0.000000  0.500000  0.296804  1
  Ni  Ni6  1  0.500000  0.000000  0.703196  1
  Ni  Ni7  1  0.000000  0.500000  0.703196  1
  B  B8  1  0.671433  0.328567  0.500000  1
  B  B9  1  0.328567  0.671433  0.500000  1
  Rh  Rh10  1  0.500000  0.500000  0.287788  1
  Rh  Rh11  1  0.500000  0.500000  0.712212  1
