# generated using pymatgen
data_Ca2Rh3O8
_symmetry_space_group_name_H-M   'P 1'
_cell_length_a   6.33620274
_cell_length_b   6.33620269
_cell_length_c   5.29180370
_cell_angle_alpha   72.19100506
_cell_angle_beta   72.19100140
_cell_angle_gamma   59.13987278
_symmetry_Int_Tables_number   1
_chemical_formula_structural   Ca2Rh3O8
_chemical_formula_sum   'Ca2 Rh3 O8'
_cell_volume   170.72630854
_cell_formula_units_Z   1
loop_
 _symmetry_equiv_pos_site_id
 _symmetry_equiv_pos_as_xyz
  1  'x, y, z'
loop_
 _atom_site_type_symbol
 _atom_site_label
 _atom_site_symmetry_multiplicity
 _atom_site_fract_x
 _atom_site_fract_y
 _atom_site_fract_z
 _atom_site_occupancy
  Ca  Ca0  1  0.723353  0.723353  0.337303  1
  Ca  Ca1  1  0.276647  0.276647  0.662697  1
  Rh  Rh2  1  0.000000  0.000000  0.500000  1
  Rh  Rh3  1  0.743959  0.256041  0.000000  1
  Rh  Rh4  1  0.256041  0.743959  0.000000  1
  O  O5  1  0.396899  0.396899  0.947495  1
  O  O6  1  0.603101  0.603101  0.052505  1
  O  O7  1  0.900349  0.900349  0.913333  1
  O  O8  1  0.099651  0.099651  0.086667  1
  O  O9  1  0.327545  0.883620  0.604851  1
  O  O10  1  0.883620  0.327545  0.604851  1
  O  O11  1  0.116380  0.672455  0.395149  1
  O  O12  1  0.672455  0.116380  0.395149  1
