# generated using pymatgen
data_Er2PuMn3
_symmetry_space_group_name_H-M   'P 1'
_cell_length_a   5.19364834
_cell_length_b   5.19364899
_cell_length_c   5.19364820
_cell_angle_alpha   64.35851258
_cell_angle_beta   64.35850156
_cell_angle_gamma   64.35849246
_symmetry_Int_Tables_number   1
_chemical_formula_structural   Er2PuMn3
_chemical_formula_sum   'Er2 Pu1 Mn3'
_cell_volume   108.54148463
_cell_formula_units_Z   1
loop_
 _symmetry_equiv_pos_site_id
 _symmetry_equiv_pos_as_xyz
  1  'x, y, z'
loop_
 _atom_site_type_symbol
 _atom_site_label
 _atom_site_symmetry_multiplicity
 _atom_site_fract_x
 _atom_site_fract_y
 _atom_site_fract_z
 _atom_site_occupancy
  Er  Er0  1  0.624422  0.624422  0.624422  1
  Er  Er1  1  0.375578  0.375578  0.375578  1
  Pu  Pu2  1  0.000000  0.000000  0.000000  1
  Mn  Mn3  1  0.000000  0.500000  0.000000  1
  Mn  Mn4  1  0.500000  0.000000  0.000000  1
  Mn  Mn5  1  0.000000  0.000000  0.500000  1
