# generated using pymatgen
data_Tm6ScFeO12
_symmetry_space_group_name_H-M   'P 1'
_cell_length_a   6.46621681
_cell_length_b   6.46621709
_cell_length_c   6.46621743
_cell_angle_alpha   92.60231246
_cell_angle_beta   92.60230894
_cell_angle_gamma   92.60230061
_symmetry_Int_Tables_number   1
_chemical_formula_structural   Tm6ScFeO12
_chemical_formula_sum   'Tm6 Sc1 Fe1 O12'
_cell_volume   269.50253571
_cell_formula_units_Z   1
loop_
 _symmetry_equiv_pos_site_id
 _symmetry_equiv_pos_as_xyz
  1  'x, y, z'
loop_
 _atom_site_type_symbol
 _atom_site_label
 _atom_site_symmetry_multiplicity
 _atom_site_fract_x
 _atom_site_fract_y
 _atom_site_fract_z
 _atom_site_occupancy
  Tm  Tm0  1  0.743581  0.927339  0.436492  1
  Tm  Tm1  1  0.927339  0.436492  0.743581  1
  Tm  Tm2  1  0.436492  0.743581  0.927339  1
  Tm  Tm3  1  0.256419  0.072661  0.563508  1
  Tm  Tm4  1  0.072661  0.563508  0.256419  1
  Tm  Tm5  1  0.563508  0.256419  0.072661  1
  Sc  Sc6  1  0.000000  0.000000  0.000000  1
  Fe  Fe7  1  0.500000  0.500000  0.500000  1
  O  O8  1  0.589880  0.461062  0.803205  1
  O  O9  1  0.461062  0.803205  0.589880  1
  O  O10  1  0.803205  0.589880  0.461062  1
  O  O11  1  0.410120  0.538938  0.196795  1
  O  O12  1  0.538938  0.196795  0.410120  1
  O  O13  1  0.196795  0.410120  0.538938  1
  O  O14  1  0.069403  0.913513  0.310112  1
  O  O15  1  0.913513  0.310112  0.069403  1
  O  O16  1  0.689888  0.930597  0.086487  1
  O  O17  1  0.086487  0.689888  0.930597  1
  O  O18  1  0.930597  0.086487  0.689888  1
  O  O19  1  0.310112  0.069403  0.913513  1
