# generated using pymatgen
data_Sr3YbVO6
_symmetry_space_group_name_H-M   'P 1'
_cell_length_a   6.75765661
_cell_length_b   6.83051158
_cell_length_c   6.78188000
_cell_angle_alpha   91.95322956
_cell_angle_beta   91.86525008
_cell_angle_gamma   91.89374557
_symmetry_Int_Tables_number   1
_chemical_formula_structural   Sr3YbVO6
_chemical_formula_sum   'Sr6 Yb2 V2 O12'
_cell_volume   312.50922007
_cell_formula_units_Z   2
loop_
 _symmetry_equiv_pos_site_id
 _symmetry_equiv_pos_as_xyz
  1  'x, y, z'
loop_
 _atom_site_type_symbol
 _atom_site_label
 _atom_site_symmetry_multiplicity
 _atom_site_fract_x
 _atom_site_fract_y
 _atom_site_fract_z
 _atom_site_occupancy
  Sr  Sr0  1  0.887610  0.249420  0.612336  1
  Sr  Sr1  1  0.249285  0.611765  0.888377  1
  Sr  Sr2  1  0.611769  0.888164  0.251354  1
  Sr  Sr3  1  0.750755  0.388211  0.111644  1
  Sr  Sr4  1  0.388235  0.111886  0.748643  1
  Sr  Sr5  1  0.112368  0.750591  0.387674  1
  Yb  Yb6  1  0.748681  0.748914  0.752454  1
  Yb  Yb7  1  0.251298  0.251068  0.247573  1
  V  V8  1  0.999984  0.999990  0.000022  1
  V  V9  1  0.499990  0.500004  0.499991  1
  O  O10  1  0.222823  0.420689  0.547854  1
  O  O11  1  0.419354  0.550648  0.221023  1
  O  O12  1  0.549656  0.220591  0.417112  1
  O  O13  1  0.917485  0.720354  0.051070  1
  O  O14  1  0.722054  0.049026  0.920972  1
  O  O15  1  0.048013  0.918911  0.721892  1
  O  O16  1  0.777209  0.579311  0.452162  1
  O  O17  1  0.580655  0.449331  0.778958  1
  O  O18  1  0.450387  0.779472  0.582806  1
  O  O19  1  0.082507  0.279629  0.948954  1
  O  O20  1  0.277919  0.950943  0.079022  1
  O  O21  1  0.951961  0.081081  0.278108  1
