# generated using pymatgen
data_Ac2Se2S
_symmetry_space_group_name_H-M   'P 1'
_cell_length_a   4.38156000
_cell_length_b   11.51878800
_cell_length_c   11.98160000
_cell_angle_alpha   90.00000000
_cell_angle_beta   90.00000000
_cell_angle_gamma   90.00000000
_symmetry_Int_Tables_number   1
_chemical_formula_structural   Ac2Se2S
_chemical_formula_sum   'Ac8 Se8 S4'
_cell_volume   604.71447619
_cell_formula_units_Z   4
loop_
 _symmetry_equiv_pos_site_id
 _symmetry_equiv_pos_as_xyz
  1  'x, y, z'
loop_
 _atom_site_type_symbol
 _atom_site_label
 _atom_site_symmetry_multiplicity
 _atom_site_fract_x
 _atom_site_fract_y
 _atom_site_fract_z
 _atom_site_occupancy
  Ac  Ac0  1  0.250000  0.179923  0.494379  1
  Ac  Ac1  1  0.250000  0.320077  0.994379  1
  Ac  Ac2  1  0.750000  0.820077  0.505621  1
  Ac  Ac3  1  0.750000  0.679923  0.005621  1
  Ac  Ac4  1  0.750000  0.497952  0.694779  1
  Ac  Ac5  1  0.750000  0.002048  0.194779  1
  Ac  Ac6  1  0.250000  0.502048  0.305221  1
  Ac  Ac7  1  0.250000  0.997952  0.805221  1
  Se  Se8  1  0.250000  0.627124  0.545272  1
  Se  Se9  1  0.250000  0.872876  0.045272  1
  Se  Se10  1  0.750000  0.372876  0.454728  1
  Se  Se11  1  0.750000  0.127124  0.954728  1
  Se  Se12  1  0.250000  0.298005  0.731250  1
  Se  Se13  1  0.250000  0.201995  0.231250  1
  Se  Se14  1  0.750000  0.701995  0.268750  1
  Se  Se15  1  0.750000  0.798005  0.768750  1
  S  S16  1  0.750000  0.054467  0.618385  1
  S  S17  1  0.750000  0.445533  0.118385  1
  S  S18  1  0.250000  0.945533  0.381615  1
  S  S19  1  0.250000  0.554467  0.881615  1
