# generated using pymatgen
data_Cs4Cd2Si4Sn2As7P
_symmetry_space_group_name_H-M   'P 1'
_cell_length_a   8.71335072
_cell_length_b   9.06373668
_cell_length_c   8.57021483
_cell_angle_alpha   84.88400095
_cell_angle_beta   78.01067462
_cell_angle_gamma   72.28039860
_symmetry_Int_Tables_number   1
_chemical_formula_structural   Cs4Cd2Si4Sn2As7P
_chemical_formula_sum   'Cs4 Cd2 Si4 Sn2 As7 P1'
_cell_volume   630.41779641
_cell_formula_units_Z   1
loop_
 _symmetry_equiv_pos_site_id
 _symmetry_equiv_pos_as_xyz
  1  'x, y, z'
loop_
 _atom_site_type_symbol
 _atom_site_label
 _atom_site_symmetry_multiplicity
 _atom_site_fract_x
 _atom_site_fract_y
 _atom_site_fract_z
 _atom_site_occupancy
  Cs  Cs0  1  0.442434  0.760343  0.385488  1
  Cs  Cs1  1  0.560727  0.236881  0.614924  1
  Cs  Cs2  1  0.423728  0.790046  0.869687  1
  Cs  Cs3  1  0.577327  0.210445  0.128409  1
  Cd  Cd4  1  0.958125  0.825455  0.253292  1
  Cd  Cd5  1  0.037302  0.174606  0.752410  1
  Si  Si6  1  0.941339  0.577089  0.616787  1
  Si  Si7  1  0.055689  0.428426  0.382381  1
  Si  Si8  1  0.141649  0.466960  0.970301  1
  Si  Si9  1  0.857308  0.533788  0.029125  1
  Sn  Sn10  1  0.941475  0.883200  0.780099  1
  Sn  Sn11  1  0.055633  0.116067  0.216689  1
  As  As12  1  0.208878  0.172033  0.444396  1
  As  As13  1  0.822177  0.399694  0.285123  1
  As  As14  1  0.177529  0.600003  0.713853  1
  As  As15  1  0.753508  0.806793  0.053649  1
  As  As16  1  0.245444  0.193297  0.946775  1
  As  As17  1  0.781463  0.443579  0.808738  1
  As  As18  1  0.217214  0.559135  0.189939  1
  P  P19  1  0.801051  0.822160  0.557935  1
