# generated using pymatgen
data_Ba6Sn8BiCl
_symmetry_space_group_name_H-M   'P 1'
_cell_length_a   9.25707813
_cell_length_b   9.25707851
_cell_length_c   9.31945271
_cell_angle_alpha   119.77884676
_cell_angle_beta   119.77885232
_cell_angle_gamma   90.00000721
_symmetry_Int_Tables_number   1
_chemical_formula_structural   Ba6Sn8BiCl
_chemical_formula_sum   'Ba6 Sn8 Bi1 Cl1'
_cell_volume   568.46146500
_cell_formula_units_Z   1
loop_
 _symmetry_equiv_pos_site_id
 _symmetry_equiv_pos_as_xyz
  1  'x, y, z'
loop_
 _atom_site_type_symbol
 _atom_site_label
 _atom_site_symmetry_multiplicity
 _atom_site_fract_x
 _atom_site_fract_y
 _atom_site_fract_z
 _atom_site_occupancy
  Ba  Ba0  1  0.258325  0.258325  0.516650  1
  Ba  Ba1  1  0.741675  0.741675  0.483350  1
  Ba  Ba2  1  0.662783  0.167305  0.000000  1
  Ba  Ba3  1  0.337217  0.832695  0.000000  1
  Ba  Ba4  1  0.832695  0.662783  0.000000  1
  Ba  Ba5  1  0.167305  0.337217  0.000000  1
  Sn  Sn6  1  0.333025  0.834168  0.386327  1
  Sn  Sn7  1  0.666975  0.165832  0.613673  1
  Sn  Sn8  1  0.053303  0.552160  0.386327  1
  Sn  Sn9  1  0.552160  0.333025  0.386327  1
  Sn  Sn10  1  0.165832  0.946697  0.613673  1
  Sn  Sn11  1  0.946697  0.447840  0.613673  1
  Sn  Sn12  1  0.447840  0.666975  0.613673  1
  Sn  Sn13  1  0.834168  0.053303  0.386327  1
  Bi  Bi14  1  0.000000  0.000000  0.000000  1
  Cl  Cl15  1  0.500000  0.500000  0.000000  1
