# generated using pymatgen
data_Pr7Nd(CoAg)2
_symmetry_space_group_name_H-M   'P 1'
_cell_length_a   9.79476010
_cell_length_b   9.79188418
_cell_length_c   9.79918117
_cell_angle_alpha   59.90422835
_cell_angle_beta   59.95212799
_cell_angle_gamma   59.98013981
_symmetry_Int_Tables_number   1
_chemical_formula_structural   Pr7Nd(CoAg)2
_chemical_formula_sum   'Pr14 Nd2 Co4 Ag4'
_cell_volume   663.73895153
_cell_formula_units_Z   2
loop_
 _symmetry_equiv_pos_site_id
 _symmetry_equiv_pos_as_xyz
  1  'x, y, z'
loop_
 _atom_site_type_symbol
 _atom_site_label
 _atom_site_symmetry_multiplicity
 _atom_site_fract_x
 _atom_site_fract_y
 _atom_site_fract_z
 _atom_site_occupancy
  Pr  Pr0  1  0.597842  0.597338  0.597854  1
  Pr  Pr1  1  0.598347  0.598131  0.205199  1
  Pr  Pr2  1  0.599182  0.205274  0.598110  1
  Pr  Pr3  1  0.205562  0.599048  0.598161  1
  Pr  Pr4  1  0.187505  0.812250  0.812231  1
  Pr  Pr5  1  0.810572  0.188800  0.189250  1
  Pr  Pr6  1  0.812008  0.187407  0.812408  1
  Pr  Pr7  1  0.188737  0.810743  0.189479  1
  Pr  Pr8  1  0.811900  0.812268  0.187419  1
  Pr  Pr9  1  0.188853  0.189139  0.810926  1
  Pr  Pr10  1  0.059802  0.439216  0.438870  1
  Pr  Pr11  1  0.438079  0.061005  0.060592  1
  Pr  Pr12  1  0.439086  0.060172  0.439052  1
  Pr  Pr13  1  0.060495  0.438301  0.060719  1
  Nd  Nd14  1  0.439541  0.439948  0.059242  1
  Nd  Nd15  1  0.060068  0.060698  0.438390  1
  Co  Co16  1  0.390676  0.390450  0.390458  1
  Co  Co17  1  0.391897  0.391273  0.827331  1
  Co  Co18  1  0.391414  0.827421  0.391416  1
  Co  Co19  1  0.826926  0.391237  0.391849  1
  Ag  Ag20  1  0.830796  0.830564  0.830140  1
  Ag  Ag21  1  0.829902  0.829476  0.511394  1
  Ag  Ag22  1  0.829718  0.510521  0.829775  1
  Ag  Ag23  1  0.511091  0.829315  0.829734  1
