# generated using pymatgen
data_Pr4Ga4IrRu3
_symmetry_space_group_name_H-M   'P 1'
_cell_length_a   4.67328600
_cell_length_b   7.43646744
_cell_length_c   7.17514001
_cell_angle_alpha   89.92153317
_cell_angle_beta   90.00000000
_cell_angle_gamma   90.00000000
_symmetry_Int_Tables_number   1
_chemical_formula_structural   Pr4Ga4IrRu3
_chemical_formula_sum   'Pr4 Ga4 Ir1 Ru3'
_cell_volume   249.35553533
_cell_formula_units_Z   1
loop_
 _symmetry_equiv_pos_site_id
 _symmetry_equiv_pos_as_xyz
  1  'x, y, z'
loop_
 _atom_site_type_symbol
 _atom_site_label
 _atom_site_symmetry_multiplicity
 _atom_site_fract_x
 _atom_site_fract_y
 _atom_site_fract_z
 _atom_site_occupancy
  Pr  Pr0  1  0.250000  0.028278  0.809873  1
  Pr  Pr1  1  0.250000  0.530326  0.689662  1
  Pr  Pr2  1  0.750000  0.972543  0.192644  1
  Pr  Pr3  1  0.750000  0.468907  0.310567  1
  Ga  Ga4  1  0.250000  0.190033  0.393056  1
  Ga  Ga5  1  0.250000  0.687183  0.111910  1
  Ga  Ga6  1  0.750000  0.810005  0.604765  1
  Ga  Ga7  1  0.750000  0.310244  0.891483  1
  Ir  Ir8  1  0.750000  0.656517  0.933481  1
  Ru  Ru9  1  0.250000  0.846545  0.437420  1
  Ru  Ru10  1  0.250000  0.346010  0.062105  1
  Ru  Ru11  1  0.750000  0.153410  0.563034  1
