# generated using pymatgen
data_LaNd12Th3(CdIr)4
_symmetry_space_group_name_H-M   'P 1'
_cell_length_a   10.00326134
_cell_length_b   9.98916272
_cell_length_c   9.98916200
_cell_angle_alpha   60.00000239
_cell_angle_beta   60.04661411
_cell_angle_gamma   60.04661619
_symmetry_Int_Tables_number   1
_chemical_formula_structural   LaNd12Th3(CdIr)4
_chemical_formula_sum   'La1 Nd12 Th3 Cd4 Ir4'
_cell_volume   706.30195616
_cell_formula_units_Z   1
loop_
 _symmetry_equiv_pos_site_id
 _symmetry_equiv_pos_as_xyz
  1  'x, y, z'
loop_
 _atom_site_type_symbol
 _atom_site_label
 _atom_site_symmetry_multiplicity
 _atom_site_fract_x
 _atom_site_fract_y
 _atom_site_fract_z
 _atom_site_occupancy
  La  La0  1  0.955456  0.348181  0.348181  1
  Nd  Nd1  1  0.809350  0.190899  0.190899  1
  Nd  Nd2  1  0.191530  0.809297  0.809297  1
  Nd  Nd3  1  0.191530  0.809297  0.189876  1
  Nd  Nd4  1  0.809350  0.190899  0.808854  1
  Nd  Nd5  1  0.191530  0.189876  0.809297  1
  Nd  Nd6  1  0.809350  0.808854  0.190899  1
  Nd  Nd7  1  0.937178  0.563673  0.563673  1
  Nd  Nd8  1  0.562054  0.937569  0.937569  1
  Nd  Nd9  1  0.562054  0.937569  0.562808  1
  Nd  Nd10  1  0.937178  0.563673  0.935476  1
  Nd  Nd11  1  0.562054  0.562808  0.937569  1
  Nd  Nd12  1  0.937178  0.935476  0.563673  1
  Th  Th13  1  0.344970  0.345747  0.345747  1
  Th  Th14  1  0.344970  0.345747  0.963536  1
  Th  Th15  1  0.344970  0.963536  0.345747  1
  Cd  Cd16  1  0.578348  0.580350  0.580350  1
  Cd  Cd17  1  0.578348  0.580350  0.260952  1
  Cd  Cd18  1  0.578348  0.260952  0.580350  1
  Cd  Cd19  1  0.258869  0.580376  0.580376  1
  Ir  Ir20  1  0.150098  0.140869  0.140869  1
  Ir  Ir21  1  0.150098  0.140869  0.568164  1
  Ir  Ir22  1  0.150098  0.568164  0.140869  1
  Ir  Ir23  1  0.565089  0.144970  0.144970  1
