# generated using pymatgen
data_Nd2GaSi3(IrRh2)2
_symmetry_space_group_name_H-M   'P 1'
_cell_length_a   6.73234736
_cell_length_b   6.74195830
_cell_length_c   6.72763642
_cell_angle_alpha   130.29787933
_cell_angle_beta   114.27719051
_cell_angle_gamma   86.67329743
_symmetry_Int_Tables_number   1
_chemical_formula_structural   Nd2GaSi3(IrRh2)2
_chemical_formula_sum   'Nd2 Ga1 Si3 Ir2 Rh4'
_cell_volume   202.58845920
_cell_formula_units_Z   1
loop_
 _symmetry_equiv_pos_site_id
 _symmetry_equiv_pos_as_xyz
  1  'x, y, z'
loop_
 _atom_site_type_symbol
 _atom_site_label
 _atom_site_symmetry_multiplicity
 _atom_site_fract_x
 _atom_site_fract_y
 _atom_site_fract_z
 _atom_site_occupancy
  Nd  Nd0  1  0.749612  0.041741  0.291088  1
  Nd  Nd1  1  0.251064  0.973146  0.721237  1
  Ga  Ga2  1  0.591997  0.387805  0.796887  1
  Si  Si3  1  0.433831  0.633490  0.200213  1
  Si  Si4  1  0.072007  0.272473  0.201799  1
  Si  Si5  1  0.906756  0.698330  0.792553  1
  Ir  Ir6  1  0.214320  0.505306  0.718892  1
  Ir  Ir7  1  0.727143  0.994815  0.728833  1
  Rh  Rh8  1  0.785113  0.503069  0.288960  1
  Rh  Rh9  1  0.267154  0.996287  0.270721  1
  Rh  Rh10  1  0.474785  0.497044  0.469014  1
  Rh  Rh11  1  0.026216  0.496494  0.019804  1
