# generated using pymatgen
data_Hf8GeTe6
_symmetry_space_group_name_H-M   'P 1'
_cell_length_a   3.85881200
_cell_length_b   7.63799400
_cell_length_c   25.57880800
_cell_angle_alpha   90.00000000
_cell_angle_beta   90.00000000
_cell_angle_gamma   90.00000000
_symmetry_Int_Tables_number   1
_chemical_formula_structural   Hf8GeTe6
_chemical_formula_sum   'Hf16 Ge2 Te12'
_cell_volume   753.89911815
_cell_formula_units_Z   2
loop_
 _symmetry_equiv_pos_site_id
 _symmetry_equiv_pos_as_xyz
  1  'x, y, z'
loop_
 _atom_site_type_symbol
 _atom_site_label
 _atom_site_symmetry_multiplicity
 _atom_site_fract_x
 _atom_site_fract_y
 _atom_site_fract_z
 _atom_site_occupancy
  Hf  Hf0  1  0.000000  0.419341  0.000000  1
  Hf  Hf1  1  0.500000  0.444880  0.302995  1
  Hf  Hf2  1  0.000000  0.551341  0.596387  1
  Hf  Hf3  1  0.500000  0.448659  0.903613  1
  Hf  Hf4  1  0.500000  0.229799  0.568804  1
  Hf  Hf5  1  0.500000  0.580659  0.500000  1
  Hf  Hf6  1  0.000000  0.949982  0.500000  1
  Hf  Hf7  1  0.000000  0.770201  0.931196  1
  Hf  Hf8  1  0.500000  0.050018  0.000000  1
  Hf  Hf9  1  0.500000  0.229799  0.431196  1
  Hf  Hf10  1  0.000000  0.555120  0.802995  1
  Hf  Hf11  1  0.500000  0.448659  0.096387  1
  Hf  Hf12  1  0.000000  0.770201  0.068804  1
  Hf  Hf13  1  0.000000  0.555120  0.197005  1
  Hf  Hf14  1  0.000000  0.551341  0.403613  1
  Hf  Hf15  1  0.500000  0.444880  0.697005  1
  Ge  Ge16  1  0.500000  0.676574  0.000000  1
  Ge  Ge17  1  0.000000  0.323426  0.500000  1
  Te  Te18  1  0.000000  0.201431  0.343192  1
  Te  Te19  1  0.500000  0.278541  0.797966  1
  Te  Te20  1  0.500000  0.798569  0.843192  1
  Te  Te21  1  0.000000  0.721459  0.297966  1
  Te  Te22  1  0.500000  0.851784  0.581800  1
  Te  Te23  1  0.500000  0.278541  0.202034  1
  Te  Te24  1  0.500000  0.851784  0.418200  1
  Te  Te25  1  0.000000  0.721459  0.702034  1
  Te  Te26  1  0.000000  0.201431  0.656808  1
  Te  Te27  1  0.500000  0.798569  0.156808  1
  Te  Te28  1  0.000000  0.148216  0.918200  1
  Te  Te29  1  0.000000  0.148216  0.081800  1
