# generated using pymatgen
data_TcP2Ru
_symmetry_space_group_name_H-M   'P 1'
_cell_length_a   3.05436500
_cell_length_b   5.71009160
_cell_length_c   6.23903420
_cell_angle_alpha   89.47870261
_cell_angle_beta   90.00000000
_cell_angle_gamma   90.00000000
_symmetry_Int_Tables_number   1
_chemical_formula_structural   TcP2Ru
_chemical_formula_sum   'Tc2 P4 Ru2'
_cell_volume   108.80864457
_cell_formula_units_Z   2
loop_
 _symmetry_equiv_pos_site_id
 _symmetry_equiv_pos_as_xyz
  1  'x, y, z'
loop_
 _atom_site_type_symbol
 _atom_site_label
 _atom_site_symmetry_multiplicity
 _atom_site_fract_x
 _atom_site_fract_y
 _atom_site_fract_z
 _atom_site_occupancy
  Tc  Tc0  1  0.250000  0.507605  0.700734  1
  Tc  Tc1  1  0.750000  0.492395  0.299266  1
  P  P2  1  0.250000  0.690949  0.056875  1
  P  P3  1  0.750000  0.309051  0.943125  1
  P  P4  1  0.250000  0.193002  0.439718  1
  P  P5  1  0.750000  0.806998  0.560282  1
  Ru  Ru6  1  0.250000  0.005977  0.791421  1
  Ru  Ru7  1  0.750000  0.994023  0.208578  1
