# generated using pymatgen
data_Th10Sn4HgBi3
_symmetry_space_group_name_H-M   'P 1'
_cell_length_a   9.71751200
_cell_length_b   9.71750991
_cell_length_c   6.63660800
_cell_angle_alpha   90.00000000
_cell_angle_beta   90.00000000
_cell_angle_gamma   119.99999348
_symmetry_Int_Tables_number   1
_chemical_formula_structural   Th10Sn4HgBi3
_chemical_formula_sum   'Th10 Sn4 Hg1 Bi3'
_cell_volume   542.73384415
_cell_formula_units_Z   1
loop_
 _symmetry_equiv_pos_site_id
 _symmetry_equiv_pos_as_xyz
  1  'x, y, z'
loop_
 _atom_site_type_symbol
 _atom_site_label
 _atom_site_symmetry_multiplicity
 _atom_site_fract_x
 _atom_site_fract_y
 _atom_site_fract_z
 _atom_site_occupancy
  Th  Th0  1  0.000000  0.720216  0.749464  1
  Th  Th1  1  0.279784  0.279784  0.749464  1
  Th  Th2  1  0.333333  0.666667  0.496556  1
  Th  Th3  1  0.666667  0.333333  0.496556  1
  Th  Th4  1  0.720337  0.720337  0.250651  1
  Th  Th5  1  0.720216  0.000000  0.749464  1
  Th  Th6  1  0.000000  0.279663  0.250651  1
  Th  Th7  1  0.279663  0.000000  0.250651  1
  Th  Th8  1  0.333333  0.666667  0.003049  1
  Th  Th9  1  0.666667  0.333333  0.003049  1
  Sn  Sn10  1  0.620884  0.000000  0.249843  1
  Sn  Sn11  1  0.379116  0.379116  0.249843  1
  Sn  Sn12  1  0.000000  0.620884  0.249843  1
  Sn  Sn13  1  0.000000  0.000000  0.500045  1
  Hg  Hg14  1  0.000000  0.000000  0.000830  1
  Bi  Bi15  1  0.620656  0.620656  0.750013  1
  Bi  Bi16  1  0.000000  0.379344  0.750013  1
  Bi  Bi17  1  0.379344  0.000000  0.750013  1
