# generated using pymatgen
data_Er6ScMn14(CoP4)3
_symmetry_space_group_name_H-M   'P 1'
_cell_length_a   3.66346100
_cell_length_b   10.88018500
_cell_length_c   12.63372700
_cell_angle_alpha   90.00000000
_cell_angle_beta   90.00000000
_cell_angle_gamma   90.00000000
_symmetry_Int_Tables_number   1
_chemical_formula_structural   Er6ScMn14(CoP4)3
_chemical_formula_sum   'Er6 Sc1 Mn14 Co3 P12'
_cell_volume   503.56941009
_cell_formula_units_Z   1
loop_
 _symmetry_equiv_pos_site_id
 _symmetry_equiv_pos_as_xyz
  1  'x, y, z'
loop_
 _atom_site_type_symbol
 _atom_site_label
 _atom_site_symmetry_multiplicity
 _atom_site_fract_x
 _atom_site_fract_y
 _atom_site_fract_z
 _atom_site_occupancy
  Er  Er0  1  0.750000  0.250000  0.462945  1
  Er  Er1  1  0.250000  0.750000  0.532033  1
  Er  Er2  1  0.250000  0.924464  0.792575  1
  Er  Er3  1  0.250000  0.575536  0.792575  1
  Er  Er4  1  0.750000  0.073823  0.205034  1
  Er  Er5  1  0.750000  0.426177  0.205034  1
  Sc  Sc6  1  0.250000  0.250000  0.839132  1
  Mn  Mn7  1  0.750000  0.750000  0.168067  1
  Mn  Mn8  1  0.250000  0.750000  0.994113  1
  Mn  Mn9  1  0.250000  0.424183  0.007569  1
  Mn  Mn10  1  0.250000  0.075817  0.007569  1
  Mn  Mn11  1  0.750000  0.587717  0.000709  1
  Mn  Mn12  1  0.750000  0.912283  0.000709  1
  Mn  Mn13  1  0.250000  0.454990  0.563960  1
  Mn  Mn14  1  0.250000  0.045010  0.563960  1
  Mn  Mn15  1  0.750000  0.547736  0.430754  1
  Mn  Mn16  1  0.750000  0.952264  0.430754  1
  Mn  Mn17  1  0.250000  0.867462  0.298975  1
  Mn  Mn18  1  0.250000  0.632538  0.298975  1
  Mn  Mn19  1  0.750000  0.127932  0.695893  1
  Mn  Mn20  1  0.750000  0.372068  0.695893  1
  Co  Co21  1  0.250000  0.250000  0.291330  1
  Co  Co22  1  0.750000  0.750000  0.706177  1
  Co  Co23  1  0.750000  0.250000  0.012821  1
  P  P24  1  0.250000  0.250000  0.115251  1
  P  P25  1  0.750000  0.750000  0.881388  1
  P  P26  1  0.250000  0.250000  0.631736  1
  P  P27  1  0.750000  0.750000  0.360510  1
  P  P28  1  0.250000  0.432060  0.378472  1
  P  P29  1  0.250000  0.067940  0.378472  1
  P  P30  1  0.750000  0.569968  0.616670  1
  P  P31  1  0.750000  0.930032  0.616670  1
  P  P32  1  0.250000  0.902810  0.119101  1
  P  P33  1  0.250000  0.597190  0.119101  1
  P  P34  1  0.750000  0.087078  0.892537  1
  P  P35  1  0.750000  0.412922  0.892537  1
