# generated using pymatgen
data_Tb3Y13Cd4(IrPd)2
_symmetry_space_group_name_H-M   'P 1'
_cell_length_a   9.68865890
_cell_length_b   9.70138314
_cell_length_c   9.66704000
_cell_angle_alpha   60.11702735
_cell_angle_beta   60.07377862
_cell_angle_gamma   60.44135202
_symmetry_Int_Tables_number   1
_chemical_formula_structural   Tb3Y13Cd4(IrPd)2
_chemical_formula_sum   'Tb3 Y13 Cd4 Ir2 Pd2'
_cell_volume   645.55368012
_cell_formula_units_Z   1
loop_
 _symmetry_equiv_pos_site_id
 _symmetry_equiv_pos_as_xyz
  1  'x, y, z'
loop_
 _atom_site_type_symbol
 _atom_site_label
 _atom_site_symmetry_multiplicity
 _atom_site_fract_x
 _atom_site_fract_y
 _atom_site_fract_z
 _atom_site_occupancy
  Tb  Tb0  1  0.351855  0.351650  0.345282  1
  Tb  Tb1  1  0.351855  0.351650  0.951215  1
  Tb  Tb2  1  0.359319  0.939899  0.350391  1
  Y  Y3  1  0.938566  0.359701  0.350866  1
  Y  Y4  1  0.805607  0.190438  0.189884  1
  Y  Y5  1  0.190374  0.805969  0.813728  1
  Y  Y6  1  0.190374  0.805969  0.189929  1
  Y  Y7  1  0.805607  0.190438  0.814070  1
  Y  Y8  1  0.191176  0.191303  0.808761  1
  Y  Y9  1  0.811189  0.811372  0.188720  1
  Y  Y10  1  0.938018  0.565576  0.561399  1
  Y  Y11  1  0.565369  0.937945  0.935402  1
  Y  Y12  1  0.565369  0.937945  0.561284  1
  Y  Y13  1  0.938018  0.565576  0.935008  1
  Y  Y14  1  0.563401  0.563658  0.936470  1
  Y  Y15  1  0.937290  0.936765  0.562972  1
  Cd  Cd16  1  0.581406  0.580964  0.582560  1
  Cd  Cd17  1  0.581406  0.580964  0.255070  1
  Cd  Cd18  1  0.580556  0.255491  0.581977  1
  Cd  Cd19  1  0.255672  0.580161  0.582084  1
  Ir  Ir20  1  0.141182  0.571349  0.143735  1
  Ir  Ir21  1  0.570896  0.140781  0.144162  1
  Pd  Pd22  1  0.142747  0.142218  0.146657  1
  Pd  Pd23  1  0.142747  0.142218  0.568377  1
