# generated using pymatgen
data_Zn6ReAsN8
_symmetry_space_group_name_H-M   'P 1'
_cell_length_a   6.52201700
_cell_length_b   5.64351822
_cell_length_c   5.35105405
_cell_angle_alpha   89.87761821
_cell_angle_beta   90.00000000
_cell_angle_gamma   90.00000000
_symmetry_Int_Tables_number   1
_chemical_formula_structural   Zn6ReAsN8
_chemical_formula_sum   'Zn6 Re1 As1 N8'
_cell_volume   196.95644873
_cell_formula_units_Z   1
loop_
 _symmetry_equiv_pos_site_id
 _symmetry_equiv_pos_as_xyz
  1  'x, y, z'
loop_
 _atom_site_type_symbol
 _atom_site_label
 _atom_site_symmetry_multiplicity
 _atom_site_fract_x
 _atom_site_fract_y
 _atom_site_fract_z
 _atom_site_occupancy
  Zn  Zn0  1  0.239541  0.826874  0.736514  1
  Zn  Zn1  1  0.236671  0.164375  0.226656  1
  Zn  Zn2  1  0.760459  0.826874  0.736514  1
  Zn  Zn3  1  0.763329  0.164375  0.226656  1
  Zn  Zn4  1  0.000000  0.351693  0.735427  1
  Zn  Zn5  1  0.500000  0.676466  0.226352  1
  Re  Re6  1  0.500000  0.326726  0.729413  1
  As  As7  1  0.000000  0.669673  0.230391  1
  N  N8  1  0.768650  0.823547  0.115080  1
  N  N9  1  0.732643  0.174911  0.614316  1
  N  N10  1  0.231350  0.823547  0.115080  1
  N  N11  1  0.267357  0.174911  0.614316  1
  N  N12  1  0.000000  0.364873  0.113379  1
  N  N13  1  0.500000  0.635176  0.617184  1
  N  N14  1  0.000000  0.672120  0.570173  1
  N  N15  1  0.500000  0.323860  0.071067  1
