# generated using pymatgen
data_PrBPd3Pt
_symmetry_space_group_name_H-M   'P 1'
_cell_length_a   5.50606825
_cell_length_b   5.50606757
_cell_length_c   7.67801800
_cell_angle_alpha   90.00000000
_cell_angle_beta   90.00000000
_cell_angle_gamma   119.92275269
_symmetry_Int_Tables_number   1
_chemical_formula_structural   PrBPd3Pt
_chemical_formula_sum   'Pr2 B2 Pd6 Pt2'
_cell_volume   201.74389962
_cell_formula_units_Z   2
loop_
 _symmetry_equiv_pos_site_id
 _symmetry_equiv_pos_as_xyz
  1  'x, y, z'
loop_
 _atom_site_type_symbol
 _atom_site_label
 _atom_site_symmetry_multiplicity
 _atom_site_fract_x
 _atom_site_fract_y
 _atom_site_fract_z
 _atom_site_occupancy
  Pr  Pr0  1  0.000000  0.000000  0.500000  1
  Pr  Pr1  1  0.000000  0.000000  0.000000  1
  B  B2  1  0.669578  0.330422  0.500000  1
  B  B3  1  0.330422  0.669578  0.500000  1
  Pd  Pd4  1  0.667127  0.332873  0.000000  1
  Pd  Pd5  1  0.500000  0.500000  0.304005  1
  Pd  Pd6  1  0.500000  0.000000  0.299297  1
  Pd  Pd7  1  0.500000  0.500000  0.695995  1
  Pd  Pd8  1  0.000000  0.500000  0.700703  1
  Pd  Pd9  1  0.332873  0.667127  0.000000  1
  Pt  Pt10  1  0.500000  0.000000  0.694601  1
  Pt  Pt11  1  0.000000  0.500000  0.305399  1
