# generated using pymatgen
data_Nd2Dy4TcSb2
_symmetry_space_group_name_H-M   'P 1'
_cell_length_a   8.27722357
_cell_length_b   8.32577915
_cell_length_c   4.30791800
_cell_angle_alpha   90.00000000
_cell_angle_beta   90.00000000
_cell_angle_gamma   120.19424485
_symmetry_Int_Tables_number   1
_chemical_formula_structural   Nd2Dy4TcSb2
_chemical_formula_sum   'Nd2 Dy4 Tc1 Sb2'
_cell_volume   256.59857347
_cell_formula_units_Z   1
loop_
 _symmetry_equiv_pos_site_id
 _symmetry_equiv_pos_as_xyz
  1  'x, y, z'
loop_
 _atom_site_type_symbol
 _atom_site_label
 _atom_site_symmetry_multiplicity
 _atom_site_fract_x
 _atom_site_fract_y
 _atom_site_fract_z
 _atom_site_occupancy
  Nd  Nd0  1  0.599776  0.001638  0.500000  1
  Nd  Nd1  1  0.400224  0.401861  0.500000  1
  Dy  Dy2  1  0.235013  0.999562  0.000000  1
  Dy  Dy3  1  0.764987  0.764549  0.000000  1
  Dy  Dy4  1  0.000000  0.231137  0.000000  1
  Dy  Dy5  1  0.000000  0.603026  0.500000  1
  Tc  Tc6  1  0.000000  0.993339  0.500000  1
  Sb  Sb7  1  0.326289  0.665588  0.000000  1
  Sb  Sb8  1  0.673711  0.339298  0.000000  1
