# generated using pymatgen
data_Li12Pr12SiW7O48
_symmetry_space_group_name_H-M   'P 1'
_cell_length_a   10.93374356
_cell_length_b   10.97900189
_cell_length_c   10.97900265
_cell_angle_alpha   109.55457194
_cell_angle_beta   109.38774208
_cell_angle_gamma   109.38773722
_symmetry_Int_Tables_number   1
_chemical_formula_structural   Li12Pr12SiW7O48
_chemical_formula_sum   'Li12 Pr12 Si1 W7 O48'
_cell_volume   1015.59171240
_cell_formula_units_Z   1
loop_
 _symmetry_equiv_pos_site_id
 _symmetry_equiv_pos_as_xyz
  1  'x, y, z'
loop_
 _atom_site_type_symbol
 _atom_site_label
 _atom_site_symmetry_multiplicity
 _atom_site_fract_x
 _atom_site_fract_y
 _atom_site_fract_z
 _atom_site_occupancy
  Li  Li0  1  0.245650  0.869372  0.123534  1
  Li  Li1  1  0.375181  0.250705  0.124594  1
  Li  Li2  1  0.122117  0.376467  0.245838  1
  Li  Li3  1  0.624477  0.873890  0.249296  1
  Li  Li4  1  0.123722  0.745837  0.369372  1
  Li  Li5  1  0.749414  0.624595  0.373890  1
  Li  Li6  1  0.250587  0.375406  0.626111  1
  Li  Li7  1  0.876279  0.254163  0.630629  1
  Li  Li8  1  0.375524  0.126111  0.750705  1
  Li  Li9  1  0.877884  0.623534  0.754163  1
  Li  Li10  1  0.624818  0.749295  0.875406  1
  Li  Li11  1  0.754349  0.130628  0.876466  1
  Pr  Pr12  1  0.754602  0.376157  0.125670  1
  Pr  Pr13  1  0.878445  0.749513  0.123842  1
  Pr  Pr14  1  0.371068  0.625671  0.249513  1
  Pr  Pr15  1  0.875619  0.124513  0.250654  1
  Pr  Pr16  1  0.251106  0.126141  0.375487  1
  Pr  Pr17  1  0.624965  0.249346  0.373859  1
  Pr  Pr18  1  0.748894  0.873859  0.624513  1
  Pr  Pr19  1  0.375036  0.750654  0.626142  1
  Pr  Pr20  1  0.124381  0.875486  0.749346  1
  Pr  Pr21  1  0.628933  0.374329  0.750488  1
  Pr  Pr22  1  0.245398  0.623842  0.874329  1
  Pr  Pr23  1  0.121555  0.250488  0.876159  1
  Si  Si24  1  0.000000  0.500000  0.000000  1
  W  W25  1  0.000000  0.000000  0.000000  1
  W  W26  1  0.499999  0.000000  0.000000  1
  W  W27  1  0.499999  0.499999  0.000000  1
  W  W28  1  0.000000  0.000000  0.500000  1
  W  W29  1  0.499999  0.000000  0.500000  1
  W  W30  1  0.000000  0.500001  0.500001  1
  W  W31  1  0.500001  0.500001  0.500001  1
  O  O32  1  0.828324  0.907483  0.023246  1
  O  O33  1  0.694882  0.115860  0.021864  1
  O  O34  1  0.179004  0.657942  0.072316  1
  O  O35  1  0.383894  0.407928  0.079250  1
  O  O36  1  0.475965  0.671321  0.092071  1
  O  O37  1  0.106688  0.427684  0.085625  1
  O  O38  1  0.521537  0.193411  0.114338  1
  O  O39  1  0.093485  0.921784  0.115433  1
  O  O40  1  0.978938  0.585626  0.157941  1
  O  O41  1  0.695356  0.579251  0.171323  1
  O  O42  1  0.079427  0.172995  0.193111  1
  O  O43  1  0.615541  0.022839  0.194402  1
  O  O44  1  0.828126  0.920929  0.306588  1
  O  O45  1  0.978052  0.384567  0.306351  1
  O  O46  1  0.406433  0.020117  0.327005  1
  O  O47  1  0.421139  0.305598  0.328436  1
  O  O48  1  0.079023  0.906005  0.384141  1
  O  O49  1  0.805078  0.476753  0.384237  1
  O  O50  1  0.326980  0.521864  0.406002  1
  O  O51  1  0.579158  0.884237  0.407483  1
  O  O52  1  0.592801  0.614340  0.420928  1
  O  O53  1  0.328299  0.806352  0.421784  1
  O  O54  1  0.092701  0.171563  0.477161  1
  O  O55  1  0.886315  0.306887  0.479882  1
  O  O56  1  0.113685  0.693112  0.520118  1
  O  O57  1  0.907298  0.828437  0.522839  1
  O  O58  1  0.407198  0.385660  0.579072  1
  O  O59  1  0.671701  0.193649  0.578217  1
  O  O60  1  0.673018  0.478137  0.593996  1
  O  O61  1  0.420841  0.115763  0.592516  1
  O  O62  1  0.194922  0.523247  0.615763  1
  O  O63  1  0.920978  0.093997  0.615860  1
  O  O64  1  0.578861  0.694402  0.671563  1
  O  O65  1  0.593568  0.979882  0.672995  1
  O  O66  1  0.171874  0.079071  0.693411  1
  O  O67  1  0.021948  0.615432  0.693650  1
  O  O68  1  0.384458  0.977161  0.805597  1
  O  O69  1  0.920573  0.827005  0.806888  1
  O  O70  1  0.304645  0.420750  0.828678  1
  O  O71  1  0.021064  0.414375  0.842059  1
  O  O72  1  0.478462  0.806587  0.885660  1
  O  O73  1  0.906515  0.078217  0.884568  1
  O  O74  1  0.524034  0.328678  0.907928  1
  O  O75  1  0.893312  0.572317  0.914375  1
  O  O76  1  0.616107  0.592073  0.920749  1
  O  O77  1  0.820995  0.342058  0.927683  1
  O  O78  1  0.305118  0.884141  0.978135  1
  O  O79  1  0.171674  0.092516  0.976753  1
