# generated using pymatgen
data_Mo2Os3RuRh2
_symmetry_space_group_name_H-M   'P 1'
_cell_length_a   5.53506939
_cell_length_b   5.54539648
_cell_length_c   4.37903000
_cell_angle_alpha   90.00000000
_cell_angle_beta   90.00000000
_cell_angle_gamma   120.09869610
_symmetry_Int_Tables_number   1
_chemical_formula_structural   Mo2Os3RuRh2
_chemical_formula_sum   'Mo2 Os3 Ru1 Rh2'
_cell_volume   116.28707495
_cell_formula_units_Z   1
loop_
 _symmetry_equiv_pos_site_id
 _symmetry_equiv_pos_as_xyz
  1  'x, y, z'
loop_
 _atom_site_type_symbol
 _atom_site_label
 _atom_site_symmetry_multiplicity
 _atom_site_fract_x
 _atom_site_fract_y
 _atom_site_fract_z
 _atom_site_occupancy
  Mo  Mo0  1  0.668200  0.331438  0.250000  1
  Mo  Mo1  1  0.331772  0.666656  0.750000  1
  Os  Os2  1  0.831773  0.165215  0.750000  1
  Os  Os3  1  0.333497  0.159936  0.750000  1
  Os  Os4  1  0.168339  0.834559  0.250000  1
  Ru  Ru5  1  0.161715  0.335392  0.250000  1
  Rh  Rh6  1  0.833920  0.669805  0.750000  1
  Rh  Rh7  1  0.670783  0.837002  0.250000  1
