# generated using pymatgen
data_Cs2FeMo(SeS)2
_symmetry_space_group_name_H-M   'P 1'
_cell_length_a   7.76974497
_cell_length_b   7.76974536
_cell_length_c   7.76974424
_cell_angle_alpha   137.39885203
_cell_angle_beta   122.24809052
_cell_angle_gamma   74.35537529
_symmetry_Int_Tables_number   1
_chemical_formula_structural   Cs2FeMo(SeS)2
_chemical_formula_sum   'Cs2 Fe1 Mo1 Se2 S2'
_cell_volume   262.24038166
_cell_formula_units_Z   1
loop_
 _symmetry_equiv_pos_site_id
 _symmetry_equiv_pos_as_xyz
  1  'x, y, z'
loop_
 _atom_site_type_symbol
 _atom_site_label
 _atom_site_symmetry_multiplicity
 _atom_site_fract_x
 _atom_site_fract_y
 _atom_site_fract_z
 _atom_site_occupancy
  Cs  Cs0  1  0.322238  0.820651  0.498413  1
  Cs  Cs1  1  0.677762  0.176175  0.498413  1
  Fe  Fe2  1  0.000000  0.245112  0.245112  1
  Mo  Mo3  1  0.000000  0.754205  0.754205  1
  Se  Se4  1  0.256538  0.496671  0.753209  1
  Se  Se5  1  0.743462  0.496671  0.240133  1
  S  S6  1  0.144310  0.149567  0.005257  1
  S  S7  1  0.855690  0.860947  0.005257  1
