# generated using pymatgen
data_HfZr3W8
_symmetry_space_group_name_H-M   'P 1'
_cell_length_a   9.39665195
_cell_length_b   9.39665201
_cell_length_c   9.39665303
_cell_angle_alpha   33.44705296
_cell_angle_beta   33.44705534
_cell_angle_gamma   33.44705516
_symmetry_Int_Tables_number   1
_chemical_formula_structural   HfZr3W8
_chemical_formula_sum   'Hf1 Zr3 W8'
_cell_volume   224.46513838
_cell_formula_units_Z   1
loop_
 _symmetry_equiv_pos_site_id
 _symmetry_equiv_pos_as_xyz
  1  'x, y, z'
loop_
 _atom_site_type_symbol
 _atom_site_label
 _atom_site_symmetry_multiplicity
 _atom_site_fract_x
 _atom_site_fract_y
 _atom_site_fract_z
 _atom_site_occupancy
  Hf  Hf0  1  0.124931  0.124931  0.124931  1
  Zr  Zr1  1  0.625018  0.625018  0.625018  1
  Zr  Zr2  1  0.000344  0.000344  0.000344  1
  Zr  Zr3  1  0.499791  0.499791  0.499791  1
  W  W4  1  0.562526  0.063172  0.562526  1
  W  W5  1  0.062484  0.561745  0.062484  1
  W  W6  1  0.063172  0.562526  0.562526  1
  W  W7  1  0.561745  0.062484  0.062484  1
  W  W8  1  0.812527  0.812527  0.812527  1
  W  W9  1  0.312449  0.312449  0.312449  1
  W  W10  1  0.562526  0.562526  0.063172  1
  W  W11  1  0.062484  0.062484  0.561745  1
