# generated using pymatgen
data_Tm6Al24Tc2(IrRh)3
_symmetry_space_group_name_H-M   'P 1'
_cell_length_a   8.78860200
_cell_length_b   8.78860198
_cell_length_c   9.48345700
_cell_angle_alpha   90.00000000
_cell_angle_beta   90.00000000
_cell_angle_gamma   120.00000759
_symmetry_Int_Tables_number   1
_chemical_formula_structural   Tm6Al24Tc2(IrRh)3
_chemical_formula_sum   'Tm6 Al24 Tc2 Ir3 Rh3'
_cell_volume   634.36157986
_cell_formula_units_Z   1
loop_
 _symmetry_equiv_pos_site_id
 _symmetry_equiv_pos_as_xyz
  1  'x, y, z'
loop_
 _atom_site_type_symbol
 _atom_site_label
 _atom_site_symmetry_multiplicity
 _atom_site_fract_x
 _atom_site_fract_y
 _atom_site_fract_z
 _atom_site_occupancy
  Tm  Tm0  1  0.807041  0.192959  0.751382  1
  Tm  Tm1  1  0.192959  0.807041  0.248618  1
  Tm  Tm2  1  0.385919  0.192959  0.751382  1
  Tm  Tm3  1  0.614081  0.807041  0.248618  1
  Tm  Tm4  1  0.807041  0.614081  0.751382  1
  Tm  Tm5  1  0.192959  0.385919  0.248618  1
  Al  Al6  1  0.666667  0.333333  0.971074  1
  Al  Al7  1  0.333333  0.666667  0.028926  1
  Al  Al8  1  0.333333  0.666667  0.470089  1
  Al  Al9  1  0.666667  0.333333  0.529911  1
  Al  Al10  1  0.836648  0.163352  0.421908  1
  Al  Al11  1  0.163352  0.836648  0.578092  1
  Al  Al12  1  0.326704  0.163352  0.421908  1
  Al  Al13  1  0.163412  0.836588  0.922286  1
  Al  Al14  1  0.673296  0.836648  0.578092  1
  Al  Al15  1  0.836588  0.163412  0.077714  1
  Al  Al16  1  0.836648  0.673296  0.421908  1
  Al  Al17  1  0.673177  0.836588  0.922286  1
  Al  Al18  1  0.163352  0.326704  0.578092  1
  Al  Al19  1  0.326823  0.163412  0.077714  1
  Al  Al20  1  0.163412  0.326823  0.922286  1
  Al  Al21  1  0.836588  0.673177  0.077714  1
  Al  Al22  1  0.437231  0.562769  0.749322  1
  Al  Al23  1  0.562769  0.437231  0.250678  1
  Al  Al24  1  0.125538  0.562769  0.749322  1
  Al  Al25  1  0.874462  0.437231  0.250678  1
  Al  Al26  1  0.437231  0.874462  0.749322  1
  Al  Al27  1  0.562769  0.125538  0.250678  1
  Al  Al28  1  0.000000  0.000000  0.750201  1
  Al  Al29  1  0.000000  0.000000  0.249799  1
  Tc  Tc30  1  0.000000  0.000000  0.000000  1
  Tc  Tc31  1  0.000000  0.000000  0.500000  1
  Ir  Ir32  1  0.500000  0.500000  0.000000  1
  Ir  Ir33  1  0.000000  0.500000  0.000000  1
  Ir  Ir34  1  0.500000  0.000000  0.000000  1
  Rh  Rh35  1  0.500000  0.500000  0.500000  1
  Rh  Rh36  1  0.000000  0.500000  0.500000  1
  Rh  Rh37  1  0.500000  0.000000  0.500000  1
