# generated using pymatgen
data_KBa4(IrN)3
_symmetry_space_group_name_H-M   'P 1'
_cell_length_a   9.10402115
_cell_length_b   9.24811789
_cell_length_c   3.80968300
_cell_angle_alpha   90.00000000
_cell_angle_beta   90.00000000
_cell_angle_gamma   120.52497658
_symmetry_Int_Tables_number   1
_chemical_formula_structural   KBa4(IrN)3
_chemical_formula_sum   'K1 Ba4 Ir3 N3'
_cell_volume   276.30215407
_cell_formula_units_Z   1
loop_
 _symmetry_equiv_pos_site_id
 _symmetry_equiv_pos_as_xyz
  1  'x, y, z'
loop_
 _atom_site_type_symbol
 _atom_site_label
 _atom_site_symmetry_multiplicity
 _atom_site_fract_x
 _atom_site_fract_y
 _atom_site_fract_z
 _atom_site_occupancy
  K  K0  1  0.000000  0.805740  0.500000  1
  Ba  Ba1  1  0.718050  0.983740  0.500000  1
  Ba  Ba2  1  0.281951  0.265691  0.500000  1
  Ba  Ba3  1  0.705803  0.364069  0.500000  1
  Ba  Ba4  1  0.294197  0.658265  0.500000  1
  Ir  Ir5  1  0.404816  0.020003  0.000000  1
  Ir  Ir6  1  0.000000  0.325968  0.000000  1
  Ir  Ir7  1  0.595184  0.615187  0.000000  1
  N  N8  1  0.403606  0.019268  0.500000  1
  N  N9  1  0.000000  0.326408  0.500000  1
  N  N10  1  0.596395  0.615662  0.500000  1
