# generated using pymatgen
data_Eu3MnTl3MoO14
_symmetry_space_group_name_H-M   'P 1'
_cell_length_a   6.60208359
_cell_length_b   6.46584471
_cell_length_c   7.57548157
_cell_angle_alpha   89.77374119
_cell_angle_beta   90.23468560
_cell_angle_gamma   111.99000328
_symmetry_Int_Tables_number   1
_chemical_formula_structural   Eu3MnTl3MoO14
_chemical_formula_sum   'Eu3 Mn1 Tl3 Mo1 O14'
_cell_volume   299.85264609
_cell_formula_units_Z   1
loop_
 _symmetry_equiv_pos_site_id
 _symmetry_equiv_pos_as_xyz
  1  'x, y, z'
loop_
 _atom_site_type_symbol
 _atom_site_label
 _atom_site_symmetry_multiplicity
 _atom_site_fract_x
 _atom_site_fract_y
 _atom_site_fract_z
 _atom_site_occupancy
  Eu  Eu0  1  0.491159  0.954997  0.754701  1
  Eu  Eu1  1  0.003795  0.003020  0.999712  1
  Eu  Eu2  1  0.998814  0.000952  0.501747  1
  Mn  Mn3  1  0.500832  0.499671  0.998779  1
  Tl  Tl4  1  0.010450  0.508662  0.242495  1
  Tl  Tl5  1  0.983850  0.490161  0.758191  1
  Tl  Tl6  1  0.506069  0.016712  0.238228  1
  Mo  Mo7  1  0.498380  0.496726  0.495834  1
  O  O8  1  0.492812  0.470173  0.250862  1
  O  O9  1  0.503842  0.549265  0.748751  1
  O  O10  1  0.866168  0.146653  0.250842  1
  O  O11  1  0.122021  0.853216  0.750240  1
  O  O12  1  0.145506  0.874181  0.254064  1
  O  O13  1  0.862399  0.128251  0.749338  1
  O  O14  1  0.813624  0.568937  0.002038  1
  O  O15  1  0.187761  0.430953  0.998554  1
  O  O16  1  0.181393  0.435034  0.499779  1
  O  O17  1  0.577457  0.825501  0.478085  1
  O  O18  1  0.815803  0.568712  0.500318  1
  O  O19  1  0.426379  0.181041  0.525425  1
  O  O20  1  0.425476  0.178947  0.983603  1
  O  O21  1  0.586011  0.818236  0.018413  1
