# generated using pymatgen
data_NdThSc3Si7Pt9
_symmetry_space_group_name_H-M   'P 1'
_cell_length_a   10.08812700
_cell_length_b   10.08812703
_cell_length_c   4.04517400
_cell_angle_alpha   90.00000000
_cell_angle_beta   90.00000000
_cell_angle_gamma   120.00000319
_symmetry_Int_Tables_number   1
_chemical_formula_structural   NdThSc3Si7Pt9
_chemical_formula_sum   'Nd1 Th1 Sc3 Si7 Pt9'
_cell_volume   356.52411290
_cell_formula_units_Z   1
loop_
 _symmetry_equiv_pos_site_id
 _symmetry_equiv_pos_as_xyz
  1  'x, y, z'
loop_
 _atom_site_type_symbol
 _atom_site_label
 _atom_site_symmetry_multiplicity
 _atom_site_fract_x
 _atom_site_fract_y
 _atom_site_fract_z
 _atom_site_occupancy
  Nd  Nd0  1  0.000000  0.000000  0.000000  1
  Th  Th1  1  0.333333  0.666667  0.500000  1
  Sc  Sc2  1  0.890470  0.451327  0.500000  1
  Sc  Sc3  1  0.560858  0.109530  0.500000  1
  Sc  Sc4  1  0.548673  0.439142  0.500000  1
  Si  Si5  1  0.247429  0.196600  0.500000  1
  Si  Si6  1  0.803400  0.050831  0.500000  1
  Si  Si7  1  0.949169  0.752571  0.500000  1
  Si  Si8  1  0.562961  0.646114  0.000000  1
  Si  Si9  1  0.353886  0.916845  0.000000  1
  Si  Si10  1  0.083155  0.437039  0.000000  1
  Si  Si11  1  0.666667  0.333333  0.000000  1
  Pt  Pt12  1  0.220382  0.935011  0.500000  1
  Pt  Pt13  1  0.064989  0.285373  0.500000  1
  Pt  Pt14  1  0.714627  0.779618  0.500000  1
  Pt  Pt15  1  0.314135  0.414577  0.000000  1
  Pt  Pt16  1  0.585423  0.899558  0.000000  1
  Pt  Pt17  1  0.100442  0.685865  0.000000  1
  Pt  Pt18  1  0.383381  0.173999  0.000000  1
  Pt  Pt19  1  0.826001  0.209382  0.000000  1
  Pt  Pt20  1  0.790618  0.616619  0.000000  1
