# generated using pymatgen
data_La(PaSe3)2
_symmetry_space_group_name_H-M   'P 1'
_cell_length_a   7.81128400
_cell_length_b   7.81128490
_cell_length_c   4.16901700
_cell_angle_alpha   90.00000000
_cell_angle_beta   90.00000000
_cell_angle_gamma   119.99998771
_symmetry_Int_Tables_number   1
_chemical_formula_structural   La(PaSe3)2
_chemical_formula_sum   'La1 Pa2 Se6'
_cell_volume   220.29734230
_cell_formula_units_Z   1
loop_
 _symmetry_equiv_pos_site_id
 _symmetry_equiv_pos_as_xyz
  1  'x, y, z'
loop_
 _atom_site_type_symbol
 _atom_site_label
 _atom_site_symmetry_multiplicity
 _atom_site_fract_x
 _atom_site_fract_y
 _atom_site_fract_z
 _atom_site_occupancy
  La  La0  1  0.333333  0.666667  0.500000  1
  Pa  Pa1  1  0.666667  0.333333  0.500000  1
  Pa  Pa2  1  0.000000  0.000000  0.000000  1
  Se  Se3  1  0.746501  0.744194  0.500000  1
  Se  Se4  1  0.255806  0.002306  0.500000  1
  Se  Se5  1  0.997694  0.253499  0.500000  1
  Se  Se6  1  0.410280  0.392359  0.000000  1
  Se  Se7  1  0.607641  0.017921  0.000000  1
  Se  Se8  1  0.982079  0.589720  0.000000  1
