# generated using pymatgen
data_Sm5GeTe4
_symmetry_space_group_name_H-M   'P 1'
_cell_length_a   7.66752589
_cell_length_b   7.66752575
_cell_length_c   10.83162300
_cell_angle_alpha   61.82736786
_cell_angle_beta   61.82736843
_cell_angle_gamma   33.40788743
_symmetry_Int_Tables_number   1
_chemical_formula_structural   Sm5GeTe4
_chemical_formula_sum   'Sm5 Ge1 Te4'
_cell_volume   305.06366267
_cell_formula_units_Z   1
loop_
 _symmetry_equiv_pos_site_id
 _symmetry_equiv_pos_as_xyz
  1  'x, y, z'
loop_
 _atom_site_type_symbol
 _atom_site_label
 _atom_site_symmetry_multiplicity
 _atom_site_fract_x
 _atom_site_fract_y
 _atom_site_fract_z
 _atom_site_occupancy
  Sm  Sm0  1  0.000000  0.000000  0.500000  1
  Sm  Sm1  1  0.587630  0.587630  0.089802  1
  Sm  Sm2  1  0.185710  0.185710  0.726129  1
  Sm  Sm3  1  0.814290  0.814290  0.273871  1
  Sm  Sm4  1  0.412370  0.412370  0.910198  1
  Ge  Ge5  1  0.000000  0.000000  0.000000  1
  Te  Te6  1  0.606419  0.606419  0.591271  1
  Te  Te7  1  0.196108  0.196108  0.196593  1
  Te  Te8  1  0.803892  0.803892  0.803407  1
  Te  Te9  1  0.393581  0.393581  0.408729  1
