# generated using pymatgen
data_Er6Sc4Tl5Bi
_symmetry_space_group_name_H-M   'P 1'
_cell_length_a   8.86090000
_cell_length_b   8.86000028
_cell_length_c   6.30664200
_cell_angle_alpha   90.00000000
_cell_angle_beta   90.00000000
_cell_angle_gamma   120.00336672
_symmetry_Int_Tables_number   1
_chemical_formula_structural   Er6Sc4Tl5Bi
_chemical_formula_sum   'Er6 Sc4 Tl5 Bi1'
_cell_volume   428.77123971
_cell_formula_units_Z   1
loop_
 _symmetry_equiv_pos_site_id
 _symmetry_equiv_pos_as_xyz
  1  'x, y, z'
loop_
 _atom_site_type_symbol
 _atom_site_label
 _atom_site_symmetry_multiplicity
 _atom_site_fract_x
 _atom_site_fract_y
 _atom_site_fract_z
 _atom_site_occupancy
  Er  Er0  1  0.232686  0.000000  0.250000  1
  Er  Er1  1  0.237219  0.236245  0.750000  1
  Er  Er2  1  0.000973  0.763755  0.750000  1
  Er  Er3  1  0.005689  0.242003  0.250000  1
  Er  Er4  1  0.763687  0.757997  0.250000  1
  Er  Er5  1  0.762743  0.000000  0.750000  1
  Sc  Sc6  1  0.331326  0.664744  0.996202  1
  Sc  Sc7  1  0.666584  0.335256  0.503798  1
  Sc  Sc8  1  0.666584  0.335256  0.996202  1
  Sc  Sc9  1  0.331326  0.664744  0.503798  1
  Tl  Tl10  1  0.594874  0.597285  0.750000  1
  Tl  Tl11  1  0.997589  0.402715  0.750000  1
  Tl  Tl12  1  0.001180  0.594771  0.250000  1
  Tl  Tl13  1  0.406410  0.405229  0.250000  1
  Tl  Tl14  1  0.399310  0.000000  0.750000  1
  Bi  Bi15  1  0.601820  0.000000  0.250000  1
