# generated using pymatgen
data_Sc4CuSi6(Ir2Rh)2
_symmetry_space_group_name_H-M   'P 1'
_cell_length_a   6.95720221
_cell_length_b   6.95720253
_cell_length_c   6.96296209
_cell_angle_alpha   109.46787107
_cell_angle_beta   109.46786529
_cell_angle_gamma   109.56051517
_symmetry_Int_Tables_number   1
_chemical_formula_structural   Sc4CuSi6(Ir2Rh)2
_chemical_formula_sum   'Sc4 Cu1 Si6 Ir4 Rh2'
_cell_volume   259.17772660
_cell_formula_units_Z   1
loop_
 _symmetry_equiv_pos_site_id
 _symmetry_equiv_pos_as_xyz
  1  'x, y, z'
loop_
 _atom_site_type_symbol
 _atom_site_label
 _atom_site_symmetry_multiplicity
 _atom_site_fract_x
 _atom_site_fract_y
 _atom_site_fract_z
 _atom_site_occupancy
  Sc  Sc0  1  0.001922  0.998078  0.500000  1
  Sc  Sc1  1  0.002314  0.502137  0.004286  1
  Sc  Sc2  1  0.497863  0.997686  0.995714  1
  Sc  Sc3  1  0.497716  0.502284  0.500000  1
  Cu  Cu4  1  0.749953  0.250047  0.500000  1
  Si  Si5  1  0.681639  0.681926  0.999698  1
  Si  Si6  1  0.314330  0.997955  0.316790  1
  Si  Si7  1  0.002325  0.318880  0.316270  1
  Si  Si8  1  0.318074  0.318361  0.000302  1
  Si  Si9  1  0.681120  0.997675  0.683730  1
  Si  Si10  1  0.002045  0.685670  0.683210  1
  Ir  Ir11  1  0.241398  0.493435  0.746898  1
  Ir  Ir12  1  0.249833  0.750167  0.500000  1
  Ir  Ir13  1  0.506565  0.758602  0.253102  1
  Ir  Ir14  1  0.999909  0.000091  0.000000  1
  Rh  Rh15  1  0.746451  0.493457  0.252255  1
  Rh  Rh16  1  0.506543  0.253549  0.747745  1
