# generated using pymatgen
data_Co3Cu2SiS8
_symmetry_space_group_name_H-M   'P 1'
_cell_length_a   6.69345950
_cell_length_b   6.69345891
_cell_length_c   6.69345914
_cell_angle_alpha   60.75464607
_cell_angle_beta   60.75464867
_cell_angle_gamma   60.75464923
_symmetry_Int_Tables_number   1
_chemical_formula_structural   Co3Cu2SiS8
_chemical_formula_sum   'Co3 Cu2 Si1 S8'
_cell_volume   215.65973575
_cell_formula_units_Z   1
loop_
 _symmetry_equiv_pos_site_id
 _symmetry_equiv_pos_as_xyz
  1  'x, y, z'
loop_
 _atom_site_type_symbol
 _atom_site_label
 _atom_site_symmetry_multiplicity
 _atom_site_fract_x
 _atom_site_fract_y
 _atom_site_fract_z
 _atom_site_occupancy
  Co  Co0  1  0.125000  0.625000  0.125000  1
  Co  Co1  1  0.125000  0.125000  0.625000  1
  Co  Co2  1  0.625000  0.125000  0.125000  1
  Cu  Cu3  1  0.750860  0.750860  0.750860  1
  Cu  Cu4  1  0.499140  0.499140  0.499140  1
  Si  Si5  1  0.125000  0.125000  0.125000  1
  S  S6  1  0.884281  0.339545  0.884281  1
  S  S7  1  0.365719  0.365719  0.910455  1
  S  S8  1  0.361400  0.361400  0.361400  1
  S  S9  1  0.910455  0.365719  0.365719  1
  S  S10  1  0.888600  0.888600  0.888600  1
  S  S11  1  0.339545  0.884281  0.884281  1
  S  S12  1  0.365719  0.910455  0.365719  1
  S  S13  1  0.884281  0.884281  0.339545  1
