# generated using pymatgen
data_ThCu4SnPd
_symmetry_space_group_name_H-M   'P 1'
_cell_length_a   5.11576100
_cell_length_b   8.41815400
_cell_length_c   10.88333200
_cell_angle_alpha   90.00000000
_cell_angle_beta   90.00000000
_cell_angle_gamma   90.00000000
_symmetry_Int_Tables_number   1
_chemical_formula_structural   ThCu4SnPd
_chemical_formula_sum   'Th4 Cu16 Sn4 Pd4'
_cell_volume   468.69356497
_cell_formula_units_Z   4
loop_
 _symmetry_equiv_pos_site_id
 _symmetry_equiv_pos_as_xyz
  1  'x, y, z'
loop_
 _atom_site_type_symbol
 _atom_site_label
 _atom_site_symmetry_multiplicity
 _atom_site_fract_x
 _atom_site_fract_y
 _atom_site_fract_z
 _atom_site_occupancy
  Th  Th0  1  0.750000  0.248106  0.938305  1
  Th  Th1  1  0.250000  0.751894  0.061695  1
  Th  Th2  1  0.750000  0.748106  0.561695  1
  Th  Th3  1  0.250000  0.251894  0.438305  1
  Cu  Cu4  1  0.997935  0.429298  0.184817  1
  Cu  Cu5  1  0.497935  0.570702  0.815183  1
  Cu  Cu6  1  0.502065  0.929298  0.315183  1
  Cu  Cu7  1  0.002065  0.070702  0.684817  1
  Cu  Cu8  1  0.002065  0.570702  0.815183  1
  Cu  Cu9  1  0.502065  0.429298  0.184817  1
  Cu  Cu10  1  0.497935  0.070702  0.684817  1
  Cu  Cu11  1  0.997935  0.929298  0.315183  1
  Cu  Cu12  1  0.750000  0.178419  0.256078  1
  Cu  Cu13  1  0.250000  0.821581  0.743922  1
  Cu  Cu14  1  0.750000  0.678419  0.243922  1
  Cu  Cu15  1  0.250000  0.321581  0.756078  1
  Cu  Cu16  1  0.750000  0.082432  0.482963  1
  Cu  Cu17  1  0.250000  0.917568  0.517037  1
  Cu  Cu18  1  0.750000  0.582432  0.017037  1
  Cu  Cu19  1  0.250000  0.417568  0.982963  1
  Sn  Sn20  1  0.750000  0.356740  0.648760  1
  Sn  Sn21  1  0.250000  0.643260  0.351240  1
  Sn  Sn22  1  0.750000  0.856740  0.851240  1
  Sn  Sn23  1  0.250000  0.143260  0.148760  1
  Pd  Pd24  1  0.750000  0.435491  0.408705  1
  Pd  Pd25  1  0.250000  0.564509  0.591295  1
  Pd  Pd26  1  0.750000  0.935491  0.091295  1
  Pd  Pd27  1  0.250000  0.064509  0.908705  1
