# generated using pymatgen
data_CeSc6MnI12
_symmetry_space_group_name_H-M   'P 1'
_cell_length_a   9.56261497
_cell_length_b   9.43007264
_cell_length_c   9.59390500
_cell_angle_alpha   107.21100752
_cell_angle_beta   107.59237636
_cell_angle_gamma   108.00715461
_symmetry_Int_Tables_number   1
_chemical_formula_structural   CeSc6MnI12
_chemical_formula_sum   'Ce1 Sc6 Mn1 I12'
_cell_volume   708.27543693
_cell_formula_units_Z   1
loop_
 _symmetry_equiv_pos_site_id
 _symmetry_equiv_pos_as_xyz
  1  'x, y, z'
loop_
 _atom_site_type_symbol
 _atom_site_label
 _atom_site_symmetry_multiplicity
 _atom_site_fract_x
 _atom_site_fract_y
 _atom_site_fract_z
 _atom_site_occupancy
  Ce  Ce0  1  0.907578  0.723064  0.970214  1
  Sc  Sc1  1  0.972498  0.905739  0.709385  1
  Sc  Sc2  1  0.707484  0.969333  0.903846  1
  Sc  Sc3  1  0.087659  0.261708  0.026487  1
  Sc  Sc4  1  0.027748  0.096021  0.290632  1
  Sc  Sc5  1  0.293694  0.027897  0.096069  1
  Sc  Sc6  1  0.502196  0.503941  0.501320  1
  Mn  Mn7  1  0.990735  0.972037  0.997890  1
  I  I8  1  0.787892  0.313610  0.928911  1
  I  I9  1  0.929590  0.789439  0.328332  1
  I  I10  1  0.313185  0.933334  0.783915  1
  I  I11  1  0.245341  0.702182  0.084647  1
  I  I12  1  0.075067  0.226303  0.701435  1
  I  I13  1  0.692440  0.077386  0.217581  1
  I  I14  1  0.518829  0.613452  0.828346  1
  I  I15  1  0.837993  0.538745  0.595450  1
  I  I16  1  0.617746  0.847397  0.545414  1
  I  I17  1  0.451864  0.382798  0.157860  1
  I  I18  1  0.157468  0.454908  0.374740  1
  I  I19  1  0.382996  0.160708  0.457525  1
