# generated using pymatgen
data_Tb10Tm2CoTc3
_symmetry_space_group_name_H-M   'P 1'
_cell_length_a   6.28885076
_cell_length_b   7.31661132
_cell_length_c   9.21982133
_cell_angle_alpha   89.98732183
_cell_angle_beta   89.82101093
_cell_angle_gamma   90.11113491
_symmetry_Int_Tables_number   1
_chemical_formula_structural   Tb10Tm2CoTc3
_chemical_formula_sum   'Tb10 Tm2 Co1 Tc3'
_cell_volume   424.22946695
_cell_formula_units_Z   1
loop_
 _symmetry_equiv_pos_site_id
 _symmetry_equiv_pos_as_xyz
  1  'x, y, z'
loop_
 _atom_site_type_symbol
 _atom_site_label
 _atom_site_symmetry_multiplicity
 _atom_site_fract_x
 _atom_site_fract_y
 _atom_site_fract_z
 _atom_site_occupancy
  Tb  Tb0  1  0.665329  0.325530  0.564584  1
  Tb  Tb1  1  0.832138  0.821001  0.936490  1
  Tb  Tb2  1  0.664399  0.327081  0.935557  1
  Tb  Tb3  1  0.833050  0.822020  0.563366  1
  Tb  Tb4  1  0.330556  0.678076  0.433834  1
  Tb  Tb5  1  0.163627  0.177403  0.063179  1
  Tb  Tb6  1  0.873464  0.541743  0.249884  1
  Tb  Tb7  1  0.624835  0.041281  0.250327  1
  Tb  Tb8  1  0.143184  0.457138  0.750330  1
  Tb  Tb9  1  0.372346  0.951029  0.749917  1
  Tm  Tm10  1  0.331101  0.677716  0.065899  1
  Tm  Tm11  1  0.163093  0.176498  0.437478  1
  Co  Co12  1  0.539332  0.614371  0.751495  1
  Tc  Tc13  1  0.039691  0.887666  0.249217  1
  Tc  Tc14  1  0.458627  0.389184  0.250292  1
  Tc  Tc15  1  0.965231  0.112261  0.748153  1
