# generated using pymatgen
data_Sc2TcNi2P3
_symmetry_space_group_name_H-M   'P 1'
_cell_length_a   3.63243700
_cell_length_b   10.22801900
_cell_length_c   12.58292800
_cell_angle_alpha   90.00000000
_cell_angle_beta   90.00000000
_cell_angle_gamma   90.00000000
_symmetry_Int_Tables_number   1
_chemical_formula_structural   Sc2TcNi2P3
_chemical_formula_sum   'Sc8 Tc4 Ni8 P12'
_cell_volume   467.48892684
_cell_formula_units_Z   4
loop_
 _symmetry_equiv_pos_site_id
 _symmetry_equiv_pos_as_xyz
  1  'x, y, z'
loop_
 _atom_site_type_symbol
 _atom_site_label
 _atom_site_symmetry_multiplicity
 _atom_site_fract_x
 _atom_site_fract_y
 _atom_site_fract_z
 _atom_site_occupancy
  Sc  Sc0  1  0.250000  0.345846  0.995745  1
  Sc  Sc1  1  0.250000  0.154154  0.495745  1
  Sc  Sc2  1  0.750000  0.654154  0.004255  1
  Sc  Sc3  1  0.750000  0.845846  0.504255  1
  Sc  Sc4  1  0.250000  0.429412  0.715346  1
  Sc  Sc5  1  0.250000  0.070588  0.215346  1
  Sc  Sc6  1  0.750000  0.570588  0.284654  1
  Sc  Sc7  1  0.750000  0.929412  0.784654  1
  Tc  Tc8  1  0.250000  0.897828  0.980642  1
  Tc  Tc9  1  0.250000  0.602172  0.480642  1
  Tc  Tc10  1  0.750000  0.102172  0.019358  1
  Tc  Tc11  1  0.750000  0.397828  0.519358  1
  Ni  Ni12  1  0.250000  0.134059  0.713965  1
  Ni  Ni13  1  0.250000  0.365941  0.213965  1
  Ni  Ni14  1  0.750000  0.865941  0.286035  1
  Ni  Ni15  1  0.750000  0.634059  0.786035  1
  Ni  Ni16  1  0.250000  0.768947  0.168684  1
  Ni  Ni17  1  0.250000  0.731053  0.668684  1
  Ni  Ni18  1  0.750000  0.231053  0.831316  1
  Ni  Ni19  1  0.750000  0.268947  0.331316  1
  P  P20  1  0.250000  0.105241  0.891532  1
  P  P21  1  0.250000  0.394759  0.391532  1
  P  P22  1  0.750000  0.894759  0.108468  1
  P  P23  1  0.750000  0.605241  0.608468  1
  P  P24  1  0.250000  0.737890  0.849411  1
  P  P25  1  0.250000  0.762110  0.349411  1
  P  P26  1  0.750000  0.262110  0.150589  1
  P  P27  1  0.750000  0.237890  0.650589  1
  P  P28  1  0.250000  0.554645  0.128451  1
  P  P29  1  0.250000  0.945355  0.628451  1
  P  P30  1  0.750000  0.445355  0.871549  1
  P  P31  1  0.750000  0.054645  0.371549  1
