# generated using pymatgen
data_Sr14PrSb11
_symmetry_space_group_name_H-M   'P 1'
_cell_length_a   17.47725707
_cell_length_b   17.47725751
_cell_length_c   17.47725700
_cell_angle_alpha   93.91138331
_cell_angle_beta   117.76805034
_cell_angle_gamma   117.76804455
_symmetry_Int_Tables_number   1
_chemical_formula_structural   Sr14PrSb11
_chemical_formula_sum   'Sr56 Pr4 Sb44'
_cell_volume   3892.43255551
_cell_formula_units_Z   4
loop_
 _symmetry_equiv_pos_site_id
 _symmetry_equiv_pos_as_xyz
  1  'x, y, z'
loop_
 _atom_site_type_symbol
 _atom_site_label
 _atom_site_symmetry_multiplicity
 _atom_site_fract_x
 _atom_site_fract_y
 _atom_site_fract_z
 _atom_site_occupancy
  Sr  Sr0  1  0.230689  0.979245  0.068595  1
  Sr  Sr1  1  0.730689  0.568595  0.479245  1
  Sr  Sr2  1  0.618166  0.402511  0.871321  1
  Sr  Sr3  1  0.145396  0.750000  0.895396  1
  Sr  Sr4  1  0.354604  0.250000  0.604604  1
  Sr  Sr5  1  0.269311  0.337906  0.748556  1
  Sr  Sr6  1  0.881834  0.628679  0.097489  1
  Sr  Sr7  1  0.910651  0.479245  0.248556  1
  Sr  Sr8  1  0.410651  0.748556  0.979245  1
  Sr  Sr9  1  0.645481  0.109189  0.518172  1
  Sr  Sr10  1  0.408984  0.518172  0.372692  1
  Sr  Sr11  1  0.854519  0.981828  0.390811  1
  Sr  Sr12  1  0.381834  0.597489  0.128679  1
  Sr  Sr13  1  0.730689  0.662094  0.251444  1
  Sr  Sr14  1  0.410651  0.162094  0.431405  1
  Sr  Sr15  1  0.468810  0.097489  0.715654  1
  Sr  Sr16  1  0.645481  0.036293  0.127308  1
  Sr  Sr17  1  0.145481  0.018172  0.609189  1
  Sr  Sr18  1  0.089349  0.520755  0.751444  1
  Sr  Sr19  1  0.354519  0.963707  0.872692  1
  Sr  Sr20  1  0.854604  0.104604  0.750000  1
  Sr  Sr21  1  0.089349  0.068595  0.337906  1
  Sr  Sr22  1  0.968810  0.253155  0.371321  1
  Sr  Sr23  1  0.408984  0.390811  0.036293  1
  Sr  Sr24  1  0.910651  0.931405  0.662094  1
  Sr  Sr25  1  0.230689  0.751444  0.162094  1
  Sr  Sr26  1  0.468810  0.871321  0.753155  1
  Sr  Sr27  1  0.091016  0.127308  0.981828  1
  Sr  Sr28  1  0.269311  0.431405  0.520755  1
  Sr  Sr29  1  0.645396  0.395396  0.250000  1
  Sr  Sr30  1  0.381834  0.284346  0.253155  1
  Sr  Sr31  1  0.031190  0.784346  0.402511  1
  Sr  Sr32  1  0.591016  0.609189  0.963707  1
  Sr  Sr33  1  0.968810  0.215654  0.597489  1
  Sr  Sr34  1  0.091016  0.463707  0.109189  1
  Sr  Sr35  1  0.118166  0.246845  0.215654  1
  Sr  Sr36  1  0.769311  0.248556  0.837906  1
  Sr  Sr37  1  0.145396  0.895396  0.250000  1
  Sr  Sr38  1  0.531190  0.902511  0.284346  1
  Sr  Sr39  1  0.118166  0.371321  0.902511  1
  Sr  Sr40  1  0.908984  0.536293  0.890811  1
  Sr  Sr41  1  0.645396  0.750000  0.395396  1
  Sr  Sr42  1  0.908984  0.872692  0.018172  1
  Sr  Sr43  1  0.854519  0.372692  0.463707  1
  Sr  Sr44  1  0.354604  0.604604  0.750000  1
  Sr  Sr45  1  0.145481  0.627308  0.536293  1
  Sr  Sr46  1  0.589349  0.837906  0.568595  1
  Sr  Sr47  1  0.854604  0.250000  0.104604  1
  Sr  Sr48  1  0.591016  0.481828  0.627308  1
  Sr  Sr49  1  0.031190  0.746845  0.628679  1
  Sr  Sr50  1  0.531190  0.128679  0.246845  1
  Sr  Sr51  1  0.881834  0.753155  0.784346  1
  Sr  Sr52  1  0.589349  0.251444  0.020755  1
  Sr  Sr53  1  0.354519  0.890811  0.481828  1
  Sr  Sr54  1  0.618166  0.715654  0.746845  1
  Sr  Sr55  1  0.769311  0.020755  0.931405  1
  Pr  Pr56  1  0.250000  0.125000  0.875000  1
  Pr  Pr57  1  0.750000  0.375000  0.625000  1
  Pr  Pr58  1  0.750000  0.875000  0.125000  1
  Pr  Pr59  1  0.250000  0.625000  0.375000  1
  Sb  Sb60  1  0.342916  0.521166  0.915936  1
  Sb  Sb61  1  0.887187  0.086246  0.186830  1
  Sb  Sb62  1  0.657084  0.478834  0.084064  1
  Sb  Sb63  1  0.612813  0.313170  0.413754  1
  Sb  Sb64  1  0.105230  0.178250  0.521166  1
  Sb  Sb65  1  0.100585  0.186830  0.799643  1
  Sb  Sb66  1  0.518502  0.509251  0.259251  1
  Sb  Sb67  1  0.105230  0.426979  0.584064  1
  Sb  Sb68  1  0.750000  0.125000  0.375000  1
  Sb  Sb69  1  0.600585  0.299643  0.686830  1
  Sb  Sb70  1  0.399415  0.700357  0.313170  1
  Sb  Sb71  1  0.394770  0.915936  0.073021  1
  Sb  Sb72  1  0.387187  0.200357  0.800941  1
  Sb  Sb73  1  0.894770  0.821750  0.478834  1
  Sb  Sb74  1  0.250000  0.375000  0.125000  1
  Sb  Sb75  1  0.250000  0.740749  0.759251  1
  Sb  Sb76  1  0.112813  0.699059  0.299643  1
  Sb  Sb77  1  0.612813  0.799643  0.199059  1
  Sb  Sb78  1  0.100585  0.413754  0.300941  1
  Sb  Sb79  1  0.605230  0.084064  0.926979  1
  Sb  Sb80  1  0.899415  0.813170  0.200357  1
  Sb  Sb81  1  0.894770  0.573021  0.415936  1
  Sb  Sb82  1  0.250000  0.875000  0.625000  1
  Sb  Sb83  1  0.387187  0.686830  0.586246  1
  Sb  Sb84  1  0.018502  0.759251  0.009251  1
  Sb  Sb85  1  0.600585  0.800941  0.913754  1
  Sb  Sb86  1  0.157084  0.584064  0.978834  1
  Sb  Sb87  1  0.399415  0.199059  0.086246  1
  Sb  Sb88  1  0.842916  0.926979  0.821750  1
  Sb  Sb89  1  0.481498  0.490749  0.740749  1
  Sb  Sb90  1  0.981498  0.240749  0.990749  1
  Sb  Sb91  1  0.394770  0.978834  0.321750  1
  Sb  Sb92  1  0.750000  0.990749  0.509251  1
  Sb  Sb93  1  0.605230  0.021166  0.678250  1
  Sb  Sb94  1  0.112813  0.913754  0.813170  1
  Sb  Sb95  1  0.342916  0.321750  0.426979  1
  Sb  Sb96  1  0.157084  0.073021  0.178250  1
  Sb  Sb97  1  0.750000  0.259251  0.240749  1
  Sb  Sb98  1  0.750000  0.625000  0.875000  1
  Sb  Sb99  1  0.250000  0.009251  0.490749  1
  Sb  Sb100  1  0.899415  0.586246  0.699059  1
  Sb  Sb101  1  0.657084  0.678250  0.573021  1
  Sb  Sb102  1  0.887187  0.300941  0.700357  1
  Sb  Sb103  1  0.842916  0.415936  0.021166  1
