# generated using pymatgen
data_NdSm11(SiCl3)4
_symmetry_space_group_name_H-M   'P 1'
_cell_length_a   10.01424813
_cell_length_b   10.01644303
_cell_length_c   10.02046400
_cell_angle_alpha   109.49472443
_cell_angle_beta   109.48619405
_cell_angle_gamma   109.43270754
_symmetry_Int_Tables_number   1
_chemical_formula_structural   NdSm11(SiCl3)4
_chemical_formula_sum   'Nd1 Sm11 Si4 Cl12'
_cell_volume   773.74507014
_cell_formula_units_Z   1
loop_
 _symmetry_equiv_pos_site_id
 _symmetry_equiv_pos_as_xyz
  1  'x, y, z'
loop_
 _atom_site_type_symbol
 _atom_site_label
 _atom_site_symmetry_multiplicity
 _atom_site_fract_x
 _atom_site_fract_y
 _atom_site_fract_z
 _atom_site_occupancy
  Nd  Nd0  1  0.493077  0.243109  0.486254  1
  Sm  Sm1  1  0.257856  0.007916  0.015768  1
  Sm  Sm2  1  0.014971  0.258233  0.007337  1
  Sm  Sm3  1  0.492240  0.749073  0.007388  1
  Sm  Sm4  1  0.750165  0.242033  0.258023  1
  Sm  Sm5  1  0.007859  0.015912  0.257976  1
  Sm  Sm6  1  0.007883  0.492009  0.749800  1
  Sm  Sm7  1  0.241993  0.257769  0.749796  1
  Sm  Sm8  1  0.257896  0.750109  0.241918  1
  Sm  Sm9  1  0.241594  0.484170  0.491857  1
  Sm  Sm10  1  0.484080  0.491812  0.241985  1
  Sm  Sm11  1  0.750311  0.007802  0.491791  1
  Si  Si12  1  0.000338  0.250291  0.500527  1
  Si  Si13  1  0.249881  0.499822  0.999820  1
  Si  Si14  1  0.499846  0.998098  0.248212  1
  Si  Si15  1  0.248317  0.250164  0.248221  1
  Cl  Cl16  1  0.751221  0.748812  0.250106  1
  Cl  Cl17  1  0.501084  0.249873  0.999046  1
  Cl  Cl18  1  0.247354  0.996068  0.500669  1
  Cl  Cl19  1  0.501985  0.503505  0.753065  1
  Cl  Cl20  1  0.998760  0.997949  0.748948  1
  Cl  Cl21  1  0.748822  0.998703  0.997690  1
  Cl  Cl22  1  0.501127  0.751000  0.501977  1
  Cl  Cl23  1  0.753387  0.504712  0.500884  1
  Cl  Cl24  1  0.998839  0.501360  0.250102  1
  Cl  Cl25  1  0.997826  0.749105  0.998835  1
  Cl  Cl26  1  0.250074  0.750901  0.749076  1
  Cl  Cl27  1  0.751215  0.249690  0.752927  1
