# generated using pymatgen
data_Pr3DyTmSn3
_symmetry_space_group_name_H-M   'P 1'
_cell_length_a   6.70675000
_cell_length_b   9.20002183
_cell_length_c   9.20024100
_cell_angle_alpha   119.99919810
_cell_angle_beta   89.99951791
_cell_angle_gamma   90.00096789
_symmetry_Int_Tables_number   1
_chemical_formula_structural   Pr3DyTmSn3
_chemical_formula_sum   'Pr6 Dy2 Tm2 Sn6'
_cell_volume   491.62540895
_cell_formula_units_Z   2
loop_
 _symmetry_equiv_pos_site_id
 _symmetry_equiv_pos_as_xyz
  1  'x, y, z'
loop_
 _atom_site_type_symbol
 _atom_site_label
 _atom_site_symmetry_multiplicity
 _atom_site_fract_x
 _atom_site_fract_y
 _atom_site_fract_z
 _atom_site_occupancy
  Pr  Pr0  1  0.750235  0.241821  0.000000  1
  Pr  Pr1  1  0.750234  0.758105  0.758132  1
  Pr  Pr2  1  0.750234  0.999971  0.241868  1
  Pr  Pr3  1  0.249765  0.758179  0.000000  1
  Pr  Pr4  1  0.249761  0.241896  0.241867  1
  Pr  Pr5  1  0.249761  0.000030  0.758133  1
  Dy  Dy6  1  0.500001  0.333339  0.666692  1
  Dy  Dy7  1  0.500001  0.666647  0.333308  1
  Tm  Tm8  1  0.000001  0.666666  0.333312  1
  Tm  Tm9  1  0.000001  0.333353  0.666688  1
  Sn  Sn10  1  0.750626  0.600504  0.000000  1
  Sn  Sn11  1  0.750618  0.399443  0.399444  1
  Sn  Sn12  1  0.750618  0.999999  0.600556  1
  Sn  Sn13  1  0.249374  0.399493  0.000000  1
  Sn  Sn14  1  0.249383  0.600555  0.600556  1
  Sn  Sn15  1  0.249383  0.999999  0.399444  1
