# generated using pymatgen
data_Tm4LuBi3S
_symmetry_space_group_name_H-M   'P 1'
_cell_length_a   8.98903600
_cell_length_b   8.98903727
_cell_length_c   6.60337200
_cell_angle_alpha   90.00000000
_cell_angle_beta   90.00000000
_cell_angle_gamma   119.99999532
_symmetry_Int_Tables_number   1
_chemical_formula_structural   Tm4LuBi3S
_chemical_formula_sum   'Tm8 Lu2 Bi6 S2'
_cell_volume   462.08590022
_cell_formula_units_Z   2
loop_
 _symmetry_equiv_pos_site_id
 _symmetry_equiv_pos_as_xyz
  1  'x, y, z'
loop_
 _atom_site_type_symbol
 _atom_site_label
 _atom_site_symmetry_multiplicity
 _atom_site_fract_x
 _atom_site_fract_y
 _atom_site_fract_z
 _atom_site_occupancy
  Tm  Tm0  1  0.666667  0.333333  0.000000  1
  Tm  Tm1  1  0.333333  0.666667  0.000000  1
  Tm  Tm2  1  0.753388  0.753388  0.749645  1
  Tm  Tm3  1  0.246612  0.000000  0.749645  1
  Tm  Tm4  1  0.000000  0.246612  0.749645  1
  Tm  Tm5  1  0.246612  0.246612  0.250355  1
  Tm  Tm6  1  0.753388  0.000000  0.250355  1
  Tm  Tm7  1  0.000000  0.753388  0.250355  1
  Lu  Lu8  1  0.333333  0.666667  0.500000  1
  Lu  Lu9  1  0.666667  0.333333  0.500000  1
  Bi  Bi10  1  0.396590  0.396590  0.748760  1
  Bi  Bi11  1  0.603410  0.000000  0.748760  1
  Bi  Bi12  1  0.000000  0.603410  0.748760  1
  Bi  Bi13  1  0.603410  0.603410  0.251240  1
  Bi  Bi14  1  0.396590  0.000000  0.251240  1
  Bi  Bi15  1  0.000000  0.396590  0.251240  1
  S  S16  1  0.000000  0.000000  0.000000  1
  S  S17  1  0.000000  0.000000  0.500000  1
