# generated using pymatgen
data_Os2PdF12
_symmetry_space_group_name_H-M   'P 1'
_cell_length_a   7.10714385
_cell_length_b   7.10714448
_cell_length_c   10.12989800
_cell_angle_alpha   68.11788948
_cell_angle_beta   68.11788746
_cell_angle_gamma   76.72213667
_symmetry_Int_Tables_number   1
_chemical_formula_structural   Os2PdF12
_chemical_formula_sum   'Os4 Pd2 F24'
_cell_volume   438.14775063
_cell_formula_units_Z   2
loop_
 _symmetry_equiv_pos_site_id
 _symmetry_equiv_pos_as_xyz
  1  'x, y, z'
loop_
 _atom_site_type_symbol
 _atom_site_label
 _atom_site_symmetry_multiplicity
 _atom_site_fract_x
 _atom_site_fract_y
 _atom_site_fract_z
 _atom_site_occupancy
  Os  Os0  1  0.246047  0.256641  0.373100  1
  Os  Os1  1  0.256640  0.246045  0.873101  1
  Os  Os2  1  0.753953  0.743359  0.626900  1
  Os  Os3  1  0.743360  0.753955  0.126899  1
  Pd  Pd4  1  0.171935  0.828067  0.749997  1
  Pd  Pd5  1  0.828065  0.171933  0.250003  1
  F  F6  1  0.863196  0.865548  0.223965  1
  F  F7  1  0.136804  0.134452  0.776035  1
  F  F8  1  0.295264  0.979806  0.504091  1
  F  F9  1  0.983863  0.285600  0.507813  1
  F  F10  1  0.285604  0.983862  0.007814  1
  F  F11  1  0.367815  0.357771  0.464718  1
  F  F12  1  0.357772  0.367813  0.964719  1
  F  F13  1  0.865547  0.863192  0.723969  1
  F  F14  1  0.786378  0.483787  0.267913  1
  F  F15  1  0.020195  0.704738  0.995908  1
  F  F16  1  0.704736  0.020194  0.495909  1
  F  F17  1  0.979805  0.295262  0.004092  1
  F  F18  1  0.515136  0.208628  0.737492  1
  F  F19  1  0.632185  0.642229  0.535282  1
  F  F20  1  0.213622  0.516213  0.732087  1
  F  F21  1  0.642228  0.632187  0.035281  1
  F  F22  1  0.483786  0.786378  0.767915  1
  F  F23  1  0.791370  0.484866  0.762510  1
  F  F24  1  0.516214  0.213622  0.232085  1
  F  F25  1  0.484864  0.791372  0.262508  1
  F  F26  1  0.208630  0.515134  0.237490  1
  F  F27  1  0.714396  0.016138  0.992186  1
  F  F28  1  0.134453  0.136808  0.276031  1
  F  F29  1  0.016137  0.714400  0.492187  1
