# generated using pymatgen
data_Pr10AlGaSi4
_symmetry_space_group_name_H-M   'P 1'
_cell_length_a   7.88160700
_cell_length_b   9.15546063
_cell_length_c   7.88160700
_cell_angle_alpha   115.49498440
_cell_angle_beta   90.00000000
_cell_angle_gamma   115.49498440
_symmetry_Int_Tables_number   1
_chemical_formula_structural   Pr10AlGaSi4
_chemical_formula_sum   'Pr10 Al1 Ga1 Si4'
_cell_volume   451.22441713
_cell_formula_units_Z   1
loop_
 _symmetry_equiv_pos_site_id
 _symmetry_equiv_pos_as_xyz
  1  'x, y, z'
loop_
 _atom_site_type_symbol
 _atom_site_label
 _atom_site_symmetry_multiplicity
 _atom_site_fract_x
 _atom_site_fract_y
 _atom_site_fract_z
 _atom_site_occupancy
  Pr  Pr0  1  0.976962  0.953924  0.976962  1
  Pr  Pr1  1  0.523038  0.046076  0.523038  1
  Pr  Pr2  1  0.526902  0.716566  0.673451  1
  Pr  Pr3  1  0.189667  0.716566  0.043118  1
  Pr  Pr4  1  0.673451  0.716566  0.189667  1
  Pr  Pr5  1  0.043118  0.716566  0.526902  1
  Pr  Pr6  1  0.456882  0.283434  0.310333  1
  Pr  Pr7  1  0.826549  0.283434  0.973098  1
  Pr  Pr8  1  0.310333  0.283434  0.826549  1
  Pr  Pr9  1  0.973098  0.283434  0.456882  1
  Al  Al10  1  0.750000  0.500000  0.750000  1
  Ga  Ga11  1  0.250000  0.500000  0.250000  1
  Si  Si12  1  0.885695  0.000000  0.614305  1
  Si  Si13  1  0.114305  0.000000  0.385695  1
  Si  Si14  1  0.614305  0.000000  0.114305  1
  Si  Si15  1  0.385695  0.000000  0.885695  1
