# generated using pymatgen
data_Er7Lu3(SiBi2)2
_symmetry_space_group_name_H-M   'P 1'
_cell_length_a   11.88174900
_cell_length_b   9.10889902
_cell_length_c   7.96662902
_cell_angle_alpha   89.99173022
_cell_angle_beta   90.00000000
_cell_angle_gamma   90.00000000
_symmetry_Int_Tables_number   1
_chemical_formula_structural   Er7Lu3(SiBi2)2
_chemical_formula_sum   'Er14 Lu6 Si4 Bi8'
_cell_volume   862.22547648
_cell_formula_units_Z   2
loop_
 _symmetry_equiv_pos_site_id
 _symmetry_equiv_pos_as_xyz
  1  'x, y, z'
loop_
 _atom_site_type_symbol
 _atom_site_label
 _atom_site_symmetry_multiplicity
 _atom_site_fract_x
 _atom_site_fract_y
 _atom_site_fract_z
 _atom_site_occupancy
  Er  Er0  1  0.938543  0.054642  0.179621  1
  Er  Er1  1  0.438543  0.445358  0.320379  1
  Er  Er2  1  0.938624  0.445546  0.179771  1
  Er  Er3  1  0.438624  0.054454  0.320229  1
  Er  Er4  1  0.061385  0.945198  0.820262  1
  Er  Er5  1  0.561385  0.554802  0.679738  1
  Er  Er6  1  0.210992  0.749830  0.166290  1
  Er  Er7  1  0.710992  0.750170  0.333710  1
  Er  Er8  1  0.788845  0.249942  0.833556  1
  Er  Er9  1  0.288845  0.250058  0.666444  1
  Er  Er10  1  0.294009  0.749971  0.639185  1
  Er  Er11  1  0.794009  0.750029  0.860815  1
  Er  Er12  1  0.705941  0.249991  0.361087  1
  Er  Er13  1  0.205941  0.250009  0.138913  1
  Lu  Lu14  1  0.061261  0.555398  0.821089  1
  Lu  Lu15  1  0.561261  0.944602  0.678911  1
  Lu  Lu16  1  0.001167  0.749914  0.461089  1
  Lu  Lu17  1  0.501167  0.750086  0.038911  1
  Lu  Lu18  1  0.998833  0.250115  0.539400  1
  Lu  Lu19  1  0.498833  0.249885  0.960600  1
  Si  Si20  1  0.476901  0.750694  0.409722  1
  Si  Si21  1  0.976901  0.749306  0.090278  1
  Si  Si22  1  0.523522  0.248498  0.591242  1
  Si  Si23  1  0.023522  0.251502  0.908758  1
  Bi  Bi24  1  0.326061  0.510766  0.933265  1
  Bi  Bi25  1  0.826061  0.989234  0.566735  1
  Bi  Bi26  1  0.673773  0.010713  0.066224  1
  Bi  Bi27  1  0.173773  0.489287  0.433776  1
  Bi  Bi28  1  0.673928  0.489444  0.066307  1
  Bi  Bi29  1  0.173928  0.010556  0.433693  1
  Bi  Bi30  1  0.326214  0.989267  0.933752  1
  Bi  Bi31  1  0.826214  0.510733  0.566248  1
