# generated using pymatgen
data_Y4Sc4Re(B8Os)3
_symmetry_space_group_name_H-M   'P 1'
_cell_length_a   3.57850700
_cell_length_b   8.98114441
_cell_length_c   11.37783136
_cell_angle_alpha   90.02873275
_cell_angle_beta   90.00000000
_cell_angle_gamma   90.00000000
_symmetry_Int_Tables_number   1
_chemical_formula_structural   Y4Sc4Re(B8Os)3
_chemical_formula_sum   'Y4 Sc4 Re1 B24 Os3'
_cell_volume   365.67307896
_cell_formula_units_Z   1
loop_
 _symmetry_equiv_pos_site_id
 _symmetry_equiv_pos_as_xyz
  1  'x, y, z'
loop_
 _atom_site_type_symbol
 _atom_site_label
 _atom_site_symmetry_multiplicity
 _atom_site_fract_x
 _atom_site_fract_y
 _atom_site_fract_z
 _atom_site_occupancy
  Y  Y0  1  0.000000  0.320247  0.414764  1
  Y  Y1  1  0.000000  0.681213  0.587824  1
  Y  Y2  1  0.000000  0.820242  0.084432  1
  Y  Y3  1  0.000000  0.178795  0.913138  1
  Sc  Sc4  1  0.000000  0.944898  0.373444  1
  Sc  Sc5  1  0.000000  0.053954  0.626910  1
  Sc  Sc6  1  0.000000  0.444390  0.126610  1
  Sc  Sc7  1  0.000000  0.555960  0.873612  1
  Re  Re8  1  0.000000  0.860008  0.818481  1
  B  B9  1  0.500000  0.554848  0.432724  1
  B  B10  1  0.500000  0.445455  0.567463  1
  B  B11  1  0.500000  0.054669  0.067621  1
  B  B12  1  0.500000  0.946094  0.932720  1
  B  B13  1  0.500000  0.753022  0.418651  1
  B  B14  1  0.500000  0.247074  0.581149  1
  B  B15  1  0.500000  0.252611  0.081337  1
  B  B16  1  0.500000  0.746953  0.918672  1
  B  B17  1  0.500000  0.793304  0.265445  1
  B  B18  1  0.500000  0.206449  0.733868  1
  B  B19  1  0.500000  0.293717  0.234374  1
  B  B20  1  0.500000  0.705680  0.765656  1
  B  B21  1  0.500000  0.628597  0.182783  1
  B  B22  1  0.500000  0.371025  0.816712  1
  B  B23  1  0.500000  0.128962  0.317280  1
  B  B24  1  0.500000  0.871219  0.683069  1
  B  B25  1  0.500000  0.981837  0.214607  1
  B  B26  1  0.500000  0.019183  0.785275  1
  B  B27  1  0.500000  0.481626  0.285753  1
  B  B28  1  0.500000  0.518410  0.714513  1
  B  B29  1  0.500000  0.598333  0.027291  1
  B  B30  1  0.500000  0.400387  0.973208  1
  B  B31  1  0.500000  0.099513  0.472740  1
  B  B32  1  0.500000  0.900931  0.526365  1
  Os  Os33  1  0.000000  0.639770  0.318226  1
  Os  Os34  1  0.000000  0.360369  0.681135  1
  Os  Os35  1  0.000000  0.140255  0.182148  1
