# generated using pymatgen
data_Tb2Y2CdInPd4
_symmetry_space_group_name_H-M   'P 1'
_cell_length_a   7.76231439
_cell_length_b   7.75462939
_cell_length_c   3.73759400
_cell_angle_alpha   90.00000000
_cell_angle_beta   90.00000000
_cell_angle_gamma   90.10708154
_symmetry_Int_Tables_number   1
_chemical_formula_structural   Tb2Y2CdInPd4
_chemical_formula_sum   'Tb2 Y2 Cd1 In1 Pd4'
_cell_volume   224.97985916
_cell_formula_units_Z   1
loop_
 _symmetry_equiv_pos_site_id
 _symmetry_equiv_pos_as_xyz
  1  'x, y, z'
loop_
 _atom_site_type_symbol
 _atom_site_label
 _atom_site_symmetry_multiplicity
 _atom_site_fract_x
 _atom_site_fract_y
 _atom_site_fract_z
 _atom_site_occupancy
  Tb  Tb0  1  0.675139  0.165318  0.500000  1
  Tb  Tb1  1  0.324861  0.834682  0.500000  1
  Y  Y2  1  0.165201  0.324822  0.500000  1
  Y  Y3  1  0.834799  0.675178  0.500000  1
  Cd  Cd4  1  0.500000  0.500000  0.000000  1
  In  In5  1  0.000000  0.000000  0.000000  1
  Pd  Pd6  1  0.131767  0.627282  0.000000  1
  Pd  Pd7  1  0.868233  0.372718  0.000000  1
  Pd  Pd8  1  0.627021  0.868536  0.000000  1
  Pd  Pd9  1  0.372979  0.131464  0.000000  1
