# generated using pymatgen
data_Cs8Ti6BBr20
_symmetry_space_group_name_H-M   'P 1'
_cell_length_a   12.41303642
_cell_length_b   12.41303597
_cell_length_c   12.41303500
_cell_angle_alpha   59.99999991
_cell_angle_beta   60.00000112
_cell_angle_gamma   59.99999492
_symmetry_Int_Tables_number   1
_chemical_formula_structural   Cs8Ti6BBr20
_chemical_formula_sum   'Cs8 Ti6 B1 Br20'
_cell_volume   1352.44313005
_cell_formula_units_Z   1
loop_
 _symmetry_equiv_pos_site_id
 _symmetry_equiv_pos_as_xyz
  1  'x, y, z'
loop_
 _atom_site_type_symbol
 _atom_site_label
 _atom_site_symmetry_multiplicity
 _atom_site_fract_x
 _atom_site_fract_y
 _atom_site_fract_z
 _atom_site_occupancy
  Cs  Cs0  1  0.362002  0.362002  0.362002  1
  Cs  Cs1  1  0.637998  0.637998  0.637998  1
  Cs  Cs2  1  0.362002  0.362002  0.913995  1
  Cs  Cs3  1  0.362002  0.913995  0.362002  1
  Cs  Cs4  1  0.637998  0.637998  0.086005  1
  Cs  Cs5  1  0.637998  0.086005  0.637998  1
  Cs  Cs6  1  0.913995  0.362002  0.362002  1
  Cs  Cs7  1  0.086005  0.637998  0.637998  1
  Ti  Ti8  1  0.875341  0.124659  0.124659  1
  Ti  Ti9  1  0.124659  0.875341  0.875341  1
  Ti  Ti10  1  0.124659  0.875341  0.124659  1
  Ti  Ti11  1  0.875341  0.124659  0.875341  1
  Ti  Ti12  1  0.124659  0.124659  0.875341  1
  Ti  Ti13  1  0.875341  0.875341  0.124659  1
  B  B14  1  0.000000  0.000000  0.000000  1
  Br  Br15  1  0.292513  0.000000  0.000000  1
  Br  Br16  1  0.707487  0.000000  0.000000  1
  Br  Br17  1  0.000000  0.292513  0.707487  1
  Br  Br18  1  0.000000  0.707487  0.292513  1
  Br  Br19  1  0.000000  0.292513  0.000000  1
  Br  Br20  1  0.707487  0.000000  0.292513  1
  Br  Br21  1  0.000000  0.707487  0.000000  1
  Br  Br22  1  0.292513  0.000000  0.707487  1
  Br  Br23  1  0.000000  0.000000  0.292513  1
  Br  Br24  1  0.000000  0.000000  0.707487  1
  Br  Br25  1  0.707487  0.292513  0.000000  1
  Br  Br26  1  0.292513  0.707487  0.000000  1
  Br  Br27  1  0.706909  0.293091  0.293091  1
  Br  Br28  1  0.293091  0.706909  0.706909  1
  Br  Br29  1  0.293091  0.706909  0.293091  1
  Br  Br30  1  0.706909  0.293091  0.706909  1
  Br  Br31  1  0.293091  0.293091  0.706909  1
  Br  Br32  1  0.706909  0.706909  0.293091  1
  Br  Br33  1  0.250000  0.250000  0.250000  1
  Br  Br34  1  0.750000  0.750000  0.750000  1
