# generated using pymatgen
data_NaAu3S2
_symmetry_space_group_name_H-M   'P 1'
_cell_length_a   7.62613122
_cell_length_b   7.62613102
_cell_length_c   7.62613164
_cell_angle_alpha   124.97400313
_cell_angle_beta   83.30628069
_cell_angle_gamma   122.91247126
_symmetry_Int_Tables_number   1
_chemical_formula_structural   NaAu3S2
_chemical_formula_sum   'Na2 Au6 S4'
_cell_volume   292.59530337
_cell_formula_units_Z   2
loop_
 _symmetry_equiv_pos_site_id
 _symmetry_equiv_pos_as_xyz
  1  'x, y, z'
loop_
 _atom_site_type_symbol
 _atom_site_label
 _atom_site_symmetry_multiplicity
 _atom_site_fract_x
 _atom_site_fract_y
 _atom_site_fract_z
 _atom_site_occupancy
  Na  Na0  1  0.249999  0.249999  0.000000  1
  Na  Na1  1  0.750000  0.750000  0.000000  1
  Au  Au2  1  0.499999  0.000000  0.000000  1
  Au  Au3  1  0.000000  0.499999  0.000000  1
  Au  Au4  1  0.000000  0.000000  0.499999  1
  Au  Au5  1  0.500000  0.000000  0.500000  1
  Au  Au6  1  0.000000  0.500001  0.500001  1
  Au  Au7  1  0.499999  0.499999  0.499999  1
  S  S8  1  0.377460  0.735039  0.112498  1
  S  S9  1  0.122540  0.235038  0.357579  1
  S  S10  1  0.877460  0.764963  0.642422  1
  S  S11  1  0.622540  0.264962  0.887503  1
