# generated using pymatgen
data_Tb4Ga18RuPt2Rh3
_symmetry_space_group_name_H-M   'P 1'
_cell_length_a   7.63447018
_cell_length_b   7.63446902
_cell_length_c   9.53001605
_cell_angle_alpha   90.02699464
_cell_angle_beta   90.02699446
_cell_angle_gamma   120.01810030
_symmetry_Int_Tables_number   1
_chemical_formula_structural   Tb4Ga18RuPt2Rh3
_chemical_formula_sum   'Tb4 Ga18 Ru1 Pt2 Rh3'
_cell_volume   480.95292573
_cell_formula_units_Z   1
loop_
 _symmetry_equiv_pos_site_id
 _symmetry_equiv_pos_as_xyz
  1  'x, y, z'
loop_
 _atom_site_type_symbol
 _atom_site_label
 _atom_site_symmetry_multiplicity
 _atom_site_fract_x
 _atom_site_fract_y
 _atom_site_fract_z
 _atom_site_occupancy
  Tb  Tb0  1  0.996125  0.670874  0.249150  1
  Tb  Tb1  1  0.002894  0.328672  0.750513  1
  Tb  Tb2  1  0.671328  0.997106  0.249487  1
  Tb  Tb3  1  0.329126  0.003875  0.750850  1
  Ga  Ga4  1  0.134055  0.134623  0.250177  1
  Ga  Ga5  1  0.865377  0.865945  0.749823  1
  Ga  Ga6  1  0.998034  0.338739  0.079836  1
  Ga  Ga7  1  0.999328  0.659734  0.920331  1
  Ga  Ga8  1  0.001111  0.661897  0.581327  1
  Ga  Ga9  1  0.338103  0.998889  0.418673  1
  Ga  Ga10  1  0.999155  0.338625  0.419261  1
  Ga  Ga11  1  0.661375  0.000845  0.580739  1
  Ga  Ga12  1  0.661261  0.001966  0.920164  1
  Ga  Ga13  1  0.340266  0.000672  0.079669  1
  Ga  Ga14  1  0.337793  0.338104  0.567017  1
  Ga  Ga15  1  0.661896  0.662207  0.432983  1
  Ga  Ga16  1  0.662203  0.660088  0.065043  1
  Ga  Ga17  1  0.339912  0.337797  0.934957  1
  Ga  Ga18  1  0.335949  0.548712  0.249426  1
  Ga  Ga19  1  0.663565  0.450371  0.751433  1
  Ga  Ga20  1  0.549629  0.336435  0.248567  1
  Ga  Ga21  1  0.451288  0.664051  0.750574  1
  Ru  Ru22  1  0.671822  0.328178  0.000000  1
  Pt  Pt23  1  0.999697  0.000303  0.000000  1
  Pt  Pt24  1  0.000078  0.999922  0.500000  1
  Rh  Rh25  1  0.328822  0.671178  0.000000  1
  Rh  Rh26  1  0.329129  0.670871  0.500000  1
  Rh  Rh27  1  0.670683  0.329317  0.500000  1
