# generated using pymatgen
data_Er5Fe3(P3Ir4)4
_symmetry_space_group_name_H-M   'P 1'
_cell_length_a   12.57477600
_cell_length_b   12.57477610
_cell_length_c   3.91944600
_cell_angle_alpha   90.00000000
_cell_angle_beta   90.00000000
_cell_angle_gamma   120.00000500
_symmetry_Int_Tables_number   1
_chemical_formula_structural   Er5Fe3(P3Ir4)4
_chemical_formula_sum   'Er5 Fe3 P12 Ir16'
_cell_volume   536.72992979
_cell_formula_units_Z   1
loop_
 _symmetry_equiv_pos_site_id
 _symmetry_equiv_pos_as_xyz
  1  'x, y, z'
loop_
 _atom_site_type_symbol
 _atom_site_label
 _atom_site_symmetry_multiplicity
 _atom_site_fract_x
 _atom_site_fract_y
 _atom_site_fract_z
 _atom_site_occupancy
  Er  Er0  1  0.666667  0.333333  0.000000  1
  Er  Er1  1  0.333333  0.666667  0.000000  1
  Er  Er2  1  0.818123  0.818123  0.500000  1
  Er  Er3  1  0.181877  0.000000  0.500000  1
  Er  Er4  1  0.000000  0.181877  0.500000  1
  Fe  Fe5  1  0.284951  0.284951  0.500000  1
  Fe  Fe6  1  0.715049  0.000000  0.500000  1
  Fe  Fe7  1  0.000000  0.715049  0.500000  1
  P  P8  1  0.686975  0.162665  0.500000  1
  P  P9  1  0.837335  0.524310  0.500000  1
  P  P10  1  0.475690  0.313025  0.500000  1
  P  P11  1  0.162665  0.686975  0.500000  1
  P  P12  1  0.524310  0.837335  0.500000  1
  P  P13  1  0.313025  0.475690  0.500000  1
  P  P14  1  0.642953  0.642953  0.000000  1
  P  P15  1  0.357047  0.000000  0.000000  1
  P  P16  1  0.000000  0.357047  0.000000  1
  P  P17  1  0.182448  0.182448  0.000000  1
  P  P18  1  0.817552  0.000000  0.000000  1
  P  P19  1  0.000000  0.817552  0.000000  1
  Ir  Ir20  1  0.803817  0.178401  0.000000  1
  Ir  Ir21  1  0.821599  0.625416  0.000000  1
  Ir  Ir22  1  0.374584  0.196183  0.000000  1
  Ir  Ir23  1  0.178401  0.803817  0.000000  1
  Ir  Ir24  1  0.625416  0.821599  0.000000  1
  Ir  Ir25  1  0.196183  0.374584  0.000000  1
  Ir  Ir26  1  0.458698  0.458698  0.000000  1
  Ir  Ir27  1  0.541302  0.000000  0.000000  1
  Ir  Ir28  1  0.000000  0.541302  0.000000  1
  Ir  Ir29  1  0.867337  0.360195  0.500000  1
  Ir  Ir30  1  0.639805  0.507143  0.500000  1
  Ir  Ir31  1  0.492857  0.132663  0.500000  1
  Ir  Ir32  1  0.360195  0.867337  0.500000  1
  Ir  Ir33  1  0.507143  0.639805  0.500000  1
  Ir  Ir34  1  0.132663  0.492857  0.500000  1
  Ir  Ir35  1  0.000000  0.000000  0.000000  1
