# generated using pymatgen
data_Hf11Sc5(Si4Mo)4
_symmetry_space_group_name_H-M   'P 1'
_cell_length_a   7.00682922
_cell_length_b   7.00092142
_cell_length_c   12.74477239
_cell_angle_alpha   89.97216637
_cell_angle_beta   89.99440451
_cell_angle_gamma   89.97168632
_symmetry_Int_Tables_number   1
_chemical_formula_structural   Hf11Sc5(Si4Mo)4
_chemical_formula_sum   'Hf11 Sc5 Si16 Mo4'
_cell_volume   625.18523551
_cell_formula_units_Z   1
loop_
 _symmetry_equiv_pos_site_id
 _symmetry_equiv_pos_as_xyz
  1  'x, y, z'
loop_
 _atom_site_type_symbol
 _atom_site_label
 _atom_site_symmetry_multiplicity
 _atom_site_fract_x
 _atom_site_fract_y
 _atom_site_fract_z
 _atom_site_occupancy
  Hf  Hf0  1  0.154928  0.498446  0.468821  1
  Hf  Hf1  1  0.001618  0.655153  0.718699  1
  Hf  Hf2  1  0.998255  0.344436  0.218835  1
  Hf  Hf3  1  0.494687  0.356156  0.126210  1
  Hf  Hf4  1  0.504081  0.643492  0.625499  1
  Hf  Hf5  1  0.857257  0.004886  0.875000  1
  Hf  Hf6  1  0.143303  0.995135  0.375550  1
  Hf  Hf7  1  0.643218  0.504009  0.375009  1
  Hf  Hf8  1  0.356242  0.495572  0.873886  1
  Hf  Hf9  1  0.004841  0.856769  0.125394  1
  Hf  Hf10  1  0.995575  0.143955  0.624824  1
  Sc  Sc11  1  0.496969  0.156066  0.531727  1
  Sc  Sc12  1  0.502778  0.845110  0.031727  1
  Sc  Sc13  1  0.655412  0.003132  0.281584  1
  Sc  Sc14  1  0.344503  0.996702  0.781416  1
  Sc  Sc15  1  0.844589  0.501763  0.968746  1
  Si  Si16  1  0.798452  0.147989  0.071224  1
  Si  Si17  1  0.201149  0.851407  0.571322  1
  Si  Si18  1  0.648890  0.701117  0.821021  1
  Si  Si19  1  0.351563  0.298906  0.321304  1
  Si  Si20  1  0.853015  0.202965  0.427883  1
  Si  Si21  1  0.147478  0.797785  0.928368  1
  Si  Si22  1  0.702558  0.647200  0.178931  1
  Si  Si23  1  0.296808  0.352789  0.677700  1
  Si  Si24  1  0.547716  0.196821  0.933408  1
  Si  Si25  1  0.452399  0.803679  0.433338  1
  Si  Si26  1  0.696406  0.952220  0.683160  1
  Si  Si27  1  0.303926  0.047109  0.183196  1
  Si  Si28  1  0.803810  0.452626  0.566385  1
  Si  Si29  1  0.196029  0.547487  0.066196  1
  Si  Si30  1  0.952069  0.696001  0.316487  1
  Si  Si31  1  0.047158  0.304706  0.816724  1
  Mo  Mo32  1  0.678041  0.325922  0.749426  1
  Mo  Mo33  1  0.322518  0.673793  0.250638  1
  Mo  Mo34  1  0.826955  0.822019  0.500294  1
  Mo  Mo35  1  0.174804  0.176680  0.000072  1
