# generated using pymatgen
data_Pa6Ga6Ir3Pd2Rh
_symmetry_space_group_name_H-M   'P 1'
_cell_length_a   7.13412400
_cell_length_b   7.13412297
_cell_length_c   8.01489900
_cell_angle_alpha   90.00000000
_cell_angle_beta   90.00000000
_cell_angle_gamma   119.99999553
_symmetry_Int_Tables_number   1
_chemical_formula_structural   Pa6Ga6Ir3Pd2Rh
_chemical_formula_sum   'Pa6 Ga6 Ir3 Pd2 Rh1'
_cell_volume   353.27259583
_cell_formula_units_Z   1
loop_
 _symmetry_equiv_pos_site_id
 _symmetry_equiv_pos_as_xyz
  1  'x, y, z'
loop_
 _atom_site_type_symbol
 _atom_site_label
 _atom_site_symmetry_multiplicity
 _atom_site_fract_x
 _atom_site_fract_y
 _atom_site_fract_z
 _atom_site_occupancy
  Pa  Pa0  1  0.580847  0.578698  0.249660  1
  Pa  Pa1  1  0.000725  0.420456  0.750389  1
  Pa  Pa2  1  0.421302  0.002149  0.249660  1
  Pa  Pa3  1  0.997851  0.419153  0.249660  1
  Pa  Pa4  1  0.419731  0.999275  0.750389  1
  Pa  Pa5  1  0.579544  0.580269  0.750389  1
  Ga  Ga6  1  0.245306  0.247160  0.499932  1
  Ga  Ga7  1  0.752840  0.998146  0.499932  1
  Ga  Ga8  1  0.001854  0.754694  0.499932  1
  Ga  Ga9  1  0.753894  0.000263  0.000184  1
  Ga  Ga10  1  0.246369  0.246106  0.000184  1
  Ga  Ga11  1  0.999737  0.753631  0.000184  1
  Ir  Ir12  1  0.333333  0.666667  0.001870  1
  Ir  Ir13  1  0.666667  0.333333  0.501103  1
  Ir  Ir14  1  0.666667  0.333333  0.998445  1
  Pd  Pd15  1  0.000000  0.000000  0.750589  1
  Pd  Pd16  1  0.000000  0.000000  0.249902  1
  Rh  Rh17  1  0.333333  0.666667  0.497594  1
