# generated using pymatgen
data_Hf4Mn7V
_symmetry_space_group_name_H-M   'P 1'
_cell_length_a   5.00456800
_cell_length_b   4.89674033
_cell_length_c   8.19074800
_cell_angle_alpha   90.00000000
_cell_angle_beta   90.00000000
_cell_angle_gamma   120.73113862
_symmetry_Int_Tables_number   1
_chemical_formula_structural   Hf4Mn7V
_chemical_formula_sum   'Hf4 Mn7 V1'
_cell_volume   172.53644580
_cell_formula_units_Z   1
loop_
 _symmetry_equiv_pos_site_id
 _symmetry_equiv_pos_as_xyz
  1  'x, y, z'
loop_
 _atom_site_type_symbol
 _atom_site_label
 _atom_site_symmetry_multiplicity
 _atom_site_fract_x
 _atom_site_fract_y
 _atom_site_fract_z
 _atom_site_occupancy
  Hf  Hf0  1  0.333303  0.666606  0.434890  1
  Hf  Hf1  1  0.667739  0.335477  0.939611  1
  Hf  Hf2  1  0.667739  0.335477  0.560389  1
  Hf  Hf3  1  0.333303  0.666606  0.065110  1
  Mn  Mn4  1  0.832201  0.174143  0.250000  1
  Mn  Mn5  1  0.341942  0.174143  0.250000  1
  Mn  Mn6  1  0.659998  0.830164  0.750000  1
  Mn  Mn7  1  0.997485  0.994971  0.004698  1
  Mn  Mn8  1  0.997485  0.994971  0.495302  1
  Mn  Mn9  1  0.831835  0.663670  0.250000  1
  Mn  Mn10  1  0.170166  0.830164  0.750000  1
  V  V11  1  0.166804  0.333607  0.750000  1
