# generated using pymatgen
data_Y4Al4Pd3Ru
_symmetry_space_group_name_H-M   'P 1'
_cell_length_a   4.36965000
_cell_length_b   6.93739831
_cell_length_c   7.87760344
_cell_angle_alpha   90.06987034
_cell_angle_beta   90.00000000
_cell_angle_gamma   90.00000000
_symmetry_Int_Tables_number   1
_chemical_formula_structural   Y4Al4Pd3Ru
_chemical_formula_sum   'Y4 Al4 Pd3 Ru1'
_cell_volume   238.80151305
_cell_formula_units_Z   1
loop_
 _symmetry_equiv_pos_site_id
 _symmetry_equiv_pos_as_xyz
  1  'x, y, z'
loop_
 _atom_site_type_symbol
 _atom_site_label
 _atom_site_symmetry_multiplicity
 _atom_site_fract_x
 _atom_site_fract_y
 _atom_site_fract_z
 _atom_site_occupancy
  Y  Y0  1  0.250000  0.034937  0.322134  1
  Y  Y1  1  0.250000  0.530369  0.180871  1
  Y  Y2  1  0.750000  0.979124  0.679315  1
  Y  Y3  1  0.750000  0.465368  0.815135  1
  Al  Al4  1  0.250000  0.146406  0.935789  1
  Al  Al5  1  0.250000  0.637899  0.562835  1
  Al  Al6  1  0.750000  0.855495  0.061563  1
  Al  Al7  1  0.750000  0.354531  0.441091  1
  Pd  Pd8  1  0.250000  0.775744  0.882187  1
  Pd  Pd9  1  0.750000  0.726555  0.379858  1
  Pd  Pd10  1  0.750000  0.225874  0.120322  1
  Ru  Ru11  1  0.250000  0.267698  0.618898  1
