# generated using pymatgen
data_Yb7Ce(Ge3Pd)4
_symmetry_space_group_name_H-M   'P 1'
_cell_length_a   8.52453400
_cell_length_b   8.52453313
_cell_length_c   8.20761100
_cell_angle_alpha   90.00000000
_cell_angle_beta   90.00000000
_cell_angle_gamma   120.00000336
_symmetry_Int_Tables_number   1
_chemical_formula_structural   Yb7Ce(Ge3Pd)4
_chemical_formula_sum   'Yb7 Ce1 Ge12 Pd4'
_cell_volume   516.52177207
_cell_formula_units_Z   1
loop_
 _symmetry_equiv_pos_site_id
 _symmetry_equiv_pos_as_xyz
  1  'x, y, z'
loop_
 _atom_site_type_symbol
 _atom_site_label
 _atom_site_symmetry_multiplicity
 _atom_site_fract_x
 _atom_site_fract_y
 _atom_site_fract_z
 _atom_site_occupancy
  Yb  Yb0  1  0.499384  0.500616  0.750000  1
  Yb  Yb1  1  0.500545  0.499455  0.250000  1
  Yb  Yb2  1  0.001231  0.500616  0.750000  1
  Yb  Yb3  1  0.998909  0.499455  0.250000  1
  Yb  Yb4  1  0.499384  0.998769  0.750000  1
  Yb  Yb5  1  0.500545  0.001091  0.250000  1
  Yb  Yb6  1  0.000000  0.000000  0.750000  1
  Ce  Ce7  1  0.000000  0.000000  0.250000  1
  Ge  Ge8  1  0.833391  0.166609  0.999619  1
  Ge  Ge9  1  0.166568  0.833432  0.000987  1
  Ge  Ge10  1  0.333219  0.166609  0.999619  1
  Ge  Ge11  1  0.166568  0.833432  0.499013  1
  Ge  Ge12  1  0.666865  0.833432  0.000987  1
  Ge  Ge13  1  0.833391  0.166609  0.500381  1
  Ge  Ge14  1  0.833391  0.666781  0.999619  1
  Ge  Ge15  1  0.666865  0.833432  0.499013  1
  Ge  Ge16  1  0.166568  0.333135  0.000987  1
  Ge  Ge17  1  0.333219  0.166609  0.500381  1
  Ge  Ge18  1  0.166568  0.333135  0.499013  1
  Ge  Ge19  1  0.833391  0.666781  0.500381  1
  Pd  Pd20  1  0.666667  0.333333  0.995694  1
  Pd  Pd21  1  0.333333  0.666667  0.998335  1
  Pd  Pd22  1  0.333333  0.666667  0.501665  1
  Pd  Pd23  1  0.666667  0.333333  0.504306  1
