# generated using pymatgen
data_TbTh3(Sc3Ga4)2
_symmetry_space_group_name_H-M   'P 1'
_cell_length_a   7.37757104
_cell_length_b   7.65404722
_cell_length_c   14.54388600
_cell_angle_alpha   89.92419246
_cell_angle_beta   90.13684855
_cell_angle_gamma   90.11557263
_symmetry_Int_Tables_number   1
_chemical_formula_structural   TbTh3(Sc3Ga4)2
_chemical_formula_sum   'Tb2 Th6 Sc12 Ga16'
_cell_volume   821.26345856
_cell_formula_units_Z   2
loop_
 _symmetry_equiv_pos_site_id
 _symmetry_equiv_pos_as_xyz
  1  'x, y, z'
loop_
 _atom_site_type_symbol
 _atom_site_label
 _atom_site_symmetry_multiplicity
 _atom_site_fract_x
 _atom_site_fract_y
 _atom_site_fract_z
 _atom_site_occupancy
  Tb  Tb0  1  0.509473  0.321459  0.405571  1
  Tb  Tb1  1  0.490527  0.678541  0.594429  1
  Th  Th2  1  0.010696  0.177655  0.096466  1
  Th  Th3  1  0.989304  0.822345  0.903534  1
  Th  Th4  1  0.489051  0.677017  0.905071  1
  Th  Th5  1  0.988072  0.821828  0.594434  1
  Th  Th6  1  0.510949  0.322983  0.094929  1
  Th  Th7  1  0.011928  0.178172  0.405566  1
  Sc  Sc8  1  0.165395  0.500623  0.747754  1
  Sc  Sc9  1  0.834605  0.499377  0.252246  1
  Sc  Sc10  1  0.336807  0.000552  0.251931  1
  Sc  Sc11  1  0.663193  0.999448  0.748069  1
  Sc  Sc12  1  0.328765  0.171197  0.623803  1
  Sc  Sc13  1  0.671235  0.828803  0.376197  1
  Sc  Sc14  1  0.172213  0.669810  0.376274  1
  Sc  Sc15  1  0.669506  0.828035  0.125560  1
  Sc  Sc16  1  0.827787  0.330190  0.623726  1
  Sc  Sc17  1  0.330494  0.171965  0.874440  1
  Sc  Sc18  1  0.828537  0.329224  0.873771  1
  Sc  Sc19  1  0.171463  0.670776  0.126229  1
  Ga  Ga20  1  0.031484  0.119609  0.749719  1
  Ga  Ga21  1  0.968516  0.880391  0.250281  1
  Ga  Ga22  1  0.469982  0.619219  0.251462  1
  Ga  Ga23  1  0.530018  0.380781  0.748538  1
  Ga  Ga24  1  0.288001  0.873563  0.749050  1
  Ga  Ga25  1  0.711999  0.126437  0.250950  1
  Ga  Ga26  1  0.215565  0.374100  0.251276  1
  Ga  Ga27  1  0.784435  0.625900  0.748724  1
  Ga  Ga28  1  0.164301  0.465262  0.541282  1
  Ga  Ga29  1  0.835699  0.534738  0.458718  1
  Ga  Ga30  1  0.343026  0.962411  0.459302  1
  Ga  Ga31  1  0.840360  0.539664  0.040528  1
  Ga  Ga32  1  0.656974  0.037589  0.540698  1
  Ga  Ga33  1  0.159640  0.460336  0.959472  1
  Ga  Ga34  1  0.660515  0.039330  0.959087  1
  Ga  Ga35  1  0.339485  0.960670  0.040913  1
