# generated using pymatgen
data_Li7Cu6
_symmetry_space_group_name_H-M   'P 1'
_cell_length_a   4.90385500
_cell_length_b   4.90385524
_cell_length_c   17.86769600
_cell_angle_alpha   90.00000000
_cell_angle_beta   90.00000000
_cell_angle_gamma   120.00000510
_symmetry_Int_Tables_number   1
_chemical_formula_structural   Li7Cu6
_chemical_formula_sum   'Li14 Cu12'
_cell_volume   372.11264327
_cell_formula_units_Z   2
loop_
 _symmetry_equiv_pos_site_id
 _symmetry_equiv_pos_as_xyz
  1  'x, y, z'
loop_
 _atom_site_type_symbol
 _atom_site_label
 _atom_site_symmetry_multiplicity
 _atom_site_fract_x
 _atom_site_fract_y
 _atom_site_fract_z
 _atom_site_occupancy
  Li  Li0  1  0.333333  0.666667  0.522072  1
  Li  Li1  1  0.666667  0.333333  0.477928  1
  Li  Li2  1  0.666667  0.333333  0.022072  1
  Li  Li3  1  0.333333  0.666667  0.977928  1
  Li  Li4  1  0.333333  0.666667  0.250000  1
  Li  Li5  1  0.666667  0.333333  0.750000  1
  Li  Li6  1  0.000000  0.000000  0.250000  1
  Li  Li7  1  0.000000  0.000000  0.750000  1
  Li  Li8  1  0.000000  0.000000  0.000000  1
  Li  Li9  1  0.000000  0.000000  0.500000  1
  Li  Li10  1  0.333333  0.666667  0.672020  1
  Li  Li11  1  0.666667  0.333333  0.327980  1
  Li  Li12  1  0.666667  0.333333  0.172020  1
  Li  Li13  1  0.333333  0.666667  0.827980  1
  Cu  Cu14  1  0.167820  0.335640  0.117433  1
  Cu  Cu15  1  0.832180  0.664360  0.882568  1
  Cu  Cu16  1  0.664360  0.832180  0.117433  1
  Cu  Cu17  1  0.832180  0.664360  0.617432  1
  Cu  Cu18  1  0.335640  0.167820  0.882568  1
  Cu  Cu19  1  0.167820  0.335640  0.382567  1
  Cu  Cu20  1  0.167820  0.832180  0.117433  1
  Cu  Cu21  1  0.335640  0.167820  0.617432  1
  Cu  Cu22  1  0.832180  0.167820  0.882568  1
  Cu  Cu23  1  0.664360  0.832180  0.382567  1
  Cu  Cu24  1  0.832180  0.167820  0.617432  1
  Cu  Cu25  1  0.167820  0.832180  0.382567  1
