# generated using pymatgen
data_AcNi3B
_symmetry_space_group_name_H-M   'P 1'
_cell_length_a   6.08219098
_cell_length_b   6.08219109
_cell_length_c   6.08219082
_cell_angle_alpha   131.64119964
_cell_angle_beta   106.32950939
_cell_angle_gamma   93.11700825
_symmetry_Int_Tables_number   1
_chemical_formula_structural   AcNi3B
_chemical_formula_sum   'Ac2 Ni6 B2'
_cell_volume   151.96378579
_cell_formula_units_Z   2
loop_
 _symmetry_equiv_pos_site_id
 _symmetry_equiv_pos_as_xyz
  1  'x, y, z'
loop_
 _atom_site_type_symbol
 _atom_site_label
 _atom_site_symmetry_multiplicity
 _atom_site_fract_x
 _atom_site_fract_y
 _atom_site_fract_z
 _atom_site_occupancy
  Ac  Ac0  1  0.822328  0.572328  0.250000  1
  Ac  Ac1  1  0.177672  0.427672  0.750000  1
  Ni  Ni2  1  0.327861  0.500000  0.327861  1
  Ni  Ni3  1  0.672139  0.500000  0.672139  1
  Ni  Ni4  1  0.672139  0.000000  0.172139  1
  Ni  Ni5  1  0.327861  0.000000  0.827861  1
  Ni  Ni6  1  0.000000  0.000000  0.000000  1
  Ni  Ni7  1  0.500000  0.000000  0.500000  1
  B  B8  1  0.382815  0.132815  0.250000  1
  B  B9  1  0.617185  0.867185  0.750000  1
