# generated using pymatgen
data_Ho3Er3BiO12
_symmetry_space_group_name_H-M   'P 1'
_cell_length_a   6.51790148
_cell_length_b   6.52083545
_cell_length_c   6.51809114
_cell_angle_alpha   99.05984285
_cell_angle_beta   99.09365412
_cell_angle_gamma   99.06493327
_symmetry_Int_Tables_number   1
_chemical_formula_structural   Ho3Er3BiO12
_chemical_formula_sum   'Ho3 Er3 Bi1 O12'
_cell_volume   265.36805074
_cell_formula_units_Z   1
loop_
 _symmetry_equiv_pos_site_id
 _symmetry_equiv_pos_as_xyz
  1  'x, y, z'
loop_
 _atom_site_type_symbol
 _atom_site_label
 _atom_site_symmetry_multiplicity
 _atom_site_fract_x
 _atom_site_fract_y
 _atom_site_fract_z
 _atom_site_occupancy
  Ho  Ho0  1  0.308150  0.609061  0.140840  1
  Ho  Ho1  1  0.609275  0.141393  0.308775  1
  Ho  Ho2  1  0.858686  0.691392  0.391087  1
  Er  Er3  1  0.140889  0.308223  0.609485  1
  Er  Er4  1  0.390918  0.859543  0.691723  1
  Er  Er5  1  0.691481  0.390469  0.858689  1
  Bi  Bi6  1  0.999763  0.999901  0.999644  1
  O  O7  1  0.071342  0.317143  0.947943  1
  O  O8  1  0.052225  0.928566  0.682713  1
  O  O9  1  0.415769  0.567149  0.820373  1
  O  O10  1  0.179084  0.584298  0.433976  1
  O  O11  1  0.682272  0.051187  0.927396  1
  O  O12  1  0.432264  0.178762  0.585788  1
  O  O13  1  0.566674  0.821695  0.416365  1
  O  O14  1  0.317185  0.948606  0.071268  1
  O  O15  1  0.821935  0.415078  0.568281  1
  O  O16  1  0.584898  0.432828  0.177373  1
  O  O17  1  0.949612  0.072433  0.317623  1
  O  O18  1  0.927578  0.682273  0.050660  1
