# generated using pymatgen
data_Sm3Y7(In3Br)2
_symmetry_space_group_name_H-M   'P 1'
_cell_length_a   9.28923704
_cell_length_b   9.28923639
_cell_length_c   6.80331200
_cell_angle_alpha   90.00000000
_cell_angle_beta   90.00000000
_cell_angle_gamma   120.01008664
_symmetry_Int_Tables_number   1
_chemical_formula_structural   Sm3Y7(In3Br)2
_chemical_formula_sum   'Sm3 Y7 In6 Br2'
_cell_volume   508.35480055
_cell_formula_units_Z   1
loop_
 _symmetry_equiv_pos_site_id
 _symmetry_equiv_pos_as_xyz
  1  'x, y, z'
loop_
 _atom_site_type_symbol
 _atom_site_label
 _atom_site_symmetry_multiplicity
 _atom_site_fract_x
 _atom_site_fract_y
 _atom_site_fract_z
 _atom_site_occupancy
  Sm  Sm0  1  0.734444  0.734444  0.250000  1
  Sm  Sm1  1  0.000370  0.734388  0.750000  1
  Sm  Sm2  1  0.734388  0.000370  0.750000  1
  Y  Y3  1  0.332372  0.665699  0.499731  1
  Y  Y4  1  0.265831  0.265831  0.750000  1
  Y  Y5  1  0.000368  0.265855  0.250000  1
  Y  Y6  1  0.665699  0.332372  0.499731  1
  Y  Y7  1  0.265855  0.000368  0.250000  1
  Y  Y8  1  0.332372  0.665699  0.000269  1
  Y  Y9  1  0.665699  0.332372  0.000269  1
  In  In10  1  0.393946  0.001249  0.750000  1
  In  In11  1  0.001357  0.605588  0.250000  1
  In  In12  1  0.605588  0.001357  0.250000  1
  In  In13  1  0.001249  0.393946  0.750000  1
  In  In14  1  0.392391  0.392391  0.250000  1
  In  In15  1  0.603583  0.603583  0.750000  1
  Br  Br16  1  0.002243  0.002243  0.498679  1
  Br  Br17  1  0.002243  0.002243  0.001321  1
