# generated using pymatgen
data_Cs16CrPb3Se16
_symmetry_space_group_name_H-M   'P 1'
_cell_length_a   9.20913841
_cell_length_b   10.98529800
_cell_length_c   16.12564400
_cell_angle_alpha   90.00000000
_cell_angle_beta   90.04147334
_cell_angle_gamma   90.00000000
_symmetry_Int_Tables_number   1
_chemical_formula_structural   Cs16CrPb3Se16
_chemical_formula_sum   'Cs16 Cr1 Pb3 Se16'
_cell_volume   1631.35244076
_cell_formula_units_Z   1
loop_
 _symmetry_equiv_pos_site_id
 _symmetry_equiv_pos_as_xyz
  1  'x, y, z'
loop_
 _atom_site_type_symbol
 _atom_site_label
 _atom_site_symmetry_multiplicity
 _atom_site_fract_x
 _atom_site_fract_y
 _atom_site_fract_z
 _atom_site_occupancy
  Cs  Cs0  1  0.999919  0.000192  0.999966  1
  Cs  Cs1  1  0.502995  0.997672  0.501189  1
  Cs  Cs2  1  0.999919  0.499808  0.999966  1
  Cs  Cs3  1  0.502995  0.502328  0.501189  1
  Cs  Cs4  1  0.987134  0.750000  0.425191  1
  Cs  Cs5  1  0.489515  0.250000  0.077225  1
  Cs  Cs6  1  0.007394  0.250000  0.577401  1
  Cs  Cs7  1  0.513650  0.750000  0.920331  1
  Cs  Cs8  1  0.837892  0.051774  0.275325  1
  Cs  Cs9  1  0.337814  0.947861  0.224627  1
  Cs  Cs10  1  0.161550  0.554582  0.723051  1
  Cs  Cs11  1  0.662195  0.449350  0.775219  1
  Cs  Cs12  1  0.161550  0.945418  0.723051  1
  Cs  Cs13  1  0.662195  0.050650  0.775219  1
  Cs  Cs14  1  0.837892  0.448226  0.275325  1
  Cs  Cs15  1  0.337814  0.552139  0.224627  1
  Cr  Cr16  1  0.762262  0.750000  0.664526  1
  Pb  Pb17  1  0.236580  0.250000  0.337113  1
  Pb  Pb18  1  0.736597  0.750000  0.163514  1
  Pb  Pb19  1  0.263395  0.250000  0.835924  1
  Se  Se20  1  0.973350  0.250000  0.826140  1
  Se  Se21  1  0.526788  0.250000  0.326931  1
  Se  Se22  1  0.506571  0.750000  0.672944  1
  Se  Se23  1  0.026669  0.750000  0.173227  1
  Se  Se24  1  0.645783  0.552818  0.084950  1
  Se  Se25  1  0.146237  0.447893  0.415368  1
  Se  Se26  1  0.353259  0.052164  0.914473  1
  Se  Se27  1  0.843581  0.923826  0.595166  1
  Se  Se28  1  0.353259  0.447836  0.914473  1
  Se  Se29  1  0.843581  0.576174  0.595166  1
  Se  Se30  1  0.645783  0.947182  0.084950  1
  Se  Se31  1  0.146237  0.052107  0.415368  1
  Se  Se32  1  0.629866  0.750000  0.318822  1
  Se  Se33  1  0.129516  0.250000  0.181514  1
  Se  Se34  1  0.369023  0.250000  0.680355  1
  Se  Se35  1  0.859239  0.750000  0.800166  1
