# generated using pymatgen
data_Tm8Lu2Si5Pb
_symmetry_space_group_name_H-M   'P 1'
_cell_length_a   8.42307701
_cell_length_b   8.42307665
_cell_length_c   6.26584100
_cell_angle_alpha   90.00094151
_cell_angle_beta   90.00094489
_cell_angle_gamma   120.19291546
_symmetry_Int_Tables_number   1
_chemical_formula_structural   Tm8Lu2Si5Pb
_chemical_formula_sum   'Tm8 Lu2 Si5 Pb1'
_cell_volume   384.24125754
_cell_formula_units_Z   1
loop_
 _symmetry_equiv_pos_site_id
 _symmetry_equiv_pos_as_xyz
  1  'x, y, z'
loop_
 _atom_site_type_symbol
 _atom_site_label
 _atom_site_symmetry_multiplicity
 _atom_site_fract_x
 _atom_site_fract_y
 _atom_site_fract_z
 _atom_site_occupancy
  Tm  Tm0  1  0.331165  0.675219  0.996183  1
  Tm  Tm1  1  0.675219  0.331165  0.996183  1
  Tm  Tm2  1  0.767451  0.767451  0.250365  1
  Tm  Tm3  1  0.239763  0.987609  0.250414  1
  Tm  Tm4  1  0.987609  0.239763  0.250414  1
  Tm  Tm5  1  0.239758  0.239758  0.749622  1
  Tm  Tm6  1  0.756268  0.998185  0.749529  1
  Tm  Tm7  1  0.998185  0.756268  0.749529  1
  Lu  Lu8  1  0.675426  0.331168  0.503825  1
  Lu  Lu9  1  0.331168  0.675426  0.503825  1
  Si  Si10  1  0.603402  0.998261  0.251144  1
  Si  Si11  1  0.998261  0.603402  0.251144  1
  Si  Si12  1  0.605373  0.605373  0.749081  1
  Si  Si13  1  0.394054  0.001721  0.748859  1
  Si  Si14  1  0.001721  0.394054  0.748859  1
  Pb  Pb15  1  0.395177  0.395177  0.251024  1
