# generated using pymatgen
data_U3Nb(SiRu5)2
_symmetry_space_group_name_H-M   'P 1'
_cell_length_a   4.04467500
_cell_length_b   5.62278153
_cell_length_c   11.00084765
_cell_angle_alpha   89.75059882
_cell_angle_beta   90.00000000
_cell_angle_gamma   90.00000000
_symmetry_Int_Tables_number   1
_chemical_formula_structural   U3Nb(SiRu5)2
_chemical_formula_sum   'U3 Nb1 Si2 Ru10'
_cell_volume   250.18246989
_cell_formula_units_Z   1
loop_
 _symmetry_equiv_pos_site_id
 _symmetry_equiv_pos_as_xyz
  1  'x, y, z'
loop_
 _atom_site_type_symbol
 _atom_site_label
 _atom_site_symmetry_multiplicity
 _atom_site_fract_x
 _atom_site_fract_y
 _atom_site_fract_z
 _atom_site_occupancy
  U  U0  1  0.500000  0.825955  0.360655  1
  U  U1  1  0.500000  0.174023  0.645528  1
  U  U2  1  0.500000  0.324908  0.133667  1
  Nb  Nb3  1  0.500000  0.676869  0.859110  1
  Si  Si4  1  0.000000  0.499213  0.502528  1
  Si  Si5  1  0.000000  0.982389  0.993304  1
  Ru  Ru6  1  0.000000  0.509505  0.997508  1
  Ru  Ru7  1  0.000000  0.000391  0.502423  1
  Ru  Ru8  1  0.000000  0.573543  0.252857  1
  Ru  Ru9  1  0.000000  0.430071  0.748764  1
  Ru  Ru10  1  0.000000  0.074681  0.244582  1
  Ru  Ru11  1  0.000000  0.923849  0.757976  1
  Ru  Ru12  1  0.500000  0.823301  0.103716  1
  Ru  Ru13  1  0.500000  0.179284  0.894962  1
  Ru  Ru14  1  0.500000  0.324201  0.394336  1
  Ru  Ru15  1  0.500000  0.677816  0.608085  1
