# generated using pymatgen
data_Dy3In4RhAu
_symmetry_space_group_name_H-M   'P 1'
_cell_length_a   7.92669800
_cell_length_b   7.92669828
_cell_length_c   3.87885100
_cell_angle_alpha   90.00000000
_cell_angle_beta   90.00000000
_cell_angle_gamma   120.00001554
_symmetry_Int_Tables_number   1
_chemical_formula_structural   Dy3In4RhAu
_chemical_formula_sum   'Dy3 In4 Rh1 Au1'
_cell_volume   211.06601012
_cell_formula_units_Z   1
loop_
 _symmetry_equiv_pos_site_id
 _symmetry_equiv_pos_as_xyz
  1  'x, y, z'
loop_
 _atom_site_type_symbol
 _atom_site_label
 _atom_site_symmetry_multiplicity
 _atom_site_fract_x
 _atom_site_fract_y
 _atom_site_fract_z
 _atom_site_occupancy
  Dy  Dy0  1  0.047267  0.297549  0.500000  1
  Dy  Dy1  1  0.702451  0.749716  0.500000  1
  Dy  Dy2  1  0.250284  0.952733  0.500000  1
  In  In3  1  0.666826  0.067381  0.000000  1
  In  In4  1  0.932619  0.599446  0.000000  1
  In  In5  1  0.400554  0.333174  0.000000  1
  In  In6  1  0.333333  0.666667  0.000000  1
  Rh  Rh7  1  0.000000  0.000000  0.000000  1
  Au  Au8  1  0.666667  0.333333  0.500000  1
