# generated using pymatgen
data_Tb8Re3OsC8
_symmetry_space_group_name_H-M   'P 1'
_cell_length_a   5.15294300
_cell_length_b   6.57781209
_cell_length_c   9.88651601
_cell_angle_alpha   89.85051492
_cell_angle_beta   90.00000000
_cell_angle_gamma   90.00000000
_symmetry_Int_Tables_number   1
_chemical_formula_structural   Tb8Re3OsC8
_chemical_formula_sum   'Tb8 Re3 Os1 C8'
_cell_volume   335.10321696
_cell_formula_units_Z   1
loop_
 _symmetry_equiv_pos_site_id
 _symmetry_equiv_pos_as_xyz
  1  'x, y, z'
loop_
 _atom_site_type_symbol
 _atom_site_label
 _atom_site_symmetry_multiplicity
 _atom_site_fract_x
 _atom_site_fract_y
 _atom_site_fract_z
 _atom_site_occupancy
  Tb  Tb0  1  0.250000  0.678595  0.554258  1
  Tb  Tb1  1  0.750000  0.318896  0.444754  1
  Tb  Tb2  1  0.750000  0.819286  0.055095  1
  Tb  Tb3  1  0.250000  0.180705  0.944853  1
  Tb  Tb4  1  0.250000  0.530631  0.215902  1
  Tb  Tb5  1  0.750000  0.467461  0.785288  1
  Tb  Tb6  1  0.750000  0.969639  0.712479  1
  Tb  Tb7  1  0.250000  0.030634  0.284878  1
  Re  Re8  1  0.250000  0.722054  0.864266  1
  Re  Re9  1  0.750000  0.277906  0.134418  1
  Re  Re10  1  0.750000  0.777312  0.365361  1
  Os  Os11  1  0.250000  0.222649  0.635833  1
  C  C12  1  0.250000  0.456081  0.758920  1
  C  C13  1  0.750000  0.544478  0.241029  1
  C  C14  1  0.750000  0.044360  0.259142  1
  C  C15  1  0.250000  0.956455  0.742067  1
  C  C16  1  0.250000  0.822570  0.048051  1
  C  C17  1  0.750000  0.178442  0.950755  1
  C  C18  1  0.750000  0.678390  0.549847  1
  C  C19  1  0.250000  0.323456  0.452806  1
