# generated using pymatgen
data_La2Y4TcRu
_symmetry_space_group_name_H-M   'P 1'
_cell_length_a   6.50206419
_cell_length_b   7.38663156
_cell_length_c   9.48884200
_cell_angle_alpha   90.00000000
_cell_angle_beta   90.00000000
_cell_angle_gamma   90.21610217
_symmetry_Int_Tables_number   1
_chemical_formula_structural   La2Y4TcRu
_chemical_formula_sum   'La4 Y8 Tc2 Ru2'
_cell_volume   455.73020760
_cell_formula_units_Z   2
loop_
 _symmetry_equiv_pos_site_id
 _symmetry_equiv_pos_as_xyz
  1  'x, y, z'
loop_
 _atom_site_type_symbol
 _atom_site_label
 _atom_site_symmetry_multiplicity
 _atom_site_fract_x
 _atom_site_fract_y
 _atom_site_fract_z
 _atom_site_occupancy
  La  La0  1  0.630440  0.055343  0.250000  1
  La  La1  1  0.369560  0.944657  0.750000  1
  La  La2  1  0.132388  0.445895  0.750000  1
  La  La3  1  0.867612  0.554105  0.250000  1
  Y  Y4  1  0.167065  0.173476  0.067660  1
  Y  Y5  1  0.832935  0.826524  0.932340  1
  Y  Y6  1  0.665579  0.326282  0.933408  1
  Y  Y7  1  0.832935  0.826524  0.567660  1
  Y  Y8  1  0.334421  0.673718  0.066592  1
  Y  Y9  1  0.167065  0.173476  0.432340  1
  Y  Y10  1  0.334421  0.673718  0.433408  1
  Y  Y11  1  0.665579  0.326282  0.566592  1
  Tc  Tc12  1  0.479925  0.372025  0.250000  1
  Tc  Tc13  1  0.520075  0.627975  0.750000  1
  Ru  Ru14  1  0.967383  0.123427  0.750000  1
  Ru  Ru15  1  0.032617  0.876573  0.250000  1
