# generated using pymatgen
data_YHo3Al18(PdRh)3
_symmetry_space_group_name_H-M   'P 1'
_cell_length_a   7.60300014
_cell_length_b   7.60398660
_cell_length_c   9.43847004
_cell_angle_alpha   90.00707414
_cell_angle_beta   90.00722703
_cell_angle_gamma   119.60875933
_symmetry_Int_Tables_number   1
_chemical_formula_structural   YHo3Al18(PdRh)3
_chemical_formula_sum   'Y1 Ho3 Al18 Pd3 Rh3'
_cell_volume   474.41374076
_cell_formula_units_Z   1
loop_
 _symmetry_equiv_pos_site_id
 _symmetry_equiv_pos_as_xyz
  1  'x, y, z'
loop_
 _atom_site_type_symbol
 _atom_site_label
 _atom_site_symmetry_multiplicity
 _atom_site_fract_x
 _atom_site_fract_y
 _atom_site_fract_z
 _atom_site_occupancy
  Y  Y0  1  0.996225  0.669752  0.249852  1
  Ho  Ho1  1  0.005692  0.331389  0.750026  1
  Ho  Ho2  1  0.668553  0.994297  0.249972  1
  Ho  Ho3  1  0.330187  0.003785  0.750186  1
  Al  Al4  1  0.124877  0.126060  0.249291  1
  Al  Al5  1  0.874262  0.875214  0.750706  1
  Al  Al6  1  0.995635  0.330336  0.074915  1
  Al  Al7  1  0.996656  0.665041  0.924550  1
  Al  Al8  1  0.999214  0.669173  0.577281  1
  Al  Al9  1  0.331157  0.001113  0.423235  1
  Al  Al10  1  0.000034  0.330647  0.423745  1
  Al  Al11  1  0.669047  0.999977  0.576480  1
  Al  Al12  1  0.669352  0.004355  0.924854  1
  Al  Al13  1  0.335250  0.003642  0.074943  1
  Al  Al14  1  0.330320  0.330245  0.556187  1
  Al  Al15  1  0.669507  0.669715  0.444069  1
  Al  Al16  1  0.670699  0.667783  0.052414  1
  Al  Al17  1  0.332226  0.329059  0.947333  1
  Al  Al18  1  0.340288  0.545602  0.249266  1
  Al  Al19  1  0.659142  0.451128  0.753278  1
  Al  Al20  1  0.548475  0.340491  0.246707  1
  Al  Al21  1  0.454318  0.659968  0.750730  1
  Pd  Pd22  1  0.327219  0.672792  0.999982  1
  Pd  Pd23  1  0.327407  0.672603  0.500015  1
  Pd  Pd24  1  0.672077  0.327914  0.500022  1
  Rh  Rh25  1  0.672054  0.327890  0.999961  1
  Rh  Rh26  1  0.000225  0.999854  0.999949  1
  Rh  Rh27  1  0.999903  0.000177  0.500051  1
