# generated using pymatgen
data_Tb3Pr2SmOsBr10
_symmetry_space_group_name_H-M   'P 1'
_cell_length_a   7.55019663
_cell_length_b   9.47245893
_cell_length_c   9.40930862
_cell_angle_alpha   107.36327947
_cell_angle_beta   95.62232103
_cell_angle_gamma   106.39841372
_symmetry_Int_Tables_number   1
_chemical_formula_structural   Tb3Pr2SmOsBr10
_chemical_formula_sum   'Tb3 Pr2 Sm1 Os1 Br10'
_cell_volume   603.82655700
_cell_formula_units_Z   1
loop_
 _symmetry_equiv_pos_site_id
 _symmetry_equiv_pos_as_xyz
  1  'x, y, z'
loop_
 _atom_site_type_symbol
 _atom_site_label
 _atom_site_symmetry_multiplicity
 _atom_site_fract_x
 _atom_site_fract_y
 _atom_site_fract_z
 _atom_site_occupancy
  Tb  Tb0  1  0.527282  0.198783  0.404668  1
  Tb  Tb1  1  0.471470  0.801145  0.594398  1
  Tb  Tb2  1  0.136708  0.360112  0.319287  1
  Pr  Pr3  1  0.625637  0.549189  0.260213  1
  Pr  Pr4  1  0.371630  0.449594  0.738739  1
  Sm  Sm5  1  0.866944  0.640334  0.681978  1
  Os  Os6  1  0.499499  0.499759  0.499999  1
  Br  Br7  1  0.153679  0.051145  0.231195  1
  Br  Br8  1  0.843890  0.953040  0.769086  1
  Br  Br9  1  0.241911  0.412775  0.051195  1
  Br  Br10  1  0.754526  0.585544  0.952008  1
  Br  Br11  1  0.714662  0.240838  0.159181  1
  Br  Br12  1  0.291401  0.760799  0.843111  1
  Br  Br13  1  0.052768  0.673751  0.417410  1
  Br  Br14  1  0.948050  0.323131  0.577634  1
  Br  Br15  1  0.415788  0.123756  0.665428  1
  Br  Br16  1  0.584155  0.876303  0.334470  1
