# generated using pymatgen
data_Yb12Si8Ir5Pd3
_symmetry_space_group_name_H-M   'P 1'
_cell_length_a   5.68727214
_cell_length_b   7.70896850
_cell_length_c   13.31663806
_cell_angle_alpha   89.95032194
_cell_angle_beta   89.82954439
_cell_angle_gamma   90.47045389
_symmetry_Int_Tables_number   1
_chemical_formula_structural   Yb12Si8Ir5Pd3
_chemical_formula_sum   'Yb12 Si8 Ir5 Pd3'
_cell_volume   583.81888973
_cell_formula_units_Z   1
loop_
 _symmetry_equiv_pos_site_id
 _symmetry_equiv_pos_as_xyz
  1  'x, y, z'
loop_
 _atom_site_type_symbol
 _atom_site_label
 _atom_site_symmetry_multiplicity
 _atom_site_fract_x
 _atom_site_fract_y
 _atom_site_fract_z
 _atom_site_occupancy
  Yb  Yb0  1  0.647002  0.238231  0.251989  1
  Yb  Yb1  1  0.349013  0.760957  0.748259  1
  Yb  Yb2  1  0.364492  0.739081  0.251367  1
  Yb  Yb3  1  0.633537  0.257880  0.749891  1
  Yb  Yb4  1  0.134833  0.386668  0.099132  1
  Yb  Yb5  1  0.862050  0.614158  0.901497  1
  Yb  Yb6  1  0.865289  0.613974  0.597051  1
  Yb  Yb7  1  0.862339  0.894708  0.400490  1
  Yb  Yb8  1  0.140756  0.392008  0.400500  1
  Yb  Yb9  1  0.141260  0.103068  0.599120  1
  Yb  Yb10  1  0.139605  0.102272  0.900585  1
  Yb  Yb11  1  0.858179  0.895784  0.100600  1
  Si  Si12  1  0.163692  0.089555  0.249721  1
  Si  Si13  1  0.832266  0.909069  0.749325  1
  Si  Si14  1  0.848188  0.592135  0.252930  1
  Si  Si15  1  0.144295  0.402541  0.751537  1
  Si  Si16  1  0.619717  0.238090  0.998878  1
  Si  Si17  1  0.379178  0.761792  0.002288  1
  Si  Si18  1  0.400907  0.756136  0.495734  1
  Si  Si19  1  0.613698  0.246148  0.495905  1
  Ir  Ir20  1  0.370498  0.036919  0.093660  1
  Ir  Ir21  1  0.629046  0.962839  0.906325  1
  Ir  Ir22  1  0.634092  0.971837  0.591903  1
  Ir  Ir23  1  0.632686  0.528162  0.411576  1
  Ir  Ir24  1  0.366015  0.034729  0.406663  1
  Pd  Pd25  1  0.368340  0.470313  0.592580  1
  Pd  Pd26  1  0.370294  0.472384  0.910611  1
  Pd  Pd27  1  0.628734  0.528563  0.089881  1
