# generated using pymatgen
data_Yb10CuHg2Ir3
_symmetry_space_group_name_H-M   'P 1'
_cell_length_a   8.81651870
_cell_length_b   8.81651804
_cell_length_c   8.85898653
_cell_angle_alpha   128.34740372
_cell_angle_beta   128.34739572
_cell_angle_gamma   75.70980396
_symmetry_Int_Tables_number   1
_chemical_formula_structural   Yb10CuHg2Ir3
_chemical_formula_sum   'Yb10 Cu1 Hg2 Ir3'
_cell_volume   412.73373537
_cell_formula_units_Z   1
loop_
 _symmetry_equiv_pos_site_id
 _symmetry_equiv_pos_as_xyz
  1  'x, y, z'
loop_
 _atom_site_type_symbol
 _atom_site_label
 _atom_site_symmetry_multiplicity
 _atom_site_fract_x
 _atom_site_fract_y
 _atom_site_fract_z
 _atom_site_occupancy
  Yb  Yb0  1  0.502665  0.505816  0.008481  1
  Yb  Yb1  1  0.994184  0.997335  0.991519  1
  Yb  Yb2  1  0.539439  0.031550  0.836936  1
  Yb  Yb3  1  0.202504  0.694615  0.163064  1
  Yb  Yb4  1  0.027777  0.212848  0.500000  1
  Yb  Yb5  1  0.705139  0.537470  0.500000  1
  Yb  Yb6  1  0.468450  0.960561  0.163064  1
  Yb  Yb7  1  0.805385  0.297496  0.836936  1
  Yb  Yb8  1  0.962530  0.794861  0.500000  1
  Yb  Yb9  1  0.287152  0.472223  0.500000  1
  Cu  Cu10  1  0.379225  0.120775  0.500000  1
  Hg  Hg11  1  0.252123  0.247877  0.000000  1
  Hg  Hg12  1  0.752123  0.747877  0.000000  1
  Ir  Ir13  1  0.135125  0.635795  0.770921  1
  Ir  Ir14  1  0.864205  0.364875  0.229079  1
  Ir  Ir15  1  0.621974  0.878026  0.500000  1
