# generated using pymatgen
data_Pr3Y2Sn10(IrRh)2
_symmetry_space_group_name_H-M   'P 1'
_cell_length_a   14.20127200
_cell_length_b   14.17598400
_cell_length_c   4.61386200
_cell_angle_alpha   90.00000000
_cell_angle_beta   90.00000000
_cell_angle_gamma   90.00000000
_symmetry_Int_Tables_number   1
_chemical_formula_structural   Pr3Y2Sn10(IrRh)2
_chemical_formula_sum   'Pr6 Y4 Sn20 Ir4 Rh4'
_cell_volume   928.84887772
_cell_formula_units_Z   2
loop_
 _symmetry_equiv_pos_site_id
 _symmetry_equiv_pos_as_xyz
  1  'x, y, z'
loop_
 _atom_site_type_symbol
 _atom_site_label
 _atom_site_symmetry_multiplicity
 _atom_site_fract_x
 _atom_site_fract_y
 _atom_site_fract_z
 _atom_site_occupancy
  Pr  Pr0  1  0.500000  0.500000  0.000000  1
  Pr  Pr1  1  0.000000  0.000000  0.000000  1
  Pr  Pr2  1  0.887392  0.388176  0.500000  1
  Pr  Pr3  1  0.112608  0.611824  0.500000  1
  Pr  Pr4  1  0.387392  0.111824  0.500000  1
  Pr  Pr5  1  0.612608  0.888176  0.500000  1
  Y  Y6  1  0.677621  0.175801  0.500000  1
  Y  Y7  1  0.322379  0.824199  0.500000  1
  Y  Y8  1  0.177621  0.324199  0.500000  1
  Y  Y9  1  0.822379  0.675801  0.500000  1
  Sn  Sn10  1  0.569318  0.070561  0.000000  1
  Sn  Sn11  1  0.430682  0.929439  0.000000  1
  Sn  Sn12  1  0.069318  0.429439  0.000000  1
  Sn  Sn13  1  0.930682  0.570561  0.000000  1
  Sn  Sn14  1  0.653997  0.698853  0.000000  1
  Sn  Sn15  1  0.346003  0.301147  0.000000  1
  Sn  Sn16  1  0.153997  0.801147  0.000000  1
  Sn  Sn17  1  0.846003  0.198853  0.000000  1
  Sn  Sn18  1  0.301427  0.654987  0.000000  1
  Sn  Sn19  1  0.698573  0.345013  0.000000  1
  Sn  Sn20  1  0.198573  0.154987  0.000000  1
  Sn  Sn21  1  0.801427  0.845013  0.000000  1
  Sn  Sn22  1  0.662660  0.505877  0.500000  1
  Sn  Sn23  1  0.337340  0.494123  0.500000  1
  Sn  Sn24  1  0.162660  0.994123  0.500000  1
  Sn  Sn25  1  0.837340  0.005877  0.500000  1
  Sn  Sn26  1  0.494088  0.664152  0.500000  1
  Sn  Sn27  1  0.505912  0.335848  0.500000  1
  Sn  Sn28  1  0.005912  0.164152  0.500000  1
  Sn  Sn29  1  0.994088  0.835848  0.500000  1
  Ir  Ir30  1  0.747794  0.530318  0.000000  1
  Ir  Ir31  1  0.252206  0.469682  0.000000  1
  Ir  Ir32  1  0.247794  0.969682  0.000000  1
  Ir  Ir33  1  0.752206  0.030318  0.000000  1
  Rh  Rh34  1  0.470409  0.746583  0.000000  1
  Rh  Rh35  1  0.529591  0.253417  0.000000  1
  Rh  Rh36  1  0.029591  0.246583  0.000000  1
  Rh  Rh37  1  0.970409  0.753417  0.000000  1
