# generated using pymatgen
data_YbThTcB6
_symmetry_space_group_name_H-M   'P 1'
_cell_length_a   3.80183600
_cell_length_b   9.14845900
_cell_length_c   11.60396500
_cell_angle_alpha   90.00000000
_cell_angle_beta   90.00000000
_cell_angle_gamma   90.00000000
_symmetry_Int_Tables_number   1
_chemical_formula_structural   YbThTcB6
_chemical_formula_sum   'Yb4 Th4 Tc4 B24'
_cell_volume   403.59681937
_cell_formula_units_Z   4
loop_
 _symmetry_equiv_pos_site_id
 _symmetry_equiv_pos_as_xyz
  1  'x, y, z'
loop_
 _atom_site_type_symbol
 _atom_site_label
 _atom_site_symmetry_multiplicity
 _atom_site_fract_x
 _atom_site_fract_y
 _atom_site_fract_z
 _atom_site_occupancy
  Yb  Yb0  1  0.000000  0.941474  0.367538  1
  Yb  Yb1  1  0.000000  0.058526  0.632462  1
  Yb  Yb2  1  0.000000  0.441474  0.132462  1
  Yb  Yb3  1  0.000000  0.558526  0.867538  1
  Th  Th4  1  0.000000  0.321245  0.413537  1
  Th  Th5  1  0.000000  0.678755  0.586463  1
  Th  Th6  1  0.000000  0.821245  0.086463  1
  Th  Th7  1  0.000000  0.178755  0.913537  1
  Tc  Tc8  1  0.000000  0.637850  0.320586  1
  Tc  Tc9  1  0.000000  0.362150  0.679414  1
  Tc  Tc10  1  0.000000  0.137850  0.179414  1
  Tc  Tc11  1  0.000000  0.862150  0.820586  1
  B  B12  1  0.500000  0.555782  0.430519  1
  B  B13  1  0.500000  0.444218  0.569481  1
  B  B14  1  0.500000  0.055782  0.069481  1
  B  B15  1  0.500000  0.944218  0.930519  1
  B  B16  1  0.500000  0.750807  0.415555  1
  B  B17  1  0.500000  0.249193  0.584445  1
  B  B18  1  0.500000  0.250807  0.084445  1
  B  B19  1  0.500000  0.749193  0.915555  1
  B  B20  1  0.500000  0.790057  0.265676  1
  B  B21  1  0.500000  0.209943  0.734324  1
  B  B22  1  0.500000  0.290057  0.234324  1
  B  B23  1  0.500000  0.709943  0.765676  1
  B  B24  1  0.500000  0.627814  0.186380  1
  B  B25  1  0.500000  0.372186  0.813620  1
  B  B26  1  0.500000  0.127814  0.313620  1
  B  B27  1  0.500000  0.872186  0.686380  1
  B  B28  1  0.500000  0.983876  0.212862  1
  B  B29  1  0.500000  0.016124  0.787138  1
  B  B30  1  0.500000  0.483876  0.287138  1
  B  B31  1  0.500000  0.516124  0.712862  1
  B  B32  1  0.500000  0.593219  0.026148  1
  B  B33  1  0.500000  0.406781  0.973852  1
  B  B34  1  0.500000  0.093219  0.473852  1
  B  B35  1  0.500000  0.906781  0.526148  1
