# generated using pymatgen
data_Tm3In3Pd2Rh
_symmetry_space_group_name_H-M   'P 1'
_cell_length_a   7.71098300
_cell_length_b   7.71098397
_cell_length_c   3.73707700
_cell_angle_alpha   90.00000000
_cell_angle_beta   90.00000000
_cell_angle_gamma   120.00000012
_symmetry_Int_Tables_number   1
_chemical_formula_structural   Tm3In3Pd2Rh
_chemical_formula_sum   'Tm3 In3 Pd2 Rh1'
_cell_volume   192.43418441
_cell_formula_units_Z   1
loop_
 _symmetry_equiv_pos_site_id
 _symmetry_equiv_pos_as_xyz
  1  'x, y, z'
loop_
 _atom_site_type_symbol
 _atom_site_label
 _atom_site_symmetry_multiplicity
 _atom_site_fract_x
 _atom_site_fract_y
 _atom_site_fract_z
 _atom_site_occupancy
  Tm  Tm0  1  0.987273  0.399238  0.500000  1
  Tm  Tm1  1  0.600762  0.588035  0.500000  1
  Tm  Tm2  1  0.411965  0.012727  0.500000  1
  In  In3  1  0.263014  0.264038  0.000000  1
  In  In4  1  0.001024  0.736986  0.000000  1
  In  In5  1  0.735962  0.998976  0.000000  1
  Pd  Pd6  1  0.333333  0.666667  0.000000  1
  Pd  Pd7  1  0.000000  0.000000  0.500000  1
  Rh  Rh8  1  0.666667  0.333333  0.000000  1
