# generated using pymatgen
data_Rb2DyF5
_symmetry_space_group_name_H-M   'P 1'
_cell_length_a   6.96135200
_cell_length_b   7.42012900
_cell_length_c   11.55443200
_cell_angle_alpha   90.00000000
_cell_angle_beta   90.00000000
_cell_angle_gamma   90.00000000
_symmetry_Int_Tables_number   1
_chemical_formula_structural   Rb2DyF5
_chemical_formula_sum   'Rb8 Dy4 F20'
_cell_volume   596.83413092
_cell_formula_units_Z   4
loop_
 _symmetry_equiv_pos_site_id
 _symmetry_equiv_pos_as_xyz
  1  'x, y, z'
loop_
 _atom_site_type_symbol
 _atom_site_label
 _atom_site_symmetry_multiplicity
 _atom_site_fract_x
 _atom_site_fract_y
 _atom_site_fract_z
 _atom_site_occupancy
  Rb  Rb0  1  0.529228  0.498826  0.827986  1
  Rb  Rb1  1  0.470772  0.501174  0.172014  1
  Rb  Rb2  1  0.029228  0.501174  0.672014  1
  Rb  Rb3  1  0.470772  0.998826  0.172014  1
  Rb  Rb4  1  0.970772  0.498826  0.327986  1
  Rb  Rb5  1  0.529228  0.001174  0.827986  1
  Rb  Rb6  1  0.970772  0.001174  0.327986  1
  Rb  Rb7  1  0.029228  0.998826  0.672014  1
  Dy  Dy8  1  0.560050  0.750000  0.500735  1
  Dy  Dy9  1  0.439950  0.250000  0.499265  1
  Dy  Dy10  1  0.060050  0.250000  0.999265  1
  Dy  Dy11  1  0.939950  0.750000  0.000735  1
  F  F12  1  0.844358  0.750000  0.817749  1
  F  F13  1  0.155642  0.250000  0.182251  1
  F  F14  1  0.344358  0.250000  0.682251  1
  F  F15  1  0.655642  0.750000  0.317749  1
  F  F16  1  0.374168  0.750000  0.655882  1
  F  F17  1  0.625832  0.250000  0.344118  1
  F  F18  1  0.874168  0.250000  0.844118  1
  F  F19  1  0.125832  0.750000  0.155882  1
  F  F20  1  0.875107  0.750000  0.515902  1
  F  F21  1  0.124893  0.250000  0.484098  1
  F  F22  1  0.375107  0.250000  0.984098  1
  F  F23  1  0.624893  0.750000  0.015902  1
  F  F24  1  0.637926  0.033595  0.573066  1
  F  F25  1  0.362074  0.966405  0.426934  1
  F  F26  1  0.137926  0.966405  0.926934  1
  F  F27  1  0.362074  0.533595  0.426934  1
  F  F28  1  0.862074  0.033595  0.073066  1
  F  F29  1  0.637926  0.466405  0.573066  1
  F  F30  1  0.862074  0.466405  0.073066  1
  F  F31  1  0.137926  0.533595  0.926934  1
