# generated using pymatgen
data_Nd3TcBO9
_symmetry_space_group_name_H-M   'P 1'
_cell_length_a   8.72015400
_cell_length_b   8.72015300
_cell_length_c   5.54094900
_cell_angle_alpha   90.00000000
_cell_angle_beta   90.00000000
_cell_angle_gamma   120.00003313
_symmetry_Int_Tables_number   1
_chemical_formula_structural   Nd3TcBO9
_chemical_formula_sum   'Nd6 Tc2 B2 O18'
_cell_volume   364.89078783
_cell_formula_units_Z   2
loop_
 _symmetry_equiv_pos_site_id
 _symmetry_equiv_pos_as_xyz
  1  'x, y, z'
loop_
 _atom_site_type_symbol
 _atom_site_label
 _atom_site_symmetry_multiplicity
 _atom_site_fract_x
 _atom_site_fract_y
 _atom_site_fract_z
 _atom_site_occupancy
  Nd  Nd0  1  0.365254  0.090067  0.214263  1
  Nd  Nd1  1  0.909934  0.275189  0.214263  1
  Nd  Nd2  1  0.724812  0.634746  0.214263  1
  Nd  Nd3  1  0.275189  0.365255  0.714262  1
  Nd  Nd4  1  0.090066  0.724812  0.714262  1
  Nd  Nd5  1  0.634746  0.909934  0.714262  1
  Tc  Tc6  1  0.333334  0.666667  0.246028  1
  Tc  Tc7  1  0.666666  0.333334  0.746029  1
  B  B8  1  0.000000  0.000000  0.369733  1
  B  B9  1  0.000000  0.000000  0.869732  1
  O  O10  1  0.516931  0.696829  0.030355  1
  O  O11  1  0.303171  0.820101  0.030355  1
  O  O12  1  0.179900  0.483070  0.030357  1
  O  O13  1  0.129843  0.177304  0.362126  1
  O  O14  1  0.047461  0.870157  0.362126  1
  O  O15  1  0.822695  0.952538  0.362126  1
  O  O16  1  0.142457  0.513700  0.472768  1
  O  O17  1  0.486300  0.628758  0.472768  1
  O  O18  1  0.371242  0.857542  0.472768  1
  O  O19  1  0.696829  0.179899  0.530356  1
  O  O20  1  0.483069  0.303170  0.530356  1
  O  O21  1  0.820100  0.516931  0.530356  1
  O  O22  1  0.177304  0.047461  0.862127  1
  O  O23  1  0.952538  0.129843  0.862127  1
  O  O24  1  0.870157  0.822695  0.862127  1
  O  O25  1  0.628757  0.142457  0.972766  1
  O  O26  1  0.857542  0.486299  0.972766  1
  O  O27  1  0.513700  0.371241  0.972768  1
