# generated using pymatgen
data_Y2Er14In6IrOs
_symmetry_space_group_name_H-M   'P 1'
_cell_length_a   10.32687901
_cell_length_b   10.32688113
_cell_length_c   7.07540300
_cell_angle_alpha   90.00195211
_cell_angle_beta   89.99793404
_cell_angle_gamma   120.00309475
_symmetry_Int_Tables_number   1
_chemical_formula_structural   Y2Er14In6IrOs
_chemical_formula_sum   'Y2 Er14 In6 Ir1 Os1'
_cell_volume   653.44123250
_cell_formula_units_Z   1
loop_
 _symmetry_equiv_pos_site_id
 _symmetry_equiv_pos_as_xyz
  1  'x, y, z'
loop_
 _atom_site_type_symbol
 _atom_site_label
 _atom_site_symmetry_multiplicity
 _atom_site_fract_x
 _atom_site_fract_y
 _atom_site_fract_z
 _atom_site_occupancy
  Y  Y0  1  0.000001  0.000002  0.496559  1
  Y  Y1  1  0.000004  0.999986  0.997498  1
  Er  Er2  1  0.465977  0.534035  0.481419  1
  Er  Er3  1  0.068066  0.534047  0.481402  1
  Er  Er4  1  0.465955  0.931924  0.481401  1
  Er  Er5  1  0.533783  0.466210  0.979991  1
  Er  Er6  1  0.932434  0.466216  0.980004  1
  Er  Er7  1  0.533784  0.067575  0.980005  1
  Er  Er8  1  0.822924  0.177072  0.276519  1
  Er  Er9  1  0.354142  0.177074  0.276527  1
  Er  Er10  1  0.822924  0.645855  0.276522  1
  Er  Er11  1  0.177374  0.822628  0.776448  1
  Er  Er12  1  0.645236  0.822618  0.776480  1
  Er  Er13  1  0.177383  0.354765  0.776482  1
  Er  Er14  1  0.333335  0.666666  0.101916  1
  Er  Er15  1  0.666672  0.333328  0.599643  1
  In  In16  1  0.162958  0.837040  0.232823  1
  In  In17  1  0.674092  0.837047  0.232849  1
  In  In18  1  0.162953  0.325911  0.232847  1
  In  In19  1  0.836429  0.163573  0.732088  1
  In  In20  1  0.327143  0.163572  0.732093  1
  In  In21  1  0.836429  0.672858  0.732094  1
  Ir  Ir22  1  0.666666  0.333339  0.205577  1
  Os  Os23  1  0.333332  0.666662  0.705365  1
