# generated using pymatgen
data_Yb11Ho8ErSn16
_symmetry_space_group_name_H-M   'P 1'
_cell_length_a   7.82681300
_cell_length_b   8.41511970
_cell_length_c   15.95017600
_cell_angle_alpha   90.00000000
_cell_angle_beta   90.00000000
_cell_angle_gamma   89.86990866
_symmetry_Int_Tables_number   1
_chemical_formula_structural   Yb11Ho8ErSn16
_chemical_formula_sum   'Yb11 Ho8 Er1 Sn16'
_cell_volume   1050.53279802
_cell_formula_units_Z   1
loop_
 _symmetry_equiv_pos_site_id
 _symmetry_equiv_pos_as_xyz
  1  'x, y, z'
loop_
 _atom_site_type_symbol
 _atom_site_label
 _atom_site_symmetry_multiplicity
 _atom_site_fract_x
 _atom_site_fract_y
 _atom_site_fract_z
 _atom_site_occupancy
  Yb  Yb0  1  0.503794  0.687442  0.593485  1
  Yb  Yb1  1  0.003898  0.815209  0.908416  1
  Yb  Yb2  1  0.494423  0.312000  0.092297  1
  Yb  Yb3  1  0.995817  0.187208  0.408113  1
  Yb  Yb4  1  0.494423  0.312000  0.407703  1
  Yb  Yb5  1  0.995817  0.187208  0.091887  1
  Yb  Yb6  1  0.503794  0.687442  0.906515  1
  Yb  Yb7  1  0.003898  0.815209  0.591584  1
  Yb  Yb8  1  0.336053  0.989749  0.750000  1
  Yb  Yb9  1  0.163792  0.488126  0.250000  1
  Yb  Yb10  1  0.663592  0.009572  0.250000  1
  Ho  Ho11  1  0.674084  0.163723  0.622117  1
  Ho  Ho12  1  0.175396  0.334836  0.877269  1
  Ho  Ho13  1  0.326170  0.833175  0.122027  1
  Ho  Ho14  1  0.826399  0.664235  0.378238  1
  Ho  Ho15  1  0.326170  0.833175  0.377973  1
  Ho  Ho16  1  0.826399  0.664235  0.121762  1
  Ho  Ho17  1  0.674084  0.163723  0.877883  1
  Ho  Ho18  1  0.175396  0.334836  0.622731  1
  Er  Er19  1  0.837631  0.510184  0.750000  1
  Sn  Sn20  1  0.671773  0.962638  0.459233  1
  Sn  Sn21  1  0.171526  0.536613  0.040114  1
  Sn  Sn22  1  0.328817  0.036955  0.959259  1
  Sn  Sn23  1  0.828796  0.465569  0.543876  1
  Sn  Sn24  1  0.328817  0.036955  0.540741  1
  Sn  Sn25  1  0.828796  0.465569  0.956124  1
  Sn  Sn26  1  0.671773  0.962638  0.040767  1
  Sn  Sn27  1  0.171526  0.536613  0.459886  1
  Sn  Sn28  1  0.475453  0.379829  0.750000  1
  Sn  Sn29  1  0.971640  0.132272  0.750000  1
  Sn  Sn30  1  0.528063  0.625004  0.250000  1
  Sn  Sn31  1  0.027484  0.872206  0.250000  1
  Sn  Sn32  1  0.721747  0.865452  0.750000  1
  Sn  Sn33  1  0.210037  0.631261  0.750000  1
  Sn  Sn34  1  0.280811  0.126475  0.250000  1
  Sn  Sn35  1  0.781915  0.370665  0.250000  1
