# generated using pymatgen
data_Tb5PrCo16(P6Ru)2
_symmetry_space_group_name_H-M   'P 1'
_cell_length_a   3.72522200
_cell_length_b   10.55933400
_cell_length_c   12.30993800
_cell_angle_alpha   90.00000000
_cell_angle_beta   90.00000000
_cell_angle_gamma   90.00000000
_symmetry_Int_Tables_number   1
_chemical_formula_structural   Tb5PrCo16(P6Ru)2
_chemical_formula_sum   'Tb5 Pr1 Co16 P12 Ru2'
_cell_volume   484.22203867
_cell_formula_units_Z   1
loop_
 _symmetry_equiv_pos_site_id
 _symmetry_equiv_pos_as_xyz
  1  'x, y, z'
loop_
 _atom_site_type_symbol
 _atom_site_label
 _atom_site_symmetry_multiplicity
 _atom_site_fract_x
 _atom_site_fract_y
 _atom_site_fract_z
 _atom_site_occupancy
  Tb  Tb0  1  0.500000  0.000000  0.476172  1
  Tb  Tb1  1  0.500000  0.817015  0.206581  1
  Tb  Tb2  1  0.500000  0.182985  0.206581  1
  Tb  Tb3  1  0.000000  0.683939  0.794092  1
  Tb  Tb4  1  0.000000  0.316061  0.794092  1
  Pr  Pr5  1  0.000000  0.500000  0.524879  1
  Co  Co6  1  0.500000  0.500000  0.707189  1
  Co  Co7  1  0.000000  0.000000  0.295399  1
  Co  Co8  1  0.000000  0.500000  0.986487  1
  Co  Co9  1  0.500000  0.000000  0.013782  1
  Co  Co10  1  0.500000  0.332110  0.990940  1
  Co  Co11  1  0.500000  0.667890  0.990940  1
  Co  Co12  1  0.000000  0.167359  0.009087  1
  Co  Co13  1  0.000000  0.832641  0.009087  1
  Co  Co14  1  0.500000  0.294263  0.429936  1
  Co  Co15  1  0.500000  0.705737  0.429936  1
  Co  Co16  1  0.000000  0.200643  0.569441  1
  Co  Co17  1  0.000000  0.799357  0.569441  1
  Co  Co18  1  0.500000  0.880577  0.708746  1
  Co  Co19  1  0.500000  0.119423  0.708746  1
  Co  Co20  1  0.000000  0.620922  0.290399  1
  Co  Co21  1  0.000000  0.379078  0.290399  1
  P  P22  1  0.500000  0.500000  0.883788  1
  P  P23  1  0.000000  0.000000  0.117316  1
  P  P24  1  0.500000  0.500000  0.345387  1
  P  P25  1  0.000000  0.000000  0.650928  1
  P  P26  1  0.500000  0.306418  0.617308  1
  P  P27  1  0.500000  0.693582  0.617308  1
  P  P28  1  0.000000  0.188895  0.383983  1
  P  P29  1  0.000000  0.811105  0.383983  1
  P  P30  1  0.500000  0.847083  0.894139  1
  P  P31  1  0.500000  0.152917  0.894139  1
  P  P32  1  0.000000  0.653661  0.105643  1
  P  P33  1  0.000000  0.346339  0.105643  1
  Ru  Ru34  1  0.500000  0.500000  0.157183  1
  Ru  Ru35  1  0.000000  0.000000  0.840897  1
