# generated using pymatgen
data_Dy(Y3Au5)2
_symmetry_space_group_name_H-M   'P 1'
_cell_length_a   8.76782855
_cell_length_b   8.76782934
_cell_length_c   10.44457400
_cell_angle_alpha   90.00000000
_cell_angle_beta   90.00000000
_cell_angle_gamma   107.09544715
_symmetry_Int_Tables_number   1
_chemical_formula_structural   Dy(Y3Au5)2
_chemical_formula_sum   'Dy2 Y12 Au20'
_cell_volume   767.44866536
_cell_formula_units_Z   2
loop_
 _symmetry_equiv_pos_site_id
 _symmetry_equiv_pos_as_xyz
  1  'x, y, z'
loop_
 _atom_site_type_symbol
 _atom_site_label
 _atom_site_symmetry_multiplicity
 _atom_site_fract_x
 _atom_site_fract_y
 _atom_site_fract_z
 _atom_site_occupancy
  Dy  Dy0  1  0.000000  0.000000  0.000000  1
  Dy  Dy1  1  0.500000  0.500000  0.500000  1
  Y  Y2  1  0.693209  0.306791  0.000000  1
  Y  Y3  1  0.306791  0.693209  0.000000  1
  Y  Y4  1  0.806791  0.193209  0.500000  1
  Y  Y5  1  0.193209  0.806791  0.500000  1
  Y  Y6  1  0.002950  0.502950  0.250000  1
  Y  Y7  1  0.997050  0.497050  0.750000  1
  Y  Y8  1  0.497050  0.997050  0.750000  1
  Y  Y9  1  0.502950  0.002950  0.250000  1
  Y  Y10  1  0.312892  0.312892  0.188260  1
  Y  Y11  1  0.687108  0.687108  0.811740  1
  Y  Y12  1  0.187108  0.187108  0.688260  1
  Y  Y13  1  0.812892  0.812892  0.311740  1
  Au  Au14  1  0.860191  0.149094  0.208921  1
  Au  Au15  1  0.139809  0.850906  0.791079  1
  Au  Au16  1  0.639809  0.350906  0.708921  1
  Au  Au17  1  0.649094  0.360191  0.291079  1
  Au  Au18  1  0.360191  0.649094  0.291079  1
  Au  Au19  1  0.350906  0.639809  0.708921  1
  Au  Au20  1  0.850906  0.139809  0.791079  1
  Au  Au21  1  0.149094  0.860191  0.208921  1
  Au  Au22  1  0.937548  0.645821  0.002328  1
  Au  Au23  1  0.062452  0.354179  0.997672  1
  Au  Au24  1  0.562452  0.854179  0.502328  1
  Au  Au25  1  0.145821  0.437548  0.497672  1
  Au  Au26  1  0.437548  0.145821  0.497672  1
  Au  Au27  1  0.854179  0.562452  0.502328  1
  Au  Au28  1  0.354179  0.062452  0.997672  1
  Au  Au29  1  0.645821  0.937548  0.002328  1
  Au  Au30  1  0.105414  0.105414  0.397177  1
  Au  Au31  1  0.894586  0.894586  0.602823  1
  Au  Au32  1  0.394586  0.394586  0.897177  1
  Au  Au33  1  0.605414  0.605414  0.102823  1
