# generated using pymatgen
data_Er3Fe7(P3Ir)2
_symmetry_space_group_name_H-M   'P 1'
_cell_length_a   3.75006000
_cell_length_b   10.67950300
_cell_length_c   12.21717000
_cell_angle_alpha   90.00000000
_cell_angle_beta   90.00000000
_cell_angle_gamma   90.00000000
_symmetry_Int_Tables_number   1
_chemical_formula_structural   Er3Fe7(P3Ir)2
_chemical_formula_sum   'Er6 Fe14 P12 Ir4'
_cell_volume   489.28271715
_cell_formula_units_Z   2
loop_
 _symmetry_equiv_pos_site_id
 _symmetry_equiv_pos_as_xyz
  1  'x, y, z'
loop_
 _atom_site_type_symbol
 _atom_site_label
 _atom_site_symmetry_multiplicity
 _atom_site_fract_x
 _atom_site_fract_y
 _atom_site_fract_z
 _atom_site_occupancy
  Er  Er0  1  0.750000  0.250000  0.477972  1
  Er  Er1  1  0.250000  0.750000  0.522028  1
  Er  Er2  1  0.250000  0.934023  0.796411  1
  Er  Er3  1  0.250000  0.565977  0.796411  1
  Er  Er4  1  0.750000  0.065977  0.203589  1
  Er  Er5  1  0.750000  0.434023  0.203589  1
  Fe  Fe6  1  0.750000  0.250000  0.009388  1
  Fe  Fe7  1  0.250000  0.750000  0.990612  1
  Fe  Fe8  1  0.250000  0.418690  0.005599  1
  Fe  Fe9  1  0.250000  0.081310  0.005599  1
  Fe  Fe10  1  0.750000  0.581310  0.994401  1
  Fe  Fe11  1  0.750000  0.918690  0.994401  1
  Fe  Fe12  1  0.250000  0.449521  0.569583  1
  Fe  Fe13  1  0.250000  0.050479  0.569583  1
  Fe  Fe14  1  0.750000  0.550479  0.430417  1
  Fe  Fe15  1  0.750000  0.949521  0.430417  1
  Fe  Fe16  1  0.250000  0.867339  0.288469  1
  Fe  Fe17  1  0.250000  0.632661  0.288469  1
  Fe  Fe18  1  0.750000  0.132661  0.711531  1
  Fe  Fe19  1  0.750000  0.367339  0.711531  1
  P  P20  1  0.250000  0.250000  0.109418  1
  P  P21  1  0.750000  0.750000  0.890582  1
  P  P22  1  0.250000  0.250000  0.653710  1
  P  P23  1  0.750000  0.750000  0.346290  1
  P  P24  1  0.250000  0.453666  0.385908  1
  P  P25  1  0.250000  0.046334  0.385908  1
  P  P26  1  0.750000  0.546334  0.614092  1
  P  P27  1  0.750000  0.953666  0.614092  1
  P  P28  1  0.250000  0.907209  0.103625  1
  P  P29  1  0.250000  0.592791  0.103625  1
  P  P30  1  0.750000  0.092791  0.896375  1
  P  P31  1  0.750000  0.407209  0.896375  1
  Ir  Ir32  1  0.250000  0.250000  0.844394  1
  Ir  Ir33  1  0.750000  0.750000  0.155606  1
  Ir  Ir34  1  0.250000  0.250000  0.302730  1
  Ir  Ir35  1  0.750000  0.750000  0.697270  1
