# generated using pymatgen
data_TmNb8InSe16
_symmetry_space_group_name_H-M   'P 1'
_cell_length_a   7.04044000
_cell_length_b   7.04044009
_cell_length_c   14.86034600
_cell_angle_alpha   90.00000000
_cell_angle_beta   90.00000000
_cell_angle_gamma   119.99999957
_symmetry_Int_Tables_number   1
_chemical_formula_structural   TmNb8InSe16
_chemical_formula_sum   'Tm1 Nb8 In1 Se16'
_cell_volume   637.90963834
_cell_formula_units_Z   1
loop_
 _symmetry_equiv_pos_site_id
 _symmetry_equiv_pos_as_xyz
  1  'x, y, z'
loop_
 _atom_site_type_symbol
 _atom_site_label
 _atom_site_symmetry_multiplicity
 _atom_site_fract_x
 _atom_site_fract_y
 _atom_site_fract_z
 _atom_site_occupancy
  Tm  Tm0  1  0.000000  0.000000  0.500000  1
  Nb  Nb1  1  0.000000  0.000000  0.261571  1
  Nb  Nb2  1  0.000000  0.000000  0.738429  1
  Nb  Nb3  1  0.504172  0.008345  0.258517  1
  Nb  Nb4  1  0.991655  0.495828  0.258517  1
  Nb  Nb5  1  0.504172  0.495828  0.258517  1
  Nb  Nb6  1  0.495828  0.991655  0.741483  1
  Nb  Nb7  1  0.008345  0.504172  0.741483  1
  Nb  Nb8  1  0.495828  0.504172  0.741483  1
  In  In9  1  0.000000  0.000000  0.000000  1
  Se  Se10  1  0.333333  0.666667  0.854097  1
  Se  Se11  1  0.666667  0.333333  0.145903  1
  Se  Se12  1  0.666667  0.333333  0.372407  1
  Se  Se13  1  0.333333  0.666667  0.627593  1
  Se  Se14  1  0.169552  0.830448  0.371990  1
  Se  Se15  1  0.169552  0.339104  0.371990  1
  Se  Se16  1  0.660896  0.830448  0.371990  1
  Se  Se17  1  0.830448  0.169552  0.628010  1
  Se  Se18  1  0.830448  0.660896  0.628010  1
  Se  Se19  1  0.339104  0.169552  0.628010  1
  Se  Se20  1  0.834096  0.165904  0.850441  1
  Se  Se21  1  0.834096  0.668193  0.850441  1
  Se  Se22  1  0.331807  0.165904  0.850441  1
  Se  Se23  1  0.165904  0.834096  0.149559  1
  Se  Se24  1  0.165904  0.331807  0.149559  1
  Se  Se25  1  0.668193  0.834096  0.149559  1
