# generated using pymatgen
data_Y16NiAg4Rh3
_symmetry_space_group_name_H-M   'P 1'
_cell_length_a   9.52473336
_cell_length_b   9.52322432
_cell_length_c   9.52415460
_cell_angle_alpha   60.59843568
_cell_angle_beta   60.58828634
_cell_angle_gamma   60.59426288
_symmetry_Int_Tables_number   1
_chemical_formula_structural   Y16NiAg4Rh3
_chemical_formula_sum   'Y16 Ni1 Ag4 Rh3'
_cell_volume   619.06007578
_cell_formula_units_Z   1
loop_
 _symmetry_equiv_pos_site_id
 _symmetry_equiv_pos_as_xyz
  1  'x, y, z'
loop_
 _atom_site_type_symbol
 _atom_site_label
 _atom_site_symmetry_multiplicity
 _atom_site_fract_x
 _atom_site_fract_y
 _atom_site_fract_z
 _atom_site_occupancy
  Y  Y0  1  0.604145  0.604127  0.604160  1
  Y  Y1  1  0.601794  0.601873  0.190139  1
  Y  Y2  1  0.601872  0.190124  0.601861  1
  Y  Y3  1  0.190111  0.601874  0.601817  1
  Y  Y4  1  0.064557  0.437938  0.437940  1
  Y  Y5  1  0.436822  0.062066  0.062066  1
  Y  Y6  1  0.437704  0.064803  0.437709  1
  Y  Y7  1  0.062321  0.436584  0.062306  1
  Y  Y8  1  0.437801  0.437826  0.064682  1
  Y  Y9  1  0.062206  0.062197  0.436692  1
  Y  Y10  1  0.185506  0.813852  0.813844  1
  Y  Y11  1  0.814762  0.185760  0.185724  1
  Y  Y12  1  0.814035  0.185337  0.814004  1
  Y  Y13  1  0.185560  0.814920  0.185583  1
  Y  Y14  1  0.813917  0.813901  0.185439  1
  Y  Y15  1  0.185688  0.185679  0.814808  1
  Ni  Ni16  1  0.393366  0.393139  0.393334  1
  Ag  Ag17  1  0.832325  0.832357  0.832355  1
  Ag  Ag18  1  0.832310  0.832295  0.504781  1
  Ag  Ag19  1  0.832317  0.504793  0.832298  1
  Ag  Ag20  1  0.504779  0.832307  0.832324  1
  Rh  Rh21  1  0.393740  0.393858  0.818531  1
  Rh  Rh22  1  0.393822  0.818536  0.393864  1
  Rh  Rh23  1  0.818539  0.393852  0.393742  1
