# generated using pymatgen
data_Cs12FeMo3S16
_symmetry_space_group_name_H-M   'P 1'
_cell_length_a   9.97850761
_cell_length_b   10.11582832
_cell_length_c   11.74958800
_cell_angle_alpha   90.00000000
_cell_angle_beta   90.00000000
_cell_angle_gamma   89.51285704
_symmetry_Int_Tables_number   1
_chemical_formula_structural   Cs12FeMo3S16
_chemical_formula_sum   'Cs12 Fe1 Mo3 S16'
_cell_volume   1185.97076638
_cell_formula_units_Z   1
loop_
 _symmetry_equiv_pos_site_id
 _symmetry_equiv_pos_as_xyz
  1  'x, y, z'
loop_
 _atom_site_type_symbol
 _atom_site_label
 _atom_site_symmetry_multiplicity
 _atom_site_fract_x
 _atom_site_fract_y
 _atom_site_fract_z
 _atom_site_occupancy
  Cs  Cs0  1  0.541429  0.715939  0.035681  1
  Cs  Cs1  1  0.053959  0.801725  0.472029  1
  Cs  Cs2  1  0.438809  0.278457  0.547531  1
  Cs  Cs3  1  0.970773  0.194264  0.945724  1
  Cs  Cs4  1  0.438809  0.278457  0.952469  1
  Cs  Cs5  1  0.970773  0.194264  0.554276  1
  Cs  Cs6  1  0.541429  0.715939  0.464319  1
  Cs  Cs7  1  0.053959  0.801725  0.027971  1
  Cs  Cs8  1  0.349622  0.076613  0.250000  1
  Cs  Cs9  1  0.850906  0.412800  0.250000  1
  Cs  Cs10  1  0.632465  0.925512  0.750000  1
  Cs  Cs11  1  0.156195  0.592064  0.750000  1
  Fe  Fe12  1  0.224797  0.018450  0.750000  1
  Mo  Mo13  1  0.273940  0.516741  0.250000  1
  Mo  Mo14  1  0.778158  0.982448  0.250000  1
  Mo  Mo15  1  0.725861  0.482443  0.750000  1
  S  S16  1  0.289263  0.735998  0.250000  1
  S  S17  1  0.791235  0.762189  0.250000  1
  S  S18  1  0.709348  0.264021  0.750000  1
  S  S19  1  0.208423  0.245610  0.750000  1
  S  S20  1  0.479239  0.426785  0.250000  1
  S  S21  1  0.984120  0.067342  0.250000  1
  S  S22  1  0.520814  0.569910  0.750000  1
  S  S23  1  0.014502  0.930925  0.750000  1
  S  S24  1  0.164772  0.456318  0.093568  1
  S  S25  1  0.671076  0.048922  0.405278  1
  S  S26  1  0.832997  0.544026  0.593676  1
  S  S27  1  0.331740  0.955423  0.913487  1
  S  S28  1  0.832997  0.544026  0.906324  1
  S  S29  1  0.331740  0.955423  0.586513  1
  S  S30  1  0.164772  0.456318  0.406432  1
  S  S31  1  0.671076  0.048922  0.094722  1
