# generated using pymatgen
data_Ca2Ga6CuAu
_symmetry_space_group_name_H-M   'P 1'
_cell_length_a   4.28732900
_cell_length_b   4.28732900
_cell_length_c   10.86492500
_cell_angle_alpha   90.00000000
_cell_angle_beta   90.00000000
_cell_angle_gamma   90.00000000
_symmetry_Int_Tables_number   1
_chemical_formula_structural   Ca2Ga6CuAu
_chemical_formula_sum   'Ca2 Ga6 Cu1 Au1'
_cell_volume   199.71025026
_cell_formula_units_Z   1
loop_
 _symmetry_equiv_pos_site_id
 _symmetry_equiv_pos_as_xyz
  1  'x, y, z'
loop_
 _atom_site_type_symbol
 _atom_site_label
 _atom_site_symmetry_multiplicity
 _atom_site_fract_x
 _atom_site_fract_y
 _atom_site_fract_z
 _atom_site_occupancy
  Ca  Ca0  1  0.000000  0.000000  0.992573  1
  Ca  Ca1  1  0.500000  0.500000  0.502826  1
  Ga  Ga2  1  0.000000  0.500000  0.256311  1
  Ga  Ga3  1  0.500000  0.000000  0.736160  1
  Ga  Ga4  1  0.500000  0.000000  0.256311  1
  Ga  Ga5  1  0.000000  0.500000  0.736160  1
  Ga  Ga6  1  0.000000  0.000000  0.402428  1
  Ga  Ga7  1  0.500000  0.500000  0.881823  1
  Cu  Cu8  1  0.000000  0.000000  0.621625  1
  Au  Au9  1  0.500000  0.500000  0.113782  1
