# generated using pymatgen
data_IrCl30
_symmetry_space_group_name_H-M   'P 1'
_cell_length_a   13.72959321
_cell_length_b   13.72959374
_cell_length_c   16.05384447
_cell_angle_alpha   83.84696683
_cell_angle_beta   83.84696586
_cell_angle_gamma   125.02618921
_symmetry_Int_Tables_number   1
_chemical_formula_structural   IrCl30
_chemical_formula_sum   'Ir1 Cl30'
_cell_volume   2410.35722841
_cell_formula_units_Z   1
loop_
 _symmetry_equiv_pos_site_id
 _symmetry_equiv_pos_as_xyz
  1  'x, y, z'
loop_
 _atom_site_type_symbol
 _atom_site_label
 _atom_site_symmetry_multiplicity
 _atom_site_fract_x
 _atom_site_fract_y
 _atom_site_fract_z
 _atom_site_occupancy
  Ir  Ir0  1  0.000000  0.000000  0.000000  1
  Cl  Cl1  1  0.946570  0.946570  0.149917  1
  Cl  Cl2  1  0.053430  0.053430  0.850083  1
  Cl  Cl3  1  0.058744  0.192031  0.005212  1
  Cl  Cl4  1  0.941256  0.807969  0.994788  1
  Cl  Cl5  1  0.192031  0.058744  0.005212  1
  Cl  Cl6  1  0.807969  0.941256  0.994788  1
  Cl  Cl7  1  0.203661  0.743369  0.063777  1
  Cl  Cl8  1  0.796339  0.256631  0.936223  1
  Cl  Cl9  1  0.701011  0.076719  0.263299  1
  Cl  Cl10  1  0.256631  0.796339  0.936223  1
  Cl  Cl11  1  0.298989  0.923281  0.736701  1
  Cl  Cl12  1  0.743369  0.203661  0.063777  1
  Cl  Cl13  1  0.976996  0.198149  0.781990  1
  Cl  Cl14  1  0.923281  0.298989  0.736701  1
  Cl  Cl15  1  0.023004  0.801851  0.218010  1
  Cl  Cl16  1  0.076719  0.701011  0.263299  1
  Cl  Cl17  1  0.801851  0.023004  0.218010  1
  Cl  Cl18  1  0.198149  0.976996  0.781990  1
  Cl  Cl19  1  0.464675  0.546552  0.259001  1
  Cl  Cl20  1  0.535325  0.453448  0.740999  1
  Cl  Cl21  1  0.508022  0.206239  0.451053  1
  Cl  Cl22  1  0.453448  0.535325  0.740999  1
  Cl  Cl23  1  0.491978  0.793761  0.548947  1
  Cl  Cl24  1  0.546552  0.464675  0.259001  1
  Cl  Cl25  1  0.240223  0.429512  0.543657  1
  Cl  Cl26  1  0.793761  0.491978  0.548947  1
  Cl  Cl27  1  0.759777  0.570488  0.456343  1
  Cl  Cl28  1  0.206239  0.508022  0.451053  1
  Cl  Cl29  1  0.570488  0.759777  0.456343  1
  Cl  Cl30  1  0.429512  0.240223  0.543657  1
