# generated using pymatgen
data_Cs6VMoSe8
_symmetry_space_group_name_H-M   'P 1'
_cell_length_a   10.27247400
_cell_length_b   10.31928700
_cell_length_c   12.13481400
_cell_angle_alpha   90.00000000
_cell_angle_beta   90.00000000
_cell_angle_gamma   90.00000000
_symmetry_Int_Tables_number   1
_chemical_formula_structural   Cs6VMoSe8
_chemical_formula_sum   'Cs12 V2 Mo2 Se16'
_cell_volume   1286.34619402
_cell_formula_units_Z   2
loop_
 _symmetry_equiv_pos_site_id
 _symmetry_equiv_pos_as_xyz
  1  'x, y, z'
loop_
 _atom_site_type_symbol
 _atom_site_label
 _atom_site_symmetry_multiplicity
 _atom_site_fract_x
 _atom_site_fract_y
 _atom_site_fract_z
 _atom_site_occupancy
  Cs  Cs0  1  0.546208  0.209500  0.046325  1
  Cs  Cs1  1  0.046208  0.290500  0.453675  1
  Cs  Cs2  1  0.453601  0.792090  0.538207  1
  Cs  Cs3  1  0.953601  0.707910  0.961793  1
  Cs  Cs4  1  0.453601  0.792090  0.961793  1
  Cs  Cs5  1  0.953601  0.707910  0.538207  1
  Cs  Cs6  1  0.546208  0.209500  0.453675  1
  Cs  Cs7  1  0.046208  0.290500  0.046325  1
  Cs  Cs8  1  0.647923  0.413087  0.750000  1
  Cs  Cs9  1  0.147923  0.086913  0.750000  1
  Cs  Cs10  1  0.352990  0.585642  0.250000  1
  Cs  Cs11  1  0.852990  0.914358  0.250000  1
  V  V12  1  0.277313  0.016886  0.250000  1
  V  V13  1  0.777313  0.483114  0.250000  1
  Mo  Mo14  1  0.722923  0.983324  0.750000  1
  Mo  Mo15  1  0.222923  0.516676  0.750000  1
  Se  Se16  1  0.833787  0.050255  0.588220  1
  Se  Se17  1  0.333787  0.449745  0.911780  1
  Se  Se18  1  0.169270  0.952067  0.093792  1
  Se  Se19  1  0.669270  0.547933  0.406208  1
  Se  Se20  1  0.169270  0.952067  0.406208  1
  Se  Se21  1  0.669270  0.547933  0.093792  1
  Se  Se22  1  0.833787  0.050255  0.911780  1
  Se  Se23  1  0.333787  0.449745  0.588220  1
  Se  Se24  1  0.508690  0.071681  0.750000  1
  Se  Se25  1  0.008690  0.428319  0.750000  1
  Se  Se26  1  0.485183  0.931277  0.250000  1
  Se  Se27  1  0.985183  0.568723  0.250000  1
  Se  Se28  1  0.708518  0.753568  0.750000  1
  Se  Se29  1  0.208518  0.746432  0.750000  1
  Se  Se30  1  0.290730  0.239792  0.250000  1
  Se  Se31  1  0.790730  0.260208  0.250000  1
