# generated using pymatgen
data_Hf18NiMo8S
_symmetry_space_group_name_H-M   'P 1'
_cell_length_a   8.55120200
_cell_length_b   8.66307973
_cell_length_c   8.66308033
_cell_angle_alpha   120.00095733
_cell_angle_beta   90.00000000
_cell_angle_gamma   90.00000000
_symmetry_Int_Tables_number   1
_chemical_formula_structural   Hf18NiMo8S
_chemical_formula_sum   'Hf18 Ni1 Mo8 S1'
_cell_volume   555.77404419
_cell_formula_units_Z   1
loop_
 _symmetry_equiv_pos_site_id
 _symmetry_equiv_pos_as_xyz
  1  'x, y, z'
loop_
 _atom_site_type_symbol
 _atom_site_label
 _atom_site_symmetry_multiplicity
 _atom_site_fract_x
 _atom_site_fract_y
 _atom_site_fract_z
 _atom_site_occupancy
  Hf  Hf0  1  0.549501  0.803291  0.606577  1
  Hf  Hf1  1  0.549515  0.803314  0.196686  1
  Hf  Hf2  1  0.549501  0.393423  0.196709  1
  Hf  Hf3  1  0.444266  0.200198  0.400398  1
  Hf  Hf4  1  0.444265  0.200176  0.799824  1
  Hf  Hf5  1  0.444266  0.599602  0.799802  1
  Hf  Hf6  1  0.055734  0.200198  0.400398  1
  Hf  Hf7  1  0.055735  0.200176  0.799824  1
  Hf  Hf8  1  0.055734  0.599602  0.799802  1
  Hf  Hf9  1  0.950499  0.803291  0.606577  1
  Hf  Hf10  1  0.950485  0.803314  0.196686  1
  Hf  Hf11  1  0.950499  0.393423  0.196709  1
  Hf  Hf12  1  0.750000  0.455506  0.910997  1
  Hf  Hf13  1  0.750000  0.455496  0.544504  1
  Hf  Hf14  1  0.750000  0.089003  0.544494  1
  Hf  Hf15  1  0.250000  0.542326  0.084661  1
  Hf  Hf16  1  0.250000  0.542327  0.457673  1
  Hf  Hf17  1  0.250000  0.915339  0.457674  1
  Ni  Ni18  1  0.250000  0.333317  0.666683  1
  Mo  Mo19  1  0.750000  0.111209  0.222342  1
  Mo  Mo20  1  0.750000  0.111177  0.888823  1
  Mo  Mo21  1  0.750000  0.777658  0.888791  1
  Mo  Mo22  1  0.250000  0.888185  0.776429  1
  Mo  Mo23  1  0.250000  0.888203  0.111797  1
  Mo  Mo24  1  0.250000  0.223571  0.111815  1
  Mo  Mo25  1  0.498349  0.999999  0.000001  1
  Mo  Mo26  1  0.001651  0.999999  0.000001  1
  S  S27  1  0.750000  0.666674  0.333326  1
