# generated using pymatgen
data_YbErRuPtO7
_symmetry_space_group_name_H-M   'P 1'
_cell_length_a   7.23668778
_cell_length_b   7.23668838
_cell_length_c   7.26848300
_cell_angle_alpha   59.85456098
_cell_angle_beta   59.85455823
_cell_angle_gamma   59.40111011
_symmetry_Int_Tables_number   1
_chemical_formula_structural   YbErRuPtO7
_chemical_formula_sum   'Yb2 Er2 Ru2 Pt2 O14'
_cell_volume   267.33422302
_cell_formula_units_Z   2
loop_
 _symmetry_equiv_pos_site_id
 _symmetry_equiv_pos_as_xyz
  1  'x, y, z'
loop_
 _atom_site_type_symbol
 _atom_site_label
 _atom_site_symmetry_multiplicity
 _atom_site_fract_x
 _atom_site_fract_y
 _atom_site_fract_z
 _atom_site_occupancy
  Yb  Yb0  1  0.125000  0.625000  0.125000  1
  Yb  Yb1  1  0.625000  0.125000  0.125000  1
  Er  Er2  1  0.125000  0.125000  0.625000  1
  Er  Er3  1  0.125000  0.125000  0.125000  1
  Ru  Ru4  1  0.625000  0.625000  0.125000  1
  Ru  Ru5  1  0.625000  0.625000  0.625000  1
  Pt  Pt6  1  0.625000  0.125000  0.625000  1
  Pt  Pt7  1  0.125000  0.625000  0.625000  1
  O  O8  1  0.244252  0.244252  0.255748  1
  O  O9  1  0.005748  0.005748  0.994252  1
  O  O10  1  0.540100  0.955839  0.543824  1
  O  O11  1  0.294161  0.709900  0.289763  1
  O  O12  1  0.556728  0.556728  0.943272  1
  O  O13  1  0.955839  0.540100  0.543824  1
  O  O14  1  0.540100  0.955839  0.960237  1
  O  O15  1  0.967731  0.967731  0.532269  1
  O  O16  1  0.955839  0.540100  0.960237  1
  O  O17  1  0.709900  0.294161  0.289763  1
  O  O18  1  0.294161  0.709900  0.706176  1
  O  O19  1  0.709900  0.294161  0.706176  1
  O  O20  1  0.282269  0.282269  0.717731  1
  O  O21  1  0.693272  0.693272  0.306728  1
