# generated using pymatgen
data_Li11Rh2
_symmetry_space_group_name_H-M   'P 1'
_cell_length_a   8.13138167
_cell_length_b   8.13138233
_cell_length_c   8.13138200
_cell_angle_alpha   109.47122231
_cell_angle_beta   109.47122395
_cell_angle_gamma   109.47121568
_symmetry_Int_Tables_number   1
_chemical_formula_structural   Li11Rh2
_chemical_formula_sum   'Li22 Rh4'
_cell_volume   413.87691270
_cell_formula_units_Z   2
loop_
 _symmetry_equiv_pos_site_id
 _symmetry_equiv_pos_as_xyz
  1  'x, y, z'
loop_
 _atom_site_type_symbol
 _atom_site_label
 _atom_site_symmetry_multiplicity
 _atom_site_fract_x
 _atom_site_fract_y
 _atom_site_fract_z
 _atom_site_occupancy
  Li  Li0  1  0.000000  0.800767  0.000000  1
  Li  Li1  1  0.800767  0.000000  0.000000  1
  Li  Li2  1  0.000000  0.000000  0.800767  1
  Li  Li3  1  0.199233  0.199233  0.199233  1
  Li  Li4  1  0.351165  0.604160  0.351165  1
  Li  Li5  1  0.252995  0.000000  0.648835  1
  Li  Li6  1  0.648835  0.000000  0.252995  1
  Li  Li7  1  0.252995  0.648835  0.000000  1
  Li  Li8  1  0.747005  0.747005  0.395840  1
  Li  Li9  1  0.395840  0.747005  0.747005  1
  Li  Li10  1  0.000000  0.648835  0.252995  1
  Li  Li11  1  0.000000  0.252995  0.648835  1
  Li  Li12  1  0.648835  0.252995  0.000000  1
  Li  Li13  1  0.351165  0.351165  0.604160  1
  Li  Li14  1  0.604160  0.351165  0.351165  1
  Li  Li15  1  0.747005  0.395840  0.747005  1
  Li  Li16  1  0.339523  0.339523  0.000000  1
  Li  Li17  1  0.000000  0.660477  0.660477  1
  Li  Li18  1  0.000000  0.339523  0.339523  1
  Li  Li19  1  0.339523  0.000000  0.339523  1
  Li  Li20  1  0.660477  0.000000  0.660477  1
  Li  Li21  1  0.660477  0.660477  0.000000  1
  Rh  Rh22  1  0.000000  0.345050  0.000000  1
  Rh  Rh23  1  0.345050  0.000000  0.000000  1
  Rh  Rh24  1  0.000000  0.000000  0.345050  1
  Rh  Rh25  1  0.654950  0.654950  0.654950  1
