# generated using pymatgen
data_LiTc20(B3W)2
_symmetry_space_group_name_H-M   'P 1'
_cell_length_a   8.08817250
_cell_length_b   8.08817295
_cell_length_c   8.08817300
_cell_angle_alpha   60.00000389
_cell_angle_beta   60.00000205
_cell_angle_gamma   60.00000557
_symmetry_Int_Tables_number   1
_chemical_formula_structural   LiTc20(B3W)2
_chemical_formula_sum   'Li1 Tc20 B6 W2'
_cell_volume   374.14186463
_cell_formula_units_Z   1
loop_
 _symmetry_equiv_pos_site_id
 _symmetry_equiv_pos_as_xyz
  1  'x, y, z'
loop_
 _atom_site_type_symbol
 _atom_site_label
 _atom_site_symmetry_multiplicity
 _atom_site_fract_x
 _atom_site_fract_y
 _atom_site_fract_z
 _atom_site_occupancy
  Li  Li0  1  0.000000  0.000000  0.000000  1
  Tc  Tc1  1  0.000000  0.338859  0.661141  1
  Tc  Tc2  1  0.338859  0.661141  0.000000  1
  Tc  Tc3  1  0.338859  0.000000  0.000000  1
  Tc  Tc4  1  0.661141  0.338859  0.000000  1
  Tc  Tc5  1  0.338859  0.000000  0.661141  1
  Tc  Tc6  1  0.381457  0.381457  0.855631  1
  Tc  Tc7  1  0.618543  0.618543  0.618543  1
  Tc  Tc8  1  0.000000  0.000000  0.661141  1
  Tc  Tc9  1  0.144369  0.618543  0.618543  1
  Tc  Tc10  1  0.000000  0.338859  0.000000  1
  Tc  Tc11  1  0.000000  0.661141  0.338859  1
  Tc  Tc12  1  0.661141  0.000000  0.338859  1
  Tc  Tc13  1  0.618543  0.144369  0.618543  1
  Tc  Tc14  1  0.000000  0.000000  0.338859  1
  Tc  Tc15  1  0.000000  0.661141  0.000000  1
  Tc  Tc16  1  0.661141  0.000000  0.000000  1
  Tc  Tc17  1  0.381457  0.855631  0.381457  1
  Tc  Tc18  1  0.381457  0.381457  0.381457  1
  Tc  Tc19  1  0.855631  0.381457  0.381457  1
  Tc  Tc20  1  0.618543  0.618543  0.144369  1
  B  B21  1  0.723622  0.276378  0.276378  1
  B  B22  1  0.723622  0.723622  0.276378  1
  B  B23  1  0.276378  0.723622  0.723622  1
  B  B24  1  0.723622  0.276378  0.723622  1
  B  B25  1  0.276378  0.276378  0.723622  1
  B  B26  1  0.276378  0.723622  0.276378  1
  W  W27  1  0.250000  0.250000  0.250000  1
  W  W28  1  0.750000  0.750000  0.750000  1
