# generated using pymatgen
data_Cu4Bi(AuO4)3
_symmetry_space_group_name_H-M   'P 1'
_cell_length_a   6.55894345
_cell_length_b   6.55894424
_cell_length_c   6.55894400
_cell_angle_alpha   109.47122298
_cell_angle_beta   109.47122544
_cell_angle_gamma   109.47120901
_symmetry_Int_Tables_number   1
_chemical_formula_structural   Cu4Bi(AuO4)3
_chemical_formula_sum   'Cu4 Bi1 Au3 O12'
_cell_volume   217.21003276
_cell_formula_units_Z   1
loop_
 _symmetry_equiv_pos_site_id
 _symmetry_equiv_pos_as_xyz
  1  'x, y, z'
loop_
 _atom_site_type_symbol
 _atom_site_label
 _atom_site_symmetry_multiplicity
 _atom_site_fract_x
 _atom_site_fract_y
 _atom_site_fract_z
 _atom_site_occupancy
  Cu  Cu0  1  0.500000  0.000000  0.000000  1
  Cu  Cu1  1  0.500000  0.500000  0.500000  1
  Cu  Cu2  1  0.000000  0.500000  0.000000  1
  Cu  Cu3  1  0.000000  0.000000  0.500000  1
  Bi  Bi4  1  0.000000  0.000000  0.000000  1
  Au  Au5  1  0.000000  0.500000  0.500000  1
  Au  Au6  1  0.500000  0.500000  0.000000  1
  Au  Au7  1  0.500000  0.000000  0.500000  1
  O  O8  1  0.298346  0.823972  0.122319  1
  O  O9  1  0.701654  0.176028  0.877681  1
  O  O10  1  0.701654  0.823972  0.525626  1
  O  O11  1  0.877681  0.701654  0.176028  1
  O  O12  1  0.823972  0.122319  0.298346  1
  O  O13  1  0.176028  0.474374  0.298346  1
  O  O14  1  0.474374  0.298346  0.176028  1
  O  O15  1  0.176028  0.877681  0.701654  1
  O  O16  1  0.298346  0.176028  0.474374  1
  O  O17  1  0.122319  0.298346  0.823972  1
  O  O18  1  0.823972  0.525626  0.701654  1
  O  O19  1  0.525626  0.701654  0.823972  1
