# generated using pymatgen
data_Li2Ho16In2IrRh3
_symmetry_space_group_name_H-M   'P 1'
_cell_length_a   9.58997419
_cell_length_b   9.61772105
_cell_length_c   9.62817900
_cell_angle_alpha   59.96402724
_cell_angle_beta   59.86813175
_cell_angle_gamma   59.88609109
_symmetry_Int_Tables_number   1
_chemical_formula_structural   Li2Ho16In2IrRh3
_chemical_formula_sum   'Li2 Ho16 In2 Ir1 Rh3'
_cell_volume   626.60202913
_cell_formula_units_Z   1
loop_
 _symmetry_equiv_pos_site_id
 _symmetry_equiv_pos_as_xyz
  1  'x, y, z'
loop_
 _atom_site_type_symbol
 _atom_site_label
 _atom_site_symmetry_multiplicity
 _atom_site_fract_x
 _atom_site_fract_y
 _atom_site_fract_z
 _atom_site_occupancy
  Li  Li0  1  0.822492  0.822332  0.825147  1
  Li  Li1  1  0.822492  0.822332  0.530030  1
  Ho  Ho2  1  0.185993  0.185623  0.814192  1
  Ho  Ho3  1  0.598934  0.598894  0.200799  1
  Ho  Ho4  1  0.438292  0.061319  0.440201  1
  Ho  Ho5  1  0.441408  0.442127  0.058233  1
  Ho  Ho6  1  0.813844  0.185622  0.814315  1
  Ho  Ho7  1  0.186140  0.813690  0.186930  1
  Ho  Ho8  1  0.438292  0.061319  0.060188  1
  Ho  Ho9  1  0.186140  0.813690  0.813241  1
  Ho  Ho10  1  0.061532  0.438897  0.060121  1
  Ho  Ho11  1  0.808344  0.811628  0.190014  1
  Ho  Ho12  1  0.208910  0.598648  0.596220  1
  Ho  Ho13  1  0.061532  0.438897  0.439450  1
  Ho  Ho14  1  0.066791  0.065993  0.433608  1
  Ho  Ho15  1  0.813844  0.185622  0.186221  1
  Ho  Ho16  1  0.598664  0.207809  0.596763  1
  Ho  Ho17  1  0.598934  0.598894  0.601374  1
  In  In18  1  0.505244  0.834517  0.830120  1
  In  In19  1  0.833874  0.505298  0.830415  1
  Ir  Ir20  1  0.397863  0.824233  0.388953  1
  Rh  Rh21  1  0.392948  0.393640  0.389376  1
  Rh  Rh22  1  0.824545  0.395338  0.390059  1
  Rh  Rh23  1  0.392948  0.393640  0.824037  1
