# generated using pymatgen
data_Ba20Si3Bi8As
_symmetry_space_group_name_H-M   'P 1'
_cell_length_a   9.16810461
_cell_length_b   10.60585200
_cell_length_c   14.33738591
_cell_angle_alpha   90.00000000
_cell_angle_beta   89.66456281
_cell_angle_gamma   90.00000000
_symmetry_Int_Tables_number   1
_chemical_formula_structural   Ba20Si3Bi8As
_chemical_formula_sum   'Ba20 Si3 Bi8 As1'
_cell_volume   1394.07986553
_cell_formula_units_Z   1
loop_
 _symmetry_equiv_pos_site_id
 _symmetry_equiv_pos_as_xyz
  1  'x, y, z'
loop_
 _atom_site_type_symbol
 _atom_site_label
 _atom_site_symmetry_multiplicity
 _atom_site_fract_x
 _atom_site_fract_y
 _atom_site_fract_z
 _atom_site_occupancy
  Ba  Ba0  1  0.055857  0.750000  0.498995  1
  Ba  Ba1  1  0.941597  0.250000  0.499914  1
  Ba  Ba2  1  0.557232  0.250000  0.000663  1
  Ba  Ba3  1  0.443172  0.750000  0.000292  1
  Ba  Ba4  1  0.856340  0.750000  0.800367  1
  Ba  Ba5  1  0.144328  0.250000  0.198683  1
  Ba  Ba6  1  0.354706  0.250000  0.699775  1
  Ba  Ba7  1  0.645125  0.750000  0.300147  1
  Ba  Ba8  1  0.681155  0.527366  0.576153  1
  Ba  Ba9  1  0.319840  0.470327  0.424835  1
  Ba  Ba10  1  0.179804  0.471032  0.925232  1
  Ba  Ba11  1  0.319840  0.029673  0.424835  1
  Ba  Ba12  1  0.819840  0.528482  0.073249  1
  Ba  Ba13  1  0.681155  0.972634  0.576153  1
  Ba  Ba14  1  0.819840  0.971518  0.073249  1
  Ba  Ba15  1  0.179804  0.028968  0.925232  1
  Ba  Ba16  1  0.327698  0.750000  0.715972  1
  Ba  Ba17  1  0.672388  0.250000  0.285509  1
  Ba  Ba18  1  0.830731  0.250000  0.786414  1
  Ba  Ba19  1  0.166153  0.750000  0.210836  1
  Si  Si20  1  0.065108  0.750000  0.986518  1
  Si  Si21  1  0.935238  0.250000  0.012659  1
  Si  Si22  1  0.561747  0.250000  0.512045  1
  Bi  Bi23  1  0.561050  0.507295  0.829945  1
  Bi  Bi24  1  0.439314  0.494792  0.171761  1
  Bi  Bi25  1  0.062991  0.494126  0.666982  1
  Bi  Bi26  1  0.439314  0.005208  0.171761  1
  Bi  Bi27  1  0.937849  0.508585  0.332761  1
  Bi  Bi28  1  0.561050  0.992705  0.829945  1
  Bi  Bi29  1  0.937849  0.991415  0.332761  1
  Bi  Bi30  1  0.062991  0.005874  0.666982  1
  As  As31  1  0.438893  0.750000  0.489375  1
