# generated using pymatgen
data_Lu3ScAl17SiIr6
_symmetry_space_group_name_H-M   'P 1'
_cell_length_a   7.50939731
_cell_length_b   7.50606392
_cell_length_c   9.34420200
_cell_angle_alpha   90.00000000
_cell_angle_beta   90.00000000
_cell_angle_gamma   119.68966229
_symmetry_Int_Tables_number   1
_chemical_formula_structural   Lu3ScAl17SiIr6
_chemical_formula_sum   'Lu3 Sc1 Al17 Si1 Ir6'
_cell_volume   457.55133457
_cell_formula_units_Z   1
loop_
 _symmetry_equiv_pos_site_id
 _symmetry_equiv_pos_as_xyz
  1  'x, y, z'
loop_
 _atom_site_type_symbol
 _atom_site_label
 _atom_site_symmetry_multiplicity
 _atom_site_fract_x
 _atom_site_fract_y
 _atom_site_fract_z
 _atom_site_occupancy
  Lu  Lu0  1  0.993077  0.676090  0.250000  1
  Lu  Lu1  1  0.676530  0.993372  0.250000  1
  Lu  Lu2  1  0.330158  0.003654  0.750000  1
  Sc  Sc3  1  0.003552  0.329721  0.750000  1
  Al  Al4  1  0.876427  0.877321  0.750000  1
  Al  Al5  1  0.000435  0.336922  0.074323  1
  Al  Al6  1  0.999442  0.663221  0.922630  1
  Al  Al7  1  0.999442  0.663221  0.577370  1
  Al  Al8  1  0.337151  0.000680  0.423076  1
  Al  Al9  1  0.000435  0.336922  0.425677  1
  Al  Al10  1  0.667974  0.001683  0.577419  1
  Al  Al11  1  0.667974  0.001683  0.922581  1
  Al  Al12  1  0.337151  0.000680  0.076924  1
  Al  Al13  1  0.329537  0.331510  0.561983  1
  Al  Al14  1  0.663632  0.663671  0.446678  1
  Al  Al15  1  0.663632  0.663671  0.053322  1
  Al  Al16  1  0.329537  0.331510  0.938017  1
  Al  Al17  1  0.336015  0.548986  0.250000  1
  Al  Al18  1  0.662260  0.450867  0.750000  1
  Al  Al19  1  0.549625  0.337110  0.250000  1
  Al  Al20  1  0.448555  0.659360  0.750000  1
  Si  Si21  1  0.132301  0.132828  0.250000  1
  Ir  Ir22  1  0.670296  0.326327  0.000238  1
  Ir  Ir23  1  0.326894  0.671459  0.000313  1
  Ir  Ir24  1  0.326894  0.671459  0.499687  1
  Ir  Ir25  1  0.670296  0.326327  0.499762  1
  Ir  Ir26  1  0.000390  0.999874  0.007433  1
  Ir  Ir27  1  0.000390  0.999874  0.492567  1
