# generated using pymatgen
data_Er3Tm(Si5Pt3)2
_symmetry_space_group_name_H-M   'P 1'
_cell_length_a   8.13343185
_cell_length_b   8.13081762
_cell_length_c   8.13081724
_cell_angle_alpha   136.26119822
_cell_angle_beta   104.30419483
_cell_angle_gamma   91.73872385
_symmetry_Int_Tables_number   1
_chemical_formula_structural   Er3Tm(Si5Pt3)2
_chemical_formula_sum   'Er3 Tm1 Si10 Pt6'
_cell_volume   342.27571938
_cell_formula_units_Z   1
loop_
 _symmetry_equiv_pos_site_id
 _symmetry_equiv_pos_as_xyz
  1  'x, y, z'
loop_
 _atom_site_type_symbol
 _atom_site_label
 _atom_site_symmetry_multiplicity
 _atom_site_fract_x
 _atom_site_fract_y
 _atom_site_fract_z
 _atom_site_occupancy
  Er  Er0  1  0.642254  0.370304  0.271950  1
  Er  Er1  1  0.358009  0.629788  0.728221  1
  Er  Er2  1  0.098611  0.870142  0.228469  1
  Tm  Tm3  1  0.900502  0.129580  0.770922  1
  Si  Si4  1  0.271712  0.521194  0.249294  1
  Si  Si5  1  0.728394  0.477822  0.749894  1
  Si  Si6  1  0.728394  0.978499  0.250573  1
  Si  Si7  1  0.271712  0.022418  0.750518  1
  Si  Si8  1  0.460467  0.111760  0.348707  1
  Si  Si9  1  0.539194  0.887747  0.651446  1
  Si  Si10  1  0.763727  0.611946  0.151781  1
  Si  Si11  1  0.236467  0.388246  0.848221  1
  Si  Si12  1  0.999986  0.249192  0.248781  1
  Si  Si13  1  0.999986  0.751205  0.750793  1
  Pt  Pt14  1  0.251547  0.137852  0.113694  1
  Pt  Pt15  1  0.748685  0.862324  0.886363  1
  Pt  Pt16  1  0.024320  0.637691  0.386630  1
  Pt  Pt17  1  0.975812  0.362290  0.613522  1
  Pt  Pt18  1  0.500110  0.249962  0.750070  1
  Pt  Pt19  1  0.500110  0.750040  0.250148  1
