# generated using pymatgen
data_Tm10Lu3Th3CdIn3Rh4
_symmetry_space_group_name_H-M   'P 1'
_cell_length_a   9.62932986
_cell_length_b   9.64490929
_cell_length_c   9.65048000
_cell_angle_alpha   59.95611435
_cell_angle_beta   59.90989160
_cell_angle_gamma   59.94312688
_symmetry_Int_Tables_number   1
_chemical_formula_structural   Tm10Lu3Th3CdIn3Rh4
_chemical_formula_sum   'Tm10 Lu3 Th3 Cd1 In3 Rh4'
_cell_volume   632.85004385
_cell_formula_units_Z   1
loop_
 _symmetry_equiv_pos_site_id
 _symmetry_equiv_pos_as_xyz
  1  'x, y, z'
loop_
 _atom_site_type_symbol
 _atom_site_label
 _atom_site_symmetry_multiplicity
 _atom_site_fract_x
 _atom_site_fract_y
 _atom_site_fract_z
 _atom_site_occupancy
  Tm  Tm0  1  0.193658  0.603306  0.603234  1
  Tm  Tm1  1  0.062031  0.440504  0.439610  1
  Tm  Tm2  1  0.437177  0.062397  0.062713  1
  Tm  Tm3  1  0.439181  0.062056  0.438119  1
  Tm  Tm4  1  0.062500  0.439124  0.058958  1
  Tm  Tm5  1  0.438950  0.438499  0.062241  1
  Tm  Tm6  1  0.062588  0.059029  0.438542  1
  Tm  Tm7  1  0.184200  0.814662  0.815148  1
  Tm  Tm8  1  0.814068  0.185045  0.185296  1
  Tm  Tm9  1  0.815539  0.182649  0.816483  1
  Lu  Lu10  1  0.185982  0.813267  0.187047  1
  Lu  Lu11  1  0.815053  0.815660  0.183878  1
  Lu  Lu12  1  0.186584  0.187412  0.813046  1
  Th  Th13  1  0.597184  0.598688  0.598672  1
  Th  Th14  1  0.597641  0.601172  0.201186  1
  Th  Th15  1  0.597721  0.201075  0.601041  1
  Cd  Cd16  1  0.836113  0.833370  0.833444  1
  In  In17  1  0.836954  0.833104  0.497484  1
  In  In18  1  0.836701  0.498374  0.833027  1
  In  In19  1  0.497023  0.834612  0.834974  1
  Rh  Rh20  1  0.394462  0.391001  0.391332  1
  Rh  Rh21  1  0.393404  0.390348  0.822332  1
  Rh  Rh22  1  0.393909  0.822266  0.390232  1
  Rh  Rh23  1  0.821379  0.392377  0.391961  1
