# generated using pymatgen
data_Al4CdHgBr16
_symmetry_space_group_name_H-M   'P 1'
_cell_length_a   10.39102050
_cell_length_b   10.39102079
_cell_length_c   12.44958600
_cell_angle_alpha   55.66042893
_cell_angle_beta   55.66042781
_cell_angle_gamma   49.33533999
_symmetry_Int_Tables_number   1
_chemical_formula_structural   Al4CdHgBr16
_chemical_formula_sum   'Al4 Cd1 Hg1 Br16'
_cell_volume   799.41370082
_cell_formula_units_Z   1
loop_
 _symmetry_equiv_pos_site_id
 _symmetry_equiv_pos_as_xyz
  1  'x, y, z'
loop_
 _atom_site_type_symbol
 _atom_site_label
 _atom_site_symmetry_multiplicity
 _atom_site_fract_x
 _atom_site_fract_y
 _atom_site_fract_z
 _atom_site_occupancy
  Al  Al0  1  0.165469  0.659176  0.534135  1
  Al  Al1  1  0.340824  0.834531  0.965865  1
  Al  Al2  1  0.834408  0.340308  0.464574  1
  Al  Al3  1  0.659692  0.165592  0.035426  1
  Cd  Cd4  1  0.997138  0.002862  0.250000  1
  Hg  Hg5  1  0.004609  0.995391  0.750000  1
  Br  Br6  1  0.310519  0.370725  0.545124  1
  Br  Br7  1  0.629275  0.689481  0.954876  1
  Br  Br8  1  0.689081  0.629689  0.451667  1
  Br  Br9  1  0.370311  0.310919  0.048333  1
  Br  Br10  1  0.873558  0.816600  0.526472  1
  Br  Br11  1  0.183400  0.126442  0.973528  1
  Br  Br12  1  0.127102  0.185860  0.469855  1
  Br  Br13  1  0.814140  0.872898  0.030145  1
  Br  Br14  1  0.154995  0.658379  0.728853  1
  Br  Br15  1  0.341621  0.845005  0.771147  1
  Br  Br16  1  0.846989  0.336497  0.270976  1
  Br  Br17  1  0.663503  0.153011  0.229024  1
  Br  Br18  1  0.294816  0.829794  0.332503  1
  Br  Br19  1  0.170206  0.705184  0.167497  1
  Br  Br20  1  0.701264  0.172920  0.665625  1
  Br  Br21  1  0.827080  0.298736  0.834375  1
