# generated using pymatgen
data_Zr3V(Ni4P3)2
_symmetry_space_group_name_H-M   'P 1'
_cell_length_a   3.64985000
_cell_length_b   10.45931500
_cell_length_c   12.10493700
_cell_angle_alpha   90.00000000
_cell_angle_beta   90.00000000
_cell_angle_gamma   90.00000000
_symmetry_Int_Tables_number   1
_chemical_formula_structural   Zr3V(Ni4P3)2
_chemical_formula_sum   'Zr6 V2 Ni16 P12'
_cell_volume   462.10513295
_cell_formula_units_Z   2
loop_
 _symmetry_equiv_pos_site_id
 _symmetry_equiv_pos_as_xyz
  1  'x, y, z'
loop_
 _atom_site_type_symbol
 _atom_site_label
 _atom_site_symmetry_multiplicity
 _atom_site_fract_x
 _atom_site_fract_y
 _atom_site_fract_z
 _atom_site_occupancy
  Zr  Zr0  1  0.751961  0.000000  0.472791  1
  Zr  Zr1  1  0.251961  0.500000  0.527209  1
  Zr  Zr2  1  0.251844  0.678197  0.793418  1
  Zr  Zr3  1  0.251844  0.321803  0.793418  1
  Zr  Zr4  1  0.751844  0.821803  0.206582  1
  Zr  Zr5  1  0.751844  0.178197  0.206582  1
  V  V6  1  0.251702  0.000000  0.842286  1
  V  V7  1  0.751702  0.500000  0.157714  1
  Ni  Ni8  1  0.751679  0.000000  0.015611  1
  Ni  Ni9  1  0.251679  0.500000  0.984389  1
  Ni  Ni10  1  0.251951  0.198181  0.569143  1
  Ni  Ni11  1  0.251951  0.801819  0.569143  1
  Ni  Ni12  1  0.751951  0.301819  0.430857  1
  Ni  Ni13  1  0.751951  0.698181  0.430857  1
  Ni  Ni14  1  0.251770  0.623301  0.293978  1
  Ni  Ni15  1  0.251770  0.376699  0.293978  1
  Ni  Ni16  1  0.751770  0.876699  0.706022  1
  Ni  Ni17  1  0.751770  0.123301  0.706022  1
  Ni  Ni18  1  0.251717  0.167992  0.009848  1
  Ni  Ni19  1  0.251717  0.832008  0.009848  1
  Ni  Ni20  1  0.751717  0.332008  0.990152  1
  Ni  Ni21  1  0.751717  0.667992  0.990152  1
  Ni  Ni22  1  0.251937  0.000000  0.299885  1
  Ni  Ni23  1  0.751937  0.500000  0.700115  1
  P  P24  1  0.251963  0.183160  0.383593  1
  P  P25  1  0.251963  0.816840  0.383593  1
  P  P26  1  0.751963  0.316840  0.616407  1
  P  P27  1  0.751963  0.683160  0.616407  1
  P  P28  1  0.251732  0.000000  0.122817  1
  P  P29  1  0.751732  0.500000  0.877183  1
  P  P30  1  0.251752  0.655417  0.111751  1
  P  P31  1  0.251752  0.344583  0.111751  1
  P  P32  1  0.751752  0.844583  0.888249  1
  P  P33  1  0.751752  0.155417  0.888249  1
  P  P34  1  0.251795  0.000000  0.648797  1
  P  P35  1  0.751795  0.500000  0.351203  1
