# generated using pymatgen
data_LuPa2(AlPt)3
_symmetry_space_group_name_H-M   'P 1'
_cell_length_a   7.06782102
_cell_length_b   7.07939633
_cell_length_c   4.10011600
_cell_angle_alpha   90.00000000
_cell_angle_beta   90.00000000
_cell_angle_gamma   120.05419996
_symmetry_Int_Tables_number   1
_chemical_formula_structural   LuPa2(AlPt)3
_chemical_formula_sum   'Lu1 Pa2 Al3 Pt3'
_cell_volume   177.57061304
_cell_formula_units_Z   1
loop_
 _symmetry_equiv_pos_site_id
 _symmetry_equiv_pos_as_xyz
  1  'x, y, z'
loop_
 _atom_site_type_symbol
 _atom_site_label
 _atom_site_symmetry_multiplicity
 _atom_site_fract_x
 _atom_site_fract_y
 _atom_site_fract_z
 _atom_site_occupancy
  Lu  Lu0  1  0.000000  0.586626  0.500000  1
  Pa  Pa1  1  0.422506  0.420622  0.500000  1
  Pa  Pa2  1  0.577494  0.998115  0.500000  1
  Al  Al3  1  0.767292  0.759178  0.000000  1
  Al  Al4  1  0.232708  0.991886  0.000000  1
  Al  Al5  1  0.000000  0.245711  0.000000  1
  Pt  Pt6  1  0.657073  0.325048  0.000000  1
  Pt  Pt7  1  0.342927  0.667975  0.000000  1
  Pt  Pt8  1  0.000000  0.004839  0.500000  1
