# generated using pymatgen
data_Ce3Zn2HgPdPt2
_symmetry_space_group_name_H-M   'P 1'
_cell_length_a   7.55953338
_cell_length_b   7.63688662
_cell_length_c   3.87487900
_cell_angle_alpha   90.00000000
_cell_angle_beta   90.00000000
_cell_angle_gamma   120.33907329
_symmetry_Int_Tables_number   1
_chemical_formula_structural   Ce3Zn2HgPdPt2
_chemical_formula_sum   'Ce3 Zn2 Hg1 Pd1 Pt2'
_cell_volume   193.06612504
_cell_formula_units_Z   1
loop_
 _symmetry_equiv_pos_site_id
 _symmetry_equiv_pos_as_xyz
  1  'x, y, z'
loop_
 _atom_site_type_symbol
 _atom_site_label
 _atom_site_symmetry_multiplicity
 _atom_site_fract_x
 _atom_site_fract_y
 _atom_site_fract_z
 _atom_site_occupancy
  Ce  Ce0  1  0.000000  0.405741  0.000000  1
  Ce  Ce1  1  0.586515  0.586529  0.000000  1
  Ce  Ce2  1  0.413485  0.000014  0.000000  1
  Zn  Zn3  1  0.252839  0.251366  0.500000  1
  Zn  Zn4  1  0.747161  0.998526  0.500000  1
  Hg  Hg5  1  0.000000  0.751030  0.500000  1
  Pd  Pd6  1  0.000000  0.026605  0.000000  1
  Pt  Pt7  1  0.655117  0.317653  0.500000  1
  Pt  Pt8  1  0.344883  0.662537  0.500000  1
