# generated using pymatgen
data_SrLi4Nd3Si7Ge
_symmetry_space_group_name_H-M   'P 1'
_cell_length_a   3.88669200
_cell_length_b   7.88134941
_cell_length_c   10.65090801
_cell_angle_alpha   89.69183545
_cell_angle_beta   90.00000000
_cell_angle_gamma   90.00000000
_symmetry_Int_Tables_number   1
_chemical_formula_structural   SrLi4Nd3Si7Ge
_chemical_formula_sum   'Sr1 Li4 Nd3 Si7 Ge1'
_cell_volume   326.25791808
_cell_formula_units_Z   1
loop_
 _symmetry_equiv_pos_site_id
 _symmetry_equiv_pos_as_xyz
  1  'x, y, z'
loop_
 _atom_site_type_symbol
 _atom_site_label
 _atom_site_symmetry_multiplicity
 _atom_site_fract_x
 _atom_site_fract_y
 _atom_site_fract_z
 _atom_site_occupancy
  Sr  Sr0  1  0.750000  0.362199  0.365676  1
  Li  Li1  1  0.250000  0.999126  0.391843  1
  Li  Li2  1  0.750000  0.005883  0.609111  1
  Li  Li3  1  0.250000  0.492445  0.112693  1
  Li  Li4  1  0.750000  0.501812  0.889403  1
  Nd  Nd5  1  0.250000  0.132033  0.864790  1
  Nd  Nd6  1  0.750000  0.868735  0.134224  1
  Nd  Nd7  1  0.250000  0.633854  0.633588  1
  Si  Si8  1  0.750000  0.266583  0.066017  1
  Si  Si9  1  0.750000  0.777844  0.430009  1
  Si  Si10  1  0.250000  0.230341  0.577110  1
  Si  Si11  1  0.750000  0.835304  0.817148  1
  Si  Si12  1  0.250000  0.159704  0.170811  1
  Si  Si13  1  0.750000  0.333811  0.683102  1
  Si  Si14  1  0.250000  0.676754  0.322174  1
  Ge  Ge15  1  0.250000  0.723569  0.932301  1
