# generated using pymatgen
data_TbCd2Ag3
_symmetry_space_group_name_H-M   'P 1'
_cell_length_a   5.66509372
_cell_length_b   5.63083695
_cell_length_c   5.66509400
_cell_angle_alpha   59.79854365
_cell_angle_beta   59.99999839
_cell_angle_gamma   59.79855099
_symmetry_Int_Tables_number   1
_chemical_formula_structural   TbCd2Ag3
_chemical_formula_sum   'Tb1 Cd2 Ag3'
_cell_volume   127.39225568
_cell_formula_units_Z   1
loop_
 _symmetry_equiv_pos_site_id
 _symmetry_equiv_pos_as_xyz
  1  'x, y, z'
loop_
 _atom_site_type_symbol
 _atom_site_label
 _atom_site_symmetry_multiplicity
 _atom_site_fract_x
 _atom_site_fract_y
 _atom_site_fract_z
 _atom_site_occupancy
  Tb  Tb0  1  0.751952  0.744146  0.751952  1
  Cd  Cd1  1  0.373851  0.878447  0.373851  1
  Cd  Cd2  1  0.000221  0.999336  0.000221  1
  Ag  Ag3  1  0.374383  0.376024  0.374383  1
  Ag  Ag4  1  0.875209  0.376024  0.374383  1
  Ag  Ag5  1  0.374383  0.376024  0.875209  1
