# generated using pymatgen
data_Dy2Tm6InAgIr2
_symmetry_space_group_name_H-M   'P 1'
_cell_length_a   9.51197195
_cell_length_b   9.50467865
_cell_length_c   9.53168780
_cell_angle_alpha   59.95664306
_cell_angle_beta   59.88075986
_cell_angle_gamma   59.89688613
_symmetry_Int_Tables_number   1
_chemical_formula_structural   Dy2Tm6InAgIr2
_chemical_formula_sum   'Dy4 Tm12 In2 Ag2 Ir4'
_cell_volume   608.11947504
_cell_formula_units_Z   2
loop_
 _symmetry_equiv_pos_site_id
 _symmetry_equiv_pos_as_xyz
  1  'x, y, z'
loop_
 _atom_site_type_symbol
 _atom_site_label
 _atom_site_symmetry_multiplicity
 _atom_site_fract_x
 _atom_site_fract_y
 _atom_site_fract_z
 _atom_site_occupancy
  Dy  Dy0  1  0.810500  0.185240  0.812317  1
  Dy  Dy1  1  0.185240  0.810500  0.191943  1
  Dy  Dy2  1  0.809654  0.809654  0.190346  1
  Dy  Dy3  1  0.187625  0.187625  0.812375  1
  Tm  Tm4  1  0.599531  0.599541  0.600160  1
  Tm  Tm5  1  0.599541  0.599531  0.200768  1
  Tm  Tm6  1  0.601372  0.200112  0.599264  1
  Tm  Tm7  1  0.200112  0.601372  0.599252  1
  Tm  Tm8  1  0.059631  0.439174  0.441025  1
  Tm  Tm9  1  0.439174  0.059631  0.060171  1
  Tm  Tm10  1  0.439507  0.059690  0.440992  1
  Tm  Tm11  1  0.059690  0.439507  0.059812  1
  Tm  Tm12  1  0.441508  0.441508  0.058492  1
  Tm  Tm13  1  0.060987  0.060987  0.439013  1
  Tm  Tm14  1  0.186052  0.809742  0.811708  1
  Tm  Tm15  1  0.809742  0.186052  0.192497  1
  In  In16  1  0.833060  0.507510  0.829859  1
  In  In17  1  0.507510  0.833060  0.829571  1
  Ag  Ag18  1  0.834164  0.833067  0.831603  1
  Ag  Ag19  1  0.833067  0.834164  0.501166  1
  Ir  Ir20  1  0.392823  0.392125  0.390327  1
  Ir  Ir21  1  0.392125  0.392823  0.824728  1
  Ir  Ir22  1  0.392324  0.825064  0.391644  1
  Ir  Ir23  1  0.825064  0.392324  0.390970  1
