# generated using pymatgen
data_Rb3Nd(IO3)6
_symmetry_space_group_name_H-M   'P 1'
_cell_length_a   7.31706535
_cell_length_b   7.32382822
_cell_length_c   11.16495830
_cell_angle_alpha   87.48990995
_cell_angle_beta   107.28131198
_cell_angle_gamma   107.83674813
_symmetry_Int_Tables_number   1
_chemical_formula_structural   Rb3Nd(IO3)6
_chemical_formula_sum   'Rb3 Nd1 I6 O18'
_cell_volume   543.11407872
_cell_formula_units_Z   1
loop_
 _symmetry_equiv_pos_site_id
 _symmetry_equiv_pos_as_xyz
  1  'x, y, z'
loop_
 _atom_site_type_symbol
 _atom_site_label
 _atom_site_symmetry_multiplicity
 _atom_site_fract_x
 _atom_site_fract_y
 _atom_site_fract_z
 _atom_site_occupancy
  Rb  Rb0  1  0.000000  0.000000  0.000000  1
  Rb  Rb1  1  0.832216  0.031250  0.601914  1
  Rb  Rb2  1  0.167784  0.968750  0.398086  1
  Nd  Nd3  1  0.500000  0.500000  0.000000  1
  I  I4  1  0.037667  0.476924  0.194136  1
  I  I5  1  0.962333  0.523076  0.805864  1
  I  I6  1  0.564632  0.966862  0.196973  1
  I  I7  1  0.435368  0.033138  0.803027  1
  I  I8  1  0.415505  0.554655  0.630362  1
  I  I9  1  0.584495  0.445345  0.369638  1
  O  O10  1  0.850917  0.543853  0.058824  1
  O  O11  1  0.149083  0.456147  0.941176  1
  O  O12  1  0.959194  0.549052  0.320044  1
  O  O13  1  0.040806  0.450948  0.679956  1
  O  O14  1  0.928982  0.215055  0.184742  1
  O  O15  1  0.071018  0.784945  0.815258  1
  O  O16  1  0.578244  0.829207  0.064774  1
  O  O17  1  0.421756  0.170793  0.935226  1
  O  O18  1  0.300072  0.857425  0.189489  1
  O  O19  1  0.699928  0.142575  0.810511  1
  O  O20  1  0.692285  0.848667  0.327972  1
  O  O21  1  0.307715  0.151333  0.672028  1
  O  O22  1  0.521837  0.599854  0.803292  1
  O  O23  1  0.478163  0.400146  0.196708  1
  O  O24  1  0.661103  0.571964  0.607875  1
  O  O25  1  0.338897  0.428036  0.392125  1
  O  O26  1  0.407608  0.797617  0.594708  1
  O  O27  1  0.592392  0.202383  0.405292  1
