# generated using pymatgen
data_Dy9Er(IrRh2)2
_symmetry_space_group_name_H-M   'P 1'
_cell_length_a   10.88060800
_cell_length_b   10.88060800
_cell_length_c   6.36461000
_cell_angle_alpha   90.00000000
_cell_angle_beta   90.00000000
_cell_angle_gamma   90.00000000
_symmetry_Int_Tables_number   1
_chemical_formula_structural   Dy9Er(IrRh2)2
_chemical_formula_sum   'Dy18 Er2 Ir4 Rh8'
_cell_volume   753.49109664
_cell_formula_units_Z   2
loop_
 _symmetry_equiv_pos_site_id
 _symmetry_equiv_pos_as_xyz
  1  'x, y, z'
loop_
 _atom_site_type_symbol
 _atom_site_label
 _atom_site_symmetry_multiplicity
 _atom_site_fract_x
 _atom_site_fract_y
 _atom_site_fract_z
 _atom_site_occupancy
  Dy  Dy0  1  0.291224  0.089597  0.377999  1
  Dy  Dy1  1  0.291224  0.910403  0.877999  1
  Dy  Dy2  1  0.708776  0.089597  0.877999  1
  Dy  Dy3  1  0.708776  0.910403  0.377999  1
  Dy  Dy4  1  0.587390  0.789705  0.878746  1
  Dy  Dy5  1  0.587390  0.210295  0.378746  1
  Dy  Dy6  1  0.412610  0.789705  0.378746  1
  Dy  Dy7  1  0.412610  0.210295  0.878746  1
  Dy  Dy8  1  0.210295  0.412610  0.621254  1
  Dy  Dy9  1  0.210295  0.587390  0.121254  1
  Dy  Dy10  1  0.789705  0.412610  0.121254  1
  Dy  Dy11  1  0.789705  0.587390  0.621254  1
  Dy  Dy12  1  0.910403  0.708776  0.122001  1
  Dy  Dy13  1  0.910403  0.291224  0.622001  1
  Dy  Dy14  1  0.089597  0.708776  0.622001  1
  Dy  Dy15  1  0.089597  0.291224  0.122001  1
  Dy  Dy16  1  0.000000  0.000000  0.500000  1
  Dy  Dy17  1  0.000000  0.000000  0.000000  1
  Er  Er18  1  0.500000  0.500000  0.000000  1
  Er  Er19  1  0.500000  0.500000  0.500000  1
  Ir  Ir20  1  0.654116  0.345884  0.750000  1
  Ir  Ir21  1  0.654116  0.654116  0.250000  1
  Ir  Ir22  1  0.345884  0.345884  0.250000  1
  Ir  Ir23  1  0.345884  0.654116  0.750000  1
  Rh  Rh24  1  0.846431  0.153569  0.250000  1
  Rh  Rh25  1  0.846431  0.846431  0.750000  1
  Rh  Rh26  1  0.153569  0.153569  0.750000  1
  Rh  Rh27  1  0.153569  0.846431  0.250000  1
  Rh  Rh28  1  0.500000  0.000000  0.122296  1
  Rh  Rh29  1  0.500000  0.000000  0.622296  1
  Rh  Rh30  1  0.000000  0.500000  0.877704  1
  Rh  Rh31  1  0.000000  0.500000  0.377704  1
