# generated using pymatgen
data_Ho2ErTa3(B2Ru5)2
_symmetry_space_group_name_H-M   'P 1'
_cell_length_a   9.58741177
_cell_length_b   9.58741180
_cell_length_c   3.11623800
_cell_angle_alpha   90.00000000
_cell_angle_beta   90.00000000
_cell_angle_gamma   90.39598077
_symmetry_Int_Tables_number   1
_chemical_formula_structural   Ho2ErTa3(B2Ru5)2
_chemical_formula_sum   'Ho2 Er1 Ta3 B4 Ru10'
_cell_volume   286.43297203
_cell_formula_units_Z   1
loop_
 _symmetry_equiv_pos_site_id
 _symmetry_equiv_pos_as_xyz
  1  'x, y, z'
loop_
 _atom_site_type_symbol
 _atom_site_label
 _atom_site_symmetry_multiplicity
 _atom_site_fract_x
 _atom_site_fract_y
 _atom_site_fract_z
 _atom_site_occupancy
  Ho  Ho0  1  0.824157  0.674835  0.000000  1
  Ho  Ho1  1  0.174835  0.324157  0.000000  1
  Er  Er2  1  0.325752  0.825752  0.000000  1
  Ta  Ta3  1  0.675681  0.175681  0.000000  1
  Ta  Ta4  1  0.497921  0.503153  0.000000  1
  Ta  Ta5  1  0.003153  0.997921  0.000000  1
  B  B6  1  0.623515  0.881345  0.000000  1
  B  B7  1  0.381345  0.123515  0.000000  1
  B  B8  1  0.119231  0.619231  0.000000  1
  B  B9  1  0.875727  0.375727  0.000000  1
  Ru  Ru10  1  0.571018  0.722067  0.500000  1
  Ru  Ru11  1  0.440509  0.280691  0.500000  1
  Ru  Ru12  1  0.069917  0.780572  0.500000  1
  Ru  Ru13  1  0.915738  0.212929  0.500000  1
  Ru  Ru14  1  0.280572  0.569917  0.500000  1
  Ru  Ru15  1  0.712929  0.415738  0.500000  1
  Ru  Ru16  1  0.222067  0.071018  0.500000  1
  Ru  Ru17  1  0.780691  0.940509  0.500000  1
  Ru  Ru18  1  0.509351  0.009351  0.500000  1
  Ru  Ru19  1  0.995891  0.495891  0.500000  1
