# generated using pymatgen
data_Tm6Ti(Fe3Co8)2
_symmetry_space_group_name_H-M   'P 1'
_cell_length_a   8.33786930
_cell_length_b   8.33786929
_cell_length_c   8.33786800
_cell_angle_alpha   60.00000512
_cell_angle_beta   60.00000515
_cell_angle_gamma   60.00000111
_symmetry_Int_Tables_number   1
_chemical_formula_structural   Tm6Ti(Fe3Co8)2
_chemical_formula_sum   'Tm6 Ti1 Fe6 Co16'
_cell_volume   409.87385873
_cell_formula_units_Z   1
loop_
 _symmetry_equiv_pos_site_id
 _symmetry_equiv_pos_as_xyz
  1  'x, y, z'
loop_
 _atom_site_type_symbol
 _atom_site_label
 _atom_site_symmetry_multiplicity
 _atom_site_fract_x
 _atom_site_fract_y
 _atom_site_fract_z
 _atom_site_occupancy
  Tm  Tm0  1  0.711967  0.288033  0.288033  1
  Tm  Tm1  1  0.288033  0.711967  0.711967  1
  Tm  Tm2  1  0.288033  0.711967  0.288033  1
  Tm  Tm3  1  0.288033  0.288033  0.711967  1
  Tm  Tm4  1  0.711967  0.288033  0.711967  1
  Tm  Tm5  1  0.711967  0.711967  0.288033  1
  Ti  Ti6  1  0.000000  0.000000  0.000000  1
  Fe  Fe7  1  0.500000  0.000000  0.000000  1
  Fe  Fe8  1  0.000000  0.500000  0.500000  1
  Fe  Fe9  1  0.000000  0.500000  0.000000  1
  Fe  Fe10  1  0.000000  0.000000  0.500000  1
  Fe  Fe11  1  0.500000  0.000000  0.500000  1
  Fe  Fe12  1  0.500000  0.500000  0.000000  1
  Co  Co13  1  0.323806  0.323806  0.323806  1
  Co  Co14  1  0.323806  0.323806  0.028584  1
  Co  Co15  1  0.028584  0.323806  0.323806  1
  Co  Co16  1  0.323806  0.028584  0.323806  1
  Co  Co17  1  0.676194  0.676194  0.676194  1
  Co  Co18  1  0.676194  0.676194  0.971416  1
  Co  Co19  1  0.676194  0.971416  0.676194  1
  Co  Co20  1  0.971416  0.676194  0.676194  1
  Co  Co21  1  0.124203  0.124203  0.124203  1
  Co  Co22  1  0.124203  0.124203  0.627391  1
  Co  Co23  1  0.627391  0.124203  0.124203  1
  Co  Co24  1  0.124203  0.627391  0.124203  1
  Co  Co25  1  0.875797  0.875797  0.875797  1
  Co  Co26  1  0.875797  0.875797  0.372609  1
  Co  Co27  1  0.875797  0.372609  0.875797  1
  Co  Co28  1  0.372609  0.875797  0.875797  1
