# generated using pymatgen
data_Er2Be2AlIr5
_symmetry_space_group_name_H-M   'P 1'
_cell_length_a   9.60808800
_cell_length_b   9.60808800
_cell_length_c   3.21210200
_cell_angle_alpha   90.00000000
_cell_angle_beta   90.00000000
_cell_angle_gamma   90.00000000
_symmetry_Int_Tables_number   1
_chemical_formula_structural   Er2Be2AlIr5
_chemical_formula_sum   'Er4 Be4 Al2 Ir10'
_cell_volume   296.52633648
_cell_formula_units_Z   2
loop_
 _symmetry_equiv_pos_site_id
 _symmetry_equiv_pos_as_xyz
  1  'x, y, z'
loop_
 _atom_site_type_symbol
 _atom_site_label
 _atom_site_symmetry_multiplicity
 _atom_site_fract_x
 _atom_site_fract_y
 _atom_site_fract_z
 _atom_site_occupancy
  Er  Er0  1  0.675963  0.175963  0.000000  1
  Er  Er1  1  0.324037  0.824037  0.000000  1
  Er  Er2  1  0.175963  0.324037  0.000000  1
  Er  Er3  1  0.824037  0.675963  0.000000  1
  Be  Be4  1  0.122870  0.622870  0.000000  1
  Be  Be5  1  0.877130  0.377130  0.000000  1
  Be  Be6  1  0.622870  0.877130  0.000000  1
  Be  Be7  1  0.377130  0.122870  0.000000  1
  Al  Al8  1  0.000000  0.000000  0.000000  1
  Al  Al9  1  0.500000  0.500000  0.000000  1
  Ir  Ir10  1  0.210525  0.066569  0.500000  1
  Ir  Ir11  1  0.789475  0.933431  0.500000  1
  Ir  Ir12  1  0.066569  0.789475  0.500000  1
  Ir  Ir13  1  0.710525  0.433431  0.500000  1
  Ir  Ir14  1  0.933431  0.210525  0.500000  1
  Ir  Ir15  1  0.289475  0.566569  0.500000  1
  Ir  Ir16  1  0.566569  0.710525  0.500000  1
  Ir  Ir17  1  0.433431  0.289475  0.500000  1
  Ir  Ir18  1  0.500000  0.000000  0.500000  1
  Ir  Ir19  1  0.000000  0.500000  0.500000  1
