# generated using pymatgen
data_Dy6Lu4Si5Pb
_symmetry_space_group_name_H-M   'P 1'
_cell_length_a   8.46649200
_cell_length_b   8.48927592
_cell_length_c   6.30059900
_cell_angle_alpha   90.00000000
_cell_angle_beta   90.00000000
_cell_angle_gamma   119.91125869
_symmetry_Int_Tables_number   1
_chemical_formula_structural   Dy6Lu4Si5Pb
_chemical_formula_sum   'Dy6 Lu4 Si5 Pb1'
_cell_volume   392.53129075
_cell_formula_units_Z   1
loop_
 _symmetry_equiv_pos_site_id
 _symmetry_equiv_pos_as_xyz
  1  'x, y, z'
loop_
 _atom_site_type_symbol
 _atom_site_label
 _atom_site_symmetry_multiplicity
 _atom_site_fract_x
 _atom_site_fract_y
 _atom_site_fract_z
 _atom_site_occupancy
  Dy  Dy0  1  0.987592  0.746715  0.750000  1
  Dy  Dy1  1  0.998526  0.243264  0.250000  1
  Dy  Dy2  1  0.755263  0.756736  0.250000  1
  Dy  Dy3  1  0.766332  0.000000  0.750000  1
  Dy  Dy4  1  0.240876  0.253285  0.750000  1
  Dy  Dy5  1  0.240817  0.000000  0.250000  1
  Lu  Lu6  1  0.674928  0.343687  0.003828  1
  Lu  Lu7  1  0.331240  0.656313  0.496172  1
  Lu  Lu8  1  0.331240  0.656313  0.003828  1
  Lu  Lu9  1  0.674928  0.343687  0.496172  1
  Si  Si10  1  0.394728  0.393196  0.250000  1
  Si  Si11  1  0.001532  0.606804  0.250000  1
  Si  Si12  1  0.998342  0.395413  0.750000  1
  Si  Si13  1  0.602929  0.604587  0.750000  1
  Si  Si14  1  0.605005  0.000000  0.250000  1
  Pb  Pb15  1  0.395721  0.000000  0.750000  1
