# generated using pymatgen
data_Li2Tb16Co4SnHg
_symmetry_space_group_name_H-M   'P 1'
_cell_length_a   9.52957298
_cell_length_b   9.54038010
_cell_length_c   9.53537600
_cell_angle_alpha   60.01734940
_cell_angle_beta   59.97985409
_cell_angle_gamma   60.06012814
_symmetry_Int_Tables_number   1
_chemical_formula_structural   Li2Tb16Co4SnHg
_chemical_formula_sum   'Li2 Tb16 Co4 Sn1 Hg1'
_cell_volume   613.26704221
_cell_formula_units_Z   1
loop_
 _symmetry_equiv_pos_site_id
 _symmetry_equiv_pos_as_xyz
  1  'x, y, z'
loop_
 _atom_site_type_symbol
 _atom_site_label
 _atom_site_symmetry_multiplicity
 _atom_site_fract_x
 _atom_site_fract_y
 _atom_site_fract_z
 _atom_site_occupancy
  Li  Li0  1  0.821271  0.818297  0.535030  1
  Li  Li1  1  0.821271  0.818297  0.825400  1
  Tb  Tb2  1  0.440131  0.442918  0.058475  1
  Tb  Tb3  1  0.596876  0.595887  0.599096  1
  Tb  Tb4  1  0.185354  0.813666  0.811334  1
  Tb  Tb5  1  0.066969  0.068283  0.432374  1
  Tb  Tb6  1  0.438720  0.061483  0.059655  1
  Tb  Tb7  1  0.809766  0.190372  0.811054  1
  Tb  Tb8  1  0.438720  0.061483  0.440142  1
  Tb  Tb9  1  0.595427  0.213049  0.595763  1
  Tb  Tb10  1  0.808257  0.811217  0.190263  1
  Tb  Tb11  1  0.216846  0.595627  0.593764  1
  Tb  Tb12  1  0.809766  0.190372  0.188809  1
  Tb  Tb13  1  0.064743  0.437474  0.436345  1
  Tb  Tb14  1  0.185354  0.813666  0.189646  1
  Tb  Tb15  1  0.596876  0.595887  0.208141  1
  Tb  Tb16  1  0.181164  0.194691  0.812073  1
  Tb  Tb17  1  0.064743  0.437474  0.061438  1
  Co  Co18  1  0.395134  0.391896  0.387069  1
  Co  Co19  1  0.826760  0.393098  0.390071  1
  Co  Co20  1  0.394990  0.829026  0.387992  1
  Co  Co21  1  0.395134  0.391896  0.825904  1
  Sn  Sn22  1  0.504520  0.833804  0.830836  1
  Hg  Hg23  1  0.841214  0.500138  0.829324  1
