# generated using pymatgen
data_TbPr9InSi4Ge
_symmetry_space_group_name_H-M   'P 1'
_cell_length_a   7.80432100
_cell_length_b   9.27205574
_cell_length_c   7.80432100
_cell_angle_alpha   114.88837450
_cell_angle_beta   90.00000000
_cell_angle_gamma   114.88837450
_symmetry_Int_Tables_number   1
_chemical_formula_structural   TbPr9InSi4Ge
_chemical_formula_sum   'Tb1 Pr9 In1 Si4 Ge1'
_cell_volume   453.82080679
_cell_formula_units_Z   1
loop_
 _symmetry_equiv_pos_site_id
 _symmetry_equiv_pos_as_xyz
  1  'x, y, z'
loop_
 _atom_site_type_symbol
 _atom_site_label
 _atom_site_symmetry_multiplicity
 _atom_site_fract_x
 _atom_site_fract_y
 _atom_site_fract_z
 _atom_site_occupancy
  Tb  Tb0  1  0.979650  0.959298  0.979650  1
  Pr  Pr1  1  0.525972  0.051944  0.525972  1
  Pr  Pr2  1  0.525200  0.721005  0.673462  1
  Pr  Pr3  1  0.195807  0.721005  0.047544  1
  Pr  Pr4  1  0.673462  0.721005  0.195807  1
  Pr  Pr5  1  0.047544  0.721005  0.525200  1
  Pr  Pr6  1  0.451371  0.277999  0.301734  1
  Pr  Pr7  1  0.826627  0.277999  0.976263  1
  Pr  Pr8  1  0.301734  0.277999  0.826627  1
  Pr  Pr9  1  0.976263  0.277999  0.451371  1
  In  In10  1  0.753028  0.506056  0.753028  1
  Si  Si11  1  0.884232  0.997256  0.618147  1
  Si  Si12  1  0.113023  0.997256  0.379109  1
  Si  Si13  1  0.618147  0.997256  0.113023  1
  Si  Si14  1  0.379109  0.997256  0.884232  1
  Ge  Ge15  1  0.248832  0.497664  0.248832  1
