# generated using pymatgen
data_Tb2Dy(Ga2Si)2
_symmetry_space_group_name_H-M   'P 1'
_cell_length_a   4.08381612
_cell_length_b   4.18256731
_cell_length_c   21.63287316
_cell_angle_alpha   84.45247690
_cell_angle_beta   84.58382812
_cell_angle_gamma   90.00000390
_symmetry_Int_Tables_number   1
_chemical_formula_structural   Tb2Dy(Ga2Si)2
_chemical_formula_sum   'Tb4 Dy2 Ga8 Si4'
_cell_volume   366.11939793
_cell_formula_units_Z   2
loop_
 _symmetry_equiv_pos_site_id
 _symmetry_equiv_pos_as_xyz
  1  'x, y, z'
loop_
 _atom_site_type_symbol
 _atom_site_label
 _atom_site_symmetry_multiplicity
 _atom_site_fract_x
 _atom_site_fract_y
 _atom_site_fract_z
 _atom_site_occupancy
  Tb  Tb0  1  0.957935  0.707935  0.084130  1
  Tb  Tb1  1  0.290026  0.040026  0.419950  1
  Tb  Tb2  1  0.622982  0.372982  0.754035  1
  Tb  Tb3  1  0.377498  0.627498  0.245003  1
  Dy  Dy4  1  0.709775  0.959775  0.580449  1
  Dy  Dy5  1  0.041577  0.291577  0.916847  1
  Ga  Ga6  1  0.820104  0.570104  0.359791  1
  Ga  Ga7  1  0.152746  0.902746  0.694511  1
  Ga  Ga8  1  0.431752  0.181752  0.136496  1
  Ga  Ga9  1  0.764291  0.514291  0.471417  1
  Ga  Ga10  1  0.096957  0.846957  0.806086  1
  Ga  Ga11  1  0.847763  0.097763  0.304475  1
  Ga  Ga12  1  0.180378  0.430378  0.639245  1
  Ga  Ga13  1  0.513185  0.763185  0.973631  1
  Si  Si14  1  0.902688  0.152688  0.194624  1
  Si  Si15  1  0.235299  0.485299  0.529403  1
  Si  Si16  1  0.568272  0.818272  0.863456  1
  Si  Si17  1  0.486774  0.236774  0.026449  1
