# generated using pymatgen
data_TmSc6Co6Sn23
_symmetry_space_group_name_H-M   'P 1'
_cell_length_a   9.52491100
_cell_length_b   9.52491048
_cell_length_c   9.80617200
_cell_angle_alpha   90.00000000
_cell_angle_beta   90.00000000
_cell_angle_gamma   120.00000530
_symmetry_Int_Tables_number   1
_chemical_formula_structural   TmSc6Co6Sn23
_chemical_formula_sum   'Tm1 Sc6 Co6 Sn23'
_cell_volume   770.46327744
_cell_formula_units_Z   1
loop_
 _symmetry_equiv_pos_site_id
 _symmetry_equiv_pos_as_xyz
  1  'x, y, z'
loop_
 _atom_site_type_symbol
 _atom_site_label
 _atom_site_symmetry_multiplicity
 _atom_site_fract_x
 _atom_site_fract_y
 _atom_site_fract_z
 _atom_site_occupancy
  Tm  Tm0  1  0.000000  0.000000  0.000000  1
  Sc  Sc1  1  0.481841  0.518159  0.307533  1
  Sc  Sc2  1  0.518159  0.481841  0.692467  1
  Sc  Sc3  1  0.481841  0.963682  0.307533  1
  Sc  Sc4  1  0.518159  0.036318  0.692467  1
  Sc  Sc5  1  0.036318  0.518159  0.307533  1
  Sc  Sc6  1  0.963682  0.481841  0.692467  1
  Co  Co7  1  0.831111  0.168889  0.198789  1
  Co  Co8  1  0.168889  0.831111  0.801211  1
  Co  Co9  1  0.831111  0.662224  0.198789  1
  Co  Co10  1  0.168889  0.337776  0.801211  1
  Co  Co11  1  0.337776  0.168889  0.198789  1
  Co  Co12  1  0.662224  0.831111  0.801211  1
  Sn  Sn13  1  0.121287  0.878713  0.275407  1
  Sn  Sn14  1  0.878713  0.121287  0.724593  1
  Sn  Sn15  1  0.121287  0.242574  0.275407  1
  Sn  Sn16  1  0.878713  0.757426  0.724593  1
  Sn  Sn17  1  0.757426  0.878713  0.275407  1
  Sn  Sn18  1  0.242574  0.121287  0.724593  1
  Sn  Sn19  1  0.779645  0.220355  0.454553  1
  Sn  Sn20  1  0.220355  0.779645  0.545447  1
  Sn  Sn21  1  0.779645  0.559290  0.454553  1
  Sn  Sn22  1  0.220355  0.440710  0.545447  1
  Sn  Sn23  1  0.440710  0.220355  0.454553  1
  Sn  Sn24  1  0.559290  0.779645  0.545447  1
  Sn  Sn25  1  0.347091  0.000000  0.000000  1
  Sn  Sn26  1  0.652909  0.000000  0.000000  1
  Sn  Sn27  1  0.000000  0.347091  0.000000  1
  Sn  Sn28  1  0.000000  0.652909  0.000000  1
  Sn  Sn29  1  0.652909  0.652909  0.000000  1
  Sn  Sn30  1  0.347091  0.347091  0.000000  1
  Sn  Sn31  1  0.333333  0.666667  0.134572  1
  Sn  Sn32  1  0.666667  0.333333  0.865428  1
  Sn  Sn33  1  0.333333  0.666667  0.821169  1
  Sn  Sn34  1  0.666667  0.333333  0.178831  1
  Sn  Sn35  1  0.000000  0.000000  0.500000  1
