# generated using pymatgen
data_Ac8Ho3Tm9Pb16
_symmetry_space_group_name_H-M   'P 1'
_cell_length_a   8.47376312
_cell_length_b   8.56332374
_cell_length_c   16.15542900
_cell_angle_alpha   90.00560692
_cell_angle_beta   90.00945265
_cell_angle_gamma   90.03606936
_symmetry_Int_Tables_number   1
_chemical_formula_structural   Ac8Ho3Tm9Pb16
_chemical_formula_sum   'Ac8 Ho3 Tm9 Pb16'
_cell_volume   1172.29545967
_cell_formula_units_Z   1
loop_
 _symmetry_equiv_pos_site_id
 _symmetry_equiv_pos_as_xyz
  1  'x, y, z'
loop_
 _atom_site_type_symbol
 _atom_site_label
 _atom_site_symmetry_multiplicity
 _atom_site_fract_x
 _atom_site_fract_y
 _atom_site_fract_z
 _atom_site_occupancy
  Ac  Ac0  1  0.476340  0.677686  0.595893  1
  Ac  Ac1  1  0.976358  0.822503  0.903797  1
  Ac  Ac2  1  0.523557  0.322366  0.096330  1
  Ac  Ac3  1  0.023667  0.177353  0.403708  1
  Ac  Ac4  1  0.523382  0.322358  0.403900  1
  Ac  Ac5  1  0.023421  0.177421  0.096247  1
  Ac  Ac6  1  0.476746  0.677579  0.903915  1
  Ac  Ac7  1  0.976515  0.822397  0.596136  1
  Ho  Ho8  1  0.864991  0.657865  0.123683  1
  Ho  Ho9  1  0.635086  0.157641  0.876515  1
  Ho  Ho10  1  0.135158  0.342251  0.623285  1
  Tm  Tm11  1  0.635704  0.157277  0.623803  1
  Tm  Tm12  1  0.135655  0.342651  0.876232  1
  Tm  Tm13  1  0.364325  0.842681  0.123837  1
  Tm  Tm14  1  0.864448  0.657071  0.376302  1
  Tm  Tm15  1  0.364767  0.842607  0.376101  1
  Tm  Tm16  1  0.801893  0.492531  0.749915  1
  Tm  Tm17  1  0.301823  0.007474  0.749966  1
  Tm  Tm18  1  0.198427  0.507879  0.250172  1
  Tm  Tm19  1  0.697938  0.992353  0.250271  1
  Pb  Pb20  1  0.698050  0.954311  0.454269  1
  Pb  Pb21  1  0.198940  0.545318  0.045642  1
  Pb  Pb22  1  0.300998  0.045401  0.954408  1
  Pb  Pb23  1  0.801026  0.454620  0.545549  1
  Pb  Pb24  1  0.302510  0.044770  0.545477  1
  Pb  Pb25  1  0.802438  0.454820  0.954151  1
  Pb  Pb26  1  0.697707  0.954727  0.046012  1
  Pb  Pb27  1  0.198100  0.546128  0.453810  1
  Pb  Pb28  1  0.440459  0.365168  0.749712  1
  Pb  Pb29  1  0.940500  0.135083  0.750125  1
  Pb  Pb30  1  0.559148  0.635201  0.250230  1
  Pb  Pb31  1  0.059857  0.865163  0.250465  1
  Pb  Pb32  1  0.665205  0.854972  0.749774  1
  Pb  Pb33  1  0.165300  0.644848  0.750176  1
  Pb  Pb34  1  0.334836  0.144376  0.250006  1
  Pb  Pb35  1  0.834721  0.355148  0.250187  1
