# generated using pymatgen
data_Ce2B8IrRu
_symmetry_space_group_name_H-M   'P 1'
_cell_length_a   7.05301975
_cell_length_b   7.05301861
_cell_length_c   7.05301938
_cell_angle_alpha   111.97115643
_cell_angle_beta   111.14106731
_cell_angle_gamma   105.37852992
_symmetry_Int_Tables_number   1
_chemical_formula_structural   Ce2B8IrRu
_chemical_formula_sum   'Ce4 B16 Ir2 Ru2'
_cell_volume   269.04757109
_cell_formula_units_Z   2
loop_
 _symmetry_equiv_pos_site_id
 _symmetry_equiv_pos_as_xyz
  1  'x, y, z'
loop_
 _atom_site_type_symbol
 _atom_site_label
 _atom_site_symmetry_multiplicity
 _atom_site_fract_x
 _atom_site_fract_y
 _atom_site_fract_z
 _atom_site_occupancy
  Ce  Ce0  1  0.785396  0.785396  0.000000  1
  Ce  Ce1  1  0.214604  0.214604  0.000000  1
  Ce  Ce2  1  0.743745  0.243745  0.500000  1
  Ce  Ce3  1  0.256255  0.756255  0.500000  1
  B  B4  1  0.264254  0.107863  0.372118  1
  B  B5  1  0.735746  0.892137  0.627882  1
  B  B6  1  0.264254  0.892137  0.156391  1
  B  B7  1  0.735746  0.107863  0.843609  1
  B  B8  1  0.106631  0.735722  0.842353  1
  B  B9  1  0.893369  0.264278  0.157647  1
  B  B10  1  0.106631  0.264278  0.370909  1
  B  B11  1  0.893369  0.735722  0.629091  1
  B  B12  1  0.111622  0.112017  0.525651  1
  B  B13  1  0.586366  0.585971  0.474349  1
  B  B14  1  0.111622  0.585971  0.999605  1
  B  B15  1  0.586366  0.112017  0.000395  1
  B  B16  1  0.888378  0.887983  0.474349  1
  B  B17  1  0.413634  0.414029  0.525651  1
  B  B18  1  0.888378  0.414029  0.000395  1
  B  B19  1  0.413634  0.887983  0.999605  1
  Ir  Ir20  1  0.259111  0.500000  0.759111  1
  Ir  Ir21  1  0.740889  0.500000  0.240889  1
  Ru  Ru22  1  0.500000  0.736793  0.236793  1
  Ru  Ru23  1  0.500000  0.263207  0.763207  1
