# generated using pymatgen
data_Ga2Ni5Pt4W
_symmetry_space_group_name_H-M   'P 1'
_cell_length_a   3.72519300
_cell_length_b   3.76479000
_cell_length_c   11.50307600
_cell_angle_alpha   90.00000000
_cell_angle_beta   90.00000000
_cell_angle_gamma   90.00000000
_symmetry_Int_Tables_number   1
_chemical_formula_structural   Ga2Ni5Pt4W
_chemical_formula_sum   'Ga2 Ni5 Pt4 W1'
_cell_volume   161.32568715
_cell_formula_units_Z   1
loop_
 _symmetry_equiv_pos_site_id
 _symmetry_equiv_pos_as_xyz
  1  'x, y, z'
loop_
 _atom_site_type_symbol
 _atom_site_label
 _atom_site_symmetry_multiplicity
 _atom_site_fract_x
 _atom_site_fract_y
 _atom_site_fract_z
 _atom_site_occupancy
  Ga  Ga0  1  0.000000  0.000000  0.349050  1
  Ga  Ga1  1  0.000000  0.000000  0.650950  1
  Ni  Ni2  1  0.500000  0.500000  0.000000  1
  Ni  Ni3  1  0.500000  0.000000  0.500000  1
  Ni  Ni4  1  0.000000  0.500000  0.155352  1
  Ni  Ni5  1  0.000000  0.500000  0.500000  1
  Ni  Ni6  1  0.000000  0.500000  0.844648  1
  Pt  Pt7  1  0.500000  0.500000  0.336239  1
  Pt  Pt8  1  0.500000  0.500000  0.663761  1
  Pt  Pt9  1  0.500000  0.000000  0.160798  1
  Pt  Pt10  1  0.500000  0.000000  0.839202  1
  W  W11  1  0.000000  0.000000  0.000000  1
