# generated using pymatgen
data_SrMn8Al4PbO24
_symmetry_space_group_name_H-M   'P 1'
_cell_length_a   8.09868606
_cell_length_b   8.09868641
_cell_length_c   9.59618250
_cell_angle_alpha   54.53437761
_cell_angle_beta   54.53437329
_cell_angle_gamma   64.99135351
_symmetry_Int_Tables_number   1
_chemical_formula_structural   SrMn8Al4PbO24
_chemical_formula_sum   'Sr1 Mn8 Al4 Pb1 O24'
_cell_volume   413.98178418
_cell_formula_units_Z   1
loop_
 _symmetry_equiv_pos_site_id
 _symmetry_equiv_pos_as_xyz
  1  'x, y, z'
loop_
 _atom_site_type_symbol
 _atom_site_label
 _atom_site_symmetry_multiplicity
 _atom_site_fract_x
 _atom_site_fract_y
 _atom_site_fract_z
 _atom_site_occupancy
  Sr  Sr0  1  0.282012  0.717988  0.000000  1
  Mn  Mn1  1  0.669887  0.002642  0.816841  1
  Mn  Mn2  1  0.185559  0.518226  0.480573  1
  Mn  Mn3  1  0.813698  0.482540  0.520395  1
  Mn  Mn4  1  0.330471  0.999072  0.181933  1
  Mn  Mn5  1  0.997358  0.330113  0.183159  1
  Mn  Mn6  1  0.000928  0.669529  0.818067  1
  Mn  Mn7  1  0.517460  0.186302  0.479605  1
  Mn  Mn8  1  0.481774  0.814441  0.519427  1
  Al  Al9  1  0.855323  0.854684  0.476812  1
  Al  Al10  1  0.336459  0.336016  0.815386  1
  Al  Al11  1  0.145316  0.144677  0.523188  1
  Al  Al12  1  0.663984  0.663541  0.184614  1
  Pb  Pb13  1  0.726389  0.273611  0.000000  1
  O  O14  1  0.702116  0.704877  0.946358  1
  O  O15  1  0.011510  0.676049  0.351460  1
  O  O16  1  0.676967  0.012138  0.349367  1
  O  O17  1  0.680333  0.009262  0.611501  1
  O  O18  1  0.009563  0.681486  0.611581  1
  O  O19  1  0.042277  0.041824  0.280287  1
  O  O20  1  0.707378  0.378786  0.276514  1
  O  O21  1  0.378772  0.708635  0.274266  1
  O  O22  1  0.990738  0.319667  0.388499  1
  O  O23  1  0.987862  0.323033  0.650633  1
  O  O24  1  0.035416  0.369901  0.944506  1
  O  O25  1  0.371470  0.036726  0.943532  1
  O  O26  1  0.295123  0.297884  0.053642  1
  O  O27  1  0.963274  0.628530  0.056468  1
  O  O28  1  0.339507  0.342271  0.354899  1
  O  O29  1  0.346898  0.346868  0.612461  1
  O  O30  1  0.291365  0.621228  0.725734  1
  O  O31  1  0.621214  0.292622  0.723486  1
  O  O32  1  0.958176  0.957723  0.719713  1
  O  O33  1  0.653132  0.653102  0.387539  1
  O  O34  1  0.318514  0.990437  0.388419  1
  O  O35  1  0.657729  0.660493  0.645101  1
  O  O36  1  0.323951  0.988490  0.648540  1
  O  O37  1  0.630099  0.964584  0.055494  1
