# generated using pymatgen
data_Mn2WSeO7
_symmetry_space_group_name_H-M   'P 1'
_cell_length_a   8.82307500
_cell_length_b   5.51454981
_cell_length_c   7.21561355
_cell_angle_alpha   82.08505527
_cell_angle_beta   90.00000000
_cell_angle_gamma   90.00000000
_symmetry_Int_Tables_number   1
_chemical_formula_structural   Mn2WSeO7
_chemical_formula_sum   'Mn4 W2 Se2 O14'
_cell_volume   347.73323071
_cell_formula_units_Z   2
loop_
 _symmetry_equiv_pos_site_id
 _symmetry_equiv_pos_as_xyz
  1  'x, y, z'
loop_
 _atom_site_type_symbol
 _atom_site_label
 _atom_site_symmetry_multiplicity
 _atom_site_fract_x
 _atom_site_fract_y
 _atom_site_fract_z
 _atom_site_occupancy
  Mn  Mn0  1  0.457683  0.935725  0.492787  1
  Mn  Mn1  1  0.957683  0.064275  0.507213  1
  Mn  Mn2  1  0.637679  0.540631  0.226207  1
  Mn  Mn3  1  0.137679  0.459369  0.773793  1
  W  W4  1  0.463972  0.084103  0.989037  1
  W  W5  1  0.963972  0.915897  0.010963  1
  Se  Se6  1  0.766745  0.543024  0.622076  1
  Se  Se7  1  0.266745  0.456976  0.377924  1
  O  O8  1  0.942848  0.687788  0.628832  1
  O  O9  1  0.442848  0.312212  0.371168  1
  O  O10  1  0.673158  0.763086  0.468579  1
  O  O11  1  0.173158  0.236914  0.531421  1
  O  O12  1  0.459534  0.834069  0.189269  1
  O  O13  1  0.959534  0.165931  0.810731  1
  O  O14  1  0.793727  0.348067  0.453080  1
  O  O15  1  0.293727  0.651933  0.546920  1
  O  O16  1  0.611936  0.300366  0.025309  1
  O  O17  1  0.111936  0.699634  0.974691  1
  O  O18  1  0.284037  0.241974  0.963561  1
  O  O19  1  0.784037  0.758026  0.036439  1
  O  O20  1  0.501420  0.966741  0.772269  1
  O  O21  1  0.001420  0.033259  0.227731  1
