# generated using pymatgen
data_Nd16CdHg3(PdPt)2
_symmetry_space_group_name_H-M   'P 1'
_cell_length_a   9.99630811
_cell_length_b   10.01399418
_cell_length_c   9.98134500
_cell_angle_alpha   60.10778332
_cell_angle_beta   60.04949358
_cell_angle_gamma   60.27118495
_symmetry_Int_Tables_number   1
_chemical_formula_structural   Nd16CdHg3(PdPt)2
_chemical_formula_sum   'Nd16 Cd1 Hg3 Pd2 Pt2'
_cell_volume   708.79444391
_cell_formula_units_Z   1
loop_
 _symmetry_equiv_pos_site_id
 _symmetry_equiv_pos_as_xyz
  1  'x, y, z'
loop_
 _atom_site_type_symbol
 _atom_site_label
 _atom_site_symmetry_multiplicity
 _atom_site_fract_x
 _atom_site_fract_y
 _atom_site_fract_z
 _atom_site_occupancy
  Nd  Nd0  1  0.351652  0.351201  0.349971  1
  Nd  Nd1  1  0.351652  0.351201  0.947175  1
  Nd  Nd2  1  0.354348  0.940589  0.352531  1
  Nd  Nd3  1  0.938091  0.354817  0.353546  1
  Nd  Nd4  1  0.808050  0.193066  0.191155  1
  Nd  Nd5  1  0.191828  0.808556  0.808536  1
  Nd  Nd6  1  0.191828  0.808556  0.191080  1
  Nd  Nd7  1  0.808050  0.193066  0.807729  1
  Nd  Nd8  1  0.191206  0.192793  0.808000  1
  Nd  Nd9  1  0.808142  0.808062  0.191898  1
  Nd  Nd10  1  0.936600  0.565176  0.563828  1
  Nd  Nd11  1  0.564145  0.937918  0.934151  1
  Nd  Nd12  1  0.564145  0.937918  0.563784  1
  Nd  Nd13  1  0.936600  0.565176  0.934395  1
  Nd  Nd14  1  0.563564  0.564323  0.936056  1
  Nd  Nd15  1  0.934780  0.935289  0.564966  1
  Cd  Cd16  1  0.259960  0.578805  0.580618  1
  Hg  Hg17  1  0.582655  0.584921  0.586406  1
  Hg  Hg18  1  0.582655  0.584921  0.246019  1
  Hg  Hg19  1  0.581947  0.245850  0.586102  1
  Pd  Pd20  1  0.142870  0.142982  0.146013  1
  Pd  Pd21  1  0.142870  0.142982  0.568135  1
  Pt  Pt22  1  0.141585  0.570180  0.144117  1
  Pt  Pt23  1  0.570775  0.141653  0.143786  1
