# generated using pymatgen
data_ErTm19Fe3CoSb8
_symmetry_space_group_name_H-M   'P 1'
_cell_length_a   7.75146297
_cell_length_b   8.74326800
_cell_length_c   12.04417703
_cell_angle_alpha   90.00000000
_cell_angle_beta   89.91854596
_cell_angle_gamma   90.00000000
_symmetry_Int_Tables_number   1
_chemical_formula_structural   ErTm19Fe3CoSb8
_chemical_formula_sum   'Er1 Tm19 Fe3 Co1 Sb8'
_cell_volume   816.27060750
_cell_formula_units_Z   1
loop_
 _symmetry_equiv_pos_site_id
 _symmetry_equiv_pos_as_xyz
  1  'x, y, z'
loop_
 _atom_site_type_symbol
 _atom_site_label
 _atom_site_symmetry_multiplicity
 _atom_site_fract_x
 _atom_site_fract_y
 _atom_site_fract_z
 _atom_site_occupancy
  Er  Er0  1  0.877154  0.750000  0.808074  1
  Tm  Tm1  1  0.157308  0.750000  0.205983  1
  Tm  Tm2  1  0.658789  0.250000  0.294178  1
  Tm  Tm3  1  0.843579  0.250000  0.795529  1
  Tm  Tm4  1  0.342790  0.750000  0.704505  1
  Tm  Tm5  1  0.447210  0.750000  0.996027  1
  Tm  Tm6  1  0.949696  0.250000  0.503037  1
  Tm  Tm7  1  0.551083  0.250000  0.003664  1
  Tm  Tm8  1  0.050567  0.750000  0.496302  1
  Tm  Tm9  1  0.622603  0.750000  0.309338  1
  Tm  Tm10  1  0.122699  0.250000  0.191818  1
  Tm  Tm11  1  0.376032  0.250000  0.691347  1
  Tm  Tm12  1  0.825474  0.965647  0.064289  1
  Tm  Tm13  1  0.324805  0.035460  0.435322  1
  Tm  Tm14  1  0.175828  0.462604  0.935561  1
  Tm  Tm15  1  0.676495  0.538088  0.565214  1
  Tm  Tm16  1  0.175828  0.037396  0.935561  1
  Tm  Tm17  1  0.676495  0.961912  0.565214  1
  Tm  Tm18  1  0.825474  0.534353  0.064289  1
  Tm  Tm19  1  0.324805  0.464540  0.435322  1
  Fe  Fe20  1  0.429397  0.750000  0.489985  1
  Fe  Fe21  1  0.927518  0.250000  0.011366  1
  Fe  Fe22  1  0.070761  0.750000  0.990405  1
  Co  Co23  1  0.568809  0.250000  0.508866  1
  Sb  Sb24  1  0.930835  0.992520  0.327952  1
  Sb  Sb25  1  0.431284  0.007067  0.171990  1
  Sb  Sb26  1  0.068766  0.492367  0.671775  1
  Sb  Sb27  1  0.568517  0.507094  0.827687  1
  Sb  Sb28  1  0.068766  0.007633  0.671775  1
  Sb  Sb29  1  0.568517  0.992906  0.827687  1
  Sb  Sb30  1  0.930835  0.507480  0.327952  1
  Sb  Sb31  1  0.431284  0.492933  0.171990  1
