# generated using pymatgen
data_Dy13Y2Lu(In3Co)2
_symmetry_space_group_name_H-M   'P 1'
_cell_length_a   10.35825700
_cell_length_b   10.35825674
_cell_length_c   7.01059900
_cell_angle_alpha   90.00002766
_cell_angle_beta   89.99996681
_cell_angle_gamma   119.99997208
_symmetry_Int_Tables_number   1
_chemical_formula_structural   Dy13Y2Lu(In3Co)2
_chemical_formula_sum   'Dy13 Y2 Lu1 In6 Co2'
_cell_volume   651.41721858
_cell_formula_units_Z   1
loop_
 _symmetry_equiv_pos_site_id
 _symmetry_equiv_pos_as_xyz
  1  'x, y, z'
loop_
 _atom_site_type_symbol
 _atom_site_label
 _atom_site_symmetry_multiplicity
 _atom_site_fract_x
 _atom_site_fract_y
 _atom_site_fract_z
 _atom_site_occupancy
  Dy  Dy0  1  0.464648  0.535352  0.483109  1
  Dy  Dy1  1  0.070704  0.535352  0.483109  1
  Dy  Dy2  1  0.464648  0.929296  0.483109  1
  Dy  Dy3  1  0.535755  0.464245  0.982294  1
  Dy  Dy4  1  0.928492  0.464245  0.982294  1
  Dy  Dy5  1  0.535755  0.071508  0.982294  1
  Dy  Dy6  1  0.821333  0.178667  0.276918  1
  Dy  Dy7  1  0.357335  0.178667  0.276918  1
  Dy  Dy8  1  0.821333  0.642666  0.276918  1
  Dy  Dy9  1  0.178076  0.821924  0.775601  1
  Dy  Dy10  1  0.643847  0.821924  0.775601  1
  Dy  Dy11  1  0.178076  0.356153  0.775601  1
  Dy  Dy12  1  0.333333  0.666667  0.092279  1
  Y  Y13  1  0.000000  0.000000  0.494329  1
  Y  Y14  1  0.000000  0.000000  0.995272  1
  Lu  Lu15  1  0.666667  0.333333  0.589625  1
  In  In16  1  0.162779  0.837221  0.234582  1
  In  In17  1  0.674442  0.837221  0.234582  1
  In  In18  1  0.162779  0.325558  0.234581  1
  In  In19  1  0.836472  0.163528  0.733966  1
  In  In20  1  0.327056  0.163528  0.733966  1
  In  In21  1  0.836472  0.672944  0.733966  1
  Co  Co22  1  0.333333  0.666667  0.707236  1
  Co  Co23  1  0.666667  0.333333  0.206399  1
