# generated using pymatgen
data_Yb20(Ag3Hg)3
_symmetry_space_group_name_H-M   'P 1'
_cell_length_a   7.99489200
_cell_length_b   7.99489200
_cell_length_c   14.59118800
_cell_angle_alpha   90.00000000
_cell_angle_beta   90.00000000
_cell_angle_gamma   90.00000000
_symmetry_Int_Tables_number   1
_chemical_formula_structural   Yb20(Ag3Hg)3
_chemical_formula_sum   'Yb20 Ag9 Hg3'
_cell_volume   932.64390410
_cell_formula_units_Z   1
loop_
 _symmetry_equiv_pos_site_id
 _symmetry_equiv_pos_as_xyz
  1  'x, y, z'
loop_
 _atom_site_type_symbol
 _atom_site_label
 _atom_site_symmetry_multiplicity
 _atom_site_fract_x
 _atom_site_fract_y
 _atom_site_fract_z
 _atom_site_occupancy
  Yb  Yb0  1  0.000000  0.000000  0.755001  1
  Yb  Yb1  1  0.500000  0.500000  0.250829  1
  Yb  Yb2  1  0.000000  0.000000  0.244999  1
  Yb  Yb3  1  0.500000  0.500000  0.749171  1
  Yb  Yb4  1  0.170191  0.663121  0.105925  1
  Yb  Yb5  1  0.667469  0.166421  0.608621  1
  Yb  Yb6  1  0.829809  0.336879  0.105925  1
  Yb  Yb7  1  0.332531  0.833579  0.608621  1
  Yb  Yb8  1  0.336879  0.170191  0.105925  1
  Yb  Yb9  1  0.833579  0.667469  0.608621  1
  Yb  Yb10  1  0.663121  0.829809  0.105925  1
  Yb  Yb11  1  0.166421  0.332531  0.608621  1
  Yb  Yb12  1  0.336879  0.829809  0.894075  1
  Yb  Yb13  1  0.833579  0.332531  0.391379  1
  Yb  Yb14  1  0.663121  0.170191  0.894075  1
  Yb  Yb15  1  0.166421  0.667469  0.391379  1
  Yb  Yb16  1  0.170191  0.336879  0.894075  1
  Yb  Yb17  1  0.667469  0.833579  0.391379  1
  Yb  Yb18  1  0.829809  0.663121  0.894075  1
  Yb  Yb19  1  0.332531  0.166421  0.391379  1
  Ag  Ag20  1  0.628753  0.128131  0.248580  1
  Ag  Ag21  1  0.128131  0.628753  0.751420  1
  Ag  Ag22  1  0.871869  0.371247  0.751420  1
  Ag  Ag23  1  0.371247  0.871869  0.248580  1
  Ag  Ag24  1  0.371247  0.128131  0.751420  1
  Ag  Ag25  1  0.871869  0.628753  0.248580  1
  Ag  Ag26  1  0.128131  0.371247  0.248580  1
  Ag  Ag27  1  0.628753  0.871869  0.751420  1
  Ag  Ag28  1  0.500000  0.500000  0.000000  1
  Hg  Hg29  1  0.000000  0.000000  0.500000  1
  Hg  Hg30  1  0.000000  0.000000  0.000000  1
  Hg  Hg31  1  0.500000  0.500000  0.500000  1
