# generated using pymatgen
data_Be8V3Os
_symmetry_space_group_name_H-M   'P 1'
_cell_length_a   4.33076600
_cell_length_b   4.33076704
_cell_length_c   7.07834100
_cell_angle_alpha   90.00000000
_cell_angle_beta   90.00000000
_cell_angle_gamma   120.00000732
_symmetry_Int_Tables_number   1
_chemical_formula_structural   Be8V3Os
_chemical_formula_sum   'Be8 V3 Os1'
_cell_volume   114.97187719
_cell_formula_units_Z   1
loop_
 _symmetry_equiv_pos_site_id
 _symmetry_equiv_pos_as_xyz
  1  'x, y, z'
loop_
 _atom_site_type_symbol
 _atom_site_label
 _atom_site_symmetry_multiplicity
 _atom_site_fract_x
 _atom_site_fract_y
 _atom_site_fract_z
 _atom_site_occupancy
  Be  Be0  1  0.000000  0.000000  0.998505  1
  Be  Be1  1  0.000000  0.000000  0.500784  1
  Be  Be2  1  0.829921  0.659842  0.250510  1
  Be  Be3  1  0.169919  0.830081  0.749476  1
  Be  Be4  1  0.660162  0.830081  0.749476  1
  Be  Be5  1  0.340158  0.170079  0.250510  1
  Be  Be6  1  0.829921  0.170079  0.250510  1
  Be  Be7  1  0.169919  0.339838  0.749476  1
  V  V8  1  0.666667  0.333333  0.567660  1
  V  V9  1  0.666667  0.333333  0.936018  1
  V  V10  1  0.333333  0.666667  0.433212  1
  Os  Os11  1  0.333333  0.666667  0.063862  1
