# generated using pymatgen
data_MnCu2Ir3S8
_symmetry_space_group_name_H-M   'P 1'
_cell_length_a   6.86992351
_cell_length_b   6.86992387
_cell_length_c   6.86992446
_cell_angle_alpha   62.30878146
_cell_angle_beta   62.30877892
_cell_angle_gamma   62.30877278
_symmetry_Int_Tables_number   1
_chemical_formula_structural   MnCu2Ir3S8
_chemical_formula_sum   'Mn1 Cu2 Ir3 S8'
_cell_volume   241.07957543
_cell_formula_units_Z   1
loop_
 _symmetry_equiv_pos_site_id
 _symmetry_equiv_pos_as_xyz
  1  'x, y, z'
loop_
 _atom_site_type_symbol
 _atom_site_label
 _atom_site_symmetry_multiplicity
 _atom_site_fract_x
 _atom_site_fract_y
 _atom_site_fract_z
 _atom_site_occupancy
  Mn  Mn0  1  0.500000  0.500000  0.500000  1
  Cu  Cu1  1  0.122737  0.122737  0.122737  1
  Cu  Cu2  1  0.877263  0.877263  0.877263  1
  Ir  Ir3  1  0.000000  0.500000  0.500000  1
  Ir  Ir4  1  0.500000  0.500000  0.000000  1
  Ir  Ir5  1  0.500000  0.000000  0.500000  1
  S  S6  1  0.739126  0.739126  0.739126  1
  S  S7  1  0.277033  0.741104  0.741104  1
  S  S8  1  0.741104  0.741104  0.277033  1
  S  S9  1  0.741104  0.277033  0.741104  1
  S  S10  1  0.260874  0.260874  0.260874  1
  S  S11  1  0.722967  0.258896  0.258896  1
  S  S12  1  0.258896  0.258896  0.722967  1
  S  S13  1  0.258896  0.722967  0.258896  1
