# generated using pymatgen
data_YbPr3Al14(Si2Ir3)2
_symmetry_space_group_name_H-M   'P 1'
_cell_length_a   7.55466410
_cell_length_b   7.54139961
_cell_length_c   9.53368206
_cell_angle_alpha   89.94777083
_cell_angle_beta   90.02154201
_cell_angle_gamma   119.68994041
_symmetry_Int_Tables_number   1
_chemical_formula_structural   YbPr3Al14(Si2Ir3)2
_chemical_formula_sum   'Yb1 Pr3 Al14 Si4 Ir6'
_cell_volume   471.85293526
_cell_formula_units_Z   1
loop_
 _symmetry_equiv_pos_site_id
 _symmetry_equiv_pos_as_xyz
  1  'x, y, z'
loop_
 _atom_site_type_symbol
 _atom_site_label
 _atom_site_symmetry_multiplicity
 _atom_site_fract_x
 _atom_site_fract_y
 _atom_site_fract_z
 _atom_site_occupancy
  Yb  Yb0  1  0.319562  0.991222  0.745640  1
  Pr  Pr1  1  0.999893  0.669108  0.250096  1
  Pr  Pr2  1  0.005751  0.339780  0.752608  1
  Pr  Pr3  1  0.667627  0.998933  0.249884  1
  Al  Al4  1  0.132710  0.128917  0.250162  1
  Al  Al5  1  0.872476  0.869138  0.750085  1
  Al  Al6  1  0.003635  0.329063  0.431238  1
  Al  Al7  1  0.666516  0.999032  0.578421  1
  Al  Al8  1  0.659538  0.995786  0.921514  1
  Al  Al9  1  0.339126  0.006625  0.064002  1
  Al  Al10  1  0.334695  0.333558  0.557973  1
  Al  Al11  1  0.662370  0.666526  0.447512  1
  Al  Al12  1  0.662229  0.666517  0.052681  1
  Al  Al13  1  0.337558  0.332107  0.942118  1
  Al  Al14  1  0.337221  0.544188  0.250366  1
  Al  Al15  1  0.657098  0.449364  0.751000  1
  Al  Al16  1  0.545834  0.342005  0.249785  1
  Al  Al17  1  0.456191  0.660872  0.749324  1
  Si  Si18  1  0.004477  0.328043  0.071725  1
  Si  Si19  1  0.998010  0.673348  0.931384  1
  Si  Si20  1  0.992174  0.661966  0.568506  1
  Si  Si21  1  0.340307  0.009133  0.432070  1
  Ir  Ir22  1  0.688939  0.339102  0.001400  1
  Ir  Ir23  1  0.313481  0.662839  0.998332  1
  Ir  Ir24  1  0.320937  0.679374  0.501078  1
  Ir  Ir25  1  0.672304  0.330232  0.500358  1
  Ir  Ir26  1  0.000912  0.000586  0.999655  1
  Ir  Ir27  1  0.008430  0.992637  0.501083  1
