# generated using pymatgen
data_Rb4NaLi(CrH6)2
_symmetry_space_group_name_H-M   'P 1'
_cell_length_a   10.24681686
_cell_length_b   10.24681671
_cell_length_c   10.24681664
_cell_angle_alpha   33.93742585
_cell_angle_beta   33.93742716
_cell_angle_gamma   33.93742341
_symmetry_Int_Tables_number   1
_chemical_formula_structural   Rb4NaLi(CrH6)2
_chemical_formula_sum   'Rb4 Na1 Li1 Cr2 H12'
_cell_volume   298.88077742
_cell_formula_units_Z   1
loop_
 _symmetry_equiv_pos_site_id
 _symmetry_equiv_pos_as_xyz
  1  'x, y, z'
loop_
 _atom_site_type_symbol
 _atom_site_label
 _atom_site_symmetry_multiplicity
 _atom_site_fract_x
 _atom_site_fract_y
 _atom_site_fract_z
 _atom_site_occupancy
  Rb  Rb0  1  0.129095  0.129095  0.129095  1
  Rb  Rb1  1  0.873227  0.873227  0.873227  1
  Rb  Rb2  1  0.280659  0.280659  0.280659  1
  Rb  Rb3  1  0.712869  0.712869  0.712869  1
  Na  Na4  1  0.402250  0.402250  0.402250  1
  Li  Li5  1  0.591053  0.591053  0.591053  1
  Cr  Cr6  1  0.998253  0.998253  0.998253  1
  Cr  Cr7  1  0.501749  0.501749  0.501749  1
  H  H8  1  0.171415  0.171415  0.757514  1
  H  H9  1  0.757514  0.171415  0.171415  1
  H  H10  1  0.171415  0.757514  0.171415  1
  H  H11  1  0.819348  0.253613  0.819348  1
  H  H12  1  0.819348  0.819348  0.253613  1
  H  H13  1  0.253613  0.819348  0.819348  1
  H  H14  1  0.408428  0.408428  0.802862  1
  H  H15  1  0.802862  0.408428  0.408428  1
  H  H16  1  0.191542  0.603466  0.603466  1
  H  H17  1  0.603466  0.603466  0.191542  1
  H  H18  1  0.603466  0.191542  0.603466  1
  H  H19  1  0.408428  0.802862  0.408428  1
