# generated using pymatgen
data_YErCdNi7B2
_symmetry_space_group_name_H-M   'P 1'
_cell_length_a   4.99776200
_cell_length_b   4.99776213
_cell_length_c   14.22219100
_cell_angle_alpha   90.00000000
_cell_angle_beta   90.00000000
_cell_angle_gamma   119.99999916
_symmetry_Int_Tables_number   1
_chemical_formula_structural   YErCdNi7B2
_chemical_formula_sum   'Y2 Er2 Cd2 Ni14 B4'
_cell_volume   307.64389014
_cell_formula_units_Z   2
loop_
 _symmetry_equiv_pos_site_id
 _symmetry_equiv_pos_as_xyz
  1  'x, y, z'
loop_
 _atom_site_type_symbol
 _atom_site_label
 _atom_site_symmetry_multiplicity
 _atom_site_fract_x
 _atom_site_fract_y
 _atom_site_fract_z
 _atom_site_occupancy
  Y  Y0  1  0.666667  0.333333  0.529456  1
  Y  Y1  1  0.333333  0.666667  0.029456  1
  Er  Er2  1  0.666667  0.333333  0.756981  1
  Er  Er3  1  0.333333  0.666667  0.256981  1
  Cd  Cd4  1  0.333333  0.666667  0.467886  1
  Cd  Cd5  1  0.666667  0.333333  0.967886  1
  Ni  Ni6  1  0.834901  0.165099  0.350999  1
  Ni  Ni7  1  0.834901  0.669803  0.350999  1
  Ni  Ni8  1  0.000000  0.000000  0.998892  1
  Ni  Ni9  1  0.000000  0.000000  0.498892  1
  Ni  Ni10  1  0.833933  0.667867  0.148903  1
  Ni  Ni11  1  0.166067  0.833933  0.648903  1
  Ni  Ni12  1  0.667867  0.833933  0.648903  1
  Ni  Ni13  1  0.332133  0.166067  0.148903  1
  Ni  Ni14  1  0.833933  0.166067  0.148903  1
  Ni  Ni15  1  0.165099  0.330197  0.850999  1
  Ni  Ni16  1  0.165099  0.834901  0.850999  1
  Ni  Ni17  1  0.166067  0.332133  0.648903  1
  Ni  Ni18  1  0.669803  0.834901  0.850999  1
  Ni  Ni19  1  0.330197  0.165099  0.350999  1
  B  B20  1  0.666667  0.333333  0.249908  1
  B  B21  1  0.333333  0.666667  0.749908  1
  B  B22  1  0.000000  0.000000  0.747172  1
  B  B23  1  0.000000  0.000000  0.247172  1
