# generated using pymatgen
data_Tb8Ta3TiNb8Si15Sn
_symmetry_space_group_name_H-M   'P 1'
_cell_length_a   7.14533412
_cell_length_b   7.10542531
_cell_length_c   13.13652900
_cell_angle_alpha   90.02208638
_cell_angle_beta   89.84506387
_cell_angle_gamma   89.90999693
_symmetry_Int_Tables_number   1
_chemical_formula_structural   Tb8Ta3TiNb8Si15Sn
_chemical_formula_sum   'Tb8 Ta3 Ti1 Nb8 Si15 Sn1'
_cell_volume   666.94664525
_cell_formula_units_Z   1
loop_
 _symmetry_equiv_pos_site_id
 _symmetry_equiv_pos_as_xyz
  1  'x, y, z'
loop_
 _atom_site_type_symbol
 _atom_site_label
 _atom_site_symmetry_multiplicity
 _atom_site_fract_x
 _atom_site_fract_y
 _atom_site_fract_z
 _atom_site_occupancy
  Tb  Tb0  1  0.345302  0.999656  0.462298  1
  Tb  Tb1  1  0.505532  0.837875  0.719581  1
  Tb  Tb2  1  0.502390  0.158009  0.217509  1
  Tb  Tb3  1  0.841929  0.498163  0.281504  1
  Tb  Tb4  1  0.158345  0.507704  0.785427  1
  Tb  Tb5  1  0.659127  0.996419  0.969446  1
  Tb  Tb6  1  0.993550  0.348791  0.526623  1
  Tb  Tb7  1  0.998648  0.658545  0.033484  1
  Ta  Ta8  1  0.329119  0.328739  0.001073  1
  Ta  Ta9  1  0.171120  0.828299  0.249690  1
  Ta  Ta10  1  0.817714  0.174108  0.751825  1
  Ti  Ti11  1  0.978294  0.833382  0.621102  1
  Nb  Nb12  1  0.671836  0.671335  0.499895  1
  Nb  Nb13  1  0.153570  0.006078  0.880598  1
  Nb  Nb14  1  0.493509  0.652439  0.124957  1
  Nb  Nb15  1  0.514569  0.352881  0.623522  1
  Nb  Nb16  1  0.655101  0.491973  0.878157  1
  Nb  Nb17  1  0.347066  0.507909  0.375180  1
  Nb  Nb18  1  0.844775  0.991560  0.373407  1
  Nb  Nb19  1  0.009004  0.153821  0.125678  1
  Si  Si20  1  0.369290  0.704330  0.934619  1
  Si  Si21  1  0.630804  0.296505  0.431710  1
  Si  Si22  1  0.704110  0.367021  0.067981  1
  Si  Si23  1  0.293903  0.633879  0.566872  1
  Si  Si24  1  0.798071  0.867229  0.182849  1
  Si  Si25  1  0.132319  0.202895  0.316475  1
  Si  Si26  1  0.868834  0.800855  0.816853  1
  Si  Si27  1  0.294301  0.953664  0.065463  1
  Si  Si28  1  0.547166  0.791035  0.312446  1
  Si  Si29  1  0.458546  0.208193  0.817838  1
  Si  Si30  1  0.796524  0.544448  0.687804  1
  Si  Si31  1  0.207907  0.454318  0.186640  1
  Si  Si32  1  0.707445  0.047839  0.564065  1
  Si  Si33  1  0.954162  0.293235  0.936315  1
  Si  Si34  1  0.047593  0.710508  0.434850  1
  Sn  Sn35  1  0.198525  0.126364  0.676258  1
