# generated using pymatgen
data_La8Ho11PaRh16
_symmetry_space_group_name_H-M   'P 1'
_cell_length_a   7.55219864
_cell_length_b   7.61556172
_cell_length_c   14.62377935
_cell_angle_alpha   89.75537652
_cell_angle_beta   90.28256227
_cell_angle_gamma   89.87236191
_symmetry_Int_Tables_number   1
_chemical_formula_structural   La8Ho11PaRh16
_chemical_formula_sum   'La8 Ho11 Pa1 Rh16'
_cell_volume   841.05545961
_cell_formula_units_Z   1
loop_
 _symmetry_equiv_pos_site_id
 _symmetry_equiv_pos_as_xyz
  1  'x, y, z'
loop_
 _atom_site_type_symbol
 _atom_site_label
 _atom_site_symmetry_multiplicity
 _atom_site_fract_x
 _atom_site_fract_y
 _atom_site_fract_z
 _atom_site_occupancy
  La  La0  1  0.489895  0.316925  0.905937  1
  La  La1  1  0.992873  0.181175  0.592455  1
  La  La2  1  0.508554  0.679707  0.405630  1
  La  La3  1  0.007661  0.824665  0.096907  1
  La  La4  1  0.503585  0.679966  0.096951  1
  La  La5  1  0.008682  0.818919  0.405961  1
  La  La6  1  0.490319  0.318146  0.591016  1
  La  La7  1  0.996273  0.175436  0.904812  1
  Ho  Ho8  1  0.341209  0.838701  0.877450  1
  Ho  Ho9  1  0.839847  0.662012  0.623322  1
  Ho  Ho10  1  0.660866  0.163328  0.375794  1
  Ho  Ho11  1  0.158862  0.338223  0.122702  1
  Ho  Ho12  1  0.658252  0.162827  0.123062  1
  Ho  Ho13  1  0.160027  0.337179  0.376260  1
  Ho  Ho14  1  0.340275  0.838284  0.623623  1
  Ho  Ho15  1  0.185224  0.495831  0.748515  1
  Ho  Ho16  1  0.677650  0.004570  0.747971  1
  Ho  Ho17  1  0.820677  0.501298  0.250222  1
  Ho  Ho18  1  0.321646  0.000179  0.250607  1
  Pa  Pa19  1  0.839809  0.656552  0.876880  1
  Rh  Rh20  1  0.326348  0.038048  0.044338  1
  Rh  Rh21  1  0.820177  0.464536  0.455562  1
  Rh  Rh22  1  0.679664  0.966438  0.544977  1
  Rh  Rh23  1  0.159286  0.545447  0.951208  1
  Rh  Rh24  1  0.692414  0.940210  0.954694  1
  Rh  Rh25  1  0.181180  0.536517  0.545023  1
  Rh  Rh26  1  0.319992  0.036527  0.456455  1
  Rh  Rh27  1  0.809173  0.469995  0.031890  1
  Rh  Rh28  1  0.554880  0.631652  0.757478  1
  Rh  Rh29  1  0.035597  0.865953  0.757959  1
  Rh  Rh30  1  0.456251  0.378022  0.249046  1
  Rh  Rh31  1  0.956328  0.126670  0.248283  1
  Rh  Rh32  1  0.306967  0.134801  0.749515  1
  Rh  Rh33  1  0.820489  0.369775  0.757433  1
  Rh  Rh34  1  0.690414  0.862256  0.250310  1
  Rh  Rh35  1  0.188654  0.639226  0.249753  1
