# generated using pymatgen
data_Zr2(Al3Ir)3
_symmetry_space_group_name_H-M   'P 1'
_cell_length_a   7.48548519
_cell_length_b   7.48548467
_cell_length_c   9.25417000
_cell_angle_alpha   90.00000000
_cell_angle_beta   90.00000000
_cell_angle_gamma   119.85583223
_symmetry_Int_Tables_number   1
_chemical_formula_structural   Zr2(Al3Ir)3
_chemical_formula_sum   'Zr4 Al18 Ir6'
_cell_volume   449.71468243
_cell_formula_units_Z   2
loop_
 _symmetry_equiv_pos_site_id
 _symmetry_equiv_pos_as_xyz
  1  'x, y, z'
loop_
 _atom_site_type_symbol
 _atom_site_label
 _atom_site_symmetry_multiplicity
 _atom_site_fract_x
 _atom_site_fract_y
 _atom_site_fract_z
 _atom_site_occupancy
  Zr  Zr0  1  0.993586  0.670744  0.250000  1
  Zr  Zr1  1  0.006414  0.329256  0.750000  1
  Zr  Zr2  1  0.670744  0.993586  0.250000  1
  Zr  Zr3  1  0.329256  0.006414  0.750000  1
  Al  Al4  1  0.123779  0.123779  0.250000  1
  Al  Al5  1  0.876221  0.876221  0.750000  1
  Al  Al6  1  0.997830  0.334396  0.075805  1
  Al  Al7  1  0.002170  0.665604  0.924195  1
  Al  Al8  1  0.002170  0.665604  0.575805  1
  Al  Al9  1  0.334396  0.997830  0.424195  1
  Al  Al10  1  0.997830  0.334396  0.424195  1
  Al  Al11  1  0.665604  0.002170  0.575805  1
  Al  Al12  1  0.665604  0.002170  0.924195  1
  Al  Al13  1  0.334396  0.997830  0.075805  1
  Al  Al14  1  0.331995  0.331995  0.557847  1
  Al  Al15  1  0.668005  0.668005  0.442153  1
  Al  Al16  1  0.668005  0.668005  0.057847  1
  Al  Al17  1  0.331995  0.331995  0.942153  1
  Al  Al18  1  0.338316  0.552691  0.250000  1
  Al  Al19  1  0.661684  0.447309  0.750000  1
  Al  Al20  1  0.552691  0.338316  0.250000  1
  Al  Al21  1  0.447309  0.661684  0.750000  1
  Ir  Ir22  1  0.672589  0.327411  0.000000  1
  Ir  Ir23  1  0.327411  0.672589  0.000000  1
  Ir  Ir24  1  0.327411  0.672589  0.500000  1
  Ir  Ir25  1  0.672589  0.327411  0.500000  1
  Ir  Ir26  1  0.000000  0.000000  0.000000  1
  Ir  Ir27  1  0.000000  0.000000  0.500000  1
