# generated using pymatgen
data_Hf7Zr3Si2(SnSb)3
_symmetry_space_group_name_H-M   'P 1'
_cell_length_a   8.63325100
_cell_length_b   8.63290548
_cell_length_c   5.81263000
_cell_angle_alpha   90.00000000
_cell_angle_beta   90.00000000
_cell_angle_gamma   120.00132014
_symmetry_Int_Tables_number   1
_chemical_formula_structural   Hf7Zr3Si2(SnSb)3
_chemical_formula_sum   'Hf7 Zr3 Si2 Sn3 Sb3'
_cell_volume   375.17067704
_cell_formula_units_Z   1
loop_
 _symmetry_equiv_pos_site_id
 _symmetry_equiv_pos_as_xyz
  1  'x, y, z'
loop_
 _atom_site_type_symbol
 _atom_site_label
 _atom_site_symmetry_multiplicity
 _atom_site_fract_x
 _atom_site_fract_y
 _atom_site_fract_z
 _atom_site_occupancy
  Hf  Hf0  1  0.264662  0.264814  0.750000  1
  Hf  Hf1  1  0.999848  0.735186  0.750000  1
  Hf  Hf2  1  0.734581  0.000000  0.750000  1
  Hf  Hf3  1  0.332734  0.666713  0.998926  1
  Hf  Hf4  1  0.666023  0.333287  0.501074  1
  Hf  Hf5  1  0.666023  0.333287  0.998926  1
  Hf  Hf6  1  0.332734  0.666713  0.501074  1
  Zr  Zr7  1  0.255182  0.000000  0.250000  1
  Zr  Zr8  1  0.000974  0.255999  0.250000  1
  Zr  Zr9  1  0.744976  0.744001  0.250000  1
  Si  Si10  1  0.999044  0.000000  0.986339  1
  Si  Si11  1  0.999044  0.000000  0.513661  1
  Sn  Sn12  1  0.604844  0.000000  0.250000  1
  Sn  Sn13  1  0.608467  0.609356  0.750000  1
  Sn  Sn14  1  0.999112  0.390644  0.750000  1
  Sb  Sb15  1  0.999261  0.600857  0.250000  1
  Sb  Sb16  1  0.398404  0.399143  0.250000  1
  Sb  Sb17  1  0.394091  0.000000  0.750000  1
