# generated using pymatgen
data_Yb5Bi2PbBr
_symmetry_space_group_name_H-M   'P 1'
_cell_length_a   9.30771900
_cell_length_b   9.44746573
_cell_length_c   7.09072900
_cell_angle_alpha   90.00000000
_cell_angle_beta   90.00000000
_cell_angle_gamma   119.51189021
_symmetry_Int_Tables_number   1
_chemical_formula_structural   Yb5Bi2PbBr
_chemical_formula_sum   'Yb10 Bi4 Pb2 Br2'
_cell_volume   542.61931465
_cell_formula_units_Z   2
loop_
 _symmetry_equiv_pos_site_id
 _symmetry_equiv_pos_as_xyz
  1  'x, y, z'
loop_
 _atom_site_type_symbol
 _atom_site_label
 _atom_site_symmetry_multiplicity
 _atom_site_fract_x
 _atom_site_fract_y
 _atom_site_fract_z
 _atom_site_occupancy
  Yb  Yb0  1  0.750505  0.000000  0.750000  1
  Yb  Yb1  1  0.996402  0.262985  0.250000  1
  Yb  Yb2  1  0.733417  0.737015  0.250000  1
  Yb  Yb3  1  0.331435  0.662871  0.500000  1
  Yb  Yb4  1  0.331435  0.662871  0.000000  1
  Yb  Yb5  1  0.668565  0.337129  0.500000  1
  Yb  Yb6  1  0.668565  0.337129  0.000000  1
  Yb  Yb7  1  0.249495  0.000000  0.250000  1
  Yb  Yb8  1  0.266583  0.262985  0.750000  1
  Yb  Yb9  1  0.003598  0.737015  0.750000  1
  Bi  Bi10  1  0.998012  0.610220  0.250000  1
  Bi  Bi11  1  0.612209  0.610220  0.750000  1
  Bi  Bi12  1  0.001988  0.389780  0.750000  1
  Bi  Bi13  1  0.387791  0.389780  0.250000  1
  Pb  Pb14  1  0.414431  0.000000  0.750000  1
  Pb  Pb15  1  0.585569  0.000000  0.250000  1
  Br  Br16  1  0.000000  0.000000  0.500000  1
  Br  Br17  1  0.000000  0.000000  0.000000  1
