# generated using pymatgen
data_Hf18Ti2MnZnRe6
_symmetry_space_group_name_H-M   'P 1'
_cell_length_a   8.65196200
_cell_length_b   8.65196347
_cell_length_c   8.45661300
_cell_angle_alpha   90.00000000
_cell_angle_beta   90.00000000
_cell_angle_gamma   120.00000204
_symmetry_Int_Tables_number   1
_chemical_formula_structural   Hf18Ti2MnZnRe6
_chemical_formula_sum   'Hf18 Ti2 Mn1 Zn1 Re6'
_cell_volume   548.22187344
_cell_formula_units_Z   1
loop_
 _symmetry_equiv_pos_site_id
 _symmetry_equiv_pos_as_xyz
  1  'x, y, z'
loop_
 _atom_site_type_symbol
 _atom_site_label
 _atom_site_symmetry_multiplicity
 _atom_site_fract_x
 _atom_site_fract_y
 _atom_site_fract_z
 _atom_site_occupancy
  Hf  Hf0  1  0.201456  0.798544  0.442116  1
  Hf  Hf1  1  0.201456  0.402910  0.442116  1
  Hf  Hf2  1  0.597090  0.798544  0.442116  1
  Hf  Hf3  1  0.806012  0.193988  0.551656  1
  Hf  Hf4  1  0.806012  0.612025  0.551656  1
  Hf  Hf5  1  0.387975  0.193988  0.551656  1
  Hf  Hf6  1  0.806012  0.193988  0.948344  1
  Hf  Hf7  1  0.806012  0.612025  0.948344  1
  Hf  Hf8  1  0.387975  0.193988  0.948344  1
  Hf  Hf9  1  0.201456  0.798544  0.057884  1
  Hf  Hf10  1  0.201456  0.402910  0.057884  1
  Hf  Hf11  1  0.597090  0.798544  0.057884  1
  Hf  Hf12  1  0.540285  0.459715  0.250000  1
  Hf  Hf13  1  0.540285  0.080572  0.250000  1
  Hf  Hf14  1  0.919428  0.459715  0.250000  1
  Hf  Hf15  1  0.458966  0.541034  0.750000  1
  Hf  Hf16  1  0.458966  0.917933  0.750000  1
  Hf  Hf17  1  0.082067  0.541034  0.750000  1
  Ti  Ti18  1  0.000000  0.000000  0.497304  1
  Ti  Ti19  1  0.000000  0.000000  0.002696  1
  Mn  Mn20  1  0.333333  0.666667  0.250000  1
  Zn  Zn21  1  0.666667  0.333333  0.750000  1
  Re  Re22  1  0.886505  0.113495  0.250000  1
  Re  Re23  1  0.886505  0.773010  0.250000  1
  Re  Re24  1  0.226990  0.113495  0.250000  1
  Re  Re25  1  0.112776  0.887224  0.750000  1
  Re  Re26  1  0.112776  0.225554  0.750000  1
  Re  Re27  1  0.774446  0.887224  0.750000  1
