# generated using pymatgen
data_Pu2TaCl15
_symmetry_space_group_name_H-M   'P 1'
_cell_length_a   14.18681197
_cell_length_b   14.19465956
_cell_length_c   6.59986242
_cell_angle_alpha   88.81541146
_cell_angle_beta   88.84717003
_cell_angle_gamma   88.59939591
_symmetry_Int_Tables_number   1
_chemical_formula_structural   Pu2TaCl15
_chemical_formula_sum   'Pu4 Ta2 Cl30'
_cell_volume   1328.12342293
_cell_formula_units_Z   2
loop_
 _symmetry_equiv_pos_site_id
 _symmetry_equiv_pos_as_xyz
  1  'x, y, z'
loop_
 _atom_site_type_symbol
 _atom_site_label
 _atom_site_symmetry_multiplicity
 _atom_site_fract_x
 _atom_site_fract_y
 _atom_site_fract_z
 _atom_site_occupancy
  Pu  Pu0  1  0.767175  0.566807  0.524148  1
  Pu  Pu1  1  0.436857  0.229390  0.475837  1
  Pu  Pu2  1  0.229014  0.437103  0.475691  1
  Pu  Pu3  1  0.099882  0.900062  0.999812  1
  Ta  Ta4  1  0.560289  0.773596  0.524275  1
  Ta  Ta5  1  0.892936  0.106881  0.000157  1
  Cl  Cl6  1  0.667941  0.468999  0.750088  1
  Cl  Cl7  1  0.532880  0.330437  0.250173  1
  Cl  Cl8  1  0.330322  0.532716  0.250408  1
  Cl  Cl9  1  0.481517  0.667779  0.735694  1
  Cl  Cl10  1  0.798069  0.430482  0.303162  1
  Cl  Cl11  1  0.572678  0.200166  0.699554  1
  Cl  Cl12  1  0.944760  0.958032  0.206991  1
  Cl  Cl13  1  0.041949  0.055120  0.792654  1
  Cl  Cl14  1  0.768795  0.128868  0.218135  1
  Cl  Cl15  1  0.871114  0.231025  0.781958  1
  Cl  Cl16  1  0.237228  0.870136  0.771819  1
  Cl  Cl17  1  0.129889  0.763082  0.228051  1
  Cl  Cl18  1  0.815287  0.001603  0.801063  1
  Cl  Cl19  1  0.998466  0.184533  0.198633  1
  Cl  Cl20  1  0.196942  0.998437  0.212004  1
  Cl  Cl21  1  0.001320  0.803162  0.788478  1
  Cl  Cl22  1  0.708281  0.721134  0.724745  1
  Cl  Cl23  1  0.283091  0.283543  0.267063  1
  Cl  Cl24  1  0.537612  0.896816  0.735799  1
  Cl  Cl25  1  0.093993  0.464782  0.250656  1
  Cl  Cl26  1  0.465532  0.093785  0.251429  1
  Cl  Cl27  1  0.903008  0.536232  0.745903  1
  Cl  Cl28  1  0.666300  0.852171  0.312875  1
  Cl  Cl29  1  0.133398  0.335843  0.701043  1
  Cl  Cl30  1  0.335495  0.133571  0.701114  1
  Cl  Cl31  1  0.864906  0.666086  0.298905  1
  Cl  Cl32  1  0.612615  0.625752  0.323459  1
  Cl  Cl33  1  0.382713  0.383062  0.684457  1
  Cl  Cl34  1  0.436846  0.796678  0.313293  1
  Cl  Cl35  1  0.200900  0.572132  0.700476  1
