# generated using pymatgen
data_Dy23Sc(CoTc)4
_symmetry_space_group_name_H-M   'P 1'
_cell_length_a   6.31331257
_cell_length_b   9.21280987
_cell_length_c   14.18236688
_cell_angle_alpha   89.93024339
_cell_angle_beta   89.90008668
_cell_angle_gamma   89.86826173
_symmetry_Int_Tables_number   1
_chemical_formula_structural   Dy23Sc(CoTc)4
_chemical_formula_sum   'Dy23 Sc1 Co4 Tc4'
_cell_volume   824.88990354
_cell_formula_units_Z   1
loop_
 _symmetry_equiv_pos_site_id
 _symmetry_equiv_pos_as_xyz
  1  'x, y, z'
loop_
 _atom_site_type_symbol
 _atom_site_label
 _atom_site_symmetry_multiplicity
 _atom_site_fract_x
 _atom_site_fract_y
 _atom_site_fract_z
 _atom_site_occupancy
  Dy  Dy0  1  0.537707  0.749589  0.349862  1
  Dy  Dy1  1  0.039176  0.251732  0.147619  1
  Dy  Dy2  1  0.463226  0.249935  0.650957  1
  Dy  Dy3  1  0.961991  0.746543  0.851147  1
  Dy  Dy4  1  0.774187  0.747866  0.106866  1
  Dy  Dy5  1  0.274376  0.250218  0.391507  1
  Dy  Dy6  1  0.222159  0.251889  0.892911  1
  Dy  Dy7  1  0.726639  0.750069  0.608467  1
  Dy  Dy8  1  0.411391  0.930804  0.785978  1
  Dy  Dy9  1  0.913299  0.066952  0.715673  1
  Dy  Dy10  1  0.589830  0.433176  0.212145  1
  Dy  Dy11  1  0.088297  0.567820  0.285279  1
  Dy  Dy12  1  0.588525  0.067798  0.214393  1
  Dy  Dy13  1  0.087076  0.933546  0.284650  1
  Dy  Dy14  1  0.417392  0.565528  0.785838  1
  Dy  Dy15  1  0.913320  0.431969  0.717864  1
  Dy  Dy16  1  0.240705  0.934919  0.537237  1
  Dy  Dy17  1  0.742774  0.067523  0.962851  1
  Dy  Dy18  1  0.758534  0.434502  0.463094  1
  Dy  Dy19  1  0.256445  0.563104  0.035823  1
  Dy  Dy20  1  0.758465  0.065396  0.463201  1
  Dy  Dy21  1  0.260698  0.934001  0.036773  1
  Dy  Dy22  1  0.239374  0.564424  0.537498  1
  Sc  Sc23  1  0.726264  0.434480  0.961829  1
  Co  Co24  1  0.372701  0.749571  0.182268  1
  Co  Co25  1  0.874140  0.249737  0.315811  1
  Co  Co26  1  0.626911  0.256481  0.820494  1
  Co  Co27  1  0.127027  0.751166  0.683589  1
  Tc  Tc28  1  0.933033  0.750401  0.434816  1
  Tc  Tc29  1  0.438918  0.252541  0.062666  1
  Tc  Tc30  1  0.066844  0.250057  0.565627  1
  Tc  Tc31  1  0.568578  0.746263  0.935266  1
