# generated using pymatgen
data_La3Tc4BiF28
_symmetry_space_group_name_H-M   'P 1'
_cell_length_a   5.81482301
_cell_length_b   9.31543800
_cell_length_c   12.48556200
_cell_angle_alpha   62.07996276
_cell_angle_beta   90.00260130
_cell_angle_gamma   90.00558497
_symmetry_Int_Tables_number   1
_chemical_formula_structural   La3Tc4BiF28
_chemical_formula_sum   'La3 Tc4 Bi1 F28'
_cell_volume   597.59166421
_cell_formula_units_Z   1
loop_
 _symmetry_equiv_pos_site_id
 _symmetry_equiv_pos_as_xyz
  1  'x, y, z'
loop_
 _atom_site_type_symbol
 _atom_site_label
 _atom_site_symmetry_multiplicity
 _atom_site_fract_x
 _atom_site_fract_y
 _atom_site_fract_z
 _atom_site_occupancy
  La  La0  1  0.259715  0.190615  0.235953  1
  La  La1  1  0.241875  0.189915  0.734630  1
  La  La2  1  0.741830  0.809876  0.764594  1
  Tc  Tc3  1  0.242351  0.726850  0.539557  1
  Tc  Tc4  1  0.745304  0.270826  0.959679  1
  Tc  Tc5  1  0.756805  0.275817  0.456044  1
  Tc  Tc6  1  0.257814  0.727355  0.044969  1
  Bi  Bi7  1  0.764456  0.816808  0.261593  1
  F  F8  1  0.962208  0.719994  0.451227  1
  F  F9  1  0.467434  0.281249  0.046347  1
  F  F10  1  0.034894  0.285661  0.542405  1
  F  F11  1  0.532705  0.714828  0.957133  1
  F  F12  1  0.055504  0.709588  0.925426  1
  F  F13  1  0.557188  0.291683  0.576729  1
  F  F14  1  0.943688  0.289781  0.079342  1
  F  F15  1  0.442167  0.709284  0.420635  1
  F  F16  1  0.736252  0.508147  0.863304  1
  F  F17  1  0.232144  0.489036  0.636555  1
  F  F18  1  0.263900  0.488555  0.140724  1
  F  F19  1  0.763272  0.511853  0.359751  1
  F  F20  1  0.742196  0.031478  0.054398  1
  F  F21  1  0.241878  0.964755  0.446279  1
  F  F22  1  0.260640  0.964497  0.950106  1
  F  F23  1  0.759940  0.037335  0.550728  1
  F  F24  1  0.044569  0.743466  0.662559  1
  F  F25  1  0.549465  0.253757  0.837406  1
  F  F26  1  0.951290  0.257338  0.333177  1
  F  F27  1  0.454447  0.746031  0.166618  1
  F  F28  1  0.015985  0.265529  0.868094  1
  F  F29  1  0.510055  0.731541  0.633956  1
  F  F30  1  0.986624  0.734549  0.136989  1
  F  F31  1  0.486467  0.267068  0.364251  1
  F  F32  1  0.076690  0.970612  0.229912  1
  F  F33  1  0.593244  0.024374  0.268977  1
  F  F34  1  0.912403  0.031154  0.768711  1
  F  F35  1  0.412600  0.968793  0.731240  1
