# generated using pymatgen
data_Li2Pr3Sm(AgAs4)2
_symmetry_space_group_name_H-M   'P 1'
_cell_length_a   4.01592400
_cell_length_b   4.03345336
_cell_length_c   21.46274491
_cell_angle_alpha   89.95165364
_cell_angle_beta   90.00000000
_cell_angle_gamma   90.00000000
_symmetry_Int_Tables_number   1
_chemical_formula_structural   Li2Pr3Sm(AgAs4)2
_chemical_formula_sum   'Li2 Pr3 Sm1 Ag2 As8'
_cell_volume   347.65432288
_cell_formula_units_Z   1
loop_
 _symmetry_equiv_pos_site_id
 _symmetry_equiv_pos_as_xyz
  1  'x, y, z'
loop_
 _atom_site_type_symbol
 _atom_site_label
 _atom_site_symmetry_multiplicity
 _atom_site_fract_x
 _atom_site_fract_y
 _atom_site_fract_z
 _atom_site_occupancy
  Li  Li0  1  0.250000  0.762043  0.750195  1
  Li  Li1  1  0.250000  0.738050  0.249248  1
  Pr  Pr2  1  0.250000  0.262588  0.615360  1
  Pr  Pr3  1  0.750000  0.738034  0.384556  1
  Pr  Pr4  1  0.750000  0.761293  0.885953  1
  Sm  Sm5  1  0.250000  0.238296  0.114974  1
  Ag  Ag6  1  0.750000  0.237283  0.248426  1
  Ag  Ag7  1  0.750000  0.262525  0.750011  1
  As  As8  1  0.250000  0.261705  0.833487  1
  As  As9  1  0.250000  0.238063  0.332641  1
  As  As10  1  0.750000  0.738095  0.164234  1
  As  As11  1  0.750000  0.762473  0.667051  1
  As  As12  1  0.250000  0.777703  0.500360  1
  As  As13  1  0.250000  0.723540  0.002054  1
  As  As14  1  0.750000  0.222451  0.499783  1
  As  As15  1  0.750000  0.275859  0.001667  1
