# generated using pymatgen
data_Rb8Cd3Ge43
_symmetry_space_group_name_H-M   'P 1'
_cell_length_a   11.12688414
_cell_length_b   11.12688429
_cell_length_c   11.12688300
_cell_angle_alpha   90.00921727
_cell_angle_beta   90.00921727
_cell_angle_gamma   90.00922093
_symmetry_Int_Tables_number   1
_chemical_formula_structural   Rb8Cd3Ge43
_chemical_formula_sum   'Rb8 Cd3 Ge43'
_cell_volume   1377.59209610
_cell_formula_units_Z   1
loop_
 _symmetry_equiv_pos_site_id
 _symmetry_equiv_pos_as_xyz
  1  'x, y, z'
loop_
 _atom_site_type_symbol
 _atom_site_label
 _atom_site_symmetry_multiplicity
 _atom_site_fract_x
 _atom_site_fract_y
 _atom_site_fract_z
 _atom_site_occupancy
  Rb  Rb0  1  0.250049  0.250049  0.250049  1
  Rb  Rb1  1  0.749951  0.749951  0.749951  1
  Rb  Rb2  1  0.500000  0.248967  0.751033  1
  Rb  Rb3  1  0.248967  0.751033  0.500000  1
  Rb  Rb4  1  0.751033  0.500000  0.248967  1
  Rb  Rb5  1  0.000000  0.248960  0.751040  1
  Rb  Rb6  1  0.248960  0.751040  0.000000  1
  Rb  Rb7  1  0.751040  0.000000  0.248960  1
  Cd  Cd8  1  0.750174  0.249826  0.000000  1
  Cd  Cd9  1  0.249826  0.000000  0.750174  1
  Cd  Cd10  1  0.000000  0.750174  0.249826  1
  Ge  Ge11  1  0.554141  0.249759  0.368270  1
  Ge  Ge12  1  0.249759  0.368270  0.554141  1
  Ge  Ge13  1  0.368270  0.554141  0.249759  1
  Ge  Ge14  1  0.946354  0.250076  0.136194  1
  Ge  Ge15  1  0.250076  0.136194  0.946354  1
  Ge  Ge16  1  0.136194  0.946354  0.250076  1
  Ge  Ge17  1  0.249785  0.368762  0.946179  1
  Ge  Ge18  1  0.136343  0.554210  0.250138  1
  Ge  Ge19  1  0.250138  0.136343  0.554210  1
  Ge  Ge20  1  0.368762  0.946179  0.249785  1
  Ge  Ge21  1  0.554210  0.250138  0.136343  1
  Ge  Ge22  1  0.946179  0.249785  0.368762  1
  Ge  Ge23  1  0.631730  0.750241  0.445859  1
  Ge  Ge24  1  0.445790  0.863657  0.749862  1
  Ge  Ge25  1  0.750215  0.053821  0.631238  1
  Ge  Ge26  1  0.863806  0.749924  0.053646  1
  Ge  Ge27  1  0.053821  0.631238  0.750215  1
  Ge  Ge28  1  0.749862  0.445790  0.863657  1
  Ge  Ge29  1  0.053646  0.863806  0.749924  1
  Ge  Ge30  1  0.749924  0.053646  0.863806  1
  Ge  Ge31  1  0.445859  0.631730  0.750241  1
  Ge  Ge32  1  0.750241  0.445859  0.631730  1
  Ge  Ge33  1  0.863657  0.749862  0.445790  1
  Ge  Ge34  1  0.631238  0.750215  0.053821  1
  Ge  Ge35  1  0.434842  0.434842  0.434842  1
  Ge  Ge36  1  0.067891  0.067891  0.067891  1
  Ge  Ge37  1  0.066100  0.433912  0.067608  1
  Ge  Ge38  1  0.433923  0.066141  0.435207  1
  Ge  Ge39  1  0.433912  0.067608  0.066100  1
  Ge  Ge40  1  0.066141  0.435207  0.433923  1
  Ge  Ge41  1  0.067608  0.066100  0.433912  1
  Ge  Ge42  1  0.435207  0.433923  0.066141  1
  Ge  Ge43  1  0.564793  0.933859  0.566077  1
  Ge  Ge44  1  0.932392  0.566088  0.933900  1
  Ge  Ge45  1  0.932109  0.932109  0.932109  1
  Ge  Ge46  1  0.565158  0.565158  0.565158  1
  Ge  Ge47  1  0.933859  0.566077  0.564793  1
  Ge  Ge48  1  0.566088  0.933900  0.932392  1
  Ge  Ge49  1  0.566077  0.564793  0.933859  1
  Ge  Ge50  1  0.933900  0.932392  0.566088  1
  Ge  Ge51  1  0.749903  0.250097  0.500000  1
  Ge  Ge52  1  0.250097  0.500000  0.749903  1
  Ge  Ge53  1  0.500000  0.749903  0.250097  1
