# generated using pymatgen
data_Dy3Er9InCo4Ir
_symmetry_space_group_name_H-M   'P 1'
_cell_length_a   8.23553283
_cell_length_b   8.23597730
_cell_length_c   8.22923626
_cell_angle_alpha   111.15084874
_cell_angle_beta   110.74981700
_cell_angle_gamma   106.58618462
_symmetry_Int_Tables_number   1
_chemical_formula_structural   Dy3Er9InCo4Ir
_chemical_formula_sum   'Dy3 Er9 In1 Co4 Ir1'
_cell_volume   428.67166181
_cell_formula_units_Z   1
loop_
 _symmetry_equiv_pos_site_id
 _symmetry_equiv_pos_as_xyz
  1  'x, y, z'
loop_
 _atom_site_type_symbol
 _atom_site_label
 _atom_site_symmetry_multiplicity
 _atom_site_fract_x
 _atom_site_fract_y
 _atom_site_fract_z
 _atom_site_occupancy
  Dy  Dy0  1  0.184013  0.286584  0.470696  1
  Dy  Dy1  1  0.815196  0.712672  0.528048  1
  Dy  Dy2  1  0.184730  0.712931  0.897907  1
  Er  Er3  1  0.815505  0.285839  0.101317  1
  Er  Er4  1  0.314733  0.621177  0.306156  1
  Er  Er5  1  0.685067  0.378618  0.694439  1
  Er  Er6  1  0.315835  0.009363  0.694527  1
  Er  Er7  1  0.684908  0.991446  0.306154  1
  Er  Er8  1  0.411133  0.216576  0.194017  1
  Er  Er9  1  0.590269  0.784057  0.806637  1
  Er  Er10  1  0.022483  0.216298  0.806538  1
  Er  Er11  1  0.977629  0.782984  0.194116  1
  In  In12  1  0.499771  0.501332  0.001062  1
  Co  Co13  1  0.111027  0.611550  0.498312  1
  Co  Co14  1  0.886745  0.387353  0.498277  1
  Co  Co15  1  0.378335  0.999873  0.378136  1
  Co  Co16  1  0.622211  0.001026  0.623278  1
  Ir  Ir17  1  0.000410  0.000320  0.000381  1
