# generated using pymatgen
data_TiBe(AlRh2)2
_symmetry_space_group_name_H-M   'P 1'
_cell_length_a   4.20524000
_cell_length_b   4.20524000
_cell_length_c   6.02875800
_cell_angle_alpha   90.00000000
_cell_angle_beta   90.00000000
_cell_angle_gamma   90.00000000
_symmetry_Int_Tables_number   1
_chemical_formula_structural   TiBe(AlRh2)2
_chemical_formula_sum   'Ti1 Be1 Al2 Rh4'
_cell_volume   106.61281847
_cell_formula_units_Z   1
loop_
 _symmetry_equiv_pos_site_id
 _symmetry_equiv_pos_as_xyz
  1  'x, y, z'
loop_
 _atom_site_type_symbol
 _atom_site_label
 _atom_site_symmetry_multiplicity
 _atom_site_fract_x
 _atom_site_fract_y
 _atom_site_fract_z
 _atom_site_occupancy
  Ti  Ti0  1  0.500001  0.500001  0.000000  1
  Be  Be1  1  0.000000  0.000000  0.499999  1
  Al  Al2  1  0.000000  0.000000  0.000000  1
  Al  Al3  1  0.500001  0.500001  0.499999  1
  Rh  Rh4  1  0.499998  0.000000  0.258925  1
  Rh  Rh5  1  0.000000  0.499998  0.258925  1
  Rh  Rh6  1  0.499998  0.000000  0.741074  1
  Rh  Rh7  1  0.000000  0.499998  0.741074  1
