# generated using pymatgen
data_Lu4Al18Ni5Os
_symmetry_space_group_name_H-M   'P 1'
_cell_length_a   7.42448012
_cell_length_b   7.42378593
_cell_length_c   9.22893795
_cell_angle_alpha   89.88705374
_cell_angle_beta   89.87630364
_cell_angle_gamma   119.74732223
_symmetry_Int_Tables_number   1
_chemical_formula_structural   Lu4Al18Ni5Os
_chemical_formula_sum   'Lu4 Al18 Ni5 Os1'
_cell_volume   441.64195660
_cell_formula_units_Z   1
loop_
 _symmetry_equiv_pos_site_id
 _symmetry_equiv_pos_as_xyz
  1  'x, y, z'
loop_
 _atom_site_type_symbol
 _atom_site_label
 _atom_site_symmetry_multiplicity
 _atom_site_fract_x
 _atom_site_fract_y
 _atom_site_fract_z
 _atom_site_occupancy
  Lu  Lu0  1  0.991747  0.666825  0.251009  1
  Lu  Lu1  1  0.003549  0.328587  0.748985  1
  Lu  Lu2  1  0.670992  0.996042  0.251099  1
  Lu  Lu3  1  0.333222  0.008413  0.749116  1
  Al  Al4  1  0.120947  0.121306  0.249940  1
  Al  Al5  1  0.878747  0.879081  0.750696  1
  Al  Al6  1  0.997644  0.335038  0.073268  1
  Al  Al7  1  0.004256  0.667541  0.925832  1
  Al  Al8  1  0.005713  0.666762  0.573734  1
  Al  Al9  1  0.333189  0.994180  0.426281  1
  Al  Al10  1  0.003212  0.333862  0.426293  1
  Al  Al11  1  0.666265  0.996929  0.573717  1
  Al  Al12  1  0.664774  0.001929  0.926720  1
  Al  Al13  1  0.332198  0.995424  0.074102  1
  Al  Al14  1  0.331276  0.330696  0.550737  1
  Al  Al15  1  0.669217  0.668738  0.449256  1
  Al  Al16  1  0.668059  0.669840  0.052975  1
  Al  Al17  1  0.330000  0.331824  0.947046  1
  Al  Al18  1  0.337987  0.555812  0.249674  1
  Al  Al19  1  0.660814  0.452320  0.752540  1
  Al  Al20  1  0.547631  0.339210  0.247064  1
  Al  Al21  1  0.444362  0.661972  0.750522  1
  Ni  Ni22  1  0.672525  0.329723  0.000225  1
  Ni  Ni23  1  0.328926  0.672988  0.000466  1
  Ni  Ni24  1  0.330183  0.669185  0.499280  1
  Ni  Ni25  1  0.999564  0.001089  0.999370  1
  Ni  Ni26  1  0.000395  0.998173  0.500014  1
  Os  Os27  1  0.672606  0.326512  0.500039  1
