# generated using pymatgen
data_Lu8Mg2Ni4HgBi
_symmetry_space_group_name_H-M   'P 1'
_cell_length_a   8.49397563
_cell_length_b   8.49397525
_cell_length_c   8.49397583
_cell_angle_alpha   128.94994887
_cell_angle_beta   128.94995733
_cell_angle_gamma   75.09111538
_symmetry_Int_Tables_number   1
_chemical_formula_structural   Lu8Mg2Ni4HgBi
_chemical_formula_sum   'Lu8 Mg2 Ni4 Hg1 Bi1'
_cell_volume   360.87604237
_cell_formula_units_Z   1
loop_
 _symmetry_equiv_pos_site_id
 _symmetry_equiv_pos_as_xyz
  1  'x, y, z'
loop_
 _atom_site_type_symbol
 _atom_site_label
 _atom_site_symmetry_multiplicity
 _atom_site_fract_x
 _atom_site_fract_y
 _atom_site_fract_z
 _atom_site_occupancy
  Lu  Lu0  1  0.798178  0.290296  0.832338  1
  Lu  Lu1  1  0.209704  0.701822  0.167662  1
  Lu  Lu2  1  0.457959  0.965840  0.167662  1
  Lu  Lu3  1  0.290296  0.457959  0.492119  1
  Lu  Lu4  1  0.042041  0.209704  0.507881  1
  Lu  Lu5  1  0.534160  0.042041  0.832338  1
  Lu  Lu6  1  0.701822  0.534160  0.492119  1
  Lu  Lu7  1  0.965840  0.798178  0.507881  1
  Mg  Mg8  1  0.997227  0.997227  0.000000  1
  Mg  Mg9  1  0.502773  0.502773  0.000000  1
  Ni  Ni10  1  0.129369  0.629369  0.758739  1
  Ni  Ni11  1  0.870631  0.370631  0.241261  1
  Ni  Ni12  1  0.629369  0.870631  0.500000  1
  Ni  Ni13  1  0.370631  0.129369  0.500000  1
  Hg  Hg14  1  0.250000  0.250000  0.000000  1
  Bi  Bi15  1  0.750000  0.750000  0.000000  1
