# generated using pymatgen
data_Na3Al2Ag
_symmetry_space_group_name_H-M   'P 1'
_cell_length_a   9.33237180
_cell_length_b   9.33237192
_cell_length_c   9.33237100
_cell_angle_alpha   59.99999973
_cell_angle_beta   59.99999930
_cell_angle_gamma   60.00000406
_symmetry_Int_Tables_number   1
_chemical_formula_structural   Na3Al2Ag
_chemical_formula_sum   'Na12 Al8 Ag4'
_cell_volume   574.72631012
_cell_formula_units_Z   4
loop_
 _symmetry_equiv_pos_site_id
 _symmetry_equiv_pos_as_xyz
  1  'x, y, z'
loop_
 _atom_site_type_symbol
 _atom_site_label
 _atom_site_symmetry_multiplicity
 _atom_site_fract_x
 _atom_site_fract_y
 _atom_site_fract_z
 _atom_site_occupancy
  Na  Na0  1  0.048778  0.451222  0.048778  1
  Na  Na1  1  0.798778  0.201222  0.201222  1
  Na  Na2  1  0.201222  0.798778  0.798778  1
  Na  Na3  1  0.798778  0.201222  0.798778  1
  Na  Na4  1  0.201222  0.201222  0.798778  1
  Na  Na5  1  0.798778  0.798778  0.201222  1
  Na  Na6  1  0.048778  0.048778  0.451222  1
  Na  Na7  1  0.451222  0.048778  0.048778  1
  Na  Na8  1  0.048778  0.451222  0.451222  1
  Na  Na9  1  0.451222  0.451222  0.048778  1
  Na  Na10  1  0.201222  0.798778  0.201222  1
  Na  Na11  1  0.451222  0.048778  0.451222  1
  Al  Al12  1  0.825581  0.825581  0.825581  1
  Al  Al13  1  0.726744  0.424419  0.424419  1
  Al  Al14  1  0.424419  0.726744  0.424419  1
  Al  Al15  1  0.424419  0.424419  0.726744  1
  Al  Al16  1  0.825581  0.523256  0.825581  1
  Al  Al17  1  0.825581  0.825581  0.523256  1
  Al  Al18  1  0.523256  0.825581  0.825581  1
  Al  Al19  1  0.424419  0.424419  0.424419  1
  Ag  Ag20  1  0.625000  0.625000  0.625000  1
  Ag  Ag21  1  0.125000  0.625000  0.625000  1
  Ag  Ag22  1  0.625000  0.125000  0.625000  1
  Ag  Ag23  1  0.625000  0.625000  0.125000  1
