# generated using pymatgen
data_Tb11DyCo5Hg
_symmetry_space_group_name_H-M   'P 1'
_cell_length_a   8.30273946
_cell_length_b   8.30274209
_cell_length_c   8.30416678
_cell_angle_alpha   110.82414232
_cell_angle_beta   109.92527422
_cell_angle_gamma   107.67307081
_symmetry_Int_Tables_number   1
_chemical_formula_structural   Tb11DyCo5Hg
_chemical_formula_sum   'Tb11 Dy1 Co5 Hg1'
_cell_volume   440.36180683
_cell_formula_units_Z   1
loop_
 _symmetry_equiv_pos_site_id
 _symmetry_equiv_pos_as_xyz
  1  'x, y, z'
loop_
 _atom_site_type_symbol
 _atom_site_label
 _atom_site_symmetry_multiplicity
 _atom_site_fract_x
 _atom_site_fract_y
 _atom_site_fract_z
 _atom_site_occupancy
  Tb  Tb0  1  0.183546  0.291664  0.475210  1
  Tb  Tb1  1  0.183045  0.708232  0.891279  1
  Tb  Tb2  1  0.816569  0.292011  0.108578  1
  Tb  Tb3  1  0.682755  0.379299  0.696211  1
  Tb  Tb4  1  0.317620  0.620901  0.303746  1
  Tb  Tb5  1  0.682845  0.986127  0.303746  1
  Tb  Tb6  1  0.316912  0.013456  0.696211  1
  Tb  Tb7  1  0.599090  0.791168  0.807367  1
  Tb  Tb8  1  0.401352  0.209112  0.192618  1
  Tb  Tb9  1  0.983506  0.791267  0.192618  1
  Tb  Tb10  1  0.016199  0.208277  0.807367  1
  Dy  Dy11  1  0.816868  0.708258  0.525127  1
  Co  Co12  1  0.624001  0.999763  0.623763  1
  Co  Co13  1  0.376137  0.000010  0.376147  1
  Co  Co14  1  0.113466  0.613988  0.500101  1
  Co  Co15  1  0.886113  0.386635  0.500101  1
  Co  Co16  1  0.999893  0.999796  0.999689  1
  Hg  Hg17  1  0.500082  0.500037  0.000119  1
