# generated using pymatgen
data_Mn5AlPd10
_symmetry_space_group_name_H-M   'P 1'
_cell_length_a   4.13432500
_cell_length_b   5.45670317
_cell_length_c   10.69401533
_cell_angle_alpha   89.97132023
_cell_angle_beta   90.00000000
_cell_angle_gamma   90.00000000
_symmetry_Int_Tables_number   1
_chemical_formula_structural   Mn5AlPd10
_chemical_formula_sum   'Mn5 Al1 Pd10'
_cell_volume   241.25464943
_cell_formula_units_Z   1
loop_
 _symmetry_equiv_pos_site_id
 _symmetry_equiv_pos_as_xyz
  1  'x, y, z'
loop_
 _atom_site_type_symbol
 _atom_site_label
 _atom_site_symmetry_multiplicity
 _atom_site_fract_x
 _atom_site_fract_y
 _atom_site_fract_z
 _atom_site_occupancy
  Mn  Mn0  1  0.000000  0.000000  0.000000  1
  Mn  Mn1  1  0.500000  0.174590  0.362298  1
  Mn  Mn2  1  0.500000  0.825410  0.637702  1
  Mn  Mn3  1  0.500000  0.678915  0.137076  1
  Mn  Mn4  1  0.500000  0.321085  0.862924  1
  Al  Al5  1  0.000000  0.500000  0.500000  1
  Pd  Pd6  1  0.500000  0.189842  0.112637  1
  Pd  Pd7  1  0.500000  0.810158  0.887363  1
  Pd  Pd8  1  0.500000  0.682767  0.392274  1
  Pd  Pd9  1  0.500000  0.317233  0.607726  1
  Pd  Pd10  1  0.000000  0.000000  0.500000  1
  Pd  Pd11  1  0.000000  0.500000  0.000000  1
  Pd  Pd12  1  0.000000  0.914910  0.242925  1
  Pd  Pd13  1  0.000000  0.085090  0.757075  1
  Pd  Pd14  1  0.000000  0.416512  0.261094  1
  Pd  Pd15  1  0.000000  0.583488  0.738906  1
