# generated using pymatgen
data_Pr8DyHoIr4
_symmetry_space_group_name_H-M   'P 1'
_cell_length_a   6.70549766
_cell_length_b   7.31545513
_cell_length_c   8.98510764
_cell_angle_alpha   96.33460506
_cell_angle_beta   111.90971981
_cell_angle_gamma   89.99999644
_symmetry_Int_Tables_number   1
_chemical_formula_structural   Pr8DyHoIr4
_chemical_formula_sum   'Pr8 Dy1 Ho1 Ir4'
_cell_volume   406.01711165
_cell_formula_units_Z   1
loop_
 _symmetry_equiv_pos_site_id
 _symmetry_equiv_pos_as_xyz
  1  'x, y, z'
loop_
 _atom_site_type_symbol
 _atom_site_label
 _atom_site_symmetry_multiplicity
 _atom_site_fract_x
 _atom_site_fract_y
 _atom_site_fract_z
 _atom_site_occupancy
  Pr  Pr0  1  0.795069  0.077338  0.818472  1
  Pr  Pr1  1  0.976597  0.422662  0.181528  1
  Pr  Pr2  1  0.205182  0.922969  0.181690  1
  Pr  Pr3  1  0.023492  0.577031  0.818310  1
  Pr  Pr4  1  0.214997  0.188116  0.569157  1
  Pr  Pr5  1  0.645840  0.311884  0.430843  1
  Pr  Pr6  1  0.784983  0.811944  0.431119  1
  Pr  Pr7  1  0.353864  0.688056  0.568881  1
  Dy  Dy8  1  0.562848  0.750000  0.000000  1
  Ho  Ho9  1  0.437335  0.250000  0.000000  1
  Ir  Ir10  1  0.598163  0.429475  0.789872  1
  Ir  Ir11  1  0.808291  0.070525  0.210128  1
  Ir  Ir12  1  0.401713  0.569868  0.210088  1
  Ir  Ir13  1  0.191625  0.930132  0.789912  1
