# generated using pymatgen
data_Zr3BeSe
_symmetry_space_group_name_H-M   'P 1'
_cell_length_a   7.07763800
_cell_length_b   7.06941400
_cell_length_c   3.64090300
_cell_angle_alpha   90.00000000
_cell_angle_beta   90.00000000
_cell_angle_gamma   90.00000000
_symmetry_Int_Tables_number   1
_chemical_formula_structural   Zr3BeSe
_chemical_formula_sum   'Zr6 Be2 Se2'
_cell_volume   182.17168290
_cell_formula_units_Z   2
loop_
 _symmetry_equiv_pos_site_id
 _symmetry_equiv_pos_as_xyz
  1  'x, y, z'
loop_
 _atom_site_type_symbol
 _atom_site_label
 _atom_site_symmetry_multiplicity
 _atom_site_fract_x
 _atom_site_fract_y
 _atom_site_fract_z
 _atom_site_occupancy
  Zr  Zr0  1  0.002548  0.995143  0.000000  1
  Zr  Zr1  1  0.502548  0.504857  0.000000  1
  Zr  Zr2  1  0.323864  0.172851  0.499999  1
  Zr  Zr3  1  0.823864  0.327150  0.499999  1
  Zr  Zr4  1  0.179630  0.687842  0.499999  1
  Zr  Zr5  1  0.679630  0.812159  0.499999  1
  Be  Be6  1  0.877238  0.622177  0.000000  1
  Be  Be7  1  0.377237  0.877823  0.000000  1
  Se  Se8  1  0.616719  0.110373  0.000000  1
  Se  Se9  1  0.116719  0.389626  0.000000  1
