# generated using pymatgen
data_HoMoN2
_symmetry_space_group_name_H-M   'P 1'
_cell_length_a   3.19599700
_cell_length_b   5.68912000
_cell_length_c   10.57105800
_cell_angle_alpha   90.00000000
_cell_angle_beta   90.00000000
_cell_angle_gamma   90.00000000
_symmetry_Int_Tables_number   1
_chemical_formula_structural   HoMoN2
_chemical_formula_sum   'Ho4 Mo4 N8'
_cell_volume   192.20731547
_cell_formula_units_Z   4
loop_
 _symmetry_equiv_pos_site_id
 _symmetry_equiv_pos_as_xyz
  1  'x, y, z'
loop_
 _atom_site_type_symbol
 _atom_site_label
 _atom_site_symmetry_multiplicity
 _atom_site_fract_x
 _atom_site_fract_y
 _atom_site_fract_z
 _atom_site_occupancy
  Ho  Ho0  1  0.250000  0.079711  0.853697  1
  Ho  Ho1  1  0.250000  0.579711  0.646303  1
  Ho  Ho2  1  0.750000  0.920289  0.146303  1
  Ho  Ho3  1  0.750000  0.420289  0.353697  1
  Mo  Mo4  1  0.250000  0.432554  0.093495  1
  Mo  Mo5  1  0.250000  0.932554  0.406505  1
  Mo  Mo6  1  0.750000  0.567446  0.906505  1
  Mo  Mo7  1  0.750000  0.067446  0.593495  1
  N  N8  1  0.250000  0.163460  0.249096  1
  N  N9  1  0.250000  0.663460  0.250904  1
  N  N10  1  0.750000  0.836540  0.750904  1
  N  N11  1  0.750000  0.336540  0.749096  1
  N  N12  1  0.250000  0.760304  0.993756  1
  N  N13  1  0.250000  0.260304  0.506244  1
  N  N14  1  0.750000  0.239696  0.006244  1
  N  N15  1  0.750000  0.739696  0.493756  1
