# generated using pymatgen
data_Zr6Zn16GaCu7
_symmetry_space_group_name_H-M   'P 1'
_cell_length_a   8.66308999
_cell_length_b   8.66308980
_cell_length_c   8.66309000
_cell_angle_alpha   59.99999922
_cell_angle_beta   59.99999995
_cell_angle_gamma   59.99999704
_symmetry_Int_Tables_number   1
_chemical_formula_structural   Zr6Zn16GaCu7
_chemical_formula_sum   'Zr6 Zn16 Ga1 Cu7'
_cell_volume   459.73064868
_cell_formula_units_Z   1
loop_
 _symmetry_equiv_pos_site_id
 _symmetry_equiv_pos_as_xyz
  1  'x, y, z'
loop_
 _atom_site_type_symbol
 _atom_site_label
 _atom_site_symmetry_multiplicity
 _atom_site_fract_x
 _atom_site_fract_y
 _atom_site_fract_z
 _atom_site_occupancy
  Zr  Zr0  1  0.717778  0.282222  0.282222  1
  Zr  Zr1  1  0.282222  0.717778  0.717778  1
  Zr  Zr2  1  0.282222  0.717778  0.282222  1
  Zr  Zr3  1  0.717778  0.282222  0.717778  1
  Zr  Zr4  1  0.282222  0.282222  0.717778  1
  Zr  Zr5  1  0.717778  0.717778  0.282222  1
  Zn  Zn6  1  0.123080  0.123080  0.123080  1
  Zn  Zn7  1  0.876920  0.876920  0.876920  1
  Zn  Zn8  1  0.123080  0.123080  0.630760  1
  Zn  Zn9  1  0.123080  0.630760  0.123080  1
  Zn  Zn10  1  0.876920  0.876920  0.369240  1
  Zn  Zn11  1  0.876920  0.369240  0.876920  1
  Zn  Zn12  1  0.630760  0.123080  0.123080  1
  Zn  Zn13  1  0.369240  0.876920  0.876920  1
  Zn  Zn14  1  0.337382  0.337382  0.337382  1
  Zn  Zn15  1  0.662618  0.662618  0.662618  1
  Zn  Zn16  1  0.337382  0.337382  0.987853  1
  Zn  Zn17  1  0.337382  0.987853  0.337382  1
  Zn  Zn18  1  0.662618  0.662618  0.012147  1
  Zn  Zn19  1  0.662618  0.012147  0.662618  1
  Zn  Zn20  1  0.987853  0.337382  0.337382  1
  Zn  Zn21  1  0.012147  0.662618  0.662618  1
  Ga  Ga22  1  0.500000  0.500000  0.500000  1
  Cu  Cu23  1  0.500000  0.000000  0.000000  1
  Cu  Cu24  1  0.000000  0.500000  0.500000  1
  Cu  Cu25  1  0.000000  0.500000  0.000000  1
  Cu  Cu26  1  0.500000  0.000000  0.500000  1
  Cu  Cu27  1  0.000000  0.000000  0.500000  1
  Cu  Cu28  1  0.500000  0.500000  0.000000  1
  Cu  Cu29  1  0.000000  0.000000  0.000000  1
