# generated using pymatgen
data_Tm3Pa3V2(Co4P3)4
_symmetry_space_group_name_H-M   'P 1'
_cell_length_a   3.71856100
_cell_length_b   10.55275550
_cell_length_c   12.19861391
_cell_angle_alpha   89.97846799
_cell_angle_beta   90.00000000
_cell_angle_gamma   90.00000000
_symmetry_Int_Tables_number   1
_chemical_formula_structural   Tm3Pa3V2(Co4P3)4
_chemical_formula_sum   'Tm3 Pa3 V2 Co16 P12'
_cell_volume   478.68656838
_cell_formula_units_Z   1
loop_
 _symmetry_equiv_pos_site_id
 _symmetry_equiv_pos_as_xyz
  1  'x, y, z'
loop_
 _atom_site_type_symbol
 _atom_site_label
 _atom_site_symmetry_multiplicity
 _atom_site_fract_x
 _atom_site_fract_y
 _atom_site_fract_z
 _atom_site_occupancy
  Tm  Tm0  1  0.500000  0.183645  0.203796  1
  Tm  Tm1  1  0.000000  0.682572  0.796647  1
  Tm  Tm2  1  0.000000  0.317775  0.795001  1
  Pa  Pa3  1  0.000000  0.499882  0.530066  1
  Pa  Pa4  1  0.500000  0.000929  0.473086  1
  Pa  Pa5  1  0.500000  0.821266  0.206940  1
  V  V6  1  0.500000  0.499546  0.153289  1
  V  V7  1  0.000000  0.999648  0.847512  1
  Co  Co8  1  0.500000  0.499114  0.695930  1
  Co  Co9  1  0.000000  0.994380  0.300232  1
  Co  Co10  1  0.000000  0.499192  0.984812  1
  Co  Co11  1  0.500000  0.000463  0.012852  1
  Co  Co12  1  0.500000  0.333775  0.990948  1
  Co  Co13  1  0.500000  0.667250  0.991411  1
  Co  Co14  1  0.000000  0.168781  0.007140  1
  Co  Co15  1  0.000000  0.834418  0.009913  1
  Co  Co16  1  0.500000  0.298078  0.432793  1
  Co  Co17  1  0.500000  0.699077  0.432995  1
  Co  Co18  1  0.000000  0.199016  0.565930  1
  Co  Co19  1  0.000000  0.800826  0.570607  1
  Co  Co20  1  0.500000  0.880019  0.710226  1
  Co  Co21  1  0.500000  0.120723  0.708841  1
  Co  Co22  1  0.000000  0.622147  0.288948  1
  Co  Co23  1  0.000000  0.379043  0.290963  1
  P  P24  1  0.500000  0.499889  0.877280  1
  P  P25  1  0.000000  0.004659  0.118175  1
  P  P26  1  0.500000  0.498731  0.345294  1
  P  P27  1  0.000000  0.999765  0.656158  1
  P  P28  1  0.500000  0.307463  0.617944  1
  P  P29  1  0.500000  0.691906  0.619848  1
  P  P30  1  0.000000  0.189882  0.380552  1
  P  P31  1  0.000000  0.806374  0.388495  1
  P  P32  1  0.500000  0.845572  0.892116  1
  P  P33  1  0.500000  0.155816  0.891336  1
  P  P34  1  0.000000  0.652059  0.104651  1
  P  P35  1  0.000000  0.346313  0.107274  1
