# generated using pymatgen
data_La15Nd(CdPt)4
_symmetry_space_group_name_H-M   'P 1'
_cell_length_a   10.21400232
_cell_length_b   10.21400146
_cell_length_c   10.19622500
_cell_angle_alpha   60.05755208
_cell_angle_beta   60.05755487
_cell_angle_gamma   60.14840215
_symmetry_Int_Tables_number   1
_chemical_formula_structural   La15Nd(CdPt)4
_chemical_formula_sum   'La15 Nd1 Cd4 Pt4'
_cell_volume   753.66630480
_cell_formula_units_Z   1
loop_
 _symmetry_equiv_pos_site_id
 _symmetry_equiv_pos_as_xyz
  1  'x, y, z'
loop_
 _atom_site_type_symbol
 _atom_site_label
 _atom_site_symmetry_multiplicity
 _atom_site_fract_x
 _atom_site_fract_y
 _atom_site_fract_z
 _atom_site_occupancy
  La  La0  1  0.349532  0.349532  0.349249  1
  La  La1  1  0.349532  0.349532  0.951687  1
  La  La2  1  0.349476  0.950699  0.349913  1
  La  La3  1  0.950699  0.349476  0.349913  1
  La  La4  1  0.807748  0.192354  0.193243  1
  La  La5  1  0.192354  0.807748  0.806656  1
  La  La6  1  0.192354  0.807748  0.193243  1
  La  La7  1  0.807748  0.192354  0.806656  1
  La  La8  1  0.192242  0.192242  0.807758  1
  La  La9  1  0.806873  0.806873  0.193127  1
  La  La10  1  0.936243  0.564589  0.564423  1
  La  La11  1  0.564589  0.936243  0.934745  1
  La  La12  1  0.564589  0.936243  0.564423  1
  La  La13  1  0.936243  0.564589  0.934745  1
  La  La14  1  0.563401  0.563401  0.936599  1
  Nd  Nd15  1  0.936550  0.936550  0.563450  1
  Cd  Cd16  1  0.580106  0.580106  0.580065  1
  Cd  Cd17  1  0.580106  0.580106  0.259724  1
  Cd  Cd18  1  0.580617  0.259173  0.580105  1
  Cd  Cd19  1  0.259173  0.580617  0.580105  1
  Pt  Pt20  1  0.142395  0.142395  0.143035  1
  Pt  Pt21  1  0.142395  0.142395  0.572175  1
  Pt  Pt22  1  0.142290  0.572747  0.142482  1
  Pt  Pt23  1  0.572747  0.142290  0.142482  1
