# generated using pymatgen
data_Ho3Tm5Re(B8Ru)3
_symmetry_space_group_name_H-M   'P 1'
_cell_length_a   3.63505400
_cell_length_b   9.08453941
_cell_length_c   11.46854100
_cell_angle_alpha   90.12237237
_cell_angle_beta   90.00000000
_cell_angle_gamma   90.00000000
_symmetry_Int_Tables_number   1
_chemical_formula_structural   Ho3Tm5Re(B8Ru)3
_chemical_formula_sum   'Ho3 Tm5 Re1 B24 Ru3'
_cell_volume   378.72237245
_cell_formula_units_Z   1
loop_
 _symmetry_equiv_pos_site_id
 _symmetry_equiv_pos_as_xyz
  1  'x, y, z'
loop_
 _atom_site_type_symbol
 _atom_site_label
 _atom_site_symmetry_multiplicity
 _atom_site_fract_x
 _atom_site_fract_y
 _atom_site_fract_z
 _atom_site_occupancy
  Ho  Ho0  1  0.000000  0.322365  0.415109  1
  Ho  Ho1  1  0.000000  0.680527  0.587993  1
  Ho  Ho2  1  0.000000  0.822281  0.083517  1
  Tm  Tm3  1  0.000000  0.176564  0.913442  1
  Tm  Tm4  1  0.000000  0.943270  0.371261  1
  Tm  Tm5  1  0.000000  0.056335  0.627709  1
  Tm  Tm6  1  0.000000  0.442650  0.128363  1
  Tm  Tm7  1  0.000000  0.555815  0.872531  1
  Re  Re8  1  0.000000  0.862532  0.821022  1
  B  B9  1  0.500000  0.554129  0.433371  1
  B  B10  1  0.500000  0.446144  0.566948  1
  B  B11  1  0.500000  0.053980  0.067132  1
  B  B12  1  0.500000  0.947394  0.933431  1
  B  B13  1  0.500000  0.749099  0.419457  1
  B  B14  1  0.500000  0.251210  0.580324  1
  B  B15  1  0.500000  0.248734  0.080386  1
  B  B16  1  0.500000  0.750555  0.919401  1
  B  B17  1  0.500000  0.790868  0.265575  1
  B  B18  1  0.500000  0.208679  0.733685  1
  B  B19  1  0.500000  0.291277  0.234420  1
  B  B20  1  0.500000  0.707834  0.765679  1
  B  B21  1  0.500000  0.630512  0.184857  1
  B  B22  1  0.500000  0.368511  0.814978  1
  B  B23  1  0.500000  0.131302  0.315258  1
  B  B24  1  0.500000  0.869272  0.685009  1
  B  B25  1  0.500000  0.982971  0.212666  1
  B  B26  1  0.500000  0.018810  0.787287  1
  B  B27  1  0.500000  0.482748  0.287786  1
  B  B28  1  0.500000  0.517091  0.712800  1
  B  B29  1  0.500000  0.603966  0.029544  1
  B  B30  1  0.500000  0.393481  0.971151  1
  B  B31  1  0.500000  0.105901  0.470323  1
  B  B32  1  0.500000  0.894957  0.528318  1
  Ru  Ru33  1  0.000000  0.637973  0.320782  1
  Ru  Ru34  1  0.000000  0.362033  0.678926  1
  Ru  Ru35  1  0.000000  0.138232  0.179557  1
