# generated using pymatgen
data_Sr5Si2BiH
_symmetry_space_group_name_H-M   'P 1'
_cell_length_a   9.78166793
_cell_length_b   9.78166748
_cell_length_c   9.78166754
_cell_angle_alpha   129.57345409
_cell_angle_beta   129.57345212
_cell_angle_gamma   74.08959437
_symmetry_Int_Tables_number   1
_chemical_formula_structural   Sr5Si2BiH
_chemical_formula_sum   'Sr10 Si4 Bi2 H2'
_cell_volume   542.23530788
_cell_formula_units_Z   2
loop_
 _symmetry_equiv_pos_site_id
 _symmetry_equiv_pos_as_xyz
  1  'x, y, z'
loop_
 _atom_site_type_symbol
 _atom_site_label
 _atom_site_symmetry_multiplicity
 _atom_site_fract_x
 _atom_site_fract_y
 _atom_site_fract_z
 _atom_site_occupancy
  Sr  Sr0  1  0.500000  0.500000  0.000000  1
  Sr  Sr1  1  0.000000  0.000000  0.000000  1
  Sr  Sr2  1  0.522207  0.022207  0.826908  1
  Sr  Sr3  1  0.195300  0.695300  0.173092  1
  Sr  Sr4  1  0.022207  0.195300  0.500000  1
  Sr  Sr5  1  0.695300  0.522207  0.500000  1
  Sr  Sr6  1  0.477793  0.977793  0.173092  1
  Sr  Sr7  1  0.804700  0.304700  0.826908  1
  Sr  Sr8  1  0.977793  0.804700  0.500000  1
  Sr  Sr9  1  0.304700  0.477793  0.500000  1
  Si  Si10  1  0.888949  0.388949  0.277898  1
  Si  Si11  1  0.111051  0.611051  0.722102  1
  Si  Si12  1  0.388949  0.111051  0.500000  1
  Si  Si13  1  0.611051  0.888949  0.500000  1
  Bi  Bi14  1  0.250000  0.250000  0.000000  1
  Bi  Bi15  1  0.750000  0.750000  0.000000  1
  H  H16  1  0.250000  0.750000  0.500000  1
  H  H17  1  0.750000  0.250000  0.500000  1
