# generated using pymatgen
data_Ca3Yb9(PrSn2)8
_symmetry_space_group_name_H-M   'P 1'
_cell_length_a   7.97981200
_cell_length_b   8.52409800
_cell_length_c   16.11303000
_cell_angle_alpha   90.00000000
_cell_angle_beta   90.00000000
_cell_angle_gamma   90.00123588
_symmetry_Int_Tables_number   1
_chemical_formula_structural   Ca3Yb9(PrSn2)8
_chemical_formula_sum   'Ca3 Yb9 Pr8 Sn16'
_cell_volume   1096.01957169
_cell_formula_units_Z   1
loop_
 _symmetry_equiv_pos_site_id
 _symmetry_equiv_pos_as_xyz
  1  'x, y, z'
loop_
 _atom_site_type_symbol
 _atom_site_label
 _atom_site_symmetry_multiplicity
 _atom_site_fract_x
 _atom_site_fract_y
 _atom_site_fract_z
 _atom_site_occupancy
  Ca  Ca0  1  0.162137  0.503611  0.750000  1
  Ca  Ca1  1  0.662123  0.996381  0.750000  1
  Ca  Ca2  1  0.837858  0.496365  0.250000  1
  Yb  Yb3  1  0.334089  0.826783  0.876525  1
  Yb  Yb4  1  0.834092  0.673262  0.623477  1
  Yb  Yb5  1  0.665668  0.173176  0.376480  1
  Yb  Yb6  1  0.166037  0.326608  0.123530  1
  Yb  Yb7  1  0.665668  0.173176  0.123520  1
  Yb  Yb8  1  0.166037  0.326608  0.376470  1
  Yb  Yb9  1  0.334089  0.826783  0.623475  1
  Yb  Yb10  1  0.834092  0.673262  0.876523  1
  Yb  Yb11  1  0.337786  0.004019  0.250000  1
  Pr  Pr12  1  0.494005  0.315095  0.904138  1
  Pr  Pr13  1  0.994073  0.184833  0.595883  1
  Pr  Pr14  1  0.505943  0.684926  0.404034  1
  Pr  Pr15  1  0.006107  0.815135  0.095920  1
  Pr  Pr16  1  0.505943  0.684926  0.095966  1
  Pr  Pr17  1  0.006107  0.815135  0.404080  1
  Pr  Pr18  1  0.494005  0.315095  0.595862  1
  Pr  Pr19  1  0.994073  0.184833  0.904117  1
  Sn  Sn20  1  0.330494  0.035196  0.038705  1
  Sn  Sn21  1  0.830433  0.464760  0.461476  1
  Sn  Sn22  1  0.669500  0.964794  0.538527  1
  Sn  Sn23  1  0.169531  0.535195  0.961486  1
  Sn  Sn24  1  0.669500  0.964794  0.961473  1
  Sn  Sn25  1  0.169531  0.535195  0.538514  1
  Sn  Sn26  1  0.330494  0.035196  0.461295  1
  Sn  Sn27  1  0.830433  0.464760  0.038524  1
  Sn  Sn28  1  0.535438  0.602198  0.750000  1
  Sn  Sn29  1  0.035440  0.897862  0.750000  1
  Sn  Sn30  1  0.464418  0.397656  0.250000  1
  Sn  Sn31  1  0.965045  0.101795  0.250000  1
  Sn  Sn32  1  0.289746  0.141186  0.750000  1
  Sn  Sn33  1  0.789714  0.358844  0.750000  1
  Sn  Sn34  1  0.709911  0.859053  0.250000  1
  Sn  Sn35  1  0.210440  0.641506  0.250000  1
