# generated using pymatgen
data_Pr4TmLuGa4
_symmetry_space_group_name_H-M   'P 1'
_cell_length_a   7.69306100
_cell_length_b   7.69306100
_cell_length_c   4.59816500
_cell_angle_alpha   90.00000000
_cell_angle_beta   90.00000000
_cell_angle_gamma   90.00000000
_symmetry_Int_Tables_number   1
_chemical_formula_structural   Pr4TmLuGa4
_chemical_formula_sum   'Pr4 Tm1 Lu1 Ga4'
_cell_volume   272.13406158
_cell_formula_units_Z   1
loop_
 _symmetry_equiv_pos_site_id
 _symmetry_equiv_pos_as_xyz
  1  'x, y, z'
loop_
 _atom_site_type_symbol
 _atom_site_label
 _atom_site_symmetry_multiplicity
 _atom_site_fract_x
 _atom_site_fract_y
 _atom_site_fract_z
 _atom_site_occupancy
  Pr  Pr0  1  0.325203  0.175248  0.500001  1
  Pr  Pr1  1  0.824752  0.325203  0.500001  1
  Pr  Pr2  1  0.175248  0.674797  0.500001  1
  Pr  Pr3  1  0.674797  0.824752  0.500001  1
  Tm  Tm4  1  0.000000  0.000000  0.000000  1
  Lu  Lu5  1  0.499999  0.499999  0.000000  1
  Ga  Ga6  1  0.620258  0.120702  0.000000  1
  Ga  Ga7  1  0.120702  0.379742  0.000000  1
  Ga  Ga8  1  0.879299  0.620258  0.000000  1
  Ga  Ga9  1  0.379742  0.879299  0.000000  1
