# generated using pymatgen
data_CaCeLu2(Ga2Ag)4
_symmetry_space_group_name_H-M   'P 1'
_cell_length_a   4.38486200
_cell_length_b   6.96256770
_cell_length_c   10.31251677
_cell_angle_alpha   89.82994554
_cell_angle_beta   90.00000000
_cell_angle_gamma   90.00000000
_symmetry_Int_Tables_number   1
_chemical_formula_structural   CaCeLu2(Ga2Ag)4
_chemical_formula_sum   'Ca1 Ce1 Lu2 Ga8 Ag4'
_cell_volume   314.83870393
_cell_formula_units_Z   1
loop_
 _symmetry_equiv_pos_site_id
 _symmetry_equiv_pos_as_xyz
  1  'x, y, z'
loop_
 _atom_site_type_symbol
 _atom_site_label
 _atom_site_symmetry_multiplicity
 _atom_site_fract_x
 _atom_site_fract_y
 _atom_site_fract_z
 _atom_site_occupancy
  Ca  Ca0  1  0.250000  0.773885  0.827364  1
  Ce  Ce1  1  0.250000  0.281618  0.675613  1
  Lu  Lu2  1  0.750000  0.221374  0.173712  1
  Lu  Lu3  1  0.750000  0.724525  0.324753  1
  Ga  Ga4  1  0.250000  0.702771  0.532192  1
  Ga  Ga5  1  0.750000  0.296966  0.460094  1
  Ga  Ga6  1  0.750000  0.800740  0.039941  1
  Ga  Ga7  1  0.250000  0.197467  0.967483  1
  Ga  Ga8  1  0.250000  0.930227  0.157667  1
  Ga  Ga9  1  0.750000  0.071218  0.850333  1
  Ga  Ga10  1  0.750000  0.573140  0.647972  1
  Ga  Ga11  1  0.250000  0.428988  0.344414  1
  Ag  Ag12  1  0.250000  0.543426  0.098575  1
  Ag  Ag13  1  0.750000  0.456214  0.906379  1
  Ag  Ag14  1  0.750000  0.953875  0.593545  1
  Ag  Ag15  1  0.250000  0.043564  0.399965  1
