# generated using pymatgen
data_HoLu6Sn23Os6
_symmetry_space_group_name_H-M   'P 1'
_cell_length_a   9.80986200
_cell_length_b   9.80986089
_cell_length_c   10.07654900
_cell_angle_alpha   90.00000000
_cell_angle_beta   90.00000000
_cell_angle_gamma   119.99999698
_symmetry_Int_Tables_number   1
_chemical_formula_structural   HoLu6Sn23Os6
_chemical_formula_sum   'Ho1 Lu6 Sn23 Os6'
_cell_volume   839.78519319
_cell_formula_units_Z   1
loop_
 _symmetry_equiv_pos_site_id
 _symmetry_equiv_pos_as_xyz
  1  'x, y, z'
loop_
 _atom_site_type_symbol
 _atom_site_label
 _atom_site_symmetry_multiplicity
 _atom_site_fract_x
 _atom_site_fract_y
 _atom_site_fract_z
 _atom_site_occupancy
  Ho  Ho0  1  0.000000  0.000000  0.000000  1
  Lu  Lu1  1  0.512107  0.487893  0.699405  1
  Lu  Lu2  1  0.512107  0.024214  0.699405  1
  Lu  Lu3  1  0.975786  0.487893  0.699405  1
  Lu  Lu4  1  0.024214  0.512107  0.300595  1
  Lu  Lu5  1  0.487893  0.975786  0.300595  1
  Lu  Lu6  1  0.487893  0.512107  0.300595  1
  Sn  Sn7  1  0.666667  0.333333  0.172388  1
  Sn  Sn8  1  0.666667  0.333333  0.864161  1
  Sn  Sn9  1  0.333333  0.666667  0.135839  1
  Sn  Sn10  1  0.349815  0.349815  0.000000  1
  Sn  Sn11  1  0.000000  0.650185  0.000000  1
  Sn  Sn12  1  0.650185  0.000000  0.000000  1
  Sn  Sn13  1  0.650185  0.650185  0.000000  1
  Sn  Sn14  1  0.333333  0.666667  0.827612  1
  Sn  Sn15  1  0.442283  0.221142  0.465144  1
  Sn  Sn16  1  0.221142  0.778858  0.534856  1
  Sn  Sn17  1  0.221142  0.442283  0.534856  1
  Sn  Sn18  1  0.557717  0.778858  0.534856  1
  Sn  Sn19  1  0.118559  0.881441  0.277548  1
  Sn  Sn20  1  0.778858  0.557717  0.465144  1
  Sn  Sn21  1  0.778858  0.221142  0.465144  1
  Sn  Sn22  1  0.349815  0.000000  0.000000  1
  Sn  Sn23  1  0.118559  0.237119  0.277548  1
  Sn  Sn24  1  0.762881  0.881441  0.277548  1
  Sn  Sn25  1  0.237119  0.118559  0.722452  1
  Sn  Sn26  1  0.881441  0.762881  0.722452  1
  Sn  Sn27  1  0.881441  0.118559  0.722452  1
  Sn  Sn28  1  0.000000  0.000000  0.500000  1
  Sn  Sn29  1  0.000000  0.349815  0.000000  1
  Os  Os30  1  0.171326  0.828674  0.796478  1
  Os  Os31  1  0.171326  0.342652  0.796478  1
  Os  Os32  1  0.657348  0.828674  0.796478  1
  Os  Os33  1  0.342652  0.171326  0.203522  1
  Os  Os34  1  0.828674  0.657348  0.203522  1
  Os  Os35  1  0.828674  0.171326  0.203522  1
