# generated using pymatgen
data_Pr5Th3Cu3Si12Pd
_symmetry_space_group_name_H-M   'P 1'
_cell_length_a   8.15730095
_cell_length_b   8.15922918
_cell_length_c   8.59790920
_cell_angle_alpha   90.00429136
_cell_angle_beta   90.01902810
_cell_angle_gamma   119.98643336
_symmetry_Int_Tables_number   1
_chemical_formula_structural   Pr5Th3Cu3Si12Pd
_chemical_formula_sum   'Pr5 Th3 Cu3 Si12 Pd1'
_cell_volume   495.65377360
_cell_formula_units_Z   1
loop_
 _symmetry_equiv_pos_site_id
 _symmetry_equiv_pos_as_xyz
  1  'x, y, z'
loop_
 _atom_site_type_symbol
 _atom_site_label
 _atom_site_symmetry_multiplicity
 _atom_site_fract_x
 _atom_site_fract_y
 _atom_site_fract_z
 _atom_site_occupancy
  Pr  Pr0  1  0.001369  0.500897  0.248697  1
  Pr  Pr1  1  0.499008  0.998164  0.751199  1
  Pr  Pr2  1  0.499345  0.998984  0.249131  1
  Pr  Pr3  1  0.999940  0.000005  0.750479  1
  Pr  Pr4  1  0.000012  0.000071  0.249686  1
  Th  Th5  1  0.499677  0.500342  0.751127  1
  Th  Th6  1  0.500110  0.500057  0.249157  1
  Th  Th7  1  0.000478  0.500368  0.750622  1
  Cu  Cu8  1  0.666791  0.334329  0.997611  1
  Cu  Cu9  1  0.333280  0.665297  0.999361  1
  Cu  Cu10  1  0.333566  0.665058  0.500877  1
  Si  Si11  1  0.830989  0.169987  0.999160  1
  Si  Si12  1  0.168697  0.830142  0.998971  1
  Si  Si13  1  0.338710  0.170211  0.999809  1
  Si  Si14  1  0.168866  0.830651  0.500815  1
  Si  Si15  1  0.661657  0.829762  0.999997  1
  Si  Si16  1  0.833242  0.166974  0.500801  1
  Si  Si17  1  0.830327  0.661452  0.999192  1
  Si  Si18  1  0.662780  0.830959  0.500035  1
  Si  Si19  1  0.169627  0.338300  0.999048  1
  Si  Si20  1  0.331908  0.166187  0.500329  1
  Si  Si21  1  0.168369  0.336458  0.500985  1
  Si  Si22  1  0.834732  0.669610  0.500774  1
  Pd  Pd23  1  0.666523  0.335733  0.502136  1
