# generated using pymatgen
data_TbNd2U(Al3Ir)6
_symmetry_space_group_name_H-M   'P 1'
_cell_length_a   7.59485678
_cell_length_b   7.61566643
_cell_length_c   9.48375900
_cell_angle_alpha   90.00000000
_cell_angle_beta   90.00000000
_cell_angle_gamma   119.54228883
_symmetry_Int_Tables_number   1
_chemical_formula_structural   TbNd2U(Al3Ir)6
_chemical_formula_sum   'Tb1 Nd2 U1 Al18 Ir6'
_cell_volume   477.22509844
_cell_formula_units_Z   1
loop_
 _symmetry_equiv_pos_site_id
 _symmetry_equiv_pos_as_xyz
  1  'x, y, z'
loop_
 _atom_site_type_symbol
 _atom_site_label
 _atom_site_symmetry_multiplicity
 _atom_site_fract_x
 _atom_site_fract_y
 _atom_site_fract_z
 _atom_site_occupancy
  Tb  Tb0  1  0.670442  0.994331  0.750000  1
  Nd  Nd1  1  0.995859  0.670714  0.750000  1
  Nd  Nd2  1  0.004911  0.329146  0.250000  1
  U  U3  1  0.326927  0.001307  0.250000  1
  Al  Al4  1  0.127259  0.128831  0.750000  1
  Al  Al5  1  0.870194  0.868100  0.250000  1
  Al  Al6  1  0.000826  0.333626  0.575528  1
  Al  Al7  1  0.997037  0.664159  0.423780  1
  Al  Al8  1  0.997037  0.664159  0.076220  1
  Al  Al9  1  0.336876  0.002900  0.926393  1
  Al  Al10  1  0.000826  0.333626  0.924472  1
  Al  Al11  1  0.665016  0.998232  0.074000  1
  Al  Al12  1  0.665016  0.998232  0.426000  1
  Al  Al13  1  0.336876  0.002900  0.573607  1
  Al  Al14  1  0.334980  0.335406  0.051042  1
  Al  Al15  1  0.665888  0.666911  0.947670  1
  Al  Al16  1  0.665888  0.666911  0.552330  1
  Al  Al17  1  0.334980  0.335406  0.448958  1
  Al  Al18  1  0.342353  0.549360  0.750000  1
  Al  Al19  1  0.654439  0.450455  0.250000  1
  Al  Al20  1  0.548223  0.337806  0.750000  1
  Al  Al21  1  0.455022  0.664456  0.250000  1
  Ir  Ir22  1  0.669651  0.326729  0.497592  1
  Ir  Ir23  1  0.329011  0.673928  0.497468  1
  Ir  Ir24  1  0.329011  0.673928  0.002532  1
  Ir  Ir25  1  0.669651  0.326729  0.002408  1
  Ir  Ir26  1  0.002900  0.000857  0.496703  1
  Ir  Ir27  1  0.002900  0.000857  0.003297  1
