# generated using pymatgen
data_Y8Tm8In5GaCo2
_symmetry_space_group_name_H-M   'P 1'
_cell_length_a   10.20177000
_cell_length_b   10.20269322
_cell_length_c   7.07130233
_cell_angle_alpha   90.03225752
_cell_angle_beta   90.00000000
_cell_angle_gamma   119.99700674
_symmetry_Int_Tables_number   1
_chemical_formula_structural   Y8Tm8In5GaCo2
_chemical_formula_sum   'Y8 Tm8 In5 Ga1 Co2'
_cell_volume   637.43132255
_cell_formula_units_Z   1
loop_
 _symmetry_equiv_pos_site_id
 _symmetry_equiv_pos_as_xyz
  1  'x, y, z'
loop_
 _atom_site_type_symbol
 _atom_site_label
 _atom_site_symmetry_multiplicity
 _atom_site_fract_x
 _atom_site_fract_y
 _atom_site_fract_z
 _atom_site_occupancy
  Y  Y0  1  0.462854  0.533587  0.211435  1
  Y  Y1  1  0.070732  0.533587  0.211435  1
  Y  Y2  1  0.465125  0.930252  0.216207  1
  Y  Y3  1  0.542563  0.469464  0.711220  1
  Y  Y4  1  0.926901  0.469464  0.711220  1
  Y  Y5  1  0.534165  0.068329  0.711774  1
  Y  Y6  1  0.999031  0.998061  0.227292  1
  Y  Y7  1  0.997237  0.994474  0.725269  1
  Tm  Tm8  1  0.170170  0.817184  0.504556  1
  Tm  Tm9  1  0.647011  0.817184  0.504556  1
  Tm  Tm10  1  0.178748  0.357499  0.511318  1
  Tm  Tm11  1  0.820607  0.179804  0.008381  1
  Tm  Tm12  1  0.359199  0.179804  0.008381  1
  Tm  Tm13  1  0.821855  0.643708  0.022409  1
  Tm  Tm14  1  0.333534  0.667069  0.817264  1
  Tm  Tm15  1  0.669593  0.339185  0.323482  1
  In  In16  1  0.163857  0.836423  0.959783  1
  In  In17  1  0.672567  0.836423  0.959783  1
  In  In18  1  0.162747  0.325496  0.959189  1
  In  In19  1  0.835473  0.162809  0.461317  1
  In  In20  1  0.327335  0.162809  0.461317  1
  Ga  Ga21  1  0.837196  0.674392  0.458341  1
  Co  Co22  1  0.333603  0.667207  0.442930  1
  Co  Co23  1  0.667894  0.335787  0.945185  1
