# generated using pymatgen
data_Tm4ZnIn2AgAu2
_symmetry_space_group_name_H-M   'P 1'
_cell_length_a   7.88816906
_cell_length_b   7.87969018
_cell_length_c   3.68240300
_cell_angle_alpha   90.00000000
_cell_angle_beta   90.00000000
_cell_angle_gamma   89.42008062
_symmetry_Int_Tables_number   1
_chemical_formula_structural   Tm4ZnIn2AgAu2
_chemical_formula_sum   'Tm4 Zn1 In2 Ag1 Au2'
_cell_volume   228.87292555
_cell_formula_units_Z   1
loop_
 _symmetry_equiv_pos_site_id
 _symmetry_equiv_pos_as_xyz
  1  'x, y, z'
loop_
 _atom_site_type_symbol
 _atom_site_label
 _atom_site_symmetry_multiplicity
 _atom_site_fract_x
 _atom_site_fract_y
 _atom_site_fract_z
 _atom_site_occupancy
  Tm  Tm0  1  0.172404  0.334188  0.000000  1
  Tm  Tm1  1  0.830534  0.677009  0.000000  1
  Tm  Tm2  1  0.669451  0.163938  0.000000  1
  Tm  Tm3  1  0.330593  0.825300  0.000000  1
  Zn  Zn4  1  0.373792  0.125002  0.500000  1
  In  In5  1  0.004087  0.004242  0.500000  1
  In  In6  1  0.501805  0.495302  0.500000  1
  Ag  Ag7  1  0.869864  0.370523  0.500000  1
  Au  Au8  1  0.620489  0.877531  0.500000  1
  Au  Au9  1  0.126981  0.626965  0.500000  1
