# generated using pymatgen
data_Dy12InCo3NiRu
_symmetry_space_group_name_H-M   'P 1'
_cell_length_a   8.29726955
_cell_length_b   8.29727038
_cell_length_c   8.29727051
_cell_angle_alpha   110.98940082
_cell_angle_beta   110.38107956
_cell_angle_gamma   107.07014576
_symmetry_Int_Tables_number   1
_chemical_formula_structural   Dy12InCo3NiRu
_chemical_formula_sum   'Dy12 In1 Co3 Ni1 Ru1'
_cell_volume   439.13858448
_cell_formula_units_Z   1
loop_
 _symmetry_equiv_pos_site_id
 _symmetry_equiv_pos_as_xyz
  1  'x, y, z'
loop_
 _atom_site_type_symbol
 _atom_site_label
 _atom_site_symmetry_multiplicity
 _atom_site_fract_x
 _atom_site_fract_y
 _atom_site_fract_z
 _atom_site_occupancy
  Dy  Dy0  1  0.409316  0.217961  0.191356  1
  Dy  Dy1  1  0.591477  0.783561  0.807915  1
  Dy  Dy2  1  0.024355  0.216439  0.807915  1
  Dy  Dy3  1  0.973395  0.782039  0.191356  1
  Dy  Dy4  1  0.181919  0.287650  0.469569  1
  Dy  Dy5  1  0.816855  0.714088  0.530943  1
  Dy  Dy6  1  0.181919  0.712350  0.894270  1
  Dy  Dy7  1  0.816855  0.285912  0.102767  1
  Dy  Dy8  1  0.317122  0.621063  0.307913  1
  Dy  Dy9  1  0.686850  0.378937  0.696059  1
  Dy  Dy10  1  0.317122  0.009209  0.696059  1
  Dy  Dy11  1  0.686850  0.990791  0.307913  1
  In  In12  1  0.499871  0.500000  0.999871  1
  Co  Co13  1  0.626781  0.000000  0.626781  1
  Co  Co14  1  0.112260  0.612312  0.499948  1
  Co  Co15  1  0.887636  0.387688  0.499948  1
  Ni  Ni16  1  0.369105  0.000000  0.369105  1
  Ru  Ru17  1  0.000312  0.000000  0.000312  1
