# generated using pymatgen
data_Er3P2Se
_symmetry_space_group_name_H-M   'P 1'
_cell_length_a   6.92592100
_cell_length_b   6.92592085
_cell_length_c   6.92592101
_cell_angle_alpha   146.54196856
_cell_angle_beta   131.91129891
_cell_angle_gamma   59.84975738
_symmetry_Int_Tables_number   1
_chemical_formula_structural   Er3P2Se
_chemical_formula_sum   'Er3 P2 Se1'
_cell_volume   135.07610923
_cell_formula_units_Z   1
loop_
 _symmetry_equiv_pos_site_id
 _symmetry_equiv_pos_as_xyz
  1  'x, y, z'
loop_
 _atom_site_type_symbol
 _atom_site_label
 _atom_site_symmetry_multiplicity
 _atom_site_fract_x
 _atom_site_fract_y
 _atom_site_fract_z
 _atom_site_occupancy
  Er  Er0  1  0.500000  0.000000  0.500000  1
  Er  Er1  1  0.177908  0.677908  0.500000  1
  Er  Er2  1  0.822092  0.322092  0.500000  1
  P  P3  1  0.664509  0.664509  0.000000  1
  P  P4  1  0.335491  0.335491  0.000000  1
  Se  Se5  1  0.000000  0.000000  0.000000  1
