# generated using pymatgen
data_Ca7Yb3(CeRu2)2
_symmetry_space_group_name_H-M   'P 1'
_cell_length_a   6.51619339
_cell_length_b   7.60340892
_cell_length_c   9.85415347
_cell_angle_alpha   89.88421646
_cell_angle_beta   89.96213379
_cell_angle_gamma   86.90554822
_symmetry_Int_Tables_number   1
_chemical_formula_structural   Ca7Yb3(CeRu2)2
_chemical_formula_sum   'Ca7 Yb3 Ce2 Ru4'
_cell_volume   487.51386984
_cell_formula_units_Z   1
loop_
 _symmetry_equiv_pos_site_id
 _symmetry_equiv_pos_as_xyz
  1  'x, y, z'
loop_
 _atom_site_type_symbol
 _atom_site_label
 _atom_site_symmetry_multiplicity
 _atom_site_fract_x
 _atom_site_fract_y
 _atom_site_fract_z
 _atom_site_occupancy
  Ca  Ca0  1  0.676326  0.167768  0.068745  1
  Ca  Ca1  1  0.833097  0.668714  0.070891  1
  Ca  Ca2  1  0.167551  0.331039  0.929653  1
  Ca  Ca3  1  0.325517  0.833960  0.930542  1
  Ca  Ca4  1  0.324965  0.830910  0.569179  1
  Ca  Ca5  1  0.165026  0.330292  0.571047  1
  Ca  Ca6  1  0.832488  0.668400  0.428870  1
  Yb  Yb7  1  0.351987  0.546757  0.250132  1
  Yb  Yb8  1  0.647317  0.454242  0.749308  1
  Yb  Yb9  1  0.673215  0.166529  0.429092  1
  Ce  Ce10  1  0.831436  0.935717  0.748130  1
  Ce  Ce11  1  0.169144  0.063874  0.251872  1
  Ru  Ru12  1  0.001588  0.338821  0.253412  1
  Ru  Ru13  1  0.530381  0.105573  0.745201  1
  Ru  Ru14  1  0.475453  0.898603  0.253190  1
  Ru  Ru15  1  0.994510  0.658800  0.750736  1
