# generated using pymatgen
data_Hf5(ZrH10)3
_symmetry_space_group_name_H-M   'P 1'
_cell_length_a   6.96501110
_cell_length_b   6.92845115
_cell_length_c   6.96554188
_cell_angle_alpha   109.40670363
_cell_angle_beta   109.57751364
_cell_angle_gamma   109.32686137
_symmetry_Int_Tables_number   1
_chemical_formula_structural   Hf5(ZrH10)3
_chemical_formula_sum   'Hf5 Zr3 H30'
_cell_volume   259.08243461
_cell_formula_units_Z   1
loop_
 _symmetry_equiv_pos_site_id
 _symmetry_equiv_pos_as_xyz
  1  'x, y, z'
loop_
 _atom_site_type_symbol
 _atom_site_label
 _atom_site_symmetry_multiplicity
 _atom_site_fract_x
 _atom_site_fract_y
 _atom_site_fract_z
 _atom_site_occupancy
  Hf  Hf0  1  0.906095  0.905284  0.905344  1
  Hf  Hf1  1  0.499714  0.998709  0.094106  1
  Hf  Hf2  1  0.998769  0.096818  0.499915  1
  Hf  Hf3  1  0.093895  0.500386  0.999086  1
  Hf  Hf4  1  0.000022  0.597766  0.501114  1
  Zr  Zr5  1  0.594109  0.501156  0.001080  1
  Zr  Zr6  1  0.500393  0.999318  0.593865  1
  Zr  Zr7  1  0.406449  0.406639  0.406304  1
  H  H8  1  0.655266  0.963439  0.382283  1
  H  H9  1  0.227080  0.311902  0.843091  1
  H  H10  1  0.181972  0.415762  0.529678  1
  H  H11  1  0.078669  0.266855  0.107945  1
  H  H12  1  0.269452  0.111637  0.080847  1
  H  H13  1  0.109730  0.080651  0.267771  1
  H  H14  1  0.470193  0.153928  0.890385  1
  H  H15  1  0.733333  0.347123  0.816060  1
  H  H16  1  0.627575  0.377094  0.253051  1
  H  H17  1  0.247364  0.624523  0.373586  1
  H  H18  1  0.751839  0.875852  0.125886  1
  H  H19  1  0.126123  0.749397  0.873737  1
  H  H20  1  0.372610  0.250236  0.625831  1
  H  H21  1  0.873703  0.123428  0.747541  1
  H  H22  1  0.773004  0.582004  0.617102  1
  H  H23  1  0.311689  0.843351  0.226915  1
  H  H24  1  0.383835  0.655263  0.962432  1
  H  H25  1  0.964488  0.385054  0.655257  1
  H  H26  1  0.532760  0.184822  0.416265  1
  H  H27  1  0.413836  0.533267  0.184682  1
  H  H28  1  0.842436  0.229639  0.312937  1
  H  H29  1  0.924434  0.691900  0.034730  1
  H  H30  1  0.814760  0.733235  0.349101  1
  H  H31  1  0.153248  0.886692  0.471554  1
  H  H32  1  0.687829  0.029469  0.919285  1
  H  H33  1  0.343267  0.809545  0.731393  1
  H  H34  1  0.890917  0.471600  0.158530  1
  H  H35  1  0.617865  0.768619  0.580688  1
  H  H36  1  0.587018  0.617689  0.770164  1
  H  H37  1  0.034256  0.919946  0.690462  1
