# generated using pymatgen
data_Ba2Mn2CuF12
_symmetry_space_group_name_H-M   'P 1'
_cell_length_a   5.42229719
_cell_length_b   7.07307086
_cell_length_c   7.51858153
_cell_angle_alpha   66.59021796
_cell_angle_beta   70.25289725
_cell_angle_gamma   72.42736964
_symmetry_Int_Tables_number   1
_chemical_formula_structural   Ba2Mn2CuF12
_chemical_formula_sum   'Ba2 Mn2 Cu1 F12'
_cell_volume   244.31965422
_cell_formula_units_Z   1
loop_
 _symmetry_equiv_pos_site_id
 _symmetry_equiv_pos_as_xyz
  1  'x, y, z'
loop_
 _atom_site_type_symbol
 _atom_site_label
 _atom_site_symmetry_multiplicity
 _atom_site_fract_x
 _atom_site_fract_y
 _atom_site_fract_z
 _atom_site_occupancy
  Ba  Ba0  1  0.289605  0.206229  0.230539  1
  Ba  Ba1  1  0.719681  0.795970  0.763354  1
  Mn  Mn2  1  0.504069  0.501048  0.504128  1
  Mn  Mn3  1  0.046785  0.780192  0.160943  1
  Cu  Cu4  1  0.953350  0.224341  0.831861  1
  F  F5  1  0.532601  0.232755  0.496442  1
  F  F6  1  0.474011  0.774978  0.500807  1
  F  F7  1  0.378345  0.617576  0.222487  1
  F  F8  1  0.608561  0.391265  0.779850  1
  F  F9  1  0.869181  0.508732  0.351684  1
  F  F10  1  0.139906  0.509614  0.637755  1
  F  F11  1  0.855153  0.337824  0.042392  1
  F  F12  1  0.147652  0.658944  0.960904  1
  F  F13  1  0.728209  0.932319  0.077414  1
  F  F14  1  0.255969  0.029024  0.947257  1
  F  F15  1  0.975452  0.909682  0.351603  1
  F  F16  1  0.021470  0.089512  0.640580  1
