# generated using pymatgen
data_Pr5ZnIrO12
_symmetry_space_group_name_H-M   'P 1'
_cell_length_a   7.11901823
_cell_length_b   7.11901905
_cell_length_c   7.62625852
_cell_angle_alpha   74.50484534
_cell_angle_beta   74.50484600
_cell_angle_gamma   51.63967179
_symmetry_Int_Tables_number   1
_chemical_formula_structural   Pr5ZnIrO12
_chemical_formula_sum   'Pr5 Zn1 Ir1 O12'
_cell_volume   289.41040792
_cell_formula_units_Z   1
loop_
 _symmetry_equiv_pos_site_id
 _symmetry_equiv_pos_as_xyz
  1  'x, y, z'
loop_
 _atom_site_type_symbol
 _atom_site_label
 _atom_site_symmetry_multiplicity
 _atom_site_fract_x
 _atom_site_fract_y
 _atom_site_fract_z
 _atom_site_occupancy
  Pr  Pr0  1  0.312219  0.298248  0.356969  1
  Pr  Pr1  1  0.701752  0.687781  0.643031  1
  Pr  Pr2  1  0.693139  0.695642  0.164284  1
  Pr  Pr3  1  0.304358  0.306861  0.835716  1
  Pr  Pr4  1  0.006431  0.993569  0.500000  1
  Zn  Zn5  1  0.754629  0.245371  0.000000  1
  Ir  Ir6  1  0.240643  0.759357  0.000000  1
  O  O7  1  0.098715  0.594068  0.576222  1
  O  O8  1  0.023320  0.975078  0.177089  1
  O  O9  1  0.405932  0.901285  0.423778  1
  O  O10  1  0.468785  0.532505  0.176972  1
  O  O11  1  0.098762  0.581390  0.079761  1
  O  O12  1  0.907652  0.399805  0.421790  1
  O  O13  1  0.024922  0.976680  0.822911  1
  O  O14  1  0.600195  0.092347  0.578210  1
  O  O15  1  0.467495  0.531215  0.823028  1
  O  O16  1  0.577147  0.104705  0.077998  1
  O  O17  1  0.418610  0.901238  0.920239  1
  O  O18  1  0.895295  0.422853  0.922002  1
