# generated using pymatgen
data_Cs12K6AlGaAs8
_symmetry_space_group_name_H-M   'P 1'
_cell_length_a   10.63477200
_cell_length_b   10.63477138
_cell_length_c   11.24666400
_cell_angle_alpha   90.00000000
_cell_angle_beta   90.00000000
_cell_angle_gamma   120.00000193
_symmetry_Int_Tables_number   1
_chemical_formula_structural   Cs12K6AlGaAs8
_chemical_formula_sum   'Cs12 K6 Al1 Ga1 As8'
_cell_volume   1101.56641226
_cell_formula_units_Z   1
loop_
 _symmetry_equiv_pos_site_id
 _symmetry_equiv_pos_as_xyz
  1  'x, y, z'
loop_
 _atom_site_type_symbol
 _atom_site_label
 _atom_site_symmetry_multiplicity
 _atom_site_fract_x
 _atom_site_fract_y
 _atom_site_fract_z
 _atom_site_occupancy
  Cs  Cs0  1  0.208442  0.791558  0.953211  1
  Cs  Cs1  1  0.208442  0.416885  0.953211  1
  Cs  Cs2  1  0.583115  0.791558  0.953211  1
  Cs  Cs3  1  0.416508  0.208254  0.453021  1
  Cs  Cs4  1  0.791746  0.583492  0.046979  1
  Cs  Cs5  1  0.791746  0.208254  0.453021  1
  Cs  Cs6  1  0.791746  0.583492  0.453021  1
  Cs  Cs7  1  0.208442  0.791558  0.546789  1
  Cs  Cs8  1  0.583115  0.791558  0.546789  1
  Cs  Cs9  1  0.416508  0.208254  0.046979  1
  Cs  Cs10  1  0.791746  0.208254  0.046979  1
  Cs  Cs11  1  0.208442  0.416885  0.546789  1
  K  K12  1  0.241864  0.120933  0.750000  1
  K  K13  1  0.879067  0.120933  0.750000  1
  K  K14  1  0.757924  0.878962  0.250000  1
  K  K15  1  0.121038  0.242076  0.250000  1
  K  K16  1  0.121038  0.878962  0.250000  1
  K  K17  1  0.879067  0.758136  0.750000  1
  Al  Al18  1  0.666667  0.333333  0.750000  1
  Ga  Ga19  1  0.333333  0.666667  0.250000  1
  As  As20  1  0.000000  0.000000  0.999976  1
  As  As21  1  0.061536  0.530768  0.250000  1
  As  As22  1  0.469232  0.938464  0.250000  1
  As  As23  1  0.531657  0.063314  0.750000  1
  As  As24  1  0.531657  0.468343  0.750000  1
  As  As25  1  0.000000  0.000000  0.500024  1
  As  As26  1  0.469232  0.530768  0.250000  1
  As  As27  1  0.936686  0.468343  0.750000  1
