# generated using pymatgen
data_Y2Co2Te
_symmetry_space_group_name_H-M   'P 1'
_cell_length_a   4.00291000
_cell_length_b   4.00290985
_cell_length_c   15.85347600
_cell_angle_alpha   90.00000000
_cell_angle_beta   90.00000000
_cell_angle_gamma   120.00001776
_symmetry_Int_Tables_number   1
_chemical_formula_structural   Y2Co2Te
_chemical_formula_sum   'Y4 Co4 Te2'
_cell_volume   219.99189906
_cell_formula_units_Z   2
loop_
 _symmetry_equiv_pos_site_id
 _symmetry_equiv_pos_as_xyz
  1  'x, y, z'
loop_
 _atom_site_type_symbol
 _atom_site_label
 _atom_site_symmetry_multiplicity
 _atom_site_fract_x
 _atom_site_fract_y
 _atom_site_fract_z
 _atom_site_occupancy
  Y  Y0  1  0.000000  0.000000  0.114072  1
  Y  Y1  1  0.000000  0.000000  0.885928  1
  Y  Y2  1  0.000000  0.000000  0.614072  1
  Y  Y3  1  0.000000  0.000000  0.385928  1
  Co  Co4  1  0.333333  0.666667  0.501606  1
  Co  Co5  1  0.666667  0.333333  0.498394  1
  Co  Co6  1  0.666667  0.333333  0.001606  1
  Co  Co7  1  0.333333  0.666667  0.998394  1
  Te  Te8  1  0.333333  0.666667  0.250000  1
  Te  Te9  1  0.666667  0.333333  0.750000  1
