# generated using pymatgen
data_Tm2ReMoN4
_symmetry_space_group_name_H-M   'P 1'
_cell_length_a   3.12640700
_cell_length_b   5.63061600
_cell_length_c   10.61136200
_cell_angle_alpha   90.00000000
_cell_angle_beta   90.00000000
_cell_angle_gamma   90.00000000
_symmetry_Int_Tables_number   1
_chemical_formula_structural   Tm2ReMoN4
_chemical_formula_sum   'Tm4 Re2 Mo2 N8'
_cell_volume   186.79814321
_cell_formula_units_Z   2
loop_
 _symmetry_equiv_pos_site_id
 _symmetry_equiv_pos_as_xyz
  1  'x, y, z'
loop_
 _atom_site_type_symbol
 _atom_site_label
 _atom_site_symmetry_multiplicity
 _atom_site_fract_x
 _atom_site_fract_y
 _atom_site_fract_z
 _atom_site_occupancy
  Tm  Tm0  1  0.250000  0.077039  0.853393  1
  Tm  Tm1  1  0.250000  0.577039  0.646607  1
  Tm  Tm2  1  0.750000  0.920024  0.146652  1
  Tm  Tm3  1  0.750000  0.420024  0.353348  1
  Re  Re4  1  0.250000  0.437310  0.098661  1
  Re  Re5  1  0.250000  0.937310  0.401339  1
  Mo  Mo6  1  0.750000  0.565645  0.904345  1
  Mo  Mo7  1  0.750000  0.065645  0.595655  1
  N  N8  1  0.250000  0.165244  0.246812  1
  N  N9  1  0.250000  0.665244  0.253188  1
  N  N10  1  0.750000  0.833238  0.754005  1
  N  N11  1  0.750000  0.333238  0.745995  1
  N  N12  1  0.250000  0.761898  0.998008  1
  N  N13  1  0.250000  0.261898  0.501992  1
  N  N14  1  0.750000  0.239603  0.005168  1
  N  N15  1  0.750000  0.739603  0.494832  1
