# generated using pymatgen
data_LiTb6IrBr12
_symmetry_space_group_name_H-M   'P 1'
_cell_length_a   9.27378861
_cell_length_b   9.27378987
_cell_length_c   9.27379008
_cell_angle_alpha   107.72122610
_cell_angle_beta   107.72122033
_cell_angle_gamma   107.72121971
_symmetry_Int_Tables_number   1
_chemical_formula_structural   LiTb6IrBr12
_chemical_formula_sum   'Li1 Tb6 Ir1 Br12'
_cell_volume   650.71808259
_cell_formula_units_Z   1
loop_
 _symmetry_equiv_pos_site_id
 _symmetry_equiv_pos_as_xyz
  1  'x, y, z'
loop_
 _atom_site_type_symbol
 _atom_site_label
 _atom_site_symmetry_multiplicity
 _atom_site_fract_x
 _atom_site_fract_y
 _atom_site_fract_z
 _atom_site_occupancy
  Li  Li0  1  0.500000  0.500000  0.500000  1
  Tb  Tb1  1  0.322836  0.113194  0.035339  1
  Tb  Tb2  1  0.035339  0.322836  0.113194  1
  Tb  Tb3  1  0.113194  0.035339  0.322836  1
  Tb  Tb4  1  0.677164  0.886806  0.964661  1
  Tb  Tb5  1  0.964661  0.677164  0.886806  1
  Tb  Tb6  1  0.886806  0.964661  0.677164  1
  Ir  Ir7  1  0.000000  0.000000  0.000000  1
  Br  Br8  1  0.682832  0.219383  0.072101  1
  Br  Br9  1  0.072101  0.682832  0.219383  1
  Br  Br10  1  0.219383  0.072101  0.682832  1
  Br  Br11  1  0.317168  0.780617  0.927899  1
  Br  Br12  1  0.927899  0.317168  0.780617  1
  Br  Br13  1  0.780617  0.927899  0.317168  1
  Br  Br14  1  0.461293  0.167639  0.382965  1
  Br  Br15  1  0.382965  0.461293  0.167639  1
  Br  Br16  1  0.167639  0.382965  0.461293  1
  Br  Br17  1  0.538707  0.832361  0.617035  1
  Br  Br18  1  0.617035  0.538707  0.832361  1
  Br  Br19  1  0.832361  0.617035  0.538707  1
