# generated using pymatgen
data_Er4Mg2CoCu3
_symmetry_space_group_name_H-M   'P 1'
_cell_length_a   7.49341396
_cell_length_b   7.49341400
_cell_length_c   3.66249600
_cell_angle_alpha   90.00000000
_cell_angle_beta   90.00000000
_cell_angle_gamma   90.48166331
_symmetry_Int_Tables_number   1
_chemical_formula_structural   Er4Mg2CoCu3
_chemical_formula_sum   'Er4 Mg2 Co1 Cu3'
_cell_volume   205.64647281
_cell_formula_units_Z   1
loop_
 _symmetry_equiv_pos_site_id
 _symmetry_equiv_pos_as_xyz
  1  'x, y, z'
loop_
 _atom_site_type_symbol
 _atom_site_label
 _atom_site_symmetry_multiplicity
 _atom_site_fract_x
 _atom_site_fract_y
 _atom_site_fract_z
 _atom_site_occupancy
  Er  Er0  1  0.665638  0.165638  0.500000  1
  Er  Er1  1  0.312540  0.812540  0.500000  1
  Er  Er2  1  0.178349  0.348805  0.500000  1
  Er  Er3  1  0.848805  0.678349  0.500000  1
  Mg  Mg4  1  0.003019  0.007897  0.000000  1
  Mg  Mg5  1  0.507897  0.503019  0.000000  1
  Co  Co6  1  0.117128  0.617128  0.000000  1
  Cu  Cu7  1  0.876234  0.376234  0.000000  1
  Cu  Cu8  1  0.617697  0.872691  0.000000  1
  Cu  Cu9  1  0.372691  0.117697  0.000000  1
