# generated using pymatgen
data_Dy2NpFe2Si7
_symmetry_space_group_name_H-M   'P 1'
_cell_length_a   12.27404416
_cell_length_b   12.27404444
_cell_length_c   4.03371400
_cell_angle_alpha   90.00000000
_cell_angle_beta   90.00000000
_cell_angle_gamma   160.92119890
_symmetry_Int_Tables_number   1
_chemical_formula_structural   Dy2NpFe2Si7
_chemical_formula_sum   'Dy2 Np1 Fe2 Si7'
_cell_volume   198.63383097
_cell_formula_units_Z   1
loop_
 _symmetry_equiv_pos_site_id
 _symmetry_equiv_pos_as_xyz
  1  'x, y, z'
loop_
 _atom_site_type_symbol
 _atom_site_label
 _atom_site_symmetry_multiplicity
 _atom_site_fract_x
 _atom_site_fract_y
 _atom_site_fract_z
 _atom_site_occupancy
  Dy  Dy0  1  0.099008  0.900992  0.500000  1
  Dy  Dy1  1  0.467200  0.532800  0.500000  1
  Np  Np2  1  0.783039  0.216961  0.000000  1
  Fe  Fe3  1  0.657866  0.342134  0.000000  1
  Fe  Fe4  1  0.908359  0.091641  0.000000  1
  Si  Si5  1  0.368469  0.631531  0.000000  1
  Si  Si6  1  0.561906  0.438094  0.000000  1
  Si  Si7  1  0.868099  0.131901  0.500000  1
  Si  Si8  1  0.004312  0.995688  0.000000  1
  Si  Si9  1  0.197636  0.802364  0.000000  1
  Si  Si10  1  0.282811  0.717189  0.500000  1
  Si  Si11  1  0.697996  0.302004  0.500000  1
