# generated using pymatgen
data_K4PrPaSe6
_symmetry_space_group_name_H-M   'P 1'
_cell_length_a   7.66565033
_cell_length_b   7.66564903
_cell_length_c   8.06491200
_cell_angle_alpha   80.72663774
_cell_angle_beta   80.72663933
_cell_angle_gamma   119.96173386
_symmetry_Int_Tables_number   1
_chemical_formula_structural   K4PrPaSe6
_chemical_formula_sum   'K4 Pr1 Pa1 Se6'
_cell_volume   388.69587131
_cell_formula_units_Z   1
loop_
 _symmetry_equiv_pos_site_id
 _symmetry_equiv_pos_as_xyz
  1  'x, y, z'
loop_
 _atom_site_type_symbol
 _atom_site_label
 _atom_site_symmetry_multiplicity
 _atom_site_fract_x
 _atom_site_fract_y
 _atom_site_fract_z
 _atom_site_occupancy
  K  K0  1  0.343479  0.656521  0.500000  1
  K  K1  1  0.655667  0.344333  0.500000  1
  K  K2  1  0.000359  0.999641  0.500000  1
  K  K3  1  0.499999  0.500001  0.000000  1
  Pr  Pr4  1  0.167906  0.832094  0.000000  1
  Pa  Pa5  1  0.832322  0.167678  0.000000  1
  Se  Se6  1  0.788985  0.807086  0.209784  1
  Se  Se7  1  0.446821  0.067048  0.212948  1
  Se  Se8  1  0.047248  0.408650  0.211431  1
  Se  Se9  1  0.591350  0.952752  0.788569  1
  Se  Se10  1  0.932952  0.553179  0.787052  1
  Se  Se11  1  0.192914  0.211015  0.790216  1
