# generated using pymatgen
data_Gd2AsI
_symmetry_space_group_name_H-M   'P 1'
_cell_length_a   7.78331832
_cell_length_b   7.78331823
_cell_length_c   7.78331727
_cell_angle_alpha   31.59405422
_cell_angle_beta   31.59405242
_cell_angle_gamma   31.59405643
_symmetry_Int_Tables_number   1
_chemical_formula_structural   Gd2AsI
_chemical_formula_sum   'Gd2 As1 I1'
_cell_volume   114.91203534
_cell_formula_units_Z   1
loop_
 _symmetry_equiv_pos_site_id
 _symmetry_equiv_pos_as_xyz
  1  'x, y, z'
loop_
 _atom_site_type_symbol
 _atom_site_label
 _atom_site_symmetry_multiplicity
 _atom_site_fract_x
 _atom_site_fract_y
 _atom_site_fract_z
 _atom_site_occupancy
  Gd  Gd0  1  0.231416  0.231416  0.231416  1
  Gd  Gd1  1  0.768583  0.768583  0.768583  1
  As  As2  1  0.500000  0.500000  0.500000  1
  I  I3  1  0.000000  0.000000  0.000000  1
