# generated using pymatgen
data_Sm3(H6Os)2
_symmetry_space_group_name_H-M   'P 1'
_cell_length_a   4.84324500
_cell_length_b   4.84324457
_cell_length_c   8.41060500
_cell_angle_alpha   90.00000000
_cell_angle_beta   90.00000000
_cell_angle_gamma   119.99999610
_symmetry_Int_Tables_number   1
_chemical_formula_structural   Sm3(H6Os)2
_chemical_formula_sum   'Sm3 H12 Os2'
_cell_volume   170.85619287
_cell_formula_units_Z   1
loop_
 _symmetry_equiv_pos_site_id
 _symmetry_equiv_pos_as_xyz
  1  'x, y, z'
loop_
 _atom_site_type_symbol
 _atom_site_label
 _atom_site_symmetry_multiplicity
 _atom_site_fract_x
 _atom_site_fract_y
 _atom_site_fract_z
 _atom_site_occupancy
  Sm  Sm0  1  0.000000  0.000000  0.000000  1
  Sm  Sm1  1  0.666667  0.333333  0.362627  1
  Sm  Sm2  1  0.333333  0.666667  0.637373  1
  H  H3  1  0.169607  0.830393  0.367270  1
  H  H4  1  0.660788  0.830393  0.367270  1
  H  H5  1  0.169607  0.339212  0.367270  1
  H  H6  1  0.830393  0.169607  0.632730  1
  H  H7  1  0.339212  0.169607  0.632730  1
  H  H8  1  0.830393  0.660788  0.632730  1
  H  H9  1  0.501168  0.002335  0.878627  1
  H  H10  1  0.501168  0.498832  0.878627  1
  H  H11  1  0.997665  0.498832  0.878627  1
  H  H12  1  0.498832  0.997665  0.121373  1
  H  H13  1  0.498832  0.501168  0.121373  1
  H  H14  1  0.002335  0.501168  0.121373  1
  Os  Os15  1  0.666667  0.333333  0.758580  1
  Os  Os16  1  0.333333  0.666667  0.241420  1
