# generated using pymatgen
data_La2Cu17Si8Pt
_symmetry_space_group_name_H-M   'P 1'
_cell_length_a   8.22076187
_cell_length_b   8.22076244
_cell_length_c   8.19822052
_cell_angle_alpha   120.05924803
_cell_angle_beta   120.33354636
_cell_angle_gamma   89.81837542
_symmetry_Int_Tables_number   1
_chemical_formula_structural   La2Cu17Si8Pt
_chemical_formula_sum   'La2 Cu17 Si8 Pt1'
_cell_volume   390.05569849
_cell_formula_units_Z   1
loop_
 _symmetry_equiv_pos_site_id
 _symmetry_equiv_pos_as_xyz
  1  'x, y, z'
loop_
 _atom_site_type_symbol
 _atom_site_label
 _atom_site_symmetry_multiplicity
 _atom_site_fract_x
 _atom_site_fract_y
 _atom_site_fract_z
 _atom_site_occupancy
  La  La0  1  0.246413  0.249259  0.998348  1
  La  La1  1  0.749089  0.751935  0.998348  1
  Cu  Cu2  1  0.212088  0.056565  0.268653  1
  Cu  Cu3  1  0.793061  0.922088  0.715149  1
  Cu  Cu4  1  0.435126  0.296587  0.731713  1
  Cu  Cu5  1  0.065454  0.797642  0.863095  1
  Cu  Cu6  1  0.807218  0.059739  0.499479  1
  Cu  Cu7  1  0.559383  0.308275  0.503366  1
  Cu  Cu8  1  0.195090  0.943983  0.503366  1
  Cu  Cu9  1  0.439741  0.692262  0.499479  1
  Cu  Cu10  1  0.942052  0.441174  0.750507  1
  Cu  Cu11  1  0.685651  0.196159  0.253808  1
  Cu  Cu12  1  0.057649  0.568156  0.253808  1
  Cu  Cu13  1  0.700576  0.439992  0.140568  1
  Cu  Cu14  1  0.563192  0.703142  0.266334  1
  Cu  Cu15  1  0.502545  0.000542  0.503087  1
  Cu  Cu16  1  0.999169  0.507115  0.506285  1
  Cu  Cu17  1  0.309335  0.808458  0.750507  1
  Cu  Cu18  1  0.297847  0.562998  0.860846  1
  Si  Si19  1  0.792862  0.292798  0.851848  1
  Si  Si20  1  0.559050  0.058985  0.851848  1
  Si  Si21  1  0.058359  0.206879  0.499188  1
  Si  Si22  1  0.292309  0.440829  0.499188  1
  Si  Si23  1  0.942338  0.794257  0.498829  1
  Si  Si24  1  0.442774  0.939475  0.148602  1
  Si  Si25  1  0.209126  0.705826  0.148602  1
  Si  Si26  1  0.704573  0.556492  0.498829  1
  Pt  Pt27  1  0.937933  0.198389  0.136322  1
