# generated using pymatgen
data_Yb2Th(SiIr)2
_symmetry_space_group_name_H-M   'P 1'
_cell_length_a   5.68358247
_cell_length_b   5.68358104
_cell_length_c   13.12774100
_cell_angle_alpha   92.03072433
_cell_angle_beta   87.96927618
_cell_angle_gamma   137.07698842
_symmetry_Int_Tables_number   1
_chemical_formula_structural   Yb2Th(SiIr)2
_chemical_formula_sum   'Yb4 Th2 Si4 Ir4'
_cell_volume   288.58641301
_cell_formula_units_Z   2
loop_
 _symmetry_equiv_pos_site_id
 _symmetry_equiv_pos_as_xyz
  1  'x, y, z'
loop_
 _atom_site_type_symbol
 _atom_site_label
 _atom_site_symmetry_multiplicity
 _atom_site_fract_x
 _atom_site_fract_y
 _atom_site_fract_z
 _atom_site_occupancy
  Yb  Yb0  1  0.523897  0.476103  0.243207  1
  Yb  Yb1  1  0.771214  0.228786  0.897048  1
  Yb  Yb2  1  0.476103  0.523897  0.756793  1
  Yb  Yb3  1  0.228786  0.771214  0.102952  1
  Th  Th4  1  0.766919  0.233081  0.608383  1
  Th  Th5  1  0.233081  0.766919  0.391617  1
  Si  Si6  1  0.057641  0.942359  0.590359  1
  Si  Si7  1  0.060808  0.939192  0.913886  1
  Si  Si8  1  0.942359  0.057641  0.409641  1
  Si  Si9  1  0.939192  0.060808  0.086114  1
  Ir  Ir10  1  0.824161  0.175839  0.248879  1
  Ir  Ir11  1  0.175839  0.824161  0.751121  1
  Ir  Ir12  1  0.500000  0.500000  0.000000  1
  Ir  Ir13  1  0.500000  0.500000  0.500000  1
