# generated using pymatgen
data_TbHo7Ta11TiSi16
_symmetry_space_group_name_H-M   'P 1'
_cell_length_a   7.04031220
_cell_length_b   7.03690524
_cell_length_c   12.97885346
_cell_angle_alpha   89.95931325
_cell_angle_beta   89.97416793
_cell_angle_gamma   89.96958565
_symmetry_Int_Tables_number   1
_chemical_formula_structural   TbHo7Ta11TiSi16
_chemical_formula_sum   'Tb1 Ho7 Ta11 Ti1 Si16'
_cell_volume   642.99816728
_cell_formula_units_Z   1
loop_
 _symmetry_equiv_pos_site_id
 _symmetry_equiv_pos_as_xyz
  1  'x, y, z'
loop_
 _atom_site_type_symbol
 _atom_site_label
 _atom_site_symmetry_multiplicity
 _atom_site_fract_x
 _atom_site_fract_y
 _atom_site_fract_z
 _atom_site_occupancy
  Tb  Tb0  1  0.341814  0.002696  0.467816  1
  Ho  Ho1  1  0.498194  0.842131  0.718119  1
  Ho  Ho2  1  0.502081  0.158209  0.217971  1
  Ho  Ho3  1  0.841708  0.497763  0.281870  1
  Ho  Ho4  1  0.157751  0.501878  0.782367  1
  Ho  Ho5  1  0.658368  0.997294  0.967880  1
  Ho  Ho6  1  0.002599  0.341697  0.532237  1
  Ho  Ho7  1  0.997415  0.658989  0.031875  1
  Ta  Ta8  1  0.328552  0.328843  0.999794  1
  Ta  Ta9  1  0.171303  0.828064  0.249782  1
  Ta  Ta10  1  0.827185  0.172810  0.750067  1
  Ta  Ta11  1  0.671355  0.670970  0.499846  1
  Ta  Ta12  1  0.151990  0.006588  0.873643  1
  Ta  Ta13  1  0.492962  0.652422  0.124380  1
  Ta  Ta14  1  0.507465  0.347617  0.624336  1
  Ta  Ta15  1  0.652869  0.491774  0.876094  1
  Ta  Ta16  1  0.348056  0.507288  0.375654  1
  Ta  Ta17  1  0.846305  0.992090  0.373657  1
  Ta  Ta18  1  0.007592  0.152732  0.126112  1
  Ti  Ti19  1  0.992685  0.846306  0.626664  1
  Si  Si20  1  0.202330  0.132379  0.682034  1
  Si  Si21  1  0.365812  0.704159  0.931482  1
  Si  Si22  1  0.635161  0.296612  0.432163  1
  Si  Si23  1  0.703631  0.365592  0.068407  1
  Si  Si24  1  0.295514  0.634716  0.568498  1
  Si  Si25  1  0.796312  0.865424  0.181477  1
  Si  Si26  1  0.133874  0.204266  0.318176  1
  Si  Si27  1  0.865397  0.797161  0.817350  1
  Si  Si28  1  0.294637  0.954211  0.063678  1
  Si  Si29  1  0.546090  0.794283  0.313567  1
  Si  Si30  1  0.453524  0.205644  0.813659  1
  Si  Si31  1  0.795709  0.547457  0.685250  1
  Si  Si32  1  0.205354  0.454330  0.186148  1
  Si  Si33  1  0.709181  0.044882  0.564712  1
  Si  Si34  1  0.954228  0.294689  0.936062  1
  Si  Si35  1  0.044998  0.706037  0.437170  1
