# generated using pymatgen
data_PmCu2Ni3
_symmetry_space_group_name_H-M   'P 1'
_cell_length_a   5.00498270
_cell_length_b   5.00803928
_cell_length_c   3.97858000
_cell_angle_alpha   90.00000000
_cell_angle_beta   90.00000000
_cell_angle_gamma   60.11344477
_symmetry_Int_Tables_number   1
_chemical_formula_structural   PmCu2Ni3
_chemical_formula_sum   'Pm1 Cu2 Ni3'
_cell_volume   86.46181759
_cell_formula_units_Z   1
loop_
 _symmetry_equiv_pos_site_id
 _symmetry_equiv_pos_as_xyz
  1  'x, y, z'
loop_
 _atom_site_type_symbol
 _atom_site_label
 _atom_site_symmetry_multiplicity
 _atom_site_fract_x
 _atom_site_fract_y
 _atom_site_fract_z
 _atom_site_occupancy
  Pm  Pm0  1  0.000001  0.000001  0.000000  1
  Cu  Cu1  1  0.333318  0.333400  0.000000  1
  Cu  Cu2  1  0.666684  0.666602  0.000000  1
  Ni  Ni3  1  0.500290  0.000000  0.499999  1
  Ni  Ni4  1  0.000002  0.499699  0.499999  1
  Ni  Ni5  1  0.499700  0.500302  0.499999  1
