# generated using pymatgen
data_Li(TmAs)2
_symmetry_space_group_name_H-M   'P 1'
_cell_length_a   4.12857400
_cell_length_b   4.12858789
_cell_length_c   13.92310700
_cell_angle_alpha   90.00000000
_cell_angle_beta   90.00000000
_cell_angle_gamma   119.99988874
_symmetry_Int_Tables_number   1
_chemical_formula_structural   Li(TmAs)2
_chemical_formula_sum   'Li2 Tm4 As4'
_cell_volume   205.52700166
_cell_formula_units_Z   2
loop_
 _symmetry_equiv_pos_site_id
 _symmetry_equiv_pos_as_xyz
  1  'x, y, z'
loop_
 _atom_site_type_symbol
 _atom_site_label
 _atom_site_symmetry_multiplicity
 _atom_site_fract_x
 _atom_site_fract_y
 _atom_site_fract_z
 _atom_site_occupancy
  Li  Li0  1  0.999998  0.999996  0.250000  1
  Li  Li1  1  0.000003  0.000005  0.750000  1
  Tm  Tm2  1  0.666672  0.333343  0.110463  1
  Tm  Tm3  1  0.666672  0.333343  0.389538  1
  Tm  Tm4  1  0.333329  0.666658  0.610463  1
  Tm  Tm5  1  0.333329  0.666658  0.889538  1
  As  As6  1  0.000000  0.000000  0.000000  1
  As  As7  1  0.333332  0.666665  0.250000  1
  As  As8  1  0.000000  0.000000  0.500000  1
  As  As9  1  0.666669  0.333336  0.750000  1
