# generated using pymatgen
data_Ce2Ho7HfIr6
_symmetry_space_group_name_H-M   'P 1'
_cell_length_a   10.90709000
_cell_length_b   10.91361300
_cell_length_c   6.25651000
_cell_angle_alpha   90.00000000
_cell_angle_beta   90.00000000
_cell_angle_gamma   90.00000000
_symmetry_Int_Tables_number   1
_chemical_formula_structural   Ce2Ho7HfIr6
_chemical_formula_sum   'Ce4 Ho14 Hf2 Ir12'
_cell_volume   744.74841789
_cell_formula_units_Z   2
loop_
 _symmetry_equiv_pos_site_id
 _symmetry_equiv_pos_as_xyz
  1  'x, y, z'
loop_
 _atom_site_type_symbol
 _atom_site_label
 _atom_site_symmetry_multiplicity
 _atom_site_fract_x
 _atom_site_fract_y
 _atom_site_fract_z
 _atom_site_occupancy
  Ce  Ce0  1  0.294616  0.091514  0.380142  1
  Ce  Ce1  1  0.294616  0.908486  0.880142  1
  Ce  Ce2  1  0.705384  0.091514  0.880142  1
  Ce  Ce3  1  0.705384  0.908486  0.380142  1
  Ho  Ho4  1  0.587044  0.782917  0.877563  1
  Ho  Ho5  1  0.587044  0.217083  0.377563  1
  Ho  Ho6  1  0.412956  0.782917  0.377563  1
  Ho  Ho7  1  0.412956  0.217083  0.877563  1
  Ho  Ho8  1  0.209408  0.414874  0.622690  1
  Ho  Ho9  1  0.209408  0.585126  0.122690  1
  Ho  Ho10  1  0.790592  0.414874  0.122690  1
  Ho  Ho11  1  0.790592  0.585126  0.622690  1
  Ho  Ho12  1  0.913627  0.707377  0.119102  1
  Ho  Ho13  1  0.913627  0.292623  0.619102  1
  Ho  Ho14  1  0.086373  0.707377  0.619102  1
  Ho  Ho15  1  0.086373  0.292623  0.119102  1
  Ho  Ho16  1  0.000000  0.000000  0.494836  1
  Ho  Ho17  1  0.000000  0.000000  0.994836  1
  Hf  Hf18  1  0.500000  0.500000  0.011311  1
  Hf  Hf19  1  0.500000  0.500000  0.511311  1
  Ir  Ir20  1  0.843089  0.154974  0.242316  1
  Ir  Ir21  1  0.843089  0.845026  0.742316  1
  Ir  Ir22  1  0.156911  0.154974  0.742316  1
  Ir  Ir23  1  0.156911  0.845026  0.242316  1
  Ir  Ir24  1  0.641845  0.358268  0.757166  1
  Ir  Ir25  1  0.641845  0.641732  0.257166  1
  Ir  Ir26  1  0.358155  0.358268  0.257166  1
  Ir  Ir27  1  0.358155  0.641732  0.757166  1
  Ir  Ir28  1  0.500000  0.000000  0.119856  1
  Ir  Ir29  1  0.500000  0.000000  0.619856  1
  Ir  Ir30  1  0.000000  0.500000  0.876040  1
  Ir  Ir31  1  0.000000  0.500000  0.376040  1
