# generated using pymatgen
data_Rb3CaOs2O9
_symmetry_space_group_name_H-M   'P 1'
_cell_length_a   6.19046200
_cell_length_b   6.18987834
_cell_length_c   14.63610300
_cell_angle_alpha   89.99999765
_cell_angle_beta   89.99996832
_cell_angle_gamma   120.00501457
_symmetry_Int_Tables_number   1
_chemical_formula_structural   Rb3CaOs2O9
_chemical_formula_sum   'Rb6 Ca2 Os4 O18'
_cell_volume   485.66780728
_cell_formula_units_Z   2
loop_
 _symmetry_equiv_pos_site_id
 _symmetry_equiv_pos_as_xyz
  1  'x, y, z'
loop_
 _atom_site_type_symbol
 _atom_site_label
 _atom_site_symmetry_multiplicity
 _atom_site_fract_x
 _atom_site_fract_y
 _atom_site_fract_z
 _atom_site_occupancy
  Rb  Rb0  1  0.666675  0.333340  0.104412  1
  Rb  Rb1  1  0.000008  0.000022  0.250041  1
  Rb  Rb2  1  0.666668  0.333340  0.395629  1
  Rb  Rb3  1  0.333325  0.666651  0.604363  1
  Rb  Rb4  1  0.999994  0.999977  0.749919  1
  Rb  Rb5  1  0.333335  0.666666  0.895640  1
  Ca  Ca6  1  0.000007  0.000010  0.000022  1
  Ca  Ca7  1  0.999991  0.999995  0.500025  1
  Os  Os8  1  0.333340  0.666669  0.150606  1
  Os  Os9  1  0.333341  0.666675  0.349378  1
  Os  Os10  1  0.666649  0.333313  0.650650  1
  Os  Os11  1  0.666664  0.333346  0.849423  1
  O  O12  1  0.183123  0.366220  0.088435  1
  O  O13  1  0.183122  0.816894  0.088435  1
  O  O14  1  0.633788  0.816889  0.088438  1
  O  O15  1  0.071730  0.535861  0.249961  1
  O  O16  1  0.464137  0.535857  0.249964  1
  O  O17  1  0.464143  0.928283  0.249962  1
  O  O18  1  0.183114  0.366233  0.411529  1
  O  O19  1  0.183114  0.816892  0.411523  1
  O  O20  1  0.633770  0.816891  0.411528  1
  O  O21  1  0.816848  0.633703  0.588469  1
  O  O22  1  0.366268  0.183120  0.588473  1
  O  O23  1  0.816849  0.183118  0.588475  1
  O  O24  1  0.535852  0.071709  0.750036  1
  O  O25  1  0.535858  0.464147  0.750031  1
  O  O26  1  0.928277  0.464143  0.750033  1
  O  O27  1  0.366140  0.183081  0.911535  1
  O  O28  1  0.816933  0.183079  0.911534  1
  O  O29  1  0.816938  0.633884  0.911534  1
