# generated using pymatgen
data_Nd13Th3Cd4Ir3Rh
_symmetry_space_group_name_H-M   'P 1'
_cell_length_a   9.95062298
_cell_length_b   9.97563993
_cell_length_c   9.97564020
_cell_angle_alpha   60.24068983
_cell_angle_beta   60.12719020
_cell_angle_gamma   60.12719284
_symmetry_Int_Tables_number   1
_chemical_formula_structural   Nd13Th3Cd4Ir3Rh
_chemical_formula_sum   'Nd13 Th3 Cd4 Ir3 Rh1'
_cell_volume   702.80667523
_cell_formula_units_Z   1
loop_
 _symmetry_equiv_pos_site_id
 _symmetry_equiv_pos_as_xyz
  1  'x, y, z'
loop_
 _atom_site_type_symbol
 _atom_site_label
 _atom_site_symmetry_multiplicity
 _atom_site_fract_x
 _atom_site_fract_y
 _atom_site_fract_z
 _atom_site_occupancy
  Nd  Nd0  1  0.950216  0.350118  0.350118  1
  Nd  Nd1  1  0.809590  0.190718  0.190718  1
  Nd  Nd2  1  0.191127  0.809569  0.809569  1
  Nd  Nd3  1  0.190746  0.809776  0.190480  1
  Nd  Nd4  1  0.809861  0.190138  0.809034  1
  Nd  Nd5  1  0.190746  0.190480  0.809776  1
  Nd  Nd6  1  0.809861  0.809034  0.190138  1
  Nd  Nd7  1  0.941046  0.562520  0.562520  1
  Nd  Nd8  1  0.561767  0.938074  0.938074  1
  Nd  Nd9  1  0.561504  0.939857  0.562171  1
  Nd  Nd10  1  0.938879  0.562153  0.936123  1
  Nd  Nd11  1  0.561504  0.562171  0.939857  1
  Nd  Nd12  1  0.938879  0.936123  0.562153  1
  Th  Th13  1  0.344503  0.346447  0.346447  1
  Th  Th14  1  0.345163  0.347504  0.959780  1
  Th  Th15  1  0.345163  0.959780  0.347504  1
  Cd  Cd16  1  0.578826  0.580391  0.580391  1
  Cd  Cd17  1  0.578980  0.580916  0.259323  1
  Cd  Cd18  1  0.578980  0.259323  0.580916  1
  Cd  Cd19  1  0.257633  0.580695  0.580695  1
  Ir  Ir20  1  0.150182  0.140985  0.566518  1
  Ir  Ir21  1  0.150182  0.566518  0.140985  1
  Ir  Ir22  1  0.562847  0.145281  0.145281  1
  Rh  Rh23  1  0.151810  0.141426  0.141426  1
