# generated using pymatgen
data_TbYb6Tm13Pt16
_symmetry_space_group_name_H-M   'P 1'
_cell_length_a   7.44116913
_cell_length_b   7.51375610
_cell_length_c   14.62203400
_cell_angle_alpha   90.00055666
_cell_angle_beta   89.98935113
_cell_angle_gamma   89.96904840
_symmetry_Int_Tables_number   1
_chemical_formula_structural   TbYb6Tm13Pt16
_chemical_formula_sum   'Tb1 Yb6 Tm13 Pt16'
_cell_volume   817.53430902
_cell_formula_units_Z   1
loop_
 _symmetry_equiv_pos_site_id
 _symmetry_equiv_pos_as_xyz
  1  'x, y, z'
loop_
 _atom_site_type_symbol
 _atom_site_label
 _atom_site_symmetry_multiplicity
 _atom_site_fract_x
 _atom_site_fract_y
 _atom_site_fract_z
 _atom_site_occupancy
  Tb  Tb0  1  0.497677  0.681576  0.093708  1
  Yb  Yb1  1  0.499926  0.320311  0.593513  1
  Yb  Yb2  1  0.999834  0.179984  0.906361  1
  Yb  Yb3  1  0.000273  0.179318  0.592831  1
  Yb  Yb4  1  0.500035  0.320057  0.906548  1
  Yb  Yb5  1  0.499564  0.680506  0.406574  1
  Yb  Yb6  1  0.999223  0.819608  0.093656  1
  Tm  Tm7  1  0.681968  0.989353  0.250554  1
  Tm  Tm8  1  0.181608  0.511036  0.250665  1
  Tm  Tm9  1  0.817813  0.488266  0.749972  1
  Tm  Tm10  1  0.317671  0.011456  0.749405  1
  Tm  Tm11  1  0.654569  0.834949  0.621994  1
  Tm  Tm12  1  0.154363  0.665396  0.877649  1
  Tm  Tm13  1  0.845429  0.333402  0.377892  1
  Tm  Tm14  1  0.345269  0.166599  0.122555  1
  Tm  Tm15  1  0.344955  0.166464  0.377738  1
  Tm  Tm16  1  0.846012  0.332874  0.123171  1
  Tm  Tm17  1  0.155335  0.665018  0.623011  1
  Tm  Tm18  1  0.655899  0.835275  0.876411  1
  Tm  Tm19  1  0.996504  0.817130  0.406184  1
  Pt  Pt20  1  0.816872  0.638224  0.252649  1
  Pt  Pt21  1  0.315277  0.863115  0.249413  1
  Pt  Pt22  1  0.684533  0.134462  0.749498  1
  Pt  Pt23  1  0.184844  0.365228  0.750016  1
  Pt  Pt24  1  0.547022  0.378346  0.248801  1
  Pt  Pt25  1  0.046028  0.120015  0.252194  1
  Pt  Pt26  1  0.955208  0.876681  0.749736  1
  Pt  Pt27  1  0.454838  0.624197  0.749857  1
  Pt  Pt28  1  0.825358  0.541411  0.543472  1
  Pt  Pt29  1  0.324690  0.960122  0.955850  1
  Pt  Pt30  1  0.683702  0.029960  0.453294  1
  Pt  Pt31  1  0.180440  0.467763  0.046198  1
  Pt  Pt32  1  0.174385  0.469732  0.453014  1
  Pt  Pt33  1  0.675515  0.032971  0.046174  1
  Pt  Pt34  1  0.318287  0.961537  0.542310  1
  Pt  Pt35  1  0.819079  0.537653  0.957132  1
