# generated using pymatgen
data_K4Mn4Br10O
_symmetry_space_group_name_H-M   'P 1'
_cell_length_a   11.60151992
_cell_length_b   11.60151924
_cell_length_c   9.74656961
_cell_angle_alpha   79.79629336
_cell_angle_beta   79.79629272
_cell_angle_gamma   90.35228652
_symmetry_Int_Tables_number   1
_chemical_formula_structural   K4Mn4Br10O
_chemical_formula_sum   'K8 Mn8 Br20 O2'
_cell_volume   1269.72022687
_cell_formula_units_Z   2
loop_
 _symmetry_equiv_pos_site_id
 _symmetry_equiv_pos_as_xyz
  1  'x, y, z'
loop_
 _atom_site_type_symbol
 _atom_site_label
 _atom_site_symmetry_multiplicity
 _atom_site_fract_x
 _atom_site_fract_y
 _atom_site_fract_z
 _atom_site_occupancy
  K  K0  1  0.295546  0.439994  0.136473  1
  K  K1  1  0.712834  0.961173  0.875741  1
  K  K2  1  0.961173  0.712834  0.375741  1
  K  K3  1  0.560006  0.704454  0.363527  1
  K  K4  1  0.439994  0.295546  0.636473  1
  K  K5  1  0.038827  0.287166  0.624259  1
  K  K6  1  0.704454  0.560006  0.863527  1
  K  K7  1  0.287166  0.038827  0.124259  1
  Mn  Mn8  1  0.949770  0.234359  0.121914  1
  Mn  Mn9  1  0.050230  0.765641  0.878086  1
  Mn  Mn10  1  0.651002  0.231288  0.129249  1
  Mn  Mn11  1  0.768712  0.348998  0.370751  1
  Mn  Mn12  1  0.231288  0.651002  0.629249  1
  Mn  Mn13  1  0.348998  0.768712  0.870751  1
  Mn  Mn14  1  0.765641  0.050230  0.378086  1
  Mn  Mn15  1  0.234359  0.949770  0.621914  1
  Br  Br16  1  0.152373  0.266811  0.954976  1
  Br  Br17  1  0.984602  0.015398  0.250000  1
  Br  Br18  1  0.733189  0.847627  0.545024  1
  Br  Br19  1  0.398726  0.996691  0.776862  1
  Br  Br20  1  0.262511  0.487231  0.477517  1
  Br  Br21  1  0.003309  0.601274  0.723138  1
  Br  Br22  1  0.826079  0.279147  0.906989  1
  Br  Br23  1  0.418068  0.581932  0.750000  1
  Br  Br24  1  0.487231  0.262511  0.977517  1
  Br  Br25  1  0.015398  0.984602  0.750000  1
  Br  Br26  1  0.279147  0.826079  0.406989  1
  Br  Br27  1  0.996691  0.398726  0.276862  1
  Br  Br28  1  0.847627  0.733189  0.045024  1
  Br  Br29  1  0.737489  0.512769  0.522483  1
  Br  Br30  1  0.601274  0.003309  0.223138  1
  Br  Br31  1  0.720853  0.173921  0.593011  1
  Br  Br32  1  0.173921  0.720853  0.093011  1
  Br  Br33  1  0.581932  0.418068  0.250000  1
  Br  Br34  1  0.266811  0.152373  0.454976  1
  Br  Br35  1  0.512769  0.737489  0.022483  1
  O  O36  1  0.216649  0.783351  0.750000  1
  O  O37  1  0.783351  0.216649  0.250000  1
