# generated using pymatgen
data_Ho4Al16Si2PdRh5
_symmetry_space_group_name_H-M   'P 1'
_cell_length_a   7.54755184
_cell_length_b   7.54755111
_cell_length_c   9.34012530
_cell_angle_alpha   90.01450261
_cell_angle_beta   90.01449911
_cell_angle_gamma   119.51419392
_symmetry_Int_Tables_number   1
_chemical_formula_structural   Ho4Al16Si2PdRh5
_chemical_formula_sum   'Ho4 Al16 Si2 Pd1 Rh5'
_cell_volume   463.02101520
_cell_formula_units_Z   1
loop_
 _symmetry_equiv_pos_site_id
 _symmetry_equiv_pos_as_xyz
  1  'x, y, z'
loop_
 _atom_site_type_symbol
 _atom_site_label
 _atom_site_symmetry_multiplicity
 _atom_site_fract_x
 _atom_site_fract_y
 _atom_site_fract_z
 _atom_site_occupancy
  Ho  Ho0  1  0.993510  0.674214  0.249607  1
  Ho  Ho1  1  0.004059  0.324010  0.750230  1
  Ho  Ho2  1  0.675990  0.995941  0.249770  1
  Ho  Ho3  1  0.325786  0.006490  0.750393  1
  Al  Al4  1  0.000637  0.336360  0.076319  1
  Al  Al5  1  0.000196  0.663347  0.924192  1
  Al  Al6  1  0.002212  0.667241  0.577671  1
  Al  Al7  1  0.332759  0.997788  0.422329  1
  Al  Al8  1  0.005222  0.336397  0.422040  1
  Al  Al9  1  0.663603  0.994778  0.577960  1
  Al  Al10  1  0.663640  0.999363  0.923681  1
  Al  Al11  1  0.336653  0.999804  0.075808  1
  Al  Al12  1  0.332395  0.335491  0.557432  1
  Al  Al13  1  0.664509  0.667606  0.442568  1
  Al  Al14  1  0.665659  0.665623  0.053377  1
  Al  Al15  1  0.334378  0.334341  0.946623  1
  Al  Al16  1  0.336902  0.551245  0.249351  1
  Al  Al17  1  0.664316  0.453231  0.753092  1
  Al  Al18  1  0.546769  0.335684  0.246908  1
  Al  Al19  1  0.448755  0.663098  0.750649  1
  Si  Si20  1  0.127742  0.126588  0.249384  1
  Si  Si21  1  0.873412  0.872258  0.750616  1
  Pd  Pd22  1  0.672051  0.327949  0.500000  1
  Rh  Rh23  1  0.672052  0.327948  0.000000  1
  Rh  Rh24  1  0.328426  0.671574  0.000000  1
  Rh  Rh25  1  0.328248  0.671752  0.500000  1
  Rh  Rh26  1  0.000209  0.999791  0.000000  1
  Rh  Rh27  1  0.999910  0.000090  0.500000  1
