# generated using pymatgen
data_Dy3Y2Ho(Al3Os)8
_symmetry_space_group_name_H-M   'P 1'
_cell_length_a   8.83431100
_cell_length_b   8.83431108
_cell_length_c   9.56435200
_cell_angle_alpha   90.00000000
_cell_angle_beta   90.00000000
_cell_angle_gamma   120.00167081
_symmetry_Int_Tables_number   1
_chemical_formula_structural   Dy3Y2Ho(Al3Os)8
_chemical_formula_sum   'Dy3 Y2 Ho1 Al24 Os8'
_cell_volume   646.43407790
_cell_formula_units_Z   1
loop_
 _symmetry_equiv_pos_site_id
 _symmetry_equiv_pos_as_xyz
  1  'x, y, z'
loop_
 _atom_site_type_symbol
 _atom_site_label
 _atom_site_symmetry_multiplicity
 _atom_site_fract_x
 _atom_site_fract_y
 _atom_site_fract_z
 _atom_site_occupancy
  Dy  Dy0  1  0.193384  0.386746  0.250000  1
  Dy  Dy1  1  0.613254  0.806616  0.250000  1
  Dy  Dy2  1  0.193367  0.806633  0.250000  1
  Y  Y3  1  0.807122  0.614048  0.750000  1
  Y  Y4  1  0.385952  0.192878  0.750000  1
  Ho  Ho5  1  0.806781  0.193219  0.750000  1
  Al  Al6  1  0.333360  0.666640  0.015626  1
  Al  Al7  1  0.666748  0.333252  0.984604  1
  Al  Al8  1  0.666748  0.333252  0.515396  1
  Al  Al9  1  0.333360  0.666640  0.484374  1
  Al  Al10  1  0.162551  0.325364  0.575941  1
  Al  Al11  1  0.837186  0.674500  0.424086  1
  Al  Al12  1  0.674636  0.837449  0.575941  1
  Al  Al13  1  0.837186  0.674500  0.075914  1
  Al  Al14  1  0.325500  0.162814  0.424086  1
  Al  Al15  1  0.162551  0.325364  0.924059  1
  Al  Al16  1  0.162752  0.837248  0.575811  1
  Al  Al17  1  0.325500  0.162814  0.075914  1
  Al  Al18  1  0.837281  0.162719  0.424324  1
  Al  Al19  1  0.674636  0.837449  0.924059  1
  Al  Al20  1  0.837281  0.162719  0.075676  1
  Al  Al21  1  0.162752  0.837248  0.924189  1
  Al  Al22  1  0.560316  0.120612  0.250000  1
  Al  Al23  1  0.440097  0.879694  0.750000  1
  Al  Al24  1  0.879388  0.439684  0.250000  1
  Al  Al25  1  0.120306  0.559903  0.750000  1
  Al  Al26  1  0.560301  0.439699  0.250000  1
  Al  Al27  1  0.439729  0.560271  0.750000  1
  Al  Al28  1  0.000000  0.000000  0.250000  1
  Al  Al29  1  0.999586  0.000414  0.750000  1
  Os  Os30  1  0.500221  0.000096  0.999885  1
  Os  Os31  1  0.999904  0.499779  0.999885  1
  Os  Os32  1  0.500221  0.000096  0.500115  1
  Os  Os33  1  0.500022  0.499978  0.000034  1
  Os  Os34  1  0.999904  0.499779  0.500115  1
  Os  Os35  1  0.500022  0.499978  0.499966  1
  Os  Os36  1  0.000049  0.999951  0.999839  1
  Os  Os37  1  0.000049  0.999951  0.500161  1
