# generated using pymatgen
data_Y2Al9NiRh2
_symmetry_space_group_name_H-M   'P 1'
_cell_length_a   7.54604850
_cell_length_b   7.54604886
_cell_length_c   9.43822700
_cell_angle_alpha   90.00000000
_cell_angle_beta   90.00000000
_cell_angle_gamma   119.80120223
_symmetry_Int_Tables_number   1
_chemical_formula_structural   Y2Al9NiRh2
_chemical_formula_sum   'Y4 Al18 Ni2 Rh4'
_cell_volume   466.36587127
_cell_formula_units_Z   2
loop_
 _symmetry_equiv_pos_site_id
 _symmetry_equiv_pos_as_xyz
  1  'x, y, z'
loop_
 _atom_site_type_symbol
 _atom_site_label
 _atom_site_symmetry_multiplicity
 _atom_site_fract_x
 _atom_site_fract_y
 _atom_site_fract_z
 _atom_site_occupancy
  Y  Y0  1  0.994827  0.669397  0.250000  1
  Y  Y1  1  0.005173  0.330603  0.750000  1
  Y  Y2  1  0.669397  0.994827  0.250000  1
  Y  Y3  1  0.330603  0.005173  0.750000  1
  Al  Al4  1  0.123435  0.123435  0.250000  1
  Al  Al5  1  0.876565  0.876565  0.750000  1
  Al  Al6  1  0.000100  0.332044  0.073984  1
  Al  Al7  1  0.999900  0.667956  0.926016  1
  Al  Al8  1  0.999900  0.667956  0.573984  1
  Al  Al9  1  0.332044  0.000100  0.426016  1
  Al  Al10  1  0.000100  0.332044  0.426016  1
  Al  Al11  1  0.667956  0.999900  0.573984  1
  Al  Al12  1  0.667956  0.999900  0.926016  1
  Al  Al13  1  0.332044  0.000100  0.073984  1
  Al  Al14  1  0.331003  0.331003  0.549971  1
  Al  Al15  1  0.668997  0.668997  0.450029  1
  Al  Al16  1  0.668997  0.668997  0.049971  1
  Al  Al17  1  0.331003  0.331003  0.950029  1
  Al  Al18  1  0.338578  0.547716  0.250000  1
  Al  Al19  1  0.661422  0.452284  0.750000  1
  Al  Al20  1  0.547716  0.338578  0.250000  1
  Al  Al21  1  0.452284  0.661422  0.750000  1
  Ni  Ni22  1  0.000000  0.000000  0.000000  1
  Ni  Ni23  1  0.000000  0.000000  0.500000  1
  Rh  Rh24  1  0.672044  0.327956  0.000000  1
  Rh  Rh25  1  0.327956  0.672044  0.000000  1
  Rh  Rh26  1  0.327956  0.672044  0.500000  1
  Rh  Rh27  1  0.672044  0.327956  0.500000  1
