# generated using pymatgen
data_Y3Er3Tm10(CdPt)4
_symmetry_space_group_name_H-M   'P 1'
_cell_length_a   9.59948964
_cell_length_b   9.60275460
_cell_length_c   9.59574691
_cell_angle_alpha   60.00163336
_cell_angle_beta   59.96334835
_cell_angle_gamma   59.96297336
_symmetry_Int_Tables_number   1
_chemical_formula_structural   Y3Er3Tm10(CdPt)4
_chemical_formula_sum   'Y3 Er3 Tm10 Cd4 Pt4'
_cell_volume   625.13104446
_cell_formula_units_Z   1
loop_
 _symmetry_equiv_pos_site_id
 _symmetry_equiv_pos_as_xyz
  1  'x, y, z'
loop_
 _atom_site_type_symbol
 _atom_site_label
 _atom_site_symmetry_multiplicity
 _atom_site_fract_x
 _atom_site_fract_y
 _atom_site_fract_z
 _atom_site_occupancy
  Y  Y0  1  0.937154  0.562846  0.937154  1
  Y  Y1  1  0.563305  0.564487  0.935785  1
  Y  Y2  1  0.935785  0.936423  0.563305  1
  Er  Er3  1  0.936777  0.563416  0.562306  1
  Er  Er4  1  0.562306  0.937502  0.936777  1
  Er  Er5  1  0.563774  0.936226  0.563774  1
  Tm  Tm6  1  0.352172  0.350870  0.352909  1
  Tm  Tm7  1  0.354067  0.351951  0.941413  1
  Tm  Tm8  1  0.352909  0.944048  0.352172  1
  Tm  Tm9  1  0.941413  0.352568  0.354067  1
  Tm  Tm10  1  0.811109  0.188794  0.189251  1
  Tm  Tm11  1  0.189251  0.810846  0.811109  1
  Tm  Tm12  1  0.189558  0.810442  0.189558  1
  Tm  Tm13  1  0.811457  0.188543  0.811457  1
  Tm  Tm14  1  0.189303  0.188863  0.811025  1
  Tm  Tm15  1  0.811025  0.810809  0.189303  1
  Cd  Cd16  1  0.581593  0.581965  0.581101  1
  Cd  Cd17  1  0.581168  0.581913  0.255343  1
  Cd  Cd18  1  0.581101  0.255342  0.581593  1
  Cd  Cd19  1  0.255343  0.581577  0.581168  1
  Pt  Pt20  1  0.143481  0.144167  0.143059  1
  Pt  Pt21  1  0.142730  0.143796  0.570160  1
  Pt  Pt22  1  0.143059  0.569295  0.143481  1
  Pt  Pt23  1  0.570160  0.143315  0.142730  1
