# generated using pymatgen
data_Tm10Lu2ZnInCo4
_symmetry_space_group_name_H-M   'P 1'
_cell_length_a   8.18317316
_cell_length_b   8.18357419
_cell_length_c   8.18317353
_cell_angle_alpha   111.50159680
_cell_angle_beta   110.50477253
_cell_angle_gamma   106.44863447
_symmetry_Int_Tables_number   1
_chemical_formula_structural   Tm10Lu2ZnInCo4
_chemical_formula_sum   'Tm10 Lu2 Zn1 In1 Co4'
_cell_volume   420.95848695
_cell_formula_units_Z   1
loop_
 _symmetry_equiv_pos_site_id
 _symmetry_equiv_pos_as_xyz
  1  'x, y, z'
loop_
 _atom_site_type_symbol
 _atom_site_label
 _atom_site_symmetry_multiplicity
 _atom_site_fract_x
 _atom_site_fract_y
 _atom_site_fract_z
 _atom_site_occupancy
  Tm  Tm0  1  0.430960  0.227227  0.203223  1
  Tm  Tm1  1  0.569040  0.772773  0.796777  1
  Tm  Tm2  1  0.024003  0.227227  0.796267  1
  Tm  Tm3  1  0.975997  0.772773  0.203733  1
  Tm  Tm4  1  0.184347  0.284389  0.469250  1
  Tm  Tm5  1  0.815653  0.715611  0.530750  1
  Tm  Tm6  1  0.184861  0.715611  0.899959  1
  Tm  Tm7  1  0.815139  0.284389  0.100041  1
  Tm  Tm8  1  0.315851  0.619511  0.303658  1
  Tm  Tm9  1  0.684149  0.380489  0.696342  1
  Lu  Lu10  1  0.315855  0.011963  0.696108  1
  Lu  Lu11  1  0.684145  0.988037  0.303892  1
  Zn  Zn12  1  0.000000  0.000000  0.000000  1
  In  In13  1  0.500000  0.500000  0.000000  1
  Co  Co14  1  0.373415  0.000000  0.373415  1
  Co  Co15  1  0.626585  0.000000  0.626585  1
  Co  Co16  1  0.114108  0.614227  0.500120  1
  Co  Co17  1  0.885892  0.385773  0.499880  1
