# generated using pymatgen
data_ErMg(NbSe2)8
_symmetry_space_group_name_H-M   'P 1'
_cell_length_a   7.01997900
_cell_length_b   7.01997862
_cell_length_c   13.99303200
_cell_angle_alpha   90.00000000
_cell_angle_beta   90.00000000
_cell_angle_gamma   119.99999707
_symmetry_Int_Tables_number   1
_chemical_formula_structural   ErMg(NbSe2)8
_chemical_formula_sum   'Er1 Mg1 Nb8 Se16'
_cell_volume   597.19212797
_cell_formula_units_Z   1
loop_
 _symmetry_equiv_pos_site_id
 _symmetry_equiv_pos_as_xyz
  1  'x, y, z'
loop_
 _atom_site_type_symbol
 _atom_site_label
 _atom_site_symmetry_multiplicity
 _atom_site_fract_x
 _atom_site_fract_y
 _atom_site_fract_z
 _atom_site_occupancy
  Er  Er0  1  0.000000  0.000000  0.500000  1
  Mg  Mg1  1  0.000000  0.000000  0.000000  1
  Nb  Nb2  1  0.000000  0.000000  0.243784  1
  Nb  Nb3  1  0.000000  0.000000  0.756216  1
  Nb  Nb4  1  0.506883  0.013766  0.242083  1
  Nb  Nb5  1  0.986234  0.493117  0.242083  1
  Nb  Nb6  1  0.506883  0.493117  0.242083  1
  Nb  Nb7  1  0.493117  0.986234  0.757917  1
  Nb  Nb8  1  0.013766  0.506883  0.757917  1
  Nb  Nb9  1  0.493117  0.506883  0.757917  1
  Se  Se10  1  0.333333  0.666667  0.880453  1
  Se  Se11  1  0.666667  0.333333  0.119547  1
  Se  Se12  1  0.666667  0.333333  0.365477  1
  Se  Se13  1  0.333333  0.666667  0.634523  1
  Se  Se14  1  0.169310  0.830690  0.361641  1
  Se  Se15  1  0.169310  0.338619  0.361641  1
  Se  Se16  1  0.661381  0.830690  0.361641  1
  Se  Se17  1  0.830690  0.169310  0.638359  1
  Se  Se18  1  0.830690  0.661381  0.638359  1
  Se  Se19  1  0.338619  0.169310  0.638359  1
  Se  Se20  1  0.831587  0.168413  0.875374  1
  Se  Se21  1  0.831587  0.663174  0.875374  1
  Se  Se22  1  0.336826  0.168413  0.875374  1
  Se  Se23  1  0.168413  0.831587  0.124626  1
  Se  Se24  1  0.168413  0.336826  0.124626  1
  Se  Se25  1  0.663174  0.831587  0.124626  1
