# generated using pymatgen
data_TmBe2B5O11
_symmetry_space_group_name_H-M   'P 1'
_cell_length_a   4.36660200
_cell_length_b   6.72502900
_cell_length_c   25.83481100
_cell_angle_alpha   90.00000000
_cell_angle_beta   90.00000000
_cell_angle_gamma   90.00000000
_symmetry_Int_Tables_number   1
_chemical_formula_structural   TmBe2B5O11
_chemical_formula_sum   'Tm4 Be8 B20 O44'
_cell_volume   758.65279040
_cell_formula_units_Z   4
loop_
 _symmetry_equiv_pos_site_id
 _symmetry_equiv_pos_as_xyz
  1  'x, y, z'
loop_
 _atom_site_type_symbol
 _atom_site_label
 _atom_site_symmetry_multiplicity
 _atom_site_fract_x
 _atom_site_fract_y
 _atom_site_fract_z
 _atom_site_occupancy
  Tm  Tm0  1  0.872472  0.366379  0.920024  1
  Tm  Tm1  1  0.127528  0.866379  0.079976  1
  Tm  Tm2  1  0.372472  0.866379  0.579976  1
  Tm  Tm3  1  0.627528  0.366379  0.420024  1
  Be  Be4  1  0.166771  0.452364  0.791245  1
  Be  Be5  1  0.833229  0.952364  0.208755  1
  Be  Be6  1  0.666771  0.952364  0.708755  1
  Be  Be7  1  0.333229  0.452364  0.291245  1
  Be  Be8  1  0.664365  0.227774  0.793535  1
  Be  Be9  1  0.335635  0.727774  0.206465  1
  Be  Be10  1  0.164365  0.727774  0.706465  1
  Be  Be11  1  0.835635  0.227774  0.293535  1
  B  B12  1  0.372655  0.041092  0.870537  1
  B  B13  1  0.627345  0.541092  0.129463  1
  B  B14  1  0.872655  0.541092  0.629463  1
  B  B15  1  0.127345  0.041092  0.370537  1
  B  B16  1  0.144449  0.709249  0.871653  1
  B  B17  1  0.855551  0.209249  0.128347  1
  B  B18  1  0.644449  0.209249  0.628347  1
  B  B19  1  0.355551  0.709249  0.371653  1
  B  B20  1  0.023458  0.938873  0.944261  1
  B  B21  1  0.976542  0.438873  0.055739  1
  B  B22  1  0.523458  0.438873  0.555739  1
  B  B23  1  0.476542  0.938873  0.444261  1
  B  B24  1  0.535582  0.958621  0.999030  1
  B  B25  1  0.464418  0.458621  0.000970  1
  B  B26  1  0.035582  0.458621  0.500970  1
  B  B27  1  0.964418  0.958621  0.499030  1
  B  B28  1  0.178774  0.087372  0.751614  1
  B  B29  1  0.821226  0.587372  0.248386  1
  B  B30  1  0.678774  0.587372  0.748386  1
  B  B31  1  0.321226  0.087372  0.251614  1
  O  O32  1  0.348122  0.847266  0.850699  1
  O  O33  1  0.651878  0.347266  0.149301  1
  O  O34  1  0.848122  0.347266  0.649301  1
  O  O35  1  0.151878  0.847266  0.350699  1
  O  O36  1  0.624447  0.925115  0.048488  1
  O  O37  1  0.375553  0.425115  0.951512  1
  O  O38  1  0.124447  0.425115  0.451512  1
  O  O39  1  0.875553  0.925115  0.548488  1
  O  O40  1  0.992791  0.745079  0.918189  1
  O  O41  1  0.007209  0.245079  0.081811  1
  O  O42  1  0.492791  0.245079  0.581811  1
  O  O43  1  0.507209  0.745079  0.418189  1
  O  O44  1  0.218625  0.927629  0.991615  1
  O  O45  1  0.781375  0.427629  0.008385  1
  O  O46  1  0.718625  0.427629  0.508385  1
  O  O47  1  0.281375  0.927629  0.491615  1
  O  O48  1  0.152789  0.088842  0.908332  1
  O  O49  1  0.847211  0.588842  0.091668  1
  O  O50  1  0.652789  0.588842  0.591668  1
  O  O51  1  0.347211  0.088842  0.408332  1
  O  O52  1  0.083464  0.526677  0.850624  1
  O  O53  1  0.916536  0.026677  0.149376  1
  O  O54  1  0.583464  0.026677  0.649376  1
  O  O55  1  0.416536  0.526677  0.350624  1
  O  O56  1  0.580184  0.179086  0.854772  1
  O  O57  1  0.419816  0.679086  0.145228  1
  O  O58  1  0.080184  0.679086  0.645228  1
  O  O59  1  0.919816  0.179086  0.354772  1
  O  O60  1  0.721289  0.019239  0.958256  1
  O  O61  1  0.278711  0.519239  0.041744  1
  O  O62  1  0.221289  0.519239  0.541744  1
  O  O63  1  0.778711  0.019239  0.458256  1
  O  O64  1  0.029611  0.222716  0.783320  1
  O  O65  1  0.970389  0.722716  0.216680  1
  O  O66  1  0.529611  0.722716  0.716680  1
  O  O67  1  0.470389  0.222716  0.283320  1
  O  O68  1  0.493756  0.086342  0.751914  1
  O  O69  1  0.506244  0.586342  0.248086  1
  O  O70  1  0.993756  0.586342  0.748086  1
  O  O71  1  0.006244  0.086342  0.251914  1
  O  O72  1  0.028435  0.953892  0.720322  1
  O  O73  1  0.971565  0.453892  0.279678  1
  O  O74  1  0.528435  0.453892  0.779678  1
  O  O75  1  0.471565  0.953892  0.220322  1
