# generated using pymatgen
data_Ho3TaFe7CoP6
_symmetry_space_group_name_H-M   'P 1'
_cell_length_a   3.72944900
_cell_length_b   10.71190600
_cell_length_c   12.26087000
_cell_angle_alpha   90.00000000
_cell_angle_beta   90.00000000
_cell_angle_gamma   90.00000000
_symmetry_Int_Tables_number   1
_chemical_formula_structural   Ho3TaFe7CoP6
_chemical_formula_sum   'Ho6 Ta2 Fe14 Co2 P12'
_cell_volume   489.81571336
_cell_formula_units_Z   2
loop_
 _symmetry_equiv_pos_site_id
 _symmetry_equiv_pos_as_xyz
  1  'x, y, z'
loop_
 _atom_site_type_symbol
 _atom_site_label
 _atom_site_symmetry_multiplicity
 _atom_site_fract_x
 _atom_site_fract_y
 _atom_site_fract_z
 _atom_site_occupancy
  Ho  Ho0  1  0.000000  0.500000  0.533280  1
  Ho  Ho1  1  0.500000  0.000000  0.466720  1
  Ho  Ho2  1  0.500000  0.823993  0.203718  1
  Ho  Ho3  1  0.500000  0.176007  0.203718  1
  Ho  Ho4  1  0.000000  0.676007  0.796282  1
  Ho  Ho5  1  0.000000  0.323993  0.796282  1
  Ta  Ta6  1  0.500000  0.500000  0.155842  1
  Ta  Ta7  1  0.000000  0.000000  0.844158  1
  Fe  Fe8  1  0.000000  0.500000  0.988717  1
  Fe  Fe9  1  0.500000  0.000000  0.011283  1
  Fe  Fe10  1  0.500000  0.297368  0.430245  1
  Fe  Fe11  1  0.500000  0.702632  0.430245  1
  Fe  Fe12  1  0.000000  0.202632  0.569755  1
  Fe  Fe13  1  0.000000  0.797368  0.569755  1
  Fe  Fe14  1  0.500000  0.882937  0.702284  1
  Fe  Fe15  1  0.500000  0.117063  0.702284  1
  Fe  Fe16  1  0.000000  0.617063  0.297716  1
  Fe  Fe17  1  0.000000  0.382937  0.297716  1
  Fe  Fe18  1  0.500000  0.330034  0.998160  1
  Fe  Fe19  1  0.500000  0.669966  0.998160  1
  Fe  Fe20  1  0.000000  0.169966  0.001840  1
  Fe  Fe21  1  0.000000  0.830034  0.001840  1
  Co  Co22  1  0.500000  0.500000  0.705226  1
  Co  Co23  1  0.000000  0.000000  0.294774  1
  P  P24  1  0.500000  0.310336  0.615127  1
  P  P25  1  0.500000  0.689664  0.615127  1
  P  P26  1  0.000000  0.189664  0.384873  1
  P  P27  1  0.000000  0.810336  0.384873  1
  P  P28  1  0.500000  0.500000  0.889512  1
  P  P29  1  0.000000  0.000000  0.110488  1
  P  P30  1  0.500000  0.840761  0.895099  1
  P  P31  1  0.500000  0.159239  0.895099  1
  P  P32  1  0.000000  0.659239  0.104901  1
  P  P33  1  0.000000  0.340761  0.104901  1
  P  P34  1  0.500000  0.500000  0.361624  1
  P  P35  1  0.000000  0.000000  0.638376  1
