# generated using pymatgen
data_Li4Y3PaIr4
_symmetry_space_group_name_H-M   'P 1'
_cell_length_a   3.90129800
_cell_length_b   7.01531971
_cell_length_c   8.40945698
_cell_angle_alpha   90.58941342
_cell_angle_beta   90.00000000
_cell_angle_gamma   90.00000000
_symmetry_Int_Tables_number   1
_chemical_formula_structural   Li4Y3PaIr4
_chemical_formula_sum   'Li4 Y3 Pa1 Ir4'
_cell_volume   230.14501173
_cell_formula_units_Z   1
loop_
 _symmetry_equiv_pos_site_id
 _symmetry_equiv_pos_as_xyz
  1  'x, y, z'
loop_
 _atom_site_type_symbol
 _atom_site_label
 _atom_site_symmetry_multiplicity
 _atom_site_fract_x
 _atom_site_fract_y
 _atom_site_fract_z
 _atom_site_occupancy
  Li  Li0  1  0.250000  0.369489  0.554618  1
  Li  Li1  1  0.250000  0.883129  0.945663  1
  Li  Li2  1  0.750000  0.610458  0.443940  1
  Li  Li3  1  0.750000  0.130046  0.050860  1
  Y  Y4  1  0.250000  0.450683  0.174498  1
  Y  Y5  1  0.750000  0.052710  0.682233  1
  Y  Y6  1  0.750000  0.555240  0.821204  1
  Pa  Pa7  1  0.250000  0.943753  0.326115  1
  Ir  Ir8  1  0.250000  0.268334  0.872226  1
  Ir  Ir9  1  0.250000  0.761890  0.614117  1
  Ir  Ir10  1  0.750000  0.759679  0.148737  1
  Ir  Ir11  1  0.750000  0.214589  0.365791  1
