# generated using pymatgen
data_Nd3LuTl5
_symmetry_space_group_name_H-M   'P 1'
_cell_length_a   8.67465083
_cell_length_b   8.67465195
_cell_length_c   8.67465193
_cell_angle_alpha   66.07068024
_cell_angle_beta   66.07068084
_cell_angle_gamma   66.07064733
_symmetry_Int_Tables_number   1
_chemical_formula_structural   Nd3LuTl5
_chemical_formula_sum   'Nd6 Lu2 Tl10'
_cell_volume   522.17182603
_cell_formula_units_Z   2
loop_
 _symmetry_equiv_pos_site_id
 _symmetry_equiv_pos_as_xyz
  1  'x, y, z'
loop_
 _atom_site_type_symbol
 _atom_site_label
 _atom_site_symmetry_multiplicity
 _atom_site_fract_x
 _atom_site_fract_y
 _atom_site_fract_z
 _atom_site_occupancy
  Nd  Nd0  1  0.891235  0.182506  0.626366  1
  Nd  Nd1  1  0.626366  0.891235  0.182506  1
  Nd  Nd2  1  0.182506  0.626366  0.891235  1
  Nd  Nd3  1  0.108765  0.817494  0.373634  1
  Nd  Nd4  1  0.373634  0.108765  0.817494  1
  Nd  Nd5  1  0.817494  0.373634  0.108765  1
  Lu  Lu6  1  0.655785  0.655785  0.655785  1
  Lu  Lu7  1  0.344215  0.344215  0.344215  1
  Tl  Tl8  1  0.000000  0.000000  0.000000  1
  Tl  Tl9  1  0.500000  0.500000  0.500000  1
  Tl  Tl10  1  0.809253  0.809253  0.809253  1
  Tl  Tl11  1  0.190747  0.190747  0.190747  1
  Tl  Tl12  1  0.947829  0.563158  0.304903  1
  Tl  Tl13  1  0.304903  0.947829  0.563158  1
  Tl  Tl14  1  0.563158  0.304903  0.947829  1
  Tl  Tl15  1  0.052171  0.436842  0.695097  1
  Tl  Tl16  1  0.695097  0.052171  0.436842  1
  Tl  Tl17  1  0.436842  0.695097  0.052171  1
