# generated using pymatgen
data_Tb15ErIn4PdRh3
_symmetry_space_group_name_H-M   'P 1'
_cell_length_a   9.71773580
_cell_length_b   9.71751443
_cell_length_c   9.70574000
_cell_angle_alpha   60.04007367
_cell_angle_beta   60.04082601
_cell_angle_gamma   60.01115340
_symmetry_Int_Tables_number   1
_chemical_formula_structural   Tb15ErIn4PdRh3
_chemical_formula_sum   'Tb15 Er1 In4 Pd1 Rh3'
_cell_volume   648.53860484
_cell_formula_units_Z   1
loop_
 _symmetry_equiv_pos_site_id
 _symmetry_equiv_pos_as_xyz
  1  'x, y, z'
loop_
 _atom_site_type_symbol
 _atom_site_label
 _atom_site_symmetry_multiplicity
 _atom_site_fract_x
 _atom_site_fract_y
 _atom_site_fract_z
 _atom_site_occupancy
  Tb  Tb0  1  0.810449  0.184573  0.810990  1
  Tb  Tb1  1  0.194261  0.184881  0.810429  1
  Tb  Tb2  1  0.649765  0.048939  0.650648  1
  Tb  Tb3  1  0.061501  0.062729  0.437885  1
  Tb  Tb4  1  0.436354  0.439300  0.062173  1
  Tb  Tb5  1  0.647649  0.653373  0.647551  1
  Tb  Tb6  1  0.810449  0.184573  0.193988  1
  Tb  Tb7  1  0.188843  0.810758  0.811305  1
  Tb  Tb8  1  0.052425  0.652668  0.647453  1
  Tb  Tb9  1  0.438220  0.062138  0.061957  1
  Tb  Tb10  1  0.438220  0.062138  0.437684  1
  Tb  Tb11  1  0.061492  0.439763  0.062346  1
  Tb  Tb12  1  0.647649  0.653373  0.051427  1
  Tb  Tb13  1  0.188843  0.810758  0.189095  1
  Tb  Tb14  1  0.061492  0.439763  0.436399  1
  Er  Er15  1  0.810743  0.810896  0.189181  1
  In  In16  1  0.417594  0.417441  0.416993  1
  In  In17  1  0.417594  0.417441  0.747972  1
  In  In18  1  0.417863  0.747810  0.417163  1
  In  In19  1  0.747697  0.417656  0.417324  1
  Pd  Pd20  1  0.857259  0.429447  0.856647  1
  Rh  Rh21  1  0.857497  0.856399  0.858325  1
  Rh  Rh22  1  0.857497  0.856399  0.427780  1
  Rh  Rh23  1  0.428646  0.856783  0.857286  1
