# generated using pymatgen
data_K3Rb5In8(SnSe4)8
_symmetry_space_group_name_H-M   'P 1'
_cell_length_a   13.27363268
_cell_length_b   8.07899348
_cell_length_c   18.98314597
_cell_angle_alpha   82.15033474
_cell_angle_beta   90.15611771
_cell_angle_gamma   89.94955616
_symmetry_Int_Tables_number   1
_chemical_formula_structural   K3Rb5In8(SnSe4)8
_chemical_formula_sum   'K3 Rb5 In8 Sn8 Se32'
_cell_volume   2016.62283622
_cell_formula_units_Z   1
loop_
 _symmetry_equiv_pos_site_id
 _symmetry_equiv_pos_as_xyz
  1  'x, y, z'
loop_
 _atom_site_type_symbol
 _atom_site_label
 _atom_site_symmetry_multiplicity
 _atom_site_fract_x
 _atom_site_fract_y
 _atom_site_fract_z
 _atom_site_occupancy
  K  K0  1  0.100929  0.733760  0.044398  1
  K  K1  1  0.933631  0.252785  0.318737  1
  K  K2  1  0.899265  0.266146  0.956169  1
  Rb  Rb3  1  0.070718  0.742015  0.678129  1
  Rb  Rb4  1  0.428472  0.741720  0.176986  1
  Rb  Rb5  1  0.601939  0.263052  0.453250  1
  Rb  Rb6  1  0.398795  0.736880  0.546679  1
  Rb  Rb7  1  0.571563  0.257930  0.822958  1
  In  In8  1  0.761132  0.533642  0.155418  1
  In  In9  1  0.256604  0.466874  0.343357  1
  In  In10  1  0.240666  0.964156  0.858935  1
  In  In11  1  0.759570  0.035572  0.141836  1
  In  In12  1  0.239691  0.465844  0.845275  1
  In  In13  1  0.256223  0.964215  0.358203  1
  In  In14  1  0.743074  0.036534  0.641658  1
  In  In15  1  0.742137  0.532710  0.656197  1
  Sn  Sn16  1  0.323286  0.199245  0.015735  1
  Sn  Sn17  1  0.290193  0.241181  0.677230  1
  Sn  Sn18  1  0.825881  0.802020  0.484464  1
  Sn  Sn19  1  0.710333  0.759403  0.322610  1
  Sn  Sn20  1  0.173303  0.199216  0.514954  1
  Sn  Sn21  1  0.676864  0.800924  0.984661  1
  Sn  Sn22  1  0.207382  0.243128  0.176686  1
  Sn  Sn23  1  0.792087  0.757866  0.823356  1
  Se  Se24  1  0.173615  0.530481  0.213322  1
  Se  Se25  1  0.394805  0.200430  0.143222  1
  Se  Se26  1  0.864344  0.747436  0.952361  1
  Se  Se27  1  0.638270  0.749836  0.451144  1
  Se  Se28  1  0.102765  0.201182  0.642472  1
  Se  Se29  1  0.826220  0.471054  0.786108  1
  Se  Se30  1  0.848662  0.092042  0.521205  1
  Se  Se31  1  0.122239  0.000364  0.254112  1
  Se  Se32  1  0.377810  0.710180  0.360804  1
  Se  Se33  1  0.897633  0.558317  0.569297  1
  Se  Se34  1  0.373316  0.994807  0.754469  1
  Se  Se35  1  0.620328  0.289352  0.639181  1
  Se  Se36  1  0.679712  0.471866  0.285114  1
  Se  Se37  1  0.151787  0.907850  0.479288  1
  Se  Se38  1  0.882178  0.288186  0.139869  1
  Se  Se39  1  0.657240  0.093774  0.019607  1
  Se  Se40  1  0.379046  0.215783  0.346542  1
  Se  Se41  1  0.897131  0.807476  0.356713  1
  Se  Se42  1  0.118925  0.710066  0.863481  1
  Se  Se43  1  0.324395  0.526173  0.716228  1
  Se  Se44  1  0.603863  0.559824  0.069722  1
  Se  Se45  1  0.098195  0.435491  0.427474  1
  Se  Se46  1  0.883348  0.784754  0.151957  1
  Se  Se47  1  0.625595  0.003674  0.245327  1
  Se  Se48  1  0.135567  0.251972  0.047730  1
  Se  Se49  1  0.620515  0.784569  0.653580  1
  Se  Se50  1  0.604674  0.799081  0.857430  1
  Se  Se51  1  0.343806  0.906737  0.980865  1
  Se  Se52  1  0.361049  0.251220  0.548173  1
  Se  Se53  1  0.397069  0.439555  0.930826  1
  Se  Se54  1  0.116995  0.215543  0.847688  1
  Se  Se55  1  0.875165  0.004106  0.746806  1
