# generated using pymatgen
data_Tb4Zn3In2Ir
_symmetry_space_group_name_H-M   'P 1'
_cell_length_a   7.79586828
_cell_length_b   7.79586938
_cell_length_c   3.76975600
_cell_angle_alpha   90.00000000
_cell_angle_beta   90.00000000
_cell_angle_gamma   89.82992497
_symmetry_Int_Tables_number   1
_chemical_formula_structural   Tb4Zn3In2Ir
_chemical_formula_sum   'Tb4 Zn3 In2 Ir1'
_cell_volume   229.10806315
_cell_formula_units_Z   1
loop_
 _symmetry_equiv_pos_site_id
 _symmetry_equiv_pos_as_xyz
  1  'x, y, z'
loop_
 _atom_site_type_symbol
 _atom_site_label
 _atom_site_symmetry_multiplicity
 _atom_site_fract_x
 _atom_site_fract_y
 _atom_site_fract_z
 _atom_site_occupancy
  Tb  Tb0  1  0.672477  0.172477  0.500000  1
  Tb  Tb1  1  0.310027  0.810027  0.500000  1
  Tb  Tb2  1  0.178872  0.345366  0.500000  1
  Tb  Tb3  1  0.845366  0.678872  0.500000  1
  Zn  Zn4  1  0.878720  0.378720  0.000000  1
  Zn  Zn5  1  0.615318  0.876375  0.000000  1
  Zn  Zn6  1  0.376375  0.115318  0.000000  1
  In  In7  1  0.503974  0.500863  0.000000  1
  In  In8  1  0.000863  0.003974  0.000000  1
  Ir  Ir9  1  0.118008  0.618008  0.000000  1
