# generated using pymatgen
data_La3Sc2P12Ir11Ru8
_symmetry_space_group_name_H-M   'P 1'
_cell_length_a   12.73966324
_cell_length_b   12.69093112
_cell_length_c   3.96159100
_cell_angle_alpha   90.00000000
_cell_angle_beta   90.00000000
_cell_angle_gamma   120.05443737
_symmetry_Int_Tables_number   1
_chemical_formula_structural   La3Sc2P12Ir11Ru8
_chemical_formula_sum   'La3 Sc2 P12 Ir11 Ru8'
_cell_volume   554.38722035
_cell_formula_units_Z   1
loop_
 _symmetry_equiv_pos_site_id
 _symmetry_equiv_pos_as_xyz
  1  'x, y, z'
loop_
 _atom_site_type_symbol
 _atom_site_label
 _atom_site_symmetry_multiplicity
 _atom_site_fract_x
 _atom_site_fract_y
 _atom_site_fract_z
 _atom_site_occupancy
  La  La0  1  0.811425  0.999426  0.500000  1
  La  La1  1  0.998780  0.810855  0.500000  1
  La  La2  1  0.185956  0.187593  0.500000  1
  Sc  Sc3  1  0.333052  0.666838  0.000000  1
  Sc  Sc4  1  0.669395  0.334563  0.000000  1
  P  P5  1  0.183501  0.997475  0.000000  1
  P  P6  1  0.999062  0.186593  0.000000  1
  P  P7  1  0.812196  0.812697  0.000000  1
  P  P8  1  0.177915  0.485172  0.500000  1
  P  P9  1  0.515040  0.692365  0.500000  1
  P  P10  1  0.307384  0.823051  0.500000  1
  P  P11  1  0.693357  0.515143  0.500000  1
  P  P12  1  0.824037  0.308013  0.500000  1
  P  P13  1  0.487270  0.175894  0.500000  1
  P  P14  1  0.632736  0.999697  0.000000  1
  P  P15  1  0.000386  0.632734  0.000000  1
  P  P16  1  0.365410  0.369897  0.000000  1
  Ir  Ir17  1  0.366122  0.495329  0.500000  1
  Ir  Ir18  1  0.502486  0.868809  0.500000  1
  Ir  Ir19  1  0.131684  0.634978  0.500000  1
  Ir  Ir20  1  0.869559  0.503678  0.500000  1
  Ir  Ir21  1  0.636220  0.131452  0.500000  1
  Ir  Ir22  1  0.497958  0.363578  0.500000  1
  Ir  Ir23  1  0.382914  0.184393  0.000000  1
  Ir  Ir24  1  0.292745  0.002030  0.500000  1
  Ir  Ir25  1  0.000297  0.292334  0.500000  1
  Ir  Ir26  1  0.707224  0.707233  0.500000  1
  Ir  Ir27  1  0.999676  0.999734  0.000000  1
  Ru  Ru28  1  0.453569  0.002552  0.000000  1
  Ru  Ru29  1  0.000183  0.452373  0.000000  1
  Ru  Ru30  1  0.548175  0.545877  0.000000  1
  Ru  Ru31  1  0.182855  0.385547  0.000000  1
  Ru  Ru32  1  0.613638  0.797022  0.000000  1
  Ru  Ru33  1  0.202888  0.818682  0.000000  1
  Ru  Ru34  1  0.797839  0.614495  0.000000  1
  Ru  Ru35  1  0.817063  0.201897  0.000000  1
