# generated using pymatgen
data_Ho5Er7Os3Pd
_symmetry_space_group_name_H-M   'P 1'
_cell_length_a   6.37505856
_cell_length_b   7.32388830
_cell_length_c   9.01496932
_cell_angle_alpha   90.00185380
_cell_angle_beta   90.03065750
_cell_angle_gamma   90.32720450
_symmetry_Int_Tables_number   1
_chemical_formula_structural   Ho5Er7Os3Pd
_chemical_formula_sum   'Ho5 Er7 Os3 Pd1'
_cell_volume   420.90394794
_cell_formula_units_Z   1
loop_
 _symmetry_equiv_pos_site_id
 _symmetry_equiv_pos_as_xyz
  1  'x, y, z'
loop_
 _atom_site_type_symbol
 _atom_site_label
 _atom_site_symmetry_multiplicity
 _atom_site_fract_x
 _atom_site_fract_y
 _atom_site_fract_z
 _atom_site_occupancy
  Ho  Ho0  1  0.338291  0.670098  0.057487  1
  Ho  Ho1  1  0.171491  0.183964  0.442199  1
  Ho  Ho2  1  0.872817  0.532452  0.250025  1
  Ho  Ho3  1  0.620915  0.038992  0.249968  1
  Ho  Ho4  1  0.122405  0.463422  0.750018  1
  Er  Er5  1  0.670942  0.323121  0.562361  1
  Er  Er6  1  0.823288  0.823233  0.932142  1
  Er  Er7  1  0.670966  0.323055  0.937668  1
  Er  Er8  1  0.823272  0.823163  0.567815  1
  Er  Er9  1  0.338372  0.669975  0.442484  1
  Er  Er10  1  0.171544  0.183840  0.057812  1
  Er  Er11  1  0.370124  0.962792  0.750044  1
  Os  Os12  1  0.462434  0.384279  0.249995  1
  Os  Os13  1  0.963339  0.114562  0.750127  1
  Os  Os14  1  0.533359  0.614760  0.749874  1
  Pd  Pd15  1  0.046439  0.888291  0.249981  1
