# generated using pymatgen
data_Ce3PrPd4F28
_symmetry_space_group_name_H-M   'P 1'
_cell_length_a   5.64393122
_cell_length_b   9.14798778
_cell_length_c   12.25227800
_cell_angle_alpha   61.91838728
_cell_angle_beta   90.01611083
_cell_angle_gamma   90.01745465
_symmetry_Int_Tables_number   1
_chemical_formula_structural   Ce3PrPd4F28
_chemical_formula_sum   'Ce3 Pr1 Pd4 F28'
_cell_volume   558.12251709
_cell_formula_units_Z   1
loop_
 _symmetry_equiv_pos_site_id
 _symmetry_equiv_pos_as_xyz
  1  'x, y, z'
loop_
 _atom_site_type_symbol
 _atom_site_label
 _atom_site_symmetry_multiplicity
 _atom_site_fract_x
 _atom_site_fract_y
 _atom_site_fract_z
 _atom_site_occupancy
  Ce  Ce0  1  0.758599  0.807881  0.762516  1
  Ce  Ce1  1  0.253860  0.199102  0.731906  1
  Ce  Ce2  1  0.243196  0.194551  0.233220  1
  Pr  Pr3  1  0.742851  0.805853  0.267348  1
  Pd  Pd4  1  0.755281  0.273245  0.958728  1
  Pd  Pd5  1  0.256741  0.729698  0.542580  1
  Pd  Pd6  1  0.244320  0.729661  0.038227  1
  Pd  Pd7  1  0.744355  0.268577  0.459286  1
  F  F8  1  0.433736  0.705814  0.914022  1
  F  F9  1  0.943236  0.288970  0.587782  1
  F  F10  1  0.543521  0.291668  0.089856  1
  F  F11  1  0.058320  0.707533  0.412147  1
  F  F12  1  0.433787  0.273195  0.556246  1
  F  F13  1  0.949293  0.723028  0.954264  1
  F  F14  1  0.555670  0.719511  0.458483  1
  F  F15  1  0.056610  0.282216  0.048434  1
  F  F16  1  0.765651  0.517285  0.862642  1
  F  F17  1  0.265171  0.487497  0.641535  1
  F  F18  1  0.230897  0.489398  0.135795  1
  F  F19  1  0.728172  0.509278  0.360045  1
  F  F20  1  0.754325  0.033242  0.050427  1
  F  F21  1  0.258014  0.969685  0.450954  1
  F  F22  1  0.246289  0.970564  0.947314  1
  F  F23  1  0.747398  0.025730  0.554665  1
  F  F24  1  0.969084  0.732195  0.642667  1
  F  F25  1  0.470728  0.266304  0.855214  1
  F  F26  1  0.041951  0.268708  0.353513  1
  F  F27  1  0.531181  0.729252  0.126392  1
  F  F28  1  0.062092  0.744906  0.167062  1
  F  F29  1  0.546835  0.248692  0.329941  1
  F  F30  1  0.960394  0.250995  0.825128  1
  F  F31  1  0.456574  0.750207  0.677624  1
  F  F32  1  0.401876  0.974815  0.232856  1
  F  F33  1  0.920332  0.038287  0.267146  1
  F  F34  1  0.584474  0.021456  0.769562  1
  F  F35  1  0.085191  0.971003  0.734475  1
