# generated using pymatgen
data_Cs3PIrBr9
_symmetry_space_group_name_H-M   'P 1'
_cell_length_a   7.75615100
_cell_length_b   7.75615142
_cell_length_c   19.72588200
_cell_angle_alpha   90.00000000
_cell_angle_beta   90.00000000
_cell_angle_gamma   120.00000247
_symmetry_Int_Tables_number   1
_chemical_formula_structural   Cs3PIrBr9
_chemical_formula_sum   'Cs6 P2 Ir2 Br18'
_cell_volume   1027.68397954
_cell_formula_units_Z   2
loop_
 _symmetry_equiv_pos_site_id
 _symmetry_equiv_pos_as_xyz
  1  'x, y, z'
loop_
 _atom_site_type_symbol
 _atom_site_label
 _atom_site_symmetry_multiplicity
 _atom_site_fract_x
 _atom_site_fract_y
 _atom_site_fract_z
 _atom_site_occupancy
  Cs  Cs0  1  0.666667  0.333333  0.911329  1
  Cs  Cs1  1  0.333333  0.666667  0.411329  1
  Cs  Cs2  1  0.666667  0.333333  0.564832  1
  Cs  Cs3  1  0.333333  0.666667  0.064832  1
  Cs  Cs4  1  0.000000  0.000000  0.763121  1
  Cs  Cs5  1  0.000000  0.000000  0.263121  1
  P  P6  1  0.333333  0.666667  0.652751  1
  P  P7  1  0.666667  0.333333  0.152751  1
  Ir  Ir8  1  0.666667  0.333333  0.335183  1
  Ir  Ir9  1  0.333333  0.666667  0.835183  1
  Br  Br10  1  0.819437  0.638872  0.408672  1
  Br  Br11  1  0.180563  0.361128  0.908672  1
  Br  Br12  1  0.180563  0.819437  0.908672  1
  Br  Br13  1  0.180818  0.361636  0.590218  1
  Br  Br14  1  0.638872  0.819437  0.908672  1
  Br  Br15  1  0.361128  0.180563  0.408672  1
  Br  Br16  1  0.028664  0.514332  0.758705  1
  Br  Br17  1  0.819437  0.180563  0.408672  1
  Br  Br18  1  0.514332  0.028664  0.258705  1
  Br  Br19  1  0.485668  0.514332  0.758705  1
  Br  Br20  1  0.514332  0.485668  0.258705  1
  Br  Br21  1  0.971336  0.485668  0.258705  1
  Br  Br22  1  0.361636  0.180818  0.090218  1
  Br  Br23  1  0.485668  0.971336  0.758705  1
  Br  Br24  1  0.819182  0.638364  0.090218  1
  Br  Br25  1  0.180818  0.819182  0.590218  1
  Br  Br26  1  0.638364  0.819182  0.590218  1
  Br  Br27  1  0.819182  0.180818  0.090218  1
