# generated using pymatgen
data_DyHo3(Ga2Ag)4
_symmetry_space_group_name_H-M   'P 1'
_cell_length_a   4.37474400
_cell_length_b   6.94771666
_cell_length_c   10.24853113
_cell_angle_alpha   90.04963360
_cell_angle_beta   90.00000000
_cell_angle_gamma   90.00000000
_symmetry_Int_Tables_number   1
_chemical_formula_structural   DyHo3(Ga2Ag)4
_chemical_formula_sum   'Dy1 Ho3 Ga8 Ag4'
_cell_volume   311.49867555
_cell_formula_units_Z   1
loop_
 _symmetry_equiv_pos_site_id
 _symmetry_equiv_pos_as_xyz
  1  'x, y, z'
loop_
 _atom_site_type_symbol
 _atom_site_label
 _atom_site_symmetry_multiplicity
 _atom_site_fract_x
 _atom_site_fract_y
 _atom_site_fract_z
 _atom_site_occupancy
  Dy  Dy0  1  0.250000  0.279281  0.675511  1
  Ho  Ho1  1  0.250000  0.779077  0.824952  1
  Ho  Ho2  1  0.750000  0.220701  0.175346  1
  Ho  Ho3  1  0.750000  0.720733  0.324604  1
  Ga  Ga4  1  0.250000  0.928927  0.154520  1
  Ga  Ga5  1  0.750000  0.070444  0.845781  1
  Ga  Ga6  1  0.750000  0.571846  0.654445  1
  Ga  Ga7  1  0.250000  0.429211  0.345418  1
  Ga  Ga8  1  0.250000  0.701985  0.535935  1
  Ga  Ga9  1  0.750000  0.298764  0.463645  1
  Ga  Ga10  1  0.750000  0.798872  0.036115  1
  Ga  Ga11  1  0.250000  0.200562  0.964588  1
  Ag  Ag12  1  0.250000  0.544908  0.095753  1
  Ag  Ag13  1  0.750000  0.455253  0.904425  1
  Ag  Ag14  1  0.750000  0.954896  0.595401  1
  Ag  Ag15  1  0.250000  0.044537  0.403562  1
