# generated using pymatgen
data_Hf9Mo4N3
_symmetry_space_group_name_H-M   'P 1'
_cell_length_a   8.58226900
_cell_length_b   8.58226790
_cell_length_c   8.45516000
_cell_angle_alpha   90.00000000
_cell_angle_beta   90.00000000
_cell_angle_gamma   120.00000037
_symmetry_Int_Tables_number   1
_chemical_formula_structural   Hf9Mo4N3
_chemical_formula_sum   'Hf18 Mo8 N6'
_cell_volume   539.33257335
_cell_formula_units_Z   2
loop_
 _symmetry_equiv_pos_site_id
 _symmetry_equiv_pos_as_xyz
  1  'x, y, z'
loop_
 _atom_site_type_symbol
 _atom_site_label
 _atom_site_symmetry_multiplicity
 _atom_site_fract_x
 _atom_site_fract_y
 _atom_site_fract_z
 _atom_site_occupancy
  Hf  Hf0  1  0.454424  0.908847  0.250000  1
  Hf  Hf1  1  0.545576  0.091153  0.750000  1
  Hf  Hf2  1  0.091153  0.545576  0.250000  1
  Hf  Hf3  1  0.908847  0.454424  0.750000  1
  Hf  Hf4  1  0.454424  0.545576  0.250000  1
  Hf  Hf5  1  0.545576  0.454424  0.750000  1
  Hf  Hf6  1  0.206833  0.413667  0.558575  1
  Hf  Hf7  1  0.793167  0.586333  0.441425  1
  Hf  Hf8  1  0.586333  0.793167  0.558575  1
  Hf  Hf9  1  0.793167  0.586333  0.058575  1
  Hf  Hf10  1  0.413667  0.206833  0.441425  1
  Hf  Hf11  1  0.206833  0.413667  0.941425  1
  Hf  Hf12  1  0.206833  0.793167  0.558575  1
  Hf  Hf13  1  0.413667  0.206833  0.058575  1
  Hf  Hf14  1  0.793167  0.206833  0.441425  1
  Hf  Hf15  1  0.586333  0.793167  0.941425  1
  Hf  Hf16  1  0.793167  0.206833  0.058575  1
  Hf  Hf17  1  0.206833  0.793167  0.941425  1
  Mo  Mo18  1  0.108565  0.217128  0.250000  1
  Mo  Mo19  1  0.891435  0.782872  0.750000  1
  Mo  Mo20  1  0.782872  0.891435  0.250000  1
  Mo  Mo21  1  0.217128  0.108565  0.750000  1
  Mo  Mo22  1  0.108565  0.891435  0.250000  1
  Mo  Mo23  1  0.891435  0.108565  0.750000  1
  Mo  Mo24  1  0.000000  0.000000  0.000000  1
  Mo  Mo25  1  0.000000  0.000000  0.500000  1
  N  N26  1  0.500000  0.000000  0.000000  1
  N  N27  1  0.000000  0.500000  0.000000  1
  N  N28  1  0.500000  0.000000  0.500000  1
  N  N29  1  0.500000  0.500000  0.000000  1
  N  N30  1  0.000000  0.500000  0.500000  1
  N  N31  1  0.500000  0.500000  0.500000  1
