# generated using pymatgen
data_Nd7LuThPd24
_symmetry_space_group_name_H-M   'P 1'
_cell_length_a   8.54678341
_cell_length_b   8.54678281
_cell_length_c   8.54678300
_cell_angle_alpha   89.92981808
_cell_angle_beta   89.92981808
_cell_angle_gamma   89.92981931
_symmetry_Int_Tables_number   1
_chemical_formula_structural   Nd7LuThPd24
_chemical_formula_sum   'Nd7 Lu1 Th1 Pd24'
_cell_volume   624.31974029
_cell_formula_units_Z   1
loop_
 _symmetry_equiv_pos_site_id
 _symmetry_equiv_pos_as_xyz
  1  'x, y, z'
loop_
 _atom_site_type_symbol
 _atom_site_label
 _atom_site_symmetry_multiplicity
 _atom_site_fract_x
 _atom_site_fract_y
 _atom_site_fract_z
 _atom_site_occupancy
  Nd  Nd0  1  0.747354  0.747354  0.747354  1
  Nd  Nd1  1  0.747605  0.747605  0.252299  1
  Nd  Nd2  1  0.747605  0.252299  0.747605  1
  Nd  Nd3  1  0.252305  0.252305  0.748561  1
  Nd  Nd4  1  0.252305  0.748561  0.252305  1
  Nd  Nd5  1  0.252299  0.747605  0.747605  1
  Nd  Nd6  1  0.748561  0.252305  0.252305  1
  Lu  Lu7  1  0.998880  0.998880  0.998880  1
  Th  Th8  1  0.253633  0.253633  0.253633  1
  Pd  Pd9  1  0.267003  0.498708  0.002611  1
  Pd  Pd10  1  0.732928  0.499614  0.000070  1
  Pd  Pd11  1  0.002611  0.267003  0.498708  1
  Pd  Pd12  1  0.498708  0.267003  0.002611  1
  Pd  Pd13  1  0.000070  0.732928  0.499614  1
  Pd  Pd14  1  0.499614  0.732928  0.000070  1
  Pd  Pd15  1  0.498708  0.002611  0.267003  1
  Pd  Pd16  1  0.267003  0.002611  0.498708  1
  Pd  Pd17  1  0.499614  0.000070  0.732928  1
  Pd  Pd18  1  0.732928  0.000070  0.499614  1
  Pd  Pd19  1  0.002611  0.498708  0.267003  1
  Pd  Pd20  1  0.000070  0.499614  0.732928  1
  Pd  Pd21  1  0.255193  0.498381  0.498381  1
  Pd  Pd22  1  0.745440  0.499731  0.499731  1
  Pd  Pd23  1  0.498381  0.255193  0.498381  1
  Pd  Pd24  1  0.499731  0.745440  0.499731  1
  Pd  Pd25  1  0.498381  0.498381  0.255193  1
  Pd  Pd26  1  0.499731  0.499731  0.745440  1
  Pd  Pd27  1  0.314224  0.001127  0.001127  1
  Pd  Pd28  1  0.684503  0.999872  0.999872  1
  Pd  Pd29  1  0.001127  0.314224  0.001127  1
  Pd  Pd30  1  0.999872  0.684503  0.999872  1
  Pd  Pd31  1  0.001127  0.001127  0.314224  1
  Pd  Pd32  1  0.999872  0.999872  0.684503  1
