# generated using pymatgen
data_Er3BiBRh6
_symmetry_space_group_name_H-M   'P 1'
_cell_length_a   5.84005100
_cell_length_b   5.84005079
_cell_length_c   13.87251300
_cell_angle_alpha   90.00000000
_cell_angle_beta   90.00000000
_cell_angle_gamma   120.00000683
_symmetry_Int_Tables_number   1
_chemical_formula_structural   Er3BiBRh6
_chemical_formula_sum   'Er6 Bi2 B2 Rh12'
_cell_volume   409.75004177
_cell_formula_units_Z   2
loop_
 _symmetry_equiv_pos_site_id
 _symmetry_equiv_pos_as_xyz
  1  'x, y, z'
loop_
 _atom_site_type_symbol
 _atom_site_label
 _atom_site_symmetry_multiplicity
 _atom_site_fract_x
 _atom_site_fract_y
 _atom_site_fract_z
 _atom_site_occupancy
  Er  Er0  1  0.000000  0.000000  0.750000  1
  Er  Er1  1  0.000000  0.000000  0.250000  1
  Er  Er2  1  0.333333  0.666667  0.414639  1
  Er  Er3  1  0.666667  0.333333  0.914639  1
  Er  Er4  1  0.666667  0.333333  0.585361  1
  Er  Er5  1  0.333333  0.666667  0.085361  1
  Bi  Bi6  1  0.333333  0.666667  0.750000  1
  Bi  Bi7  1  0.666667  0.333333  0.250000  1
  B  B8  1  0.000000  0.000000  0.500000  1
  B  B9  1  0.000000  0.000000  0.000000  1
  Rh  Rh10  1  0.341433  0.170717  0.413657  1
  Rh  Rh11  1  0.829283  0.170717  0.413657  1
  Rh  Rh12  1  0.829283  0.658567  0.413657  1
  Rh  Rh13  1  0.170717  0.341433  0.913657  1
  Rh  Rh14  1  0.658567  0.829283  0.586343  1
  Rh  Rh15  1  0.658567  0.829283  0.913657  1
  Rh  Rh16  1  0.341433  0.170717  0.086343  1
  Rh  Rh17  1  0.170717  0.341433  0.586343  1
  Rh  Rh18  1  0.170717  0.829283  0.586343  1
  Rh  Rh19  1  0.829283  0.170717  0.086343  1
  Rh  Rh20  1  0.829283  0.658567  0.086343  1
  Rh  Rh21  1  0.170717  0.829283  0.913657  1
