# generated using pymatgen
data_Zr16Ni3Ir4RhN4
_symmetry_space_group_name_H-M   'P 1'
_cell_length_a   8.74229537
_cell_length_b   8.77757111
_cell_length_c   8.77757000
_cell_angle_alpha   59.99999664
_cell_angle_beta   59.86642770
_cell_angle_gamma   59.86643293
_symmetry_Int_Tables_number   1
_chemical_formula_structural   Zr16Ni3Ir4RhN4
_chemical_formula_sum   'Zr16 Ni3 Ir4 Rh1 N4'
_cell_volume   475.31264552
_cell_formula_units_Z   1
loop_
 _symmetry_equiv_pos_site_id
 _symmetry_equiv_pos_as_xyz
  1  'x, y, z'
loop_
 _atom_site_type_symbol
 _atom_site_label
 _atom_site_symmetry_multiplicity
 _atom_site_fract_x
 _atom_site_fract_y
 _atom_site_fract_z
 _atom_site_occupancy
  Zr  Zr0  1  0.082037  0.639321  0.639321  1
  Zr  Zr1  1  0.638893  0.099876  0.630616  1
  Zr  Zr2  1  0.638893  0.630616  0.099876  1
  Zr  Zr3  1  0.638893  0.630616  0.630616  1
  Zr  Zr4  1  0.815311  0.815324  0.184683  1
  Zr  Zr5  1  0.186582  0.188382  0.812518  1
  Zr  Zr6  1  0.815311  0.184683  0.815324  1
  Zr  Zr7  1  0.186582  0.812518  0.188382  1
  Zr  Zr8  1  0.186582  0.812518  0.812518  1
  Zr  Zr9  1  0.815311  0.184683  0.184683  1
  Zr  Zr10  1  0.434897  0.433377  0.065862  1
  Zr  Zr11  1  0.070453  0.065229  0.432158  1
  Zr  Zr12  1  0.434897  0.065862  0.433377  1
  Zr  Zr13  1  0.070453  0.432158  0.065229  1
  Zr  Zr14  1  0.070453  0.432158  0.432158  1
  Zr  Zr15  1  0.434897  0.065862  0.065862  1
  Ni  Ni16  1  0.844776  0.449189  0.853018  1
  Ni  Ni17  1  0.844776  0.853018  0.449189  1
  Ni  Ni18  1  0.844776  0.853018  0.853018  1
  Ir  Ir19  1  0.411179  0.752109  0.418355  1
  Ir  Ir20  1  0.411179  0.418355  0.752109  1
  Ir  Ir21  1  0.411179  0.418355  0.418355  1
  Ir  Ir22  1  0.460232  0.846590  0.846590  1
  Rh  Rh23  1  0.753656  0.415448  0.415448  1
  N  N24  1  0.623030  0.125657  0.125657  1
  N  N25  1  0.124923  0.624593  0.125242  1
  N  N26  1  0.124923  0.125242  0.624593  1
  N  N27  1  0.124923  0.125242  0.125242  1
