# generated using pymatgen
data_RbAsH2
_symmetry_space_group_name_H-M   'P 1'
_cell_length_a   4.79844908
_cell_length_b   4.68360482
_cell_length_c   5.69257011
_cell_angle_alpha   116.23781023
_cell_angle_beta   90.00385674
_cell_angle_gamma   116.31683144
_symmetry_Int_Tables_number   1
_chemical_formula_structural   RbAsH2
_chemical_formula_sum   'Rb1 As1 H2'
_cell_volume   99.75468607
_cell_formula_units_Z   1
loop_
 _symmetry_equiv_pos_site_id
 _symmetry_equiv_pos_as_xyz
  1  'x, y, z'
loop_
 _atom_site_type_symbol
 _atom_site_label
 _atom_site_symmetry_multiplicity
 _atom_site_fract_x
 _atom_site_fract_y
 _atom_site_fract_z
 _atom_site_occupancy
  Rb  Rb0  1  0.964482  0.529292  0.220975  1
  As  As1  1  0.493421  0.556917  0.717080  1
  H  H2  1  0.226079  0.660074  0.777772  1
  H  H3  1  0.300963  0.216889  0.750899  1
