# generated using pymatgen
data_UAsPBr13
_symmetry_space_group_name_H-M   'P 1'
_cell_length_a   10.66631585
_cell_length_b   10.66631579
_cell_length_c   13.17172000
_cell_angle_alpha   90.00000000
_cell_angle_beta   90.00000000
_cell_angle_gamma   112.15591452
_symmetry_Int_Tables_number   1
_chemical_formula_structural   UAsPBr13
_chemical_formula_sum   'U2 As2 P2 Br26'
_cell_volume   1387.89903295
_cell_formula_units_Z   2
loop_
 _symmetry_equiv_pos_site_id
 _symmetry_equiv_pos_as_xyz
  1  'x, y, z'
loop_
 _atom_site_type_symbol
 _atom_site_label
 _atom_site_symmetry_multiplicity
 _atom_site_fract_x
 _atom_site_fract_y
 _atom_site_fract_z
 _atom_site_occupancy
  U  U0  1  0.790683  0.209317  0.000211  1
  U  U1  1  0.209317  0.790683  0.500211  1
  As  As2  1  0.440878  0.559122  0.346337  1
  As  As3  1  0.559122  0.440878  0.846337  1
  P  P4  1  0.146314  0.853686  0.033621  1
  P  P5  1  0.853686  0.146314  0.533621  1
  Br  Br6  1  0.307605  0.011124  0.620387  1
  Br  Br7  1  0.851965  0.148035  0.369794  1
  Br  Br8  1  0.627280  0.679066  0.867306  1
  Br  Br9  1  0.148035  0.851965  0.869794  1
  Br  Br10  1  0.940036  0.765385  0.086728  1
  Br  Br11  1  0.679066  0.627280  0.367306  1
  Br  Br12  1  0.738993  0.261007  0.591623  1
  Br  Br13  1  0.234615  0.059964  0.086728  1
  Br  Br14  1  0.692395  0.988876  0.120387  1
  Br  Br15  1  0.261007  0.738993  0.091623  1
  Br  Br16  1  0.059964  0.234615  0.586728  1
  Br  Br17  1  0.111404  0.568416  0.379726  1
  Br  Br18  1  0.988876  0.692395  0.620387  1
  Br  Br19  1  0.011124  0.307605  0.120387  1
  Br  Br20  1  0.084357  0.915643  0.383082  1
  Br  Br21  1  0.888596  0.431584  0.879726  1
  Br  Br22  1  0.568416  0.111404  0.879726  1
  Br  Br23  1  0.431584  0.888596  0.379726  1
  Br  Br24  1  0.320934  0.372720  0.867306  1
  Br  Br25  1  0.372720  0.320934  0.367306  1
  Br  Br26  1  0.915643  0.084357  0.883082  1
  Br  Br27  1  0.566791  0.433209  0.663013  1
  Br  Br28  1  0.336093  0.663907  0.613325  1
  Br  Br29  1  0.663907  0.336093  0.113325  1
  Br  Br30  1  0.765385  0.940036  0.586728  1
  Br  Br31  1  0.433209  0.566791  0.163013  1
