# generated using pymatgen
data_K2Hf(CuTe2)2
_symmetry_space_group_name_H-M   'P 1'
_cell_length_a   7.96007683
_cell_length_b   7.96007759
_cell_length_c   6.18872200
_cell_angle_alpha   90.00000000
_cell_angle_beta   90.00000000
_cell_angle_gamma   134.21321417
_symmetry_Int_Tables_number   1
_chemical_formula_structural   K2Hf(CuTe2)2
_chemical_formula_sum   'K2 Hf1 Cu2 Te4'
_cell_volume   281.06263648
_cell_formula_units_Z   1
loop_
 _symmetry_equiv_pos_site_id
 _symmetry_equiv_pos_as_xyz
  1  'x, y, z'
loop_
 _atom_site_type_symbol
 _atom_site_label
 _atom_site_symmetry_multiplicity
 _atom_site_fract_x
 _atom_site_fract_y
 _atom_site_fract_z
 _atom_site_occupancy
  K  K0  1  0.500000  0.000000  0.245166  1
  K  K1  1  0.000000  0.500000  0.754834  1
  Hf  Hf2  1  0.000000  0.000000  0.000000  1
  Cu  Cu3  1  0.000000  0.000000  0.500000  1
  Cu  Cu4  1  0.500000  0.500000  0.000000  1
  Te  Te5  1  0.849217  0.638177  0.256492  1
  Te  Te6  1  0.150783  0.361823  0.256492  1
  Te  Te7  1  0.638177  0.849217  0.743508  1
  Te  Te8  1  0.361823  0.150783  0.743508  1
