# generated using pymatgen
data_Nb4Tc24Sn
_symmetry_space_group_name_H-M   'P 1'
_cell_length_a   8.35526580
_cell_length_b   8.35526559
_cell_length_c   8.35526600
_cell_angle_alpha   109.47122406
_cell_angle_beta   109.47122354
_cell_angle_gamma   109.47122510
_symmetry_Int_Tables_number   1
_chemical_formula_structural   Nb4Tc24Sn
_chemical_formula_sum   'Nb4 Tc24 Sn1'
_cell_volume   449.01294503
_cell_formula_units_Z   1
loop_
 _symmetry_equiv_pos_site_id
 _symmetry_equiv_pos_as_xyz
  1  'x, y, z'
loop_
 _atom_site_type_symbol
 _atom_site_label
 _atom_site_symmetry_multiplicity
 _atom_site_fract_x
 _atom_site_fract_y
 _atom_site_fract_z
 _atom_site_occupancy
  Nb  Nb0  1  0.629302  0.000000  0.000000  1
  Nb  Nb1  1  0.000000  0.629302  0.000000  1
  Nb  Nb2  1  0.000000  0.000000  0.629302  1
  Nb  Nb3  1  0.370698  0.370698  0.370698  1
  Tc  Tc4  1  0.392907  0.677647  0.000000  1
  Tc  Tc5  1  0.715261  0.322353  0.322353  1
  Tc  Tc6  1  0.392907  0.000000  0.677647  1
  Tc  Tc7  1  0.677647  0.392907  0.000000  1
  Tc  Tc8  1  0.000000  0.392907  0.677647  1
  Tc  Tc9  1  0.322353  0.715261  0.322353  1
  Tc  Tc10  1  0.322353  0.322353  0.715261  1
  Tc  Tc11  1  0.000000  0.677647  0.392907  1
  Tc  Tc12  1  0.677647  0.000000  0.392907  1
  Tc  Tc13  1  0.607093  0.607093  0.284739  1
  Tc  Tc14  1  0.284739  0.607093  0.607093  1
  Tc  Tc15  1  0.607093  0.284739  0.607093  1
  Tc  Tc16  1  0.375778  0.195469  0.000000  1
  Tc  Tc17  1  0.180307  0.804531  0.804531  1
  Tc  Tc18  1  0.375778  0.000000  0.195469  1
  Tc  Tc19  1  0.195469  0.375778  0.000000  1
  Tc  Tc20  1  0.000000  0.375778  0.195469  1
  Tc  Tc21  1  0.804531  0.180307  0.804531  1
  Tc  Tc22  1  0.804531  0.804531  0.180307  1
  Tc  Tc23  1  0.000000  0.195469  0.375778  1
  Tc  Tc24  1  0.195469  0.000000  0.375778  1
  Tc  Tc25  1  0.624222  0.624222  0.819693  1
  Tc  Tc26  1  0.819693  0.624222  0.624222  1
  Tc  Tc27  1  0.624222  0.819693  0.624222  1
  Sn  Sn28  1  0.000000  0.000000  0.000000  1
