# generated using pymatgen
data_ErTm3Co8(PRu)12
_symmetry_space_group_name_H-M   'P 1'
_cell_length_a   3.77790000
_cell_length_b   10.59454800
_cell_length_c   12.07078300
_cell_angle_alpha   89.99703724
_cell_angle_beta   90.00000000
_cell_angle_gamma   90.00000000
_symmetry_Int_Tables_number   1
_chemical_formula_structural   ErTm3Co8(PRu)12
_chemical_formula_sum   'Er1 Tm3 Co8 P12 Ru12'
_cell_volume   483.13481404
_cell_formula_units_Z   1
loop_
 _symmetry_equiv_pos_site_id
 _symmetry_equiv_pos_as_xyz
  1  'x, y, z'
loop_
 _atom_site_type_symbol
 _atom_site_label
 _atom_site_symmetry_multiplicity
 _atom_site_fract_x
 _atom_site_fract_y
 _atom_site_fract_z
 _atom_site_occupancy
  Er  Er0  1  0.250000  0.584386  0.706624  1
  Tm  Tm1  1  0.250000  0.915513  0.206531  1
  Tm  Tm2  1  0.750000  0.415448  0.293487  1
  Tm  Tm3  1  0.750000  0.084516  0.793450  1
  Co  Co4  1  0.250000  0.888437  0.696101  1
  Co  Co5  1  0.250000  0.611640  0.196205  1
  Co  Co6  1  0.750000  0.111684  0.303815  1
  Co  Co7  1  0.750000  0.388104  0.804118  1
  Co  Co8  1  0.250000  0.462712  0.935050  1
  Co  Co9  1  0.250000  0.037172  0.434757  1
  Co  Co10  1  0.750000  0.537172  0.065377  1
  Co  Co11  1  0.750000  0.962979  0.565109  1
  P  P12  1  0.250000  0.425646  0.113616  1
  P  P13  1  0.250000  0.074359  0.613476  1
  P  P14  1  0.750000  0.574408  0.886829  1
  P  P15  1  0.750000  0.925742  0.386425  1
  P  P16  1  0.250000  0.270903  0.871644  1
  P  P17  1  0.250000  0.229084  0.371583  1
  P  P18  1  0.750000  0.729161  0.128352  1
  P  P19  1  0.750000  0.771106  0.628208  1
  P  P20  1  0.250000  0.600251  0.386235  1
  P  P21  1  0.250000  0.899724  0.886230  1
  P  P22  1  0.750000  0.399481  0.613584  1
  P  P23  1  0.750000  0.100287  0.113768  1
  Ru  Ru24  1  0.250000  0.706379  0.986217  1
  Ru  Ru25  1  0.250000  0.793631  0.486112  1
  Ru  Ru26  1  0.750000  0.293533  0.013910  1
  Ru  Ru27  1  0.750000  0.206327  0.513721  1
  Ru  Ru28  1  0.250000  0.405547  0.485180  1
  Ru  Ru29  1  0.250000  0.094353  0.985245  1
  Ru  Ru30  1  0.750000  0.594404  0.514295  1
  Ru  Ru31  1  0.750000  0.905692  0.014783  1
  Ru  Ru32  1  0.250000  0.224089  0.181144  1
  Ru  Ru33  1  0.250000  0.275688  0.681028  1
  Ru  Ru34  1  0.750000  0.776112  0.819029  1
  Ru  Ru35  1  0.750000  0.724330  0.318760  1
