# generated using pymatgen
data_Zr6Ga6Pd3Ru2Pt
_symmetry_space_group_name_H-M   'P 1'
_cell_length_a   7.36529000
_cell_length_b   7.36528929
_cell_length_c   6.75690600
_cell_angle_alpha   90.00000000
_cell_angle_beta   90.00000000
_cell_angle_gamma   119.99999422
_symmetry_Int_Tables_number   1
_chemical_formula_structural   Zr6Ga6Pd3Ru2Pt
_chemical_formula_sum   'Zr6 Ga6 Pd3 Ru2 Pt1'
_cell_volume   317.43747420
_cell_formula_units_Z   1
loop_
 _symmetry_equiv_pos_site_id
 _symmetry_equiv_pos_as_xyz
  1  'x, y, z'
loop_
 _atom_site_type_symbol
 _atom_site_label
 _atom_site_symmetry_multiplicity
 _atom_site_fract_x
 _atom_site_fract_y
 _atom_site_fract_z
 _atom_site_occupancy
  Zr  Zr0  1  0.402214  0.391408  0.750470  1
  Zr  Zr1  1  0.989194  0.597786  0.750470  1
  Zr  Zr2  1  0.608592  0.010806  0.750470  1
  Zr  Zr3  1  0.611077  0.013131  0.249554  1
  Zr  Zr4  1  0.986869  0.597946  0.249554  1
  Zr  Zr5  1  0.402054  0.388923  0.249554  1
  Ga  Ga6  1  0.273076  0.000072  0.000013  1
  Ga  Ga7  1  0.726996  0.726924  0.000013  1
  Ga  Ga8  1  0.999928  0.273004  0.000013  1
  Ga  Ga9  1  0.726179  0.727128  0.500078  1
  Ga  Ga10  1  0.272872  0.999051  0.500078  1
  Ga  Ga11  1  0.000949  0.273821  0.500078  1
  Pd  Pd12  1  0.000000  0.000000  0.750379  1
  Pd  Pd13  1  0.333333  0.666667  0.496811  1
  Pd  Pd14  1  0.000000  0.000000  0.249665  1
  Ru  Ru15  1  0.666667  0.333333  0.999191  1
  Ru  Ru16  1  0.666667  0.333333  0.500671  1
  Pt  Pt17  1  0.333333  0.666667  0.002935  1
