# generated using pymatgen
data_NaPa2F9
_symmetry_space_group_name_H-M   'P 1'
_cell_length_a   6.87107973
_cell_length_b   6.87406966
_cell_length_c   8.79249574
_cell_angle_alpha   78.57919162
_cell_angle_beta   78.64089152
_cell_angle_gamma   62.27524199
_symmetry_Int_Tables_number   1
_chemical_formula_structural   NaPa2F9
_chemical_formula_sum   'Na2 Pa4 F18'
_cell_volume   357.69245865
_cell_formula_units_Z   2
loop_
 _symmetry_equiv_pos_site_id
 _symmetry_equiv_pos_as_xyz
  1  'x, y, z'
loop_
 _atom_site_type_symbol
 _atom_site_label
 _atom_site_symmetry_multiplicity
 _atom_site_fract_x
 _atom_site_fract_y
 _atom_site_fract_z
 _atom_site_occupancy
  Na  Na0  1  0.581062  0.375771  0.402513  1
  Na  Na1  1  0.375620  0.581025  0.902719  1
  Pa  Pa2  1  0.892047  0.706582  0.312208  1
  Pa  Pa3  1  0.292435  0.105982  0.189930  1
  Pa  Pa4  1  0.106172  0.292900  0.690047  1
  Pa  Pa5  1  0.706792  0.892097  0.812519  1
  F  F6  1  0.077956  0.921717  0.250314  1
  F  F7  1  0.921785  0.077771  0.750294  1
  F  F8  1  0.919863  0.377373  0.241946  1
  F  F9  1  0.615675  0.084190  0.268234  1
  F  F10  1  0.083843  0.615957  0.768421  1
  F  F11  1  0.377634  0.919717  0.741977  1
  F  F12  1  0.183274  0.524434  0.468907  1
  F  F13  1  0.469086  0.819761  0.026994  1
  F  F14  1  0.820221  0.468549  0.526979  1
  F  F15  1  0.524169  0.183543  0.968872  1
  F  F16  1  0.874704  0.786163  0.044689  1
  F  F17  1  0.219169  0.127272  0.454810  1
  F  F18  1  0.127578  0.219032  0.954856  1
  F  F19  1  0.785854  0.874943  0.544790  1
  F  F20  1  0.533703  0.750398  0.318633  1
  F  F21  1  0.244583  0.472687  0.171863  1
  F  F22  1  0.472758  0.244951  0.671636  1
  F  F23  1  0.750615  0.533786  0.818245  1
