# generated using pymatgen
data_Sr3NbP3O
_symmetry_space_group_name_H-M   'P 1'
_cell_length_a   6.32597800
_cell_length_b   10.55417400
_cell_length_c   12.79829500
_cell_angle_alpha   90.00000000
_cell_angle_beta   90.00000000
_cell_angle_gamma   90.00000000
_symmetry_Int_Tables_number   1
_chemical_formula_structural   Sr3NbP3O
_chemical_formula_sum   'Sr12 Nb4 P12 O4'
_cell_volume   854.48421328
_cell_formula_units_Z   4
loop_
 _symmetry_equiv_pos_site_id
 _symmetry_equiv_pos_as_xyz
  1  'x, y, z'
loop_
 _atom_site_type_symbol
 _atom_site_label
 _atom_site_symmetry_multiplicity
 _atom_site_fract_x
 _atom_site_fract_y
 _atom_site_fract_z
 _atom_site_occupancy
  Sr  Sr0  1  0.247834  0.041354  0.629447  1
  Sr  Sr1  1  0.747834  0.458646  0.870553  1
  Sr  Sr2  1  0.752166  0.541354  0.370553  1
  Sr  Sr3  1  0.252166  0.958646  0.129447  1
  Sr  Sr4  1  0.247834  0.458646  0.629447  1
  Sr  Sr5  1  0.752166  0.958646  0.370553  1
  Sr  Sr6  1  0.768545  0.250000  0.130468  1
  Sr  Sr7  1  0.268545  0.250000  0.369532  1
  Sr  Sr8  1  0.231455  0.750000  0.869532  1
  Sr  Sr9  1  0.731455  0.750000  0.630468  1
  Sr  Sr10  1  0.252166  0.541354  0.129447  1
  Sr  Sr11  1  0.747834  0.041354  0.870553  1
  Nb  Nb12  1  0.336454  0.250000  0.950859  1
  Nb  Nb13  1  0.836454  0.250000  0.549141  1
  Nb  Nb14  1  0.663546  0.750000  0.049141  1
  Nb  Nb15  1  0.163546  0.750000  0.450859  1
  P  P16  1  0.236325  0.750000  0.633713  1
  P  P17  1  0.736325  0.750000  0.866287  1
  P  P18  1  0.763675  0.250000  0.366287  1
  P  P19  1  0.263675  0.250000  0.133713  1
  P  P20  1  0.236693  0.449776  0.877316  1
  P  P21  1  0.736693  0.050224  0.622684  1
  P  P22  1  0.236693  0.050224  0.877316  1
  P  P23  1  0.736693  0.449776  0.622684  1
  P  P24  1  0.763307  0.550224  0.122684  1
  P  P25  1  0.263307  0.550224  0.377316  1
  P  P26  1  0.263307  0.949776  0.377316  1
  P  P27  1  0.763307  0.949776  0.122684  1
  O  O28  1  0.639353  0.250000  0.945057  1
  O  O29  1  0.139353  0.250000  0.554943  1
  O  O30  1  0.360647  0.750000  0.054943  1
  O  O31  1  0.860647  0.750000  0.445057  1
