# generated using pymatgen
data_Li2Tb3Ce(AgAs4)2
_symmetry_space_group_name_H-M   'P 1'
_cell_length_a   3.96350709
_cell_length_b   3.96499102
_cell_length_c   20.80979211
_cell_angle_alpha   90.01156068
_cell_angle_beta   90.00435705
_cell_angle_gamma   89.98859397
_symmetry_Int_Tables_number   1
_chemical_formula_structural   Li2Tb3Ce(AgAs4)2
_chemical_formula_sum   'Li2 Tb3 Ce1 Ag2 As8'
_cell_volume   327.03148792
_cell_formula_units_Z   1
loop_
 _symmetry_equiv_pos_site_id
 _symmetry_equiv_pos_as_xyz
  1  'x, y, z'
loop_
 _atom_site_type_symbol
 _atom_site_label
 _atom_site_symmetry_multiplicity
 _atom_site_fract_x
 _atom_site_fract_y
 _atom_site_fract_z
 _atom_site_occupancy
  Li  Li0  1  0.243502  0.743712  0.748154  1
  Li  Li1  1  0.256481  0.756492  0.249896  1
  Tb  Tb2  1  0.254035  0.254597  0.386017  1
  Tb  Tb3  1  0.745571  0.746081  0.612726  1
  Tb  Tb4  1  0.754548  0.753899  0.113875  1
  Ce  Ce5  1  0.246322  0.245867  0.888224  1
  Ag  Ag6  1  0.756365  0.256351  0.249854  1
  Ag  Ag7  1  0.743773  0.243816  0.749496  1
  As  As8  1  0.745798  0.745143  0.838109  1
  As  As9  1  0.255200  0.254546  0.161701  1
  As  As10  1  0.244874  0.245352  0.662522  1
  As  As11  1  0.754564  0.755183  0.338155  1
  As  As12  1  0.251576  0.747735  0.000617  1
  As  As13  1  0.247717  0.752148  0.500002  1
  As  As14  1  0.747736  0.251173  0.000507  1
  As  As15  1  0.751936  0.247906  0.500146  1
