# generated using pymatgen
data_CaYLu3Co19(Si3P)3
_symmetry_space_group_name_H-M   'P 1'
_cell_length_a   12.09563500
_cell_length_b   12.09563546
_cell_length_c   3.68473100
_cell_angle_alpha   90.00000000
_cell_angle_beta   90.00000000
_cell_angle_gamma   119.99999602
_symmetry_Int_Tables_number   1
_chemical_formula_structural   CaYLu3Co19(Si3P)3
_chemical_formula_sum   'Ca1 Y1 Lu3 Co19 Si9 P3'
_cell_volume   466.86766894
_cell_formula_units_Z   1
loop_
 _symmetry_equiv_pos_site_id
 _symmetry_equiv_pos_as_xyz
  1  'x, y, z'
loop_
 _atom_site_type_symbol
 _atom_site_label
 _atom_site_symmetry_multiplicity
 _atom_site_fract_x
 _atom_site_fract_y
 _atom_site_fract_z
 _atom_site_occupancy
  Ca  Ca0  1  0.333333  0.666667  0.500000  1
  Y  Y1  1  0.666667  0.333333  0.500000  1
  Lu  Lu2  1  0.999883  0.183746  0.000000  1
  Lu  Lu3  1  0.816254  0.816137  0.000000  1
  Lu  Lu4  1  0.183863  0.000117  0.000000  1
  Co  Co5  1  0.629200  0.824838  0.500000  1
  Co  Co6  1  0.175162  0.804363  0.500000  1
  Co  Co7  1  0.195637  0.370800  0.500000  1
  Co  Co8  1  0.370922  0.195589  0.500000  1
  Co  Co9  1  0.824667  0.629078  0.500000  1
  Co  Co10  1  0.804411  0.175333  0.500000  1
  Co  Co11  1  0.999494  0.557724  0.500000  1
  Co  Co12  1  0.442276  0.441770  0.500000  1
  Co  Co13  1  0.558230  0.000506  0.500000  1
  Co  Co14  1  0.523951  0.646161  0.000000  1
  Co  Co15  1  0.353839  0.877789  0.000000  1
  Co  Co16  1  0.122211  0.476049  0.000000  1
  Co  Co17  1  0.477956  0.123637  0.000000  1
  Co  Co18  1  0.645680  0.522044  0.000000  1
  Co  Co19  1  0.876363  0.354320  0.000000  1
  Co  Co20  1  0.000080  0.724236  0.000000  1
  Co  Co21  1  0.275764  0.275843  0.000000  1
  Co  Co22  1  0.724157  0.999920  0.000000  1
  Co  Co23  1  0.000000  0.000000  0.500000  1
  Si  Si24  1  0.000233  0.369005  0.500000  1
  Si  Si25  1  0.630995  0.631227  0.500000  1
  Si  Si26  1  0.368773  0.999767  0.500000  1
  Si  Si27  1  0.522236  0.841495  0.000000  1
  Si  Si28  1  0.158505  0.680741  0.000000  1
  Si  Si29  1  0.319259  0.477764  0.000000  1
  Si  Si30  1  0.477130  0.318836  0.000000  1
  Si  Si31  1  0.841707  0.522870  0.000000  1
  Si  Si32  1  0.681164  0.158293  0.000000  1
  P  P33  1  0.000040  0.820578  0.500000  1
  P  P34  1  0.179422  0.179461  0.500000  1
  P  P35  1  0.820539  0.999960  0.500000  1
