# generated using pymatgen
data_Th10AgSn7
_symmetry_space_group_name_H-M   'P 1'
_cell_length_a   9.63668100
_cell_length_b   9.63667977
_cell_length_c   6.61593000
_cell_angle_alpha   90.00000000
_cell_angle_beta   90.00000000
_cell_angle_gamma   119.99999392
_symmetry_Int_Tables_number   1
_chemical_formula_structural   Th10AgSn7
_chemical_formula_sum   'Th10 Ag1 Sn7'
_cell_volume   532.07943074
_cell_formula_units_Z   1
loop_
 _symmetry_equiv_pos_site_id
 _symmetry_equiv_pos_as_xyz
  1  'x, y, z'
loop_
 _atom_site_type_symbol
 _atom_site_label
 _atom_site_symmetry_multiplicity
 _atom_site_fract_x
 _atom_site_fract_y
 _atom_site_fract_z
 _atom_site_occupancy
  Th  Th0  1  0.333333  0.666667  0.000000  1
  Th  Th1  1  0.666667  0.333333  0.500000  1
  Th  Th2  1  0.666667  0.333333  0.000000  1
  Th  Th3  1  0.333333  0.666667  0.500000  1
  Th  Th4  1  0.277678  0.000000  0.251388  1
  Th  Th5  1  0.277678  0.277678  0.748612  1
  Th  Th6  1  0.000000  0.722322  0.748612  1
  Th  Th7  1  0.000000  0.277678  0.251388  1
  Th  Th8  1  0.722322  0.722322  0.251388  1
  Th  Th9  1  0.722322  0.000000  0.748612  1
  Ag  Ag10  1  0.000000  0.000000  0.000000  1
  Sn  Sn11  1  0.000000  0.000000  0.500000  1
  Sn  Sn12  1  0.621692  0.000000  0.249022  1
  Sn  Sn13  1  0.621692  0.621692  0.750978  1
  Sn  Sn14  1  0.000000  0.378308  0.750978  1
  Sn  Sn15  1  0.000000  0.621692  0.249022  1
  Sn  Sn16  1  0.378308  0.378308  0.249022  1
  Sn  Sn17  1  0.378308  0.000000  0.750978  1
