# generated using pymatgen
data_Zr12Al8CuOs3C4
_symmetry_space_group_name_H-M   'P 1'
_cell_length_a   8.67647186
_cell_length_b   8.65897955
_cell_length_c   8.67647300
_cell_angle_alpha   59.93315138
_cell_angle_beta   59.99999945
_cell_angle_gamma   59.93314936
_symmetry_Int_Tables_number   1
_chemical_formula_structural   Zr12Al8CuOs3C4
_chemical_formula_sum   'Zr12 Al8 Cu1 Os3 C4'
_cell_volume   460.46702126
_cell_formula_units_Z   1
loop_
 _symmetry_equiv_pos_site_id
 _symmetry_equiv_pos_as_xyz
  1  'x, y, z'
loop_
 _atom_site_type_symbol
 _atom_site_label
 _atom_site_symmetry_multiplicity
 _atom_site_fract_x
 _atom_site_fract_y
 _atom_site_fract_z
 _atom_site_occupancy
  Zr  Zr0  1  0.553030  0.946508  0.553030  1
  Zr  Zr1  1  0.303912  0.699772  0.692405  1
  Zr  Zr2  1  0.696970  0.303492  0.302569  1
  Zr  Zr3  1  0.303912  0.699772  0.303912  1
  Zr  Zr4  1  0.692405  0.699772  0.303912  1
  Zr  Zr5  1  0.302569  0.303492  0.696970  1
  Zr  Zr6  1  0.557595  0.550228  0.946088  1
  Zr  Zr7  1  0.946088  0.550228  0.557595  1
  Zr  Zr8  1  0.553030  0.946508  0.947431  1
  Zr  Zr9  1  0.947431  0.946508  0.553030  1
  Zr  Zr10  1  0.696970  0.303492  0.696970  1
  Zr  Zr11  1  0.946088  0.550228  0.946088  1
  Al  Al12  1  0.918027  0.922483  0.918027  1
  Al  Al13  1  0.008537  0.327517  0.331973  1
  Al  Al14  1  0.329887  0.010340  0.329887  1
  Al  Al15  1  0.331973  0.327517  0.008537  1
  Al  Al16  1  0.920113  0.239660  0.920113  1
  Al  Al17  1  0.918027  0.922483  0.241463  1
  Al  Al18  1  0.241463  0.922483  0.918027  1
  Al  Al19  1  0.331973  0.327517  0.331973  1
  Cu  Cu20  1  0.125000  0.625000  0.125000  1
  Os  Os21  1  0.125000  0.125000  0.125000  1
  Os  Os22  1  0.625000  0.125000  0.125000  1
  Os  Os23  1  0.125000  0.125000  0.625000  1
  C  C24  1  0.625000  0.625000  0.625000  1
  C  C25  1  0.125000  0.625000  0.625000  1
  C  C26  1  0.625000  0.125000  0.625000  1
  C  C27  1  0.625000  0.625000  0.125000  1
