# generated using pymatgen
data_GdBi3Ru4F28
_symmetry_space_group_name_H-M   'P 1'
_cell_length_a   5.66446129
_cell_length_b   9.27225358
_cell_length_c   12.21244900
_cell_angle_alpha   61.88644875
_cell_angle_beta   89.81892175
_cell_angle_gamma   90.01718597
_symmetry_Int_Tables_number   1
_chemical_formula_structural   GdBi3Ru4F28
_chemical_formula_sum   'Gd1 Bi3 Ru4 F28'
_cell_volume   565.74379851
_cell_formula_units_Z   1
loop_
 _symmetry_equiv_pos_site_id
 _symmetry_equiv_pos_as_xyz
  1  'x, y, z'
loop_
 _atom_site_type_symbol
 _atom_site_label
 _atom_site_symmetry_multiplicity
 _atom_site_fract_x
 _atom_site_fract_y
 _atom_site_fract_z
 _atom_site_occupancy
  Gd  Gd0  1  0.740394  0.801071  0.268815  1
  Bi  Bi1  1  0.762563  0.818688  0.760020  1
  Bi  Bi2  1  0.268193  0.182918  0.740127  1
  Bi  Bi3  1  0.234518  0.176940  0.233345  1
  Ru  Ru4  1  0.757984  0.269235  0.958265  1
  Ru  Ru5  1  0.255649  0.727601  0.542541  1
  Ru  Ru6  1  0.242663  0.728636  0.042888  1
  Ru  Ru7  1  0.742076  0.274881  0.457052  1
  F  F8  1  0.439024  0.711081  0.917172  1
  F  F9  1  0.932243  0.295039  0.577387  1
  F  F10  1  0.566729  0.286558  0.087020  1
  F  F11  1  0.059193  0.711653  0.415047  1
  F  F12  1  0.449225  0.283780  0.544545  1
  F  F13  1  0.952512  0.721355  0.955133  1
  F  F14  1  0.547366  0.721981  0.453908  1
  F  F15  1  0.056529  0.276203  0.042448  1
  F  F16  1  0.768683  0.500847  0.865133  1
  F  F17  1  0.265129  0.496056  0.636457  1
  F  F18  1  0.236540  0.497922  0.135572  1
  F  F19  1  0.732834  0.516011  0.359186  1
  F  F20  1  0.758876  0.035967  0.050397  1
  F  F21  1  0.257615  0.962611  0.450635  1
  F  F22  1  0.240026  0.965877  0.949953  1
  F  F23  1  0.743509  0.032560  0.553281  1
  F  F24  1  0.968069  0.731206  0.632776  1
  F  F25  1  0.468597  0.266350  0.869715  1
  F  F26  1  0.023418  0.269158  0.364133  1
  F  F27  1  0.523566  0.737742  0.135490  1
  F  F28  1  0.045791  0.750590  0.168365  1
  F  F29  1  0.552537  0.255902  0.335368  1
  F  F30  1  0.944421  0.252318  0.826847  1
  F  F31  1  0.445252  0.745122  0.671919  1
  F  F32  1  0.412562  0.968262  0.229951  1
  F  F33  1  0.915470  0.022804  0.267888  1
  F  F34  1  0.596558  0.030257  0.773782  1
  F  F35  1  0.093681  0.974818  0.727437  1
