# generated using pymatgen
data_Sc8Si3Tc12Ge13
_symmetry_space_group_name_H-M   'P 1'
_cell_length_a   6.71681000
_cell_length_b   6.74813921
_cell_length_c   12.61298300
_cell_angle_alpha   90.00000000
_cell_angle_beta   90.00000000
_cell_angle_gamma   90.68637988
_symmetry_Int_Tables_number   1
_chemical_formula_structural   Sc8Si3Tc12Ge13
_chemical_formula_sum   'Sc8 Si3 Tc12 Ge13'
_cell_volume   571.65465374
_cell_formula_units_Z   1
loop_
 _symmetry_equiv_pos_site_id
 _symmetry_equiv_pos_as_xyz
  1  'x, y, z'
loop_
 _atom_site_type_symbol
 _atom_site_label
 _atom_site_symmetry_multiplicity
 _atom_site_fract_x
 _atom_site_fract_y
 _atom_site_fract_z
 _atom_site_occupancy
  Sc  Sc0  1  0.490175  0.332236  0.090464  1
  Sc  Sc1  1  0.983717  0.168062  0.408737  1
  Sc  Sc2  1  0.516388  0.667089  0.591288  1
  Sc  Sc3  1  0.012092  0.836998  0.907082  1
  Sc  Sc4  1  0.516388  0.667089  0.908712  1
  Sc  Sc5  1  0.012092  0.836998  0.592918  1
  Sc  Sc6  1  0.490175  0.332236  0.409536  1
  Sc  Sc7  1  0.983717  0.168062  0.091263  1
  Si  Si8  1  0.526520  0.362535  0.750000  1
  Si  Si9  1  0.028480  0.144754  0.750000  1
  Si  Si10  1  0.482090  0.633913  0.250000  1
  Tc  Tc11  1  0.819312  0.357895  0.627311  1
  Tc  Tc12  1  0.324342  0.151646  0.871785  1
  Tc  Tc13  1  0.197544  0.638200  0.126663  1
  Tc  Tc14  1  0.653871  0.846587  0.380972  1
  Tc  Tc15  1  0.197544  0.638200  0.373337  1
  Tc  Tc16  1  0.653871  0.846587  0.119028  1
  Tc  Tc17  1  0.819312  0.357895  0.872689  1
  Tc  Tc18  1  0.324342  0.151646  0.628215  1
  Tc  Tc19  1  0.683453  0.997092  0.750000  1
  Tc  Tc20  1  0.180396  0.507144  0.750000  1
  Tc  Tc21  1  0.318692  0.003638  0.250000  1
  Tc  Tc22  1  0.821433  0.489388  0.250000  1
  Ge  Ge23  1  0.672966  0.048432  0.548778  1
  Ge  Ge24  1  0.172049  0.451852  0.951754  1
  Ge  Ge25  1  0.318296  0.955935  0.045561  1
  Ge  Ge26  1  0.836331  0.554111  0.451417  1
  Ge  Ge27  1  0.318296  0.955935  0.454439  1
  Ge  Ge28  1  0.836331  0.554111  0.048583  1
  Ge  Ge29  1  0.672966  0.048432  0.951222  1
  Ge  Ge30  1  0.172049  0.451852  0.548246  1
  Ge  Ge31  1  0.966294  0.854458  0.250000  1
  Ge  Ge32  1  0.815172  0.652958  0.750000  1
  Ge  Ge33  1  0.316234  0.852132  0.750000  1
  Ge  Ge34  1  0.186521  0.343548  0.250000  1
  Ge  Ge35  1  0.680552  0.140350  0.250000  1
