# generated using pymatgen
data_Ho8Si12AgIr2Rh
_symmetry_space_group_name_H-M   'P 1'
_cell_length_a   8.19987900
_cell_length_b   8.19988020
_cell_length_c   7.88428100
_cell_angle_alpha   90.00013276
_cell_angle_beta   89.99990218
_cell_angle_gamma   120.00006374
_symmetry_Int_Tables_number   1
_chemical_formula_structural   Ho8Si12AgIr2Rh
_chemical_formula_sum   'Ho8 Si12 Ag1 Ir2 Rh1'
_cell_volume   459.10011163
_cell_formula_units_Z   1
loop_
 _symmetry_equiv_pos_site_id
 _symmetry_equiv_pos_as_xyz
  1  'x, y, z'
loop_
 _atom_site_type_symbol
 _atom_site_label
 _atom_site_symmetry_multiplicity
 _atom_site_fract_x
 _atom_site_fract_y
 _atom_site_fract_z
 _atom_site_occupancy
  Ho  Ho0  1  0.000001  0.000001  0.249939  1
  Ho  Ho1  1  0.000000  0.000000  0.753036  1
  Ho  Ho2  1  0.513141  0.486857  0.245102  1
  Ho  Ho3  1  0.513142  0.026284  0.245102  1
  Ho  Ho4  1  0.973716  0.486857  0.245102  1
  Ho  Ho5  1  0.493536  0.506464  0.753516  1
  Ho  Ho6  1  0.493537  0.987074  0.753516  1
  Ho  Ho7  1  0.012927  0.506464  0.753516  1
  Si  Si8  1  0.160651  0.839349  0.502803  1
  Si  Si9  1  0.160651  0.321304  0.502804  1
  Si  Si10  1  0.678696  0.839348  0.502803  1
  Si  Si11  1  0.831845  0.168154  0.499704  1
  Si  Si12  1  0.831845  0.663691  0.499704  1
  Si  Si13  1  0.336310  0.168155  0.499704  1
  Si  Si14  1  0.834253  0.165747  0.998301  1
  Si  Si15  1  0.834253  0.668506  0.998301  1
  Si  Si16  1  0.331495  0.165747  0.998301  1
  Si  Si17  1  0.167425  0.832575  0.002374  1
  Si  Si18  1  0.167425  0.334850  0.002374  1
  Si  Si19  1  0.665150  0.832575  0.002374  1
  Ag  Ag20  1  0.333332  0.666666  0.460043  1
  Ir  Ir21  1  0.666667  0.333333  0.538129  1
  Ir  Ir22  1  0.666667  0.333334  0.965682  1
  Rh  Rh23  1  0.333333  0.666667  0.027775  1
