# generated using pymatgen
data_SmTh2In5
_symmetry_space_group_name_H-M   'P 1'
_cell_length_a   6.60891502
_cell_length_b   6.60891552
_cell_length_c   10.38361800
_cell_angle_alpha   90.00000000
_cell_angle_beta   90.00000000
_cell_angle_gamma   102.49103189
_symmetry_Int_Tables_number   1
_chemical_formula_structural   SmTh2In5
_chemical_formula_sum   'Sm2 Th4 In10'
_cell_volume   442.79799741
_cell_formula_units_Z   2
loop_
 _symmetry_equiv_pos_site_id
 _symmetry_equiv_pos_as_xyz
  1  'x, y, z'
loop_
 _atom_site_type_symbol
 _atom_site_label
 _atom_site_symmetry_multiplicity
 _atom_site_fract_x
 _atom_site_fract_y
 _atom_site_fract_z
 _atom_site_occupancy
  Sm  Sm0  1  0.631853  0.631853  0.250000  1
  Sm  Sm1  1  0.368147  0.368147  0.750000  1
  Th  Th2  1  0.205954  0.794046  0.500000  1
  Th  Th3  1  0.205954  0.794046  0.000000  1
  Th  Th4  1  0.794046  0.205954  0.500000  1
  Th  Th5  1  0.794046  0.205954  0.000000  1
  In  In6  1  0.013653  0.013653  0.250000  1
  In  In7  1  0.986347  0.986347  0.750000  1
  In  In8  1  0.309080  0.309080  0.047909  1
  In  In9  1  0.690920  0.690920  0.952091  1
  In  In10  1  0.309080  0.309080  0.452091  1
  In  In11  1  0.690920  0.690920  0.547909  1
  In  In12  1  0.494464  0.071675  0.250000  1
  In  In13  1  0.928325  0.505536  0.750000  1
  In  In14  1  0.505536  0.928325  0.750000  1
  In  In15  1  0.071675  0.494464  0.250000  1
