# generated using pymatgen
data_Tm8Mn(B8Ir)3
_symmetry_space_group_name_H-M   'P 1'
_cell_length_a   3.58823700
_cell_length_b   9.07467279
_cell_length_c   11.43643405
_cell_angle_alpha   90.02915361
_cell_angle_beta   90.00000000
_cell_angle_gamma   90.00000000
_symmetry_Int_Tables_number   1
_chemical_formula_structural   Tm8Mn(B8Ir)3
_chemical_formula_sum   'Tm8 Mn1 B24 Ir3'
_cell_volume   372.39399416
_cell_formula_units_Z   1
loop_
 _symmetry_equiv_pos_site_id
 _symmetry_equiv_pos_as_xyz
  1  'x, y, z'
loop_
 _atom_site_type_symbol
 _atom_site_label
 _atom_site_symmetry_multiplicity
 _atom_site_fract_x
 _atom_site_fract_y
 _atom_site_fract_z
 _atom_site_occupancy
  Tm  Tm0  1  0.000000  0.320583  0.413689  1
  Tm  Tm1  1  0.000000  0.683651  0.591735  1
  Tm  Tm2  1  0.000000  0.822192  0.080978  1
  Tm  Tm3  1  0.000000  0.173513  0.911694  1
  Tm  Tm4  1  0.000000  0.943588  0.374495  1
  Tm  Tm5  1  0.000000  0.052099  0.628747  1
  Tm  Tm6  1  0.000000  0.443951  0.124487  1
  Tm  Tm7  1  0.000000  0.561334  0.874477  1
  Mn  Mn8  1  0.000000  0.861736  0.820540  1
  B  B9  1  0.500000  0.553514  0.435053  1
  B  B10  1  0.500000  0.447442  0.566258  1
  B  B11  1  0.500000  0.052191  0.064820  1
  B  B12  1  0.500000  0.945900  0.931929  1
  B  B13  1  0.500000  0.749826  0.422011  1
  B  B14  1  0.500000  0.249354  0.579534  1
  B  B15  1  0.500000  0.249044  0.077784  1
  B  B16  1  0.500000  0.753561  0.918239  1
  B  B17  1  0.500000  0.792675  0.264556  1
  B  B18  1  0.500000  0.206411  0.734560  1
  B  B19  1  0.500000  0.293261  0.235244  1
  B  B20  1  0.500000  0.709535  0.766938  1
  B  B21  1  0.500000  0.631996  0.182915  1
  B  B22  1  0.500000  0.368337  0.816111  1
  B  B23  1  0.500000  0.132216  0.316678  1
  B  B24  1  0.500000  0.868323  0.687059  1
  B  B25  1  0.500000  0.980523  0.212519  1
  B  B26  1  0.500000  0.015234  0.788051  1
  B  B27  1  0.500000  0.480880  0.286418  1
  B  B28  1  0.500000  0.519552  0.713466  1
  B  B29  1  0.500000  0.609818  0.030082  1
  B  B30  1  0.500000  0.390297  0.969579  1
  B  B31  1  0.500000  0.108027  0.470373  1
  B  B32  1  0.500000  0.891683  0.530006  1
  Ir  Ir33  1  0.000000  0.637897  0.321941  1
  Ir  Ir34  1  0.000000  0.361851  0.678599  1
  Ir  Ir35  1  0.000000  0.138005  0.178438  1
