# generated using pymatgen
data_Ti6MnCo9B4
_symmetry_space_group_name_H-M   'P 1'
_cell_length_a   8.47251465
_cell_length_b   8.53377982
_cell_length_c   3.01887000
_cell_angle_alpha   90.00000000
_cell_angle_beta   90.00000000
_cell_angle_gamma   89.83758520
_symmetry_Int_Tables_number   1
_chemical_formula_structural   Ti6MnCo9B4
_chemical_formula_sum   'Ti6 Mn1 Co9 B4'
_cell_volume   218.27119630
_cell_formula_units_Z   1
loop_
 _symmetry_equiv_pos_site_id
 _symmetry_equiv_pos_as_xyz
  1  'x, y, z'
loop_
 _atom_site_type_symbol
 _atom_site_label
 _atom_site_symmetry_multiplicity
 _atom_site_fract_x
 _atom_site_fract_y
 _atom_site_fract_z
 _atom_site_occupancy
  Ti  Ti0  1  0.999446  0.999770  0.000000  1
  Ti  Ti1  1  0.501446  0.498962  0.000000  1
  Ti  Ti2  1  0.830875  0.321460  0.000000  1
  Ti  Ti3  1  0.319673  0.174681  0.000000  1
  Ti  Ti4  1  0.673361  0.825664  0.000000  1
  Ti  Ti5  1  0.175906  0.673553  0.000000  1
  Mn  Mn6  1  0.070961  0.221033  0.500000  1
  Co  Co7  1  0.498673  0.999593  0.500000  1
  Co  Co8  1  0.001116  0.504787  0.500000  1
  Co  Co9  1  0.220581  0.924825  0.500000  1
  Co  Co10  1  0.776533  0.068477  0.500000  1
  Co  Co11  1  0.926974  0.780578  0.500000  1
  Co  Co12  1  0.431537  0.721072  0.500000  1
  Co  Co13  1  0.570629  0.278373  0.500000  1
  Co  Co14  1  0.720742  0.571106  0.500000  1
  Co  Co15  1  0.281913  0.434712  0.500000  1
  B  B16  1  0.619281  0.120617  0.000000  1
  B  B17  1  0.121635  0.380307  0.000000  1
  B  B18  1  0.879702  0.621351  0.000000  1
  B  B19  1  0.379015  0.879079  0.000000  1
