# generated using pymatgen
data_Ac2YSi6(Pd4Pt)4
_symmetry_space_group_name_H-M   'P 1'
_cell_length_a   8.81319139
_cell_length_b   8.84265706
_cell_length_c   8.84271344
_cell_angle_alpha   59.77937840
_cell_angle_beta   60.11057484
_cell_angle_gamma   60.11054317
_symmetry_Int_Tables_number   1
_chemical_formula_structural   Ac2YSi6(Pd4Pt)4
_chemical_formula_sum   'Ac2 Y1 Si6 Pd16 Pt4'
_cell_volume   487.27991962
_cell_formula_units_Z   1
loop_
 _symmetry_equiv_pos_site_id
 _symmetry_equiv_pos_as_xyz
  1  'x, y, z'
loop_
 _atom_site_type_symbol
 _atom_site_label
 _atom_site_symmetry_multiplicity
 _atom_site_fract_x
 _atom_site_fract_y
 _atom_site_fract_z
 _atom_site_occupancy
  Ac  Ac0  1  0.250012  0.249988  0.250012  1
  Ac  Ac1  1  0.749988  0.750012  0.749988  1
  Y  Y2  1  0.000000  0.000000  0.000000  1
  Si  Si3  1  0.731283  0.268700  0.268717  1
  Si  Si4  1  0.268717  0.731300  0.731283  1
  Si  Si5  1  0.263307  0.736693  0.263307  1
  Si  Si6  1  0.736693  0.263307  0.736693  1
  Si  Si7  1  0.263313  0.263296  0.736687  1
  Si  Si8  1  0.736687  0.736704  0.263313  1
  Pd  Pd9  1  0.997311  0.345940  0.002689  1
  Pd  Pd10  1  0.654022  0.002690  0.345978  1
  Pd  Pd11  1  0.002689  0.654060  0.997311  1
  Pd  Pd12  1  0.345978  0.997310  0.654022  1
  Pd  Pd13  1  0.997286  0.002700  0.345998  1
  Pd  Pd14  1  0.002714  0.997300  0.654002  1
  Pd  Pd15  1  0.654002  0.345983  0.002714  1
  Pd  Pd16  1  0.345998  0.654017  0.997286  1
  Pd  Pd17  1  0.386225  0.387675  0.387664  1
  Pd  Pd18  1  0.613775  0.612325  0.612336  1
  Pd  Pd19  1  0.387709  0.386220  0.838411  1
  Pd  Pd20  1  0.387664  0.838436  0.386225  1
  Pd  Pd21  1  0.612291  0.613780  0.161589  1
  Pd  Pd22  1  0.612336  0.161564  0.613775  1
  Pd  Pd23  1  0.838412  0.387659  0.387709  1
  Pd  Pd24  1  0.161588  0.612341  0.612291  1
  Pt  Pt25  1  0.344476  0.000051  0.999979  1
  Pt  Pt26  1  0.655524  0.999949  0.000021  1
  Pt  Pt27  1  0.000020  0.344506  0.655524  1
  Pt  Pt28  1  0.999980  0.655494  0.344476  1
