# generated using pymatgen
data_Sm4Ga3SiRu4
_symmetry_space_group_name_H-M   'P 1'
_cell_length_a   4.53916500
_cell_length_b   7.27376328
_cell_length_c   7.14940848
_cell_angle_alpha   90.05273747
_cell_angle_beta   90.00000000
_cell_angle_gamma   90.00000000
_symmetry_Int_Tables_number   1
_chemical_formula_structural   Sm4Ga3SiRu4
_chemical_formula_sum   'Sm4 Ga3 Si1 Ru4'
_cell_volume   236.05057356
_cell_formula_units_Z   1
loop_
 _symmetry_equiv_pos_site_id
 _symmetry_equiv_pos_as_xyz
  1  'x, y, z'
loop_
 _atom_site_type_symbol
 _atom_site_label
 _atom_site_symmetry_multiplicity
 _atom_site_fract_x
 _atom_site_fract_y
 _atom_site_fract_z
 _atom_site_occupancy
  Sm  Sm0  1  0.750000  0.020206  0.195569  1
  Sm  Sm1  1  0.250000  0.475244  0.691685  1
  Sm  Sm2  1  0.750000  0.519974  0.307780  1
  Sm  Sm3  1  0.250000  0.981372  0.809618  1
  Ga  Ga4  1  0.250000  0.307369  0.107345  1
  Ga  Ga5  1  0.250000  0.804913  0.398205  1
  Ga  Ga6  1  0.750000  0.689553  0.891889  1
  Si  Si7  1  0.750000  0.193397  0.601438  1
  Ru  Ru8  1  0.250000  0.657324  0.066192  1
  Ru  Ru9  1  0.250000  0.158836  0.445257  1
  Ru  Ru10  1  0.750000  0.860469  0.565404  1
  Ru  Ru11  1  0.750000  0.331342  0.919617  1
