# generated using pymatgen
data_Tb3Yb(MnB4)4
_symmetry_space_group_name_H-M   'P 1'
_cell_length_a   3.40356000
_cell_length_b   5.91424507
_cell_length_c   11.43951213
_cell_angle_alpha   90.01698572
_cell_angle_beta   90.00003187
_cell_angle_gamma   89.99990106
_symmetry_Int_Tables_number   1
_chemical_formula_structural   Tb3Yb(MnB4)4
_chemical_formula_sum   'Tb3 Yb1 Mn4 B16'
_cell_volume   230.27151118
_cell_formula_units_Z   1
loop_
 _symmetry_equiv_pos_site_id
 _symmetry_equiv_pos_as_xyz
  1  'x, y, z'
loop_
 _atom_site_type_symbol
 _atom_site_label
 _atom_site_symmetry_multiplicity
 _atom_site_fract_x
 _atom_site_fract_y
 _atom_site_fract_z
 _atom_site_occupancy
  Tb  Tb0  1  0.999999  0.374560  0.650111  1
  Tb  Tb1  1  0.999999  0.126503  0.151307  1
  Tb  Tb2  1  0.000000  0.874079  0.849004  1
  Yb  Yb3  1  0.000000  0.625852  0.349612  1
  Mn  Mn4  1  0.000004  0.626954  0.082948  1
  Mn  Mn5  1  0.999998  0.373500  0.916773  1
  Mn  Mn6  1  0.000000  0.125849  0.417993  1
  Mn  Mn7  1  0.000000  0.874715  0.582825  1
  B  B8  1  0.500000  0.779684  0.183893  1
  B  B9  1  0.500000  0.219693  0.816644  1
  B  B10  1  0.500000  0.281348  0.316917  1
  B  B11  1  0.500001  0.719468  0.682693  1
  B  B12  1  0.500001  0.861307  0.032403  1
  B  B13  1  0.499999  0.138822  0.967624  1
  B  B14  1  0.500000  0.361975  0.467071  1
  B  B15  1  0.500000  0.638588  0.532105  1
  B  B16  1  0.499999  0.886225  0.453575  1
  B  B17  1  0.500000  0.111155  0.545955  1
  B  B18  1  0.500000  0.388171  0.046258  1
  B  B19  1  0.500000  0.611503  0.953616  1
  B  B20  1  0.499999  0.975617  0.309808  1
  B  B21  1  0.500000  0.024137  0.690258  1
  B  B22  1  0.500000  0.476087  0.191122  1
  B  B23  1  0.499999  0.524210  0.809485  1
