# generated using pymatgen
data_Ho3Er(GaTc3)2
_symmetry_space_group_name_H-M   'P 1'
_cell_length_a   5.32721000
_cell_length_b   5.32721033
_cell_length_c   8.99922600
_cell_angle_alpha   90.00000000
_cell_angle_beta   90.00000000
_cell_angle_gamma   120.00001034
_symmetry_Int_Tables_number   1
_chemical_formula_structural   Ho3Er(GaTc3)2
_chemical_formula_sum   'Ho3 Er1 Ga2 Tc6'
_cell_volume   221.17467941
_cell_formula_units_Z   1
loop_
 _symmetry_equiv_pos_site_id
 _symmetry_equiv_pos_as_xyz
  1  'x, y, z'
loop_
 _atom_site_type_symbol
 _atom_site_label
 _atom_site_symmetry_multiplicity
 _atom_site_fract_x
 _atom_site_fract_y
 _atom_site_fract_z
 _atom_site_occupancy
  Ho  Ho0  1  0.333333  0.666667  0.431644  1
  Ho  Ho1  1  0.666667  0.333333  0.568203  1
  Ho  Ho2  1  0.666667  0.333333  0.931810  1
  Er  Er3  1  0.333333  0.666667  0.068513  1
  Ga  Ga4  1  0.000000  0.000000  0.500075  1
  Ga  Ga5  1  0.000000  0.000000  0.999998  1
  Tc  Tc6  1  0.828954  0.171046  0.249777  1
  Tc  Tc7  1  0.828954  0.657909  0.249777  1
  Tc  Tc8  1  0.342091  0.171046  0.249777  1
  Tc  Tc9  1  0.171118  0.828882  0.750142  1
  Tc  Tc10  1  0.171118  0.342235  0.750142  1
  Tc  Tc11  1  0.657765  0.828882  0.750142  1
