# generated using pymatgen
data_Dy8In2RuRh
_symmetry_space_group_name_H-M   'P 1'
_cell_length_a   9.68263088
_cell_length_b   9.66071314
_cell_length_c   9.66071285
_cell_angle_alpha   59.83413086
_cell_angle_beta   59.92491936
_cell_angle_gamma   59.92492134
_symmetry_Int_Tables_number   1
_chemical_formula_structural   Dy8In2RuRh
_chemical_formula_sum   'Dy16 In4 Ru2 Rh2'
_cell_volume   637.46569650
_cell_formula_units_Z   2
loop_
 _symmetry_equiv_pos_site_id
 _symmetry_equiv_pos_as_xyz
  1  'x, y, z'
loop_
 _atom_site_type_symbol
 _atom_site_label
 _atom_site_symmetry_multiplicity
 _atom_site_fract_x
 _atom_site_fract_y
 _atom_site_fract_z
 _atom_site_occupancy
  Dy  Dy0  1  0.690941  0.309059  0.309059  1
  Dy  Dy1  1  0.692875  0.690052  0.310205  1
  Dy  Dy2  1  0.306868  0.690052  0.310205  1
  Dy  Dy3  1  0.937005  0.941915  0.561287  1
  Dy  Dy4  1  0.152464  0.152046  0.543024  1
  Dy  Dy5  1  0.559793  0.941915  0.561287  1
  Dy  Dy6  1  0.151632  0.151736  0.151736  1
  Dy  Dy7  1  0.306868  0.310205  0.690052  1
  Dy  Dy8  1  0.942261  0.557739  0.557739  1
  Dy  Dy9  1  0.559793  0.561287  0.941915  1
  Dy  Dy10  1  0.562956  0.937044  0.937044  1
  Dy  Dy11  1  0.937005  0.561287  0.941915  1
  Dy  Dy12  1  0.152464  0.543024  0.152046  1
  Dy  Dy13  1  0.307127  0.692873  0.692873  1
  Dy  Dy14  1  0.692875  0.310205  0.690052  1
  Dy  Dy15  1  0.544895  0.151736  0.151736  1
  In  In16  1  0.916910  0.917801  0.248379  1
  In  In17  1  0.246030  0.918439  0.918439  1
  In  In18  1  0.916910  0.248379  0.917801  1
  In  In19  1  0.917093  0.918439  0.918439  1
  Ru  Ru20  1  0.362761  0.358181  0.358181  1
  Ru  Ru21  1  0.920878  0.358181  0.358181  1
  Rh  Rh22  1  0.360799  0.357859  0.920545  1
  Rh  Rh23  1  0.360799  0.920545  0.357859  1
