# generated using pymatgen
data_Nd5Tm11MgAg3Rh4
_symmetry_space_group_name_H-M   'P 1'
_cell_length_a   9.59927201
_cell_length_b   9.57701819
_cell_length_c   9.57701767
_cell_angle_alpha   59.63153672
_cell_angle_beta   59.76814986
_cell_angle_gamma   59.76815083
_symmetry_Int_Tables_number   1
_chemical_formula_structural   Nd5Tm11MgAg3Rh4
_chemical_formula_sum   'Nd5 Tm11 Mg1 Ag3 Rh4'
_cell_volume   618.63936943
_cell_formula_units_Z   1
loop_
 _symmetry_equiv_pos_site_id
 _symmetry_equiv_pos_as_xyz
  1  'x, y, z'
loop_
 _atom_site_type_symbol
 _atom_site_label
 _atom_site_symmetry_multiplicity
 _atom_site_fract_x
 _atom_site_fract_y
 _atom_site_fract_z
 _atom_site_occupancy
  Nd  Nd0  1  0.808864  0.189739  0.189739  1
  Nd  Nd1  1  0.813940  0.184744  0.811669  1
  Nd  Nd2  1  0.189613  0.810459  0.183428  1
  Nd  Nd3  1  0.813940  0.811669  0.184744  1
  Nd  Nd4  1  0.189613  0.183428  0.810459  1
  Tm  Tm5  1  0.599044  0.599491  0.599491  1
  Tm  Tm6  1  0.597860  0.599433  0.207216  1
  Tm  Tm7  1  0.597860  0.207216  0.599433  1
  Tm  Tm8  1  0.192011  0.603139  0.603139  1
  Tm  Tm9  1  0.063083  0.436188  0.436188  1
  Tm  Tm10  1  0.431840  0.066803  0.066803  1
  Tm  Tm11  1  0.431538  0.065194  0.436356  1
  Tm  Tm12  1  0.062829  0.437001  0.063468  1
  Tm  Tm13  1  0.431538  0.436356  0.065194  1
  Tm  Tm14  1  0.062829  0.063468  0.437001  1
  Tm  Tm15  1  0.187363  0.808027  0.808027  1
  Mg  Mg16  1  0.538212  0.820807  0.820807  1
  Ag  Ag17  1  0.836232  0.830157  0.830157  1
  Ag  Ag18  1  0.831337  0.831551  0.507014  1
  Ag  Ag19  1  0.831337  0.507014  0.831551  1
  Rh  Rh20  1  0.390036  0.393552  0.393552  1
  Rh  Rh21  1  0.388394  0.399604  0.821688  1
  Rh  Rh22  1  0.388394  0.821688  0.399604  1
  Rh  Rh23  1  0.822290  0.393272  0.393272  1
