# generated using pymatgen
data_Sm2Ga2(SiPt)3
_symmetry_space_group_name_H-M   'P 1'
_cell_length_a   8.38276199
_cell_length_b   8.38276201
_cell_length_c   8.38276212
_cell_angle_alpha   137.96717158
_cell_angle_beta   105.69144137
_cell_angle_gamma   89.24264706
_symmetry_Int_Tables_number   1
_chemical_formula_structural   Sm2Ga2(SiPt)3
_chemical_formula_sum   'Sm4 Ga4 Si6 Pt6'
_cell_volume   363.26331131
_cell_formula_units_Z   2
loop_
 _symmetry_equiv_pos_site_id
 _symmetry_equiv_pos_as_xyz
  1  'x, y, z'
loop_
 _atom_site_type_symbol
 _atom_site_label
 _atom_site_symmetry_multiplicity
 _atom_site_fract_x
 _atom_site_fract_y
 _atom_site_fract_z
 _atom_site_occupancy
  Sm  Sm0  1  0.635054  0.368479  0.266575  1
  Sm  Sm1  1  0.364946  0.631521  0.733425  1
  Sm  Sm2  1  0.101903  0.868479  0.233425  1
  Sm  Sm3  1  0.898097  0.131521  0.766575  1
  Ga  Ga4  1  0.270495  0.520495  0.250000  1
  Ga  Ga5  1  0.729505  0.479505  0.750000  1
  Ga  Ga6  1  0.729505  0.979505  0.250000  1
  Ga  Ga7  1  0.270495  0.020495  0.750000  1
  Si  Si8  1  0.456155  0.107013  0.349141  1
  Si  Si9  1  0.543845  0.892987  0.650859  1
  Si  Si10  1  0.757872  0.607013  0.150859  1
  Si  Si11  1  0.242128  0.392987  0.849141  1
  Si  Si12  1  0.000000  0.250000  0.250000  1
  Si  Si13  1  0.000000  0.750000  0.750000  1
  Pt  Pt14  1  0.244903  0.128076  0.116826  1
  Pt  Pt15  1  0.755097  0.871924  0.883174  1
  Pt  Pt16  1  0.011250  0.628076  0.383174  1
  Pt  Pt17  1  0.988750  0.371924  0.616826  1
  Pt  Pt18  1  0.500000  0.250000  0.750000  1
  Pt  Pt19  1  0.500000  0.750000  0.250000  1
