# generated using pymatgen
data_Ho5TmAl7Pt16
_symmetry_space_group_name_H-M   'P 1'
_cell_length_a   8.96664807
_cell_length_b   8.96663801
_cell_length_c   8.96182500
_cell_angle_alpha   60.01780740
_cell_angle_beta   60.01787701
_cell_angle_gamma   59.96450345
_symmetry_Int_Tables_number   1
_chemical_formula_structural   Ho5TmAl7Pt16
_chemical_formula_sum   'Ho5 Tm1 Al7 Pt16'
_cell_volume   509.49695077
_cell_formula_units_Z   1
loop_
 _symmetry_equiv_pos_site_id
 _symmetry_equiv_pos_as_xyz
  1  'x, y, z'
loop_
 _atom_site_type_symbol
 _atom_site_label
 _atom_site_symmetry_multiplicity
 _atom_site_fract_x
 _atom_site_fract_y
 _atom_site_fract_z
 _atom_site_occupancy
  Ho  Ho0  1  0.713224  0.286941  0.286777  1
  Ho  Ho1  1  0.286941  0.713223  0.713058  1
  Ho  Ho2  1  0.286942  0.713222  0.286777  1
  Ho  Ho3  1  0.286719  0.286718  0.713282  1
  Ho  Ho4  1  0.713223  0.286941  0.713059  1
  Tm  Tm5  1  0.713798  0.713798  0.286202  1
  Al  Al6  1  0.500202  0.999796  0.000203  1
  Al  Al7  1  0.999796  0.500202  0.499799  1
  Al  Al8  1  0.999796  0.500202  0.000203  1
  Al  Al9  1  0.000050  0.000050  0.499950  1
  Al  Al10  1  0.500202  0.999796  0.499799  1
  Al  Al11  1  0.500051  0.500051  0.999949  1
  Al  Al12  1  0.000036  0.000036  0.999964  1
  Pt  Pt13  1  0.338160  0.338156  0.338087  1
  Pt  Pt14  1  0.338159  0.338159  0.985597  1
  Pt  Pt15  1  0.984950  0.338823  0.338114  1
  Pt  Pt16  1  0.338824  0.984952  0.338114  1
  Pt  Pt17  1  0.661884  0.661886  0.661172  1
  Pt  Pt18  1  0.661885  0.661885  0.015058  1
  Pt  Pt19  1  0.661911  0.014411  0.661837  1
  Pt  Pt20  1  0.014410  0.661912  0.661840  1
  Pt  Pt21  1  0.119059  0.119061  0.119130  1
  Pt  Pt22  1  0.119060  0.119061  0.642748  1
  Pt  Pt23  1  0.642918  0.118381  0.119352  1
  Pt  Pt24  1  0.118382  0.642918  0.119350  1
  Pt  Pt25  1  0.880653  0.880654  0.881621  1
  Pt  Pt26  1  0.880652  0.880654  0.357073  1
  Pt  Pt27  1  0.880873  0.357240  0.880943  1
  Pt  Pt28  1  0.357242  0.880873  0.880940  1
