# generated using pymatgen
data_HoPa3SnPd4Pb
_symmetry_space_group_name_H-M   'P 1'
_cell_length_a   7.80742480
_cell_length_b   7.82924741
_cell_length_c   3.69929600
_cell_angle_alpha   90.00000000
_cell_angle_beta   90.00000000
_cell_angle_gamma   89.65847098
_symmetry_Int_Tables_number   1
_chemical_formula_structural   HoPa3SnPd4Pb
_chemical_formula_sum   'Ho1 Pa3 Sn1 Pd4 Pb1'
_cell_volume   226.12011348
_cell_formula_units_Z   1
loop_
 _symmetry_equiv_pos_site_id
 _symmetry_equiv_pos_as_xyz
  1  'x, y, z'
loop_
 _atom_site_type_symbol
 _atom_site_label
 _atom_site_symmetry_multiplicity
 _atom_site_fract_x
 _atom_site_fract_y
 _atom_site_fract_z
 _atom_site_occupancy
  Ho  Ho0  1  0.321547  0.828319  0.500000  1
  Pa  Pa1  1  0.675545  0.170194  0.500000  1
  Pa  Pa2  1  0.171923  0.321173  0.500000  1
  Pa  Pa3  1  0.829273  0.678466  0.500000  1
  Sn  Sn4  1  0.007109  0.996057  0.000000  1
  Pd  Pd5  1  0.374224  0.131556  0.000000  1
  Pd  Pd6  1  0.115682  0.621152  0.000000  1
  Pd  Pd7  1  0.637427  0.880507  0.000000  1
  Pd  Pd8  1  0.871388  0.364809  0.000000  1
  Pb  Pb9  1  0.495882  0.507767  0.000000  1
