# generated using pymatgen
data_Sc12Ga(Si4Os)3
_symmetry_space_group_name_H-M   'P 1'
_cell_length_a   4.02197500
_cell_length_b   10.37108584
_cell_length_c   11.69206718
_cell_angle_alpha   90.16487008
_cell_angle_beta   90.00000000
_cell_angle_gamma   90.00000000
_symmetry_Int_Tables_number   1
_chemical_formula_structural   Sc12Ga(Si4Os)3
_chemical_formula_sum   'Sc12 Ga1 Si12 Os3'
_cell_volume   487.70038624
_cell_formula_units_Z   1
loop_
 _symmetry_equiv_pos_site_id
 _symmetry_equiv_pos_as_xyz
  1  'x, y, z'
loop_
 _atom_site_type_symbol
 _atom_site_label
 _atom_site_symmetry_multiplicity
 _atom_site_fract_x
 _atom_site_fract_y
 _atom_site_fract_z
 _atom_site_occupancy
  Sc  Sc0  1  0.250000  0.877227  0.021667  1
  Sc  Sc1  1  0.250000  0.624360  0.516437  1
  Sc  Sc2  1  0.750000  0.125352  0.982241  1
  Sc  Sc3  1  0.750000  0.378824  0.478854  1
  Sc  Sc4  1  0.250000  0.920950  0.602692  1
  Sc  Sc5  1  0.250000  0.578932  0.104517  1
  Sc  Sc6  1  0.750000  0.079387  0.395724  1
  Sc  Sc7  1  0.750000  0.420935  0.899353  1
  Sc  Sc8  1  0.250000  0.652392  0.799111  1
  Sc  Sc9  1  0.250000  0.843306  0.298108  1
  Sc  Sc10  1  0.750000  0.342294  0.201706  1
  Sc  Sc11  1  0.750000  0.168859  0.698059  1
  Ga  Ga12  1  0.750000  0.884408  0.826824  1
  Si  Si13  1  0.250000  0.028629  0.825320  1
  Si  Si14  1  0.250000  0.485437  0.321047  1
  Si  Si15  1  0.750000  0.985712  0.174042  1
  Si  Si16  1  0.750000  0.511654  0.677339  1
  Si  Si17  1  0.250000  0.256590  0.842507  1
  Si  Si18  1  0.250000  0.249546  0.341426  1
  Si  Si19  1  0.750000  0.749993  0.159015  1
  Si  Si20  1  0.750000  0.743799  0.650413  1
  Si  Si21  1  0.250000  0.196361  0.543420  1
  Si  Si22  1  0.250000  0.304320  0.047773  1
  Si  Si23  1  0.750000  0.807236  0.451523  1
  Si  Si24  1  0.750000  0.674269  0.962465  1
  Os  Os25  1  0.250000  0.389974  0.676533  1
  Os  Os26  1  0.250000  0.109490  0.178352  1
  Os  Os27  1  0.750000  0.609762  0.323532  1
