# generated using pymatgen
data_Li2Lu2BRh4
_symmetry_space_group_name_H-M   'P 1'
_cell_length_a   5.82058194
_cell_length_b   5.83532878
_cell_length_c   5.82058197
_cell_angle_alpha   59.91616426
_cell_angle_beta   57.62182192
_cell_angle_gamma   59.91615542
_symmetry_Int_Tables_number   1
_chemical_formula_structural   Li2Lu2BRh4
_chemical_formula_sum   'Li2 Lu2 B1 Rh4'
_cell_volume   136.94057126
_cell_formula_units_Z   1
loop_
 _symmetry_equiv_pos_site_id
 _symmetry_equiv_pos_as_xyz
  1  'x, y, z'
loop_
 _atom_site_type_symbol
 _atom_site_label
 _atom_site_symmetry_multiplicity
 _atom_site_fract_x
 _atom_site_fract_y
 _atom_site_fract_z
 _atom_site_occupancy
  Li  Li0  1  0.763640  0.762955  0.236360  1
  Li  Li1  1  0.763640  0.237045  0.236360  1
  Lu  Lu2  1  0.756735  0.746572  0.750121  1
  Lu  Lu3  1  0.249879  0.253428  0.243265  1
  B  B4  1  0.470668  0.500000  0.529332  1
  Rh  Rh5  1  0.261372  0.747046  0.244535  1
  Rh  Rh6  1  0.239301  0.235226  0.760699  1
  Rh  Rh7  1  0.755465  0.252954  0.738628  1
  Rh  Rh8  1  0.239301  0.764774  0.760699  1
