# generated using pymatgen
data_Y5Ho11AlCd3Pd4
_symmetry_space_group_name_H-M   'P 1'
_cell_length_a   9.64445002
_cell_length_b   9.64499186
_cell_length_c   9.64499202
_cell_angle_alpha   60.14710544
_cell_angle_beta   60.14458795
_cell_angle_gamma   60.14458536
_symmetry_Int_Tables_number   1
_chemical_formula_structural   Y5Ho11AlCd3Pd4
_chemical_formula_sum   'Y5 Ho11 Al1 Cd3 Pd4'
_cell_volume   636.49424697
_cell_formula_units_Z   1
loop_
 _symmetry_equiv_pos_site_id
 _symmetry_equiv_pos_as_xyz
  1  'x, y, z'
loop_
 _atom_site_type_symbol
 _atom_site_label
 _atom_site_symmetry_multiplicity
 _atom_site_fract_x
 _atom_site_fract_y
 _atom_site_fract_z
 _atom_site_occupancy
  Y  Y0  1  0.563982  0.935845  0.935845  1
  Y  Y1  1  0.566912  0.932057  0.566613  1
  Y  Y2  1  0.935780  0.563996  0.935579  1
  Y  Y3  1  0.566912  0.566613  0.932057  1
  Y  Y4  1  0.935780  0.935579  0.563996  1
  Ho  Ho5  1  0.351596  0.351886  0.351886  1
  Ho  Ho6  1  0.357659  0.357664  0.933779  1
  Ho  Ho7  1  0.357659  0.933779  0.357664  1
  Ho  Ho8  1  0.933793  0.357767  0.357767  1
  Ho  Ho9  1  0.810779  0.189610  0.189610  1
  Ho  Ho10  1  0.192363  0.808452  0.808452  1
  Ho  Ho11  1  0.189433  0.810726  0.189770  1
  Ho  Ho12  1  0.808501  0.192574  0.808351  1
  Ho  Ho13  1  0.189433  0.189770  0.810726  1
  Ho  Ho14  1  0.808501  0.808351  0.192574  1
  Ho  Ho15  1  0.932350  0.566606  0.566606  1
  Al  Al16  1  0.581915  0.581787  0.581787  1
  Cd  Cd17  1  0.580997  0.580993  0.255613  1
  Cd  Cd18  1  0.580997  0.255613  0.580993  1
  Cd  Cd19  1  0.255455  0.581025  0.581025  1
  Pd  Pd20  1  0.146164  0.146176  0.146176  1
  Pd  Pd21  1  0.142649  0.142739  0.567720  1
  Pd  Pd22  1  0.142649  0.567720  0.142739  1
  Pd  Pd23  1  0.567738  0.142668  0.142668  1
