# generated using pymatgen
data_TbDyHf2(MoO4)7
_symmetry_space_group_name_H-M   'P 1'
_cell_length_a   11.69578737
_cell_length_b   11.69603973
_cell_length_c   14.05107052
_cell_angle_alpha   69.59133179
_cell_angle_beta   69.59461540
_cell_angle_gamma   50.46945583
_symmetry_Int_Tables_number   1
_chemical_formula_structural   TbDyHf2(MoO4)7
_chemical_formula_sum   'Tb2 Dy2 Hf4 Mo14 O56'
_cell_volume   1367.92504677
_cell_formula_units_Z   2
loop_
 _symmetry_equiv_pos_site_id
 _symmetry_equiv_pos_as_xyz
  1  'x, y, z'
loop_
 _atom_site_type_symbol
 _atom_site_label
 _atom_site_symmetry_multiplicity
 _atom_site_fract_x
 _atom_site_fract_y
 _atom_site_fract_z
 _atom_site_occupancy
  Tb  Tb0  1  0.352090  0.375536  0.936147  1
  Tb  Tb1  1  0.647910  0.624464  0.063853  1
  Dy  Dy2  1  0.375713  0.352267  0.435946  1
  Dy  Dy3  1  0.624287  0.647733  0.564054  1
  Hf  Hf4  1  0.917457  0.848278  0.188199  1
  Hf  Hf5  1  0.151865  0.082325  0.311970  1
  Hf  Hf6  1  0.082543  0.151722  0.811801  1
  Hf  Hf7  1  0.848135  0.917675  0.688030  1
  Mo  Mo8  1  0.274056  0.044228  0.023502  1
  Mo  Mo9  1  0.043955  0.274686  0.523384  1
  Mo  Mo10  1  0.567655  0.311473  0.646108  1
  Mo  Mo11  1  0.513590  0.998793  0.329324  1
  Mo  Mo12  1  0.794251  0.205419  0.250273  1
  Mo  Mo13  1  0.001235  0.486362  0.171124  1
  Mo  Mo14  1  0.486410  0.001207  0.670676  1
  Mo  Mo15  1  0.725944  0.955772  0.976498  1
  Mo  Mo16  1  0.205749  0.794581  0.749727  1
  Mo  Mo17  1  0.311010  0.567611  0.147001  1
  Mo  Mo18  1  0.998765  0.513638  0.828876  1
  Mo  Mo19  1  0.432345  0.688527  0.353892  1
  Mo  Mo20  1  0.956045  0.725314  0.476616  1
  Mo  Mo21  1  0.688990  0.432389  0.852999  1
  O  O22  1  0.301130  0.491197  0.280969  1
  O  O23  1  0.467769  0.574304  0.103114  1
  O  O24  1  0.574475  0.468179  0.602906  1
  O  O25  1  0.631913  0.245292  0.344189  1
  O  O26  1  0.940930  0.143554  0.315287  1
  O  O27  1  0.491819  0.300852  0.780099  1
  O  O28  1  0.754928  0.367398  0.156135  1
  O  O29  1  0.626880  0.984834  0.715070  1
  O  O30  1  0.869813  0.893994  0.045039  1
  O  O31  1  0.053270  0.197908  0.660004  1
  O  O32  1  0.059070  0.856446  0.684713  1
  O  O33  1  0.081624  0.305602  0.258489  1
  O  O34  1  0.373120  0.015166  0.284930  1
  O  O35  1  0.984946  0.626935  0.215281  1
  O  O36  1  0.856365  0.059003  0.184867  1
  O  O37  1  0.105807  0.130570  0.454994  1
  O  O38  1  0.568189  0.141421  0.994315  1
  O  O39  1  0.237318  0.861560  0.373199  1
  O  O40  1  0.802268  0.946691  0.839825  1
  O  O41  1  0.130187  0.106006  0.954961  1
  O  O42  1  0.166642  0.328996  0.472547  1
  O  O43  1  0.457858  0.115752  0.547641  1
  O  O44  1  0.368087  0.754708  0.655811  1
  O  O45  1  0.448314  0.333939  0.579084  1
  O  O46  1  0.445157  0.179508  0.338488  1
  O  O47  1  0.508181  0.699148  0.219901  1
  O  O48  1  0.425525  0.531821  0.397094  1
  O  O49  1  0.143635  0.940997  0.815133  1
  O  O50  1  0.894193  0.869430  0.545006  1
  O  O51  1  0.671100  0.833538  0.027434  1
  O  O52  1  0.431811  0.858579  0.005685  1
  O  O53  1  0.554843  0.820492  0.661512  1
  O  O54  1  0.861731  0.237258  0.872978  1
  O  O55  1  0.551686  0.666061  0.420916  1
  O  O56  1  0.328900  0.166462  0.972566  1
  O  O57  1  0.885016  0.541820  0.952137  1
  O  O58  1  0.820545  0.554782  0.162071  1
  O  O59  1  0.542142  0.884248  0.452359  1
  O  O60  1  0.141980  0.567476  0.494078  1
  O  O61  1  0.015054  0.373065  0.784719  1
  O  O62  1  0.305811  0.081455  0.758285  1
  O  O63  1  0.694189  0.918545  0.241715  1
  O  O64  1  0.197732  0.053309  0.160175  1
  O  O65  1  0.918376  0.694398  0.741511  1
  O  O66  1  0.858020  0.432524  0.505922  1
  O  O67  1  0.532231  0.425696  0.896886  1
  O  O68  1  0.114984  0.458180  0.047863  1
  O  O69  1  0.666323  0.551613  0.920135  1
  O  O70  1  0.179455  0.445218  0.837929  1
  O  O71  1  0.138269  0.762742  0.127022  1
  O  O72  1  0.762682  0.138440  0.626801  1
  O  O73  1  0.333677  0.448387  0.079865  1
  O  O74  1  0.946730  0.802092  0.339996  1
  O  O75  1  0.245072  0.632602  0.843865  1
  O  O76  1  0.833358  0.671004  0.527453  1
  O  O77  1  0.698870  0.508803  0.719031  1
