# generated using pymatgen
data_Sr4Pr(BiO4)3
_symmetry_space_group_name_H-M   'P 1'
_cell_length_a   6.21587138
_cell_length_b   6.02228027
_cell_length_c   10.51010294
_cell_angle_alpha   55.17195836
_cell_angle_beta   89.75964152
_cell_angle_gamma   89.95009297
_symmetry_Int_Tables_number   1
_chemical_formula_structural   Sr4Pr(BiO4)3
_chemical_formula_sum   'Sr4 Pr1 Bi3 O12'
_cell_volume   322.95324716
_cell_formula_units_Z   1
loop_
 _symmetry_equiv_pos_site_id
 _symmetry_equiv_pos_as_xyz
  1  'x, y, z'
loop_
 _atom_site_type_symbol
 _atom_site_label
 _atom_site_symmetry_multiplicity
 _atom_site_fract_x
 _atom_site_fract_y
 _atom_site_fract_z
 _atom_site_occupancy
  Sr  Sr0  1  0.549892  0.265577  0.749297  1
  Sr  Sr1  1  0.050810  0.739632  0.747251  1
  Sr  Sr2  1  0.450108  0.734423  0.250703  1
  Sr  Sr3  1  0.949190  0.260368  0.252749  1
  Pr  Pr4  1  0.000000  0.000000  0.000000  1
  Bi  Bi5  1  0.500000  0.000000  0.500000  1
  Bi  Bi6  1  0.000000  0.500000  0.500000  1
  Bi  Bi7  1  0.500000  0.500000  0.000000  1
  O  O8  1  0.785493  0.373405  0.940496  1
  O  O9  1  0.286947  0.628411  0.560249  1
  O  O10  1  0.214507  0.626595  0.059504  1
  O  O11  1  0.713053  0.371589  0.439751  1
  O  O12  1  0.309456  0.266115  0.946512  1
  O  O13  1  0.806537  0.736180  0.553699  1
  O  O14  1  0.690544  0.733885  0.053488  1
  O  O15  1  0.193463  0.263820  0.446301  1
  O  O16  1  0.455329  0.845776  0.761196  1
  O  O17  1  0.955511  0.157117  0.736581  1
  O  O18  1  0.544671  0.154224  0.238804  1
  O  O19  1  0.044489  0.842883  0.263419  1
