# generated using pymatgen
data_LiPa2Pt3
_symmetry_space_group_name_H-M   'P 1'
_cell_length_a   5.35010508
_cell_length_b   5.35010534
_cell_length_c   5.67064025
_cell_angle_alpha   82.84679271
_cell_angle_beta   97.15320810
_cell_angle_gamma   132.58565875
_symmetry_Int_Tables_number   1
_chemical_formula_structural   LiPa2Pt3
_chemical_formula_sum   'Li1 Pa2 Pt3'
_cell_volume   118.39621877
_cell_formula_units_Z   1
loop_
 _symmetry_equiv_pos_site_id
 _symmetry_equiv_pos_as_xyz
  1  'x, y, z'
loop_
 _atom_site_type_symbol
 _atom_site_label
 _atom_site_symmetry_multiplicity
 _atom_site_fract_x
 _atom_site_fract_y
 _atom_site_fract_z
 _atom_site_occupancy
  Li  Li0  1  0.000000  0.000000  0.000000  1
  Pa  Pa1  1  0.680264  0.319736  0.723778  1
  Pa  Pa2  1  0.319736  0.680264  0.276222  1
  Pt  Pt3  1  0.000000  0.000000  0.500000  1
  Pt  Pt4  1  0.378777  0.621223  0.791551  1
  Pt  Pt5  1  0.621223  0.378777  0.208449  1
