# generated using pymatgen
data_NdHRhPb
_symmetry_space_group_name_H-M   'P 1'
_cell_length_a   4.57467200
_cell_length_b   7.46650000
_cell_length_c   8.71337300
_cell_angle_alpha   90.00000000
_cell_angle_beta   90.00000000
_cell_angle_gamma   90.00000000
_symmetry_Int_Tables_number   1
_chemical_formula_structural   NdHRhPb
_chemical_formula_sum   'Nd4 H4 Rh4 Pb4'
_cell_volume   297.62083858
_cell_formula_units_Z   4
loop_
 _symmetry_equiv_pos_site_id
 _symmetry_equiv_pos_as_xyz
  1  'x, y, z'
loop_
 _atom_site_type_symbol
 _atom_site_label
 _atom_site_symmetry_multiplicity
 _atom_site_fract_x
 _atom_site_fract_y
 _atom_site_fract_z
 _atom_site_occupancy
  Nd  Nd0  1  0.750000  0.012492  0.686545  1
  Nd  Nd1  1  0.250000  0.987508  0.313455  1
  Nd  Nd2  1  0.250000  0.487508  0.186545  1
  Nd  Nd3  1  0.750000  0.512492  0.813455  1
  H  H4  1  0.250000  0.456627  0.916719  1
  H  H5  1  0.750000  0.543373  0.083281  1
  H  H6  1  0.750000  0.043373  0.416719  1
  H  H7  1  0.250000  0.956627  0.583281  1
  Rh  Rh8  1  0.750000  0.770177  0.100217  1
  Rh  Rh9  1  0.250000  0.229823  0.899783  1
  Rh  Rh10  1  0.250000  0.729823  0.600217  1
  Rh  Rh11  1  0.750000  0.270177  0.399783  1
  Pb  Pb12  1  0.750000  0.656827  0.421874  1
  Pb  Pb13  1  0.250000  0.343173  0.578126  1
  Pb  Pb14  1  0.250000  0.843173  0.921874  1
  Pb  Pb15  1  0.750000  0.156827  0.078126  1
