# generated using pymatgen
data_Ni3Ir2RuCl18
_symmetry_space_group_name_H-M   'P 1'
_cell_length_a   6.08168144
_cell_length_b   6.08204633
_cell_length_c   18.96301540
_cell_angle_alpha   90.05974997
_cell_angle_beta   90.02924504
_cell_angle_gamma   120.00444404
_symmetry_Int_Tables_number   1
_chemical_formula_structural   Ni3Ir2RuCl18
_chemical_formula_sum   'Ni3 Ir2 Ru1 Cl18'
_cell_volume   607.42327274
_cell_formula_units_Z   1
loop_
 _symmetry_equiv_pos_site_id
 _symmetry_equiv_pos_as_xyz
  1  'x, y, z'
loop_
 _atom_site_type_symbol
 _atom_site_label
 _atom_site_symmetry_multiplicity
 _atom_site_fract_x
 _atom_site_fract_y
 _atom_site_fract_z
 _atom_site_occupancy
  Ni  Ni0  1  0.555536  0.111035  0.166702  1
  Ni  Ni1  1  0.889040  0.444470  0.499923  1
  Ni  Ni2  1  0.555494  0.444594  0.833378  1
  Ir  Ir3  1  0.222135  0.444324  0.166798  1
  Ir  Ir4  1  0.555651  0.777859  0.499834  1
  Ru  Ru5  1  0.222231  0.777837  0.833366  1
  Cl  Cl6  1  0.528553  0.753782  0.763855  1
  Cl  Cl7  1  0.892076  0.754178  0.903026  1
  Cl  Cl8  1  0.528945  0.108633  0.902932  1
  Cl  Cl9  1  0.864061  0.756751  0.430948  1
  Cl  Cl10  1  0.225920  0.468815  0.430958  1
  Cl  Cl11  1  0.892079  0.134908  0.097834  1
  Cl  Cl12  1  0.531383  0.774370  0.235532  1
  Cl  Cl13  1  0.891521  0.471095  0.763789  1
  Cl  Cl14  1  0.246210  0.471604  0.902870  1
  Cl  Cl15  1  0.576437  0.469281  0.568819  1
  Cl  Cl16  1  0.864866  0.107649  0.568927  1
  Cl  Cl17  1  0.226612  0.757694  0.568849  1
  Cl  Cl18  1  0.243155  0.135607  0.235527  1
  Cl  Cl19  1  0.576110  0.106886  0.431013  1
  Cl  Cl20  1  0.892905  0.423885  0.235621  1
  Cl  Cl21  1  0.531027  0.423439  0.097875  1
  Cl  Cl22  1  0.245780  0.107917  0.763757  1
  Cl  Cl23  1  0.242274  0.773383  0.097869  1
