# generated using pymatgen
data_TbGd6ZnI12
_symmetry_space_group_name_H-M   'P 1'
_cell_length_a   9.93467455
_cell_length_b   9.93467438
_cell_length_c   9.93467400
_cell_angle_alpha   107.10922691
_cell_angle_beta   107.10922660
_cell_angle_gamma   107.10922792
_symmetry_Int_Tables_number   1
_chemical_formula_structural   TbGd6ZnI12
_chemical_formula_sum   'Tb1 Gd6 Zn1 I12'
_cell_volume   814.14942563
_cell_formula_units_Z   1
loop_
 _symmetry_equiv_pos_site_id
 _symmetry_equiv_pos_as_xyz
  1  'x, y, z'
loop_
 _atom_site_type_symbol
 _atom_site_label
 _atom_site_symmetry_multiplicity
 _atom_site_fract_x
 _atom_site_fract_y
 _atom_site_fract_z
 _atom_site_occupancy
  Tb  Tb0  1  0.500000  0.500000  0.500000  1
  Gd  Gd1  1  0.898784  0.691414  0.972412  1
  Gd  Gd2  1  0.972412  0.898784  0.691414  1
  Gd  Gd3  1  0.691414  0.972412  0.898784  1
  Gd  Gd4  1  0.101216  0.308586  0.027588  1
  Gd  Gd5  1  0.027588  0.101216  0.308586  1
  Gd  Gd6  1  0.308586  0.027588  0.101216  1
  Zn  Zn7  1  0.000000  0.000000  0.000000  1
  I  I8  1  0.774468  0.319016  0.926133  1
  I  I9  1  0.926133  0.774468  0.319016  1
  I  I10  1  0.319016  0.926133  0.774468  1
  I  I11  1  0.225532  0.680984  0.073867  1
  I  I12  1  0.073867  0.225532  0.680984  1
  I  I13  1  0.680984  0.073867  0.225532  1
  I  I14  1  0.537648  0.614956  0.838771  1
  I  I15  1  0.838771  0.537648  0.614956  1
  I  I16  1  0.614956  0.838771  0.537648  1
  I  I17  1  0.462352  0.385044  0.161229  1
  I  I18  1  0.161229  0.462352  0.385044  1
  I  I19  1  0.385044  0.161229  0.462352  1
