# generated using pymatgen
data_Sc4AlZn2Os
_symmetry_space_group_name_H-M   'P 1'
_cell_length_a   9.36316032
_cell_length_b   6.51793093
_cell_length_c   9.34346099
_cell_angle_alpha   134.23799768
_cell_angle_beta   119.03534786
_cell_angle_gamma   45.87407223
_symmetry_Int_Tables_number   1
_chemical_formula_structural   Sc4AlZn2Os
_chemical_formula_sum   'Sc8 Al2 Zn4 Os2'
_cell_volume   293.24789647
_cell_formula_units_Z   2
loop_
 _symmetry_equiv_pos_site_id
 _symmetry_equiv_pos_as_xyz
  1  'x, y, z'
loop_
 _atom_site_type_symbol
 _atom_site_label
 _atom_site_symmetry_multiplicity
 _atom_site_fract_x
 _atom_site_fract_y
 _atom_site_fract_z
 _atom_site_occupancy
  Sc  Sc0  1  0.250606  0.008444  0.249393  1
  Sc  Sc1  1  0.749563  0.509763  0.249840  1
  Sc  Sc2  1  0.750446  0.990218  0.250151  1
  Sc  Sc3  1  0.249385  0.491559  0.250600  1
  Sc  Sc4  1  0.750572  0.489514  0.749803  1
  Sc  Sc5  1  0.249571  0.990232  0.749726  1
  Sc  Sc6  1  0.250418  0.509789  0.750281  1
  Sc  Sc7  1  0.749438  0.010482  0.750202  1
  Al  Al8  1  0.499860  0.749864  0.500166  1
  Al  Al9  1  0.000141  0.750047  0.999837  1
  Zn  Zn10  1  0.500189  0.751551  0.000253  1
  Zn  Zn11  1  0.999812  0.748464  0.499744  1
  Zn  Zn12  1  0.000187  0.251541  0.500261  1
  Zn  Zn13  1  0.499814  0.248448  0.999739  1
  Os  Os14  1  0.999937  0.249941  0.000086  1
  Os  Os15  1  0.500065  0.250141  0.499917  1
