# generated using pymatgen
data_Pr6IrAu
_symmetry_space_group_name_H-M   'P 1'
_cell_length_a   6.66258800
_cell_length_b   7.42032600
_cell_length_c   10.16647500
_cell_angle_alpha   90.00000000
_cell_angle_beta   90.00000000
_cell_angle_gamma   90.00000000
_symmetry_Int_Tables_number   1
_chemical_formula_structural   Pr6IrAu
_chemical_formula_sum   'Pr12 Ir2 Au2'
_cell_volume   502.61603640
_cell_formula_units_Z   2
loop_
 _symmetry_equiv_pos_site_id
 _symmetry_equiv_pos_as_xyz
  1  'x, y, z'
loop_
 _atom_site_type_symbol
 _atom_site_label
 _atom_site_symmetry_multiplicity
 _atom_site_fract_x
 _atom_site_fract_y
 _atom_site_fract_z
 _atom_site_occupancy
  Pr  Pr0  1  0.661444  0.165695  0.437902  1
  Pr  Pr1  1  0.161444  0.334305  0.562098  1
  Pr  Pr2  1  0.826359  0.688278  0.057815  1
  Pr  Pr3  1  0.326359  0.811722  0.942185  1
  Pr  Pr4  1  0.150448  0.020321  0.250000  1
  Pr  Pr5  1  0.650448  0.479679  0.750000  1
  Pr  Pr6  1  0.374567  0.537343  0.250000  1
  Pr  Pr7  1  0.874567  0.962657  0.750000  1
  Pr  Pr8  1  0.661444  0.165695  0.062098  1
  Pr  Pr9  1  0.161444  0.334305  0.937902  1
  Pr  Pr10  1  0.826359  0.688278  0.442185  1
  Pr  Pr11  1  0.326359  0.811722  0.557815  1
  Ir  Ir12  1  0.069887  0.619037  0.750000  1
  Ir  Ir13  1  0.569887  0.880963  0.250000  1
  Au  Au14  1  0.429490  0.113038  0.750000  1
  Au  Au15  1  0.929490  0.386962  0.250000  1
