# generated using pymatgen
data_CaY6CoSn23Ir5
_symmetry_space_group_name_H-M   'P 1'
_cell_length_a   9.88425400
_cell_length_b   9.86655252
_cell_length_c   10.08240559
_cell_angle_alpha   90.11727967
_cell_angle_beta   90.00000000
_cell_angle_gamma   120.05937248
_symmetry_Int_Tables_number   1
_chemical_formula_structural   CaY6CoSn23Ir5
_chemical_formula_sum   'Ca1 Y6 Co1 Sn23 Ir5'
_cell_volume   851.02588760
_cell_formula_units_Z   1
loop_
 _symmetry_equiv_pos_site_id
 _symmetry_equiv_pos_as_xyz
  1  'x, y, z'
loop_
 _atom_site_type_symbol
 _atom_site_label
 _atom_site_symmetry_multiplicity
 _atom_site_fract_x
 _atom_site_fract_y
 _atom_site_fract_z
 _atom_site_occupancy
  Ca  Ca0  1  0.003008  0.006016  0.996033  1
  Y  Y1  1  0.039269  0.519384  0.308123  1
  Y  Y2  1  0.479787  0.959575  0.307367  1
  Y  Y3  1  0.480115  0.519384  0.308123  1
  Y  Y4  1  0.960679  0.480444  0.692594  1
  Y  Y5  1  0.519437  0.038875  0.693244  1
  Y  Y6  1  0.519765  0.480444  0.692594  1
  Co  Co7  1  0.829733  0.659465  0.200512  1
  Sn  Sn8  1  0.999820  0.999640  0.499281  1
  Sn  Sn9  1  0.110209  0.877577  0.276453  1
  Sn  Sn10  1  0.767367  0.877577  0.276453  1
  Sn  Sn11  1  0.116769  0.233538  0.283859  1
  Sn  Sn12  1  0.881549  0.116132  0.717098  1
  Sn  Sn13  1  0.234585  0.116132  0.717098  1
  Sn  Sn14  1  0.882064  0.764127  0.716731  1
  Sn  Sn15  1  0.351764  0.999739  0.000304  1
  Sn  Sn16  1  0.655856  0.649450  0.004714  1
  Sn  Sn17  1  0.000743  0.355006  0.001098  1
  Sn  Sn18  1  0.354265  0.355006  0.001098  1
  Sn  Sn19  1  0.993594  0.649450  0.004714  1
  Sn  Sn20  1  0.647975  0.999739  0.000304  1
  Sn  Sn21  1  0.781471  0.562942  0.452419  1
  Sn  Sn22  1  0.778319  0.220313  0.458866  1
  Sn  Sn23  1  0.441994  0.220313  0.458866  1
  Sn  Sn24  1  0.221280  0.442559  0.541140  1
  Sn  Sn25  1  0.220975  0.780065  0.541188  1
  Sn  Sn26  1  0.559090  0.780065  0.541188  1
  Sn  Sn27  1  0.669252  0.338502  0.176424  1
  Sn  Sn28  1  0.333066  0.666132  0.827156  1
  Sn  Sn29  1  0.667381  0.334761  0.883314  1
  Sn  Sn30  1  0.332314  0.664629  0.118451  1
  Ir  Ir31  1  0.168528  0.827332  0.800416  1
  Ir  Ir32  1  0.658804  0.827332  0.800416  1
  Ir  Ir33  1  0.169860  0.339720  0.799305  1
  Ir  Ir34  1  0.829298  0.169316  0.201529  1
  Ir  Ir35  1  0.340017  0.169316  0.201529  1
