# generated using pymatgen
data_Yb2LuNi19B10
_symmetry_space_group_name_H-M   'P 1'
_cell_length_a   7.84270508
_cell_length_b   7.84270601
_cell_length_c   5.71321038
_cell_angle_alpha   88.87382340
_cell_angle_beta   88.87382456
_cell_angle_gamma   67.07618731
_symmetry_Int_Tables_number   1
_chemical_formula_structural   Yb2LuNi19B10
_chemical_formula_sum   'Yb2 Lu1 Ni19 B10'
_cell_volume   323.56536432
_cell_formula_units_Z   1
loop_
 _symmetry_equiv_pos_site_id
 _symmetry_equiv_pos_as_xyz
  1  'x, y, z'
loop_
 _atom_site_type_symbol
 _atom_site_label
 _atom_site_symmetry_multiplicity
 _atom_site_fract_x
 _atom_site_fract_y
 _atom_site_fract_z
 _atom_site_occupancy
  Yb  Yb0  1  0.373550  0.373550  0.390497  1
  Yb  Yb1  1  0.999279  0.999279  0.000729  1
  Lu  Lu2  1  0.624728  0.624728  0.614177  1
  Ni  Ni3  1  0.622182  0.622182  0.127777  1
  Ni  Ni4  1  0.377742  0.377742  0.874401  1
  Ni  Ni5  1  0.836617  0.836617  0.701404  1
  Ni  Ni6  1  0.163943  0.163943  0.292653  1
  Ni  Ni7  1  0.817952  0.817952  0.268339  1
  Ni  Ni8  1  0.180884  0.180884  0.729383  1
  Ni  Ni9  1  0.001068  0.001068  0.500523  1
  Ni  Ni10  1  0.622086  0.123635  0.077172  1
  Ni  Ni11  1  0.376497  0.877579  0.925173  1
  Ni  Ni12  1  0.877579  0.376497  0.925173  1
  Ni  Ni13  1  0.123635  0.622086  0.077172  1
  Ni  Ni14  1  0.289099  0.769031  0.301084  1
  Ni  Ni15  1  0.711944  0.229017  0.700327  1
  Ni  Ni16  1  0.229017  0.711944  0.700327  1
  Ni  Ni17  1  0.769031  0.289099  0.301084  1
  Ni  Ni18  1  0.483491  0.953288  0.303413  1
  Ni  Ni19  1  0.517441  0.045605  0.697595  1
  Ni  Ni20  1  0.045605  0.517441  0.697595  1
  Ni  Ni21  1  0.953288  0.483491  0.303413  1
  B  B22  1  0.701695  0.064774  0.430076  1
  B  B23  1  0.301151  0.934472  0.569234  1
  B  B24  1  0.934472  0.301151  0.569234  1
  B  B25  1  0.064774  0.701695  0.430076  1
  B  B26  1  0.350430  0.141619  0.024102  1
  B  B27  1  0.650149  0.858831  0.972488  1
  B  B28  1  0.858831  0.650149  0.972488  1
  B  B29  1  0.141619  0.350430  0.024102  1
  B  B30  1  0.615461  0.384758  0.999393  1
  B  B31  1  0.384758  0.615461  0.999393  1
