# generated using pymatgen
data_Tb5Er(CoSn6)2
_symmetry_space_group_name_H-M   'P 1'
_cell_length_a   8.49027209
_cell_length_b   8.49027138
_cell_length_c   13.14729000
_cell_angle_alpha   90.00000000
_cell_angle_beta   90.00000000
_cell_angle_gamma   148.85934294
_symmetry_Int_Tables_number   1
_chemical_formula_structural   Tb5Er(CoSn6)2
_chemical_formula_sum   'Tb5 Er1 Co2 Sn12'
_cell_volume   490.10398150
_cell_formula_units_Z   1
loop_
 _symmetry_equiv_pos_site_id
 _symmetry_equiv_pos_as_xyz
  1  'x, y, z'
loop_
 _atom_site_type_symbol
 _atom_site_label
 _atom_site_symmetry_multiplicity
 _atom_site_fract_x
 _atom_site_fract_y
 _atom_site_fract_z
 _atom_site_occupancy
  Tb  Tb0  1  0.899275  0.100725  0.093450  1
  Tb  Tb1  1  0.100656  0.899344  0.592844  1
  Tb  Tb2  1  0.899532  0.100468  0.750000  1
  Tb  Tb3  1  0.100656  0.899344  0.907156  1
  Tb  Tb4  1  0.899275  0.100725  0.406550  1
  Er  Er5  1  0.100731  0.899269  0.250000  1
  Co  Co6  1  0.300249  0.699751  0.250000  1
  Co  Co7  1  0.699375  0.300625  0.750000  1
  Sn  Sn8  1  0.755533  0.244467  0.571560  1
  Sn  Sn9  1  0.428032  0.571968  0.575923  1
  Sn  Sn10  1  0.572596  0.427404  0.422958  1
  Sn  Sn11  1  0.734052  0.265948  0.250000  1
  Sn  Sn12  1  0.265058  0.734942  0.750000  1
  Sn  Sn13  1  0.244311  0.755689  0.071781  1
  Sn  Sn14  1  0.244311  0.755689  0.428219  1
  Sn  Sn15  1  0.572596  0.427404  0.077042  1
  Sn  Sn16  1  0.454568  0.545432  0.250000  1
  Sn  Sn17  1  0.545629  0.454371  0.750000  1
  Sn  Sn18  1  0.755533  0.244467  0.928440  1
  Sn  Sn19  1  0.428032  0.571968  0.924077  1
