# generated using pymatgen
data_Tb2Y13Tm5Bi12
_symmetry_space_group_name_H-M   'P 1'
_cell_length_a   8.24966917
_cell_length_b   9.51025047
_cell_length_c   12.07413408
_cell_angle_alpha   89.99477090
_cell_angle_beta   90.04312701
_cell_angle_gamma   90.00958237
_symmetry_Int_Tables_number   1
_chemical_formula_structural   Tb2Y13Tm5Bi12
_chemical_formula_sum   'Tb2 Y13 Tm5 Bi12'
_cell_volume   947.29305082
_cell_formula_units_Z   1
loop_
 _symmetry_equiv_pos_site_id
 _symmetry_equiv_pos_as_xyz
  1  'x, y, z'
loop_
 _atom_site_type_symbol
 _atom_site_label
 _atom_site_symmetry_multiplicity
 _atom_site_fract_x
 _atom_site_fract_y
 _atom_site_fract_z
 _atom_site_occupancy
  Tb  Tb0  1  0.186386  0.749959  0.719151  1
  Tb  Tb1  1  0.686452  0.749941  0.780900  1
  Y  Y2  1  0.813538  0.250090  0.280920  1
  Y  Y3  1  0.313439  0.250493  0.218657  1
  Y  Y4  1  0.806366  0.062809  0.559898  1
  Y  Y5  1  0.693230  0.936968  0.059406  1
  Y  Y6  1  0.193839  0.562847  0.440270  1
  Y  Y7  1  0.693760  0.562782  0.059639  1
  Y  Y8  1  0.193729  0.937114  0.440227  1
  Y  Y9  1  0.306374  0.062980  0.940351  1
  Y  Y10  1  0.806315  0.437274  0.559842  1
  Y  Y11  1  0.354860  0.750266  0.215462  1
  Y  Y12  1  0.854554  0.750071  0.284580  1
  Y  Y13  1  0.644775  0.250760  0.784671  1
  Y  Y14  1  0.146313  0.250914  0.715898  1
  Tm  Tm15  1  0.026196  0.749948  0.988516  1
  Tm  Tm16  1  0.525719  0.750166  0.511637  1
  Tm  Tm17  1  0.975119  0.250569  0.011125  1
  Tm  Tm18  1  0.474156  0.250053  0.488863  1
  Tm  Tm19  1  0.306113  0.434504  0.940252  1
  Bi  Bi20  1  0.433787  0.004208  0.672495  1
  Bi  Bi21  1  0.934301  0.496098  0.827827  1
  Bi  Bi22  1  0.566056  0.503782  0.327467  1
  Bi  Bi23  1  0.066250  0.996414  0.172307  1
  Bi  Bi24  1  0.566221  0.996489  0.327543  1
  Bi  Bi25  1  0.066210  0.504000  0.172120  1
  Bi  Bi26  1  0.433558  0.496116  0.672638  1
  Bi  Bi27  1  0.933840  0.004435  0.827793  1
  Bi  Bi28  1  0.407044  0.747618  0.957821  1
  Bi  Bi29  1  0.908070  0.749990  0.541698  1
  Bi  Bi30  1  0.591683  0.250398  0.041754  1
  Bi  Bi31  1  0.091749  0.249945  0.458271  1
