# generated using pymatgen
data_PrNd4HoTa2O14
_symmetry_space_group_name_H-M   'P 1'
_cell_length_a   6.66632524
_cell_length_b   6.63900491
_cell_length_c   7.69436301
_cell_angle_alpha   90.00153164
_cell_angle_beta   90.00387826
_cell_angle_gamma   108.87052374
_symmetry_Int_Tables_number   1
_chemical_formula_structural   PrNd4HoTa2O14
_chemical_formula_sum   'Pr1 Nd4 Ho1 Ta2 O14'
_cell_volume   322.23218199
_cell_formula_units_Z   1
loop_
 _symmetry_equiv_pos_site_id
 _symmetry_equiv_pos_as_xyz
  1  'x, y, z'
loop_
 _atom_site_type_symbol
 _atom_site_label
 _atom_site_symmetry_multiplicity
 _atom_site_fract_x
 _atom_site_fract_y
 _atom_site_fract_z
 _atom_site_occupancy
  Pr  Pr0  1  0.529569  0.523552  0.498640  1
  Nd  Nd1  1  0.531957  0.525583  0.001201  1
  Nd  Nd2  1  0.006103  0.462855  0.750381  1
  Nd  Nd3  1  0.533203  0.003066  0.750391  1
  Nd  Nd4  1  0.463254  0.003129  0.249538  1
  Ho  Ho5  1  0.002950  0.530984  0.249611  1
  Ta  Ta6  1  0.001334  0.001439  0.497649  1
  Ta  Ta7  1  0.001456  0.001525  0.002352  1
  O  O8  1  0.945584  0.057274  0.749991  1
  O  O9  1  0.059515  0.935759  0.250016  1
  O  O10  1  0.352184  0.633973  0.248684  1
  O  O11  1  0.641991  0.368898  0.751504  1
  O  O12  1  0.371117  0.631468  0.751635  1
  O  O13  1  0.644926  0.377064  0.248366  1
  O  O14  1  0.309841  0.072039  0.969691  1
  O  O15  1  0.679197  0.919044  0.472780  1
  O  O16  1  0.310129  0.072121  0.530288  1
  O  O17  1  0.678806  0.917679  0.027125  1
  O  O18  1  0.036949  0.301129  0.457610  1
  O  O19  1  0.931278  0.680243  0.976900  1
  O  O20  1  0.932252  0.680533  0.523187  1
  O  O21  1  0.036406  0.300643  0.042461  1
