# generated using pymatgen
data_LaCuRuO5
_symmetry_space_group_name_H-M   'P 1'
_cell_length_a   5.61872800
_cell_length_b   8.10201700
_cell_length_c   8.87791500
_cell_angle_alpha   90.00000000
_cell_angle_beta   90.00000000
_cell_angle_gamma   90.00000000
_symmetry_Int_Tables_number   1
_chemical_formula_structural   LaCuRuO5
_chemical_formula_sum   'La4 Cu4 Ru4 O20'
_cell_volume   404.14958888
_cell_formula_units_Z   4
loop_
 _symmetry_equiv_pos_site_id
 _symmetry_equiv_pos_as_xyz
  1  'x, y, z'
loop_
 _atom_site_type_symbol
 _atom_site_label
 _atom_site_symmetry_multiplicity
 _atom_site_fract_x
 _atom_site_fract_y
 _atom_site_fract_z
 _atom_site_occupancy
  La  La0  1  0.000000  0.346762  0.670426  1
  La  La1  1  0.000000  0.653238  0.329574  1
  La  La2  1  0.000000  0.846762  0.829574  1
  La  La3  1  0.000000  0.153238  0.170426  1
  Cu  Cu4  1  0.500000  0.062395  0.850961  1
  Cu  Cu5  1  0.500000  0.937605  0.149039  1
  Cu  Cu6  1  0.500000  0.562395  0.649039  1
  Cu  Cu7  1  0.500000  0.437605  0.350961  1
  Ru  Ru8  1  0.283827  0.500000  0.000000  1
  Ru  Ru9  1  0.716173  0.000000  0.500000  1
  Ru  Ru10  1  0.716173  0.500000  0.000000  1
  Ru  Ru11  1  0.283827  0.000000  0.500000  1
  O  O12  1  0.252731  0.912699  0.290327  1
  O  O13  1  0.252731  0.087301  0.709673  1
  O  O14  1  0.747269  0.412699  0.209673  1
  O  O15  1  0.747269  0.587301  0.790327  1
  O  O16  1  0.747269  0.087301  0.709673  1
  O  O17  1  0.747269  0.912699  0.290327  1
  O  O18  1  0.252731  0.587301  0.790327  1
  O  O19  1  0.252731  0.412699  0.209673  1
  O  O20  1  0.500000  0.328528  0.934601  1
  O  O21  1  0.500000  0.671472  0.065399  1
  O  O22  1  0.500000  0.828528  0.565399  1
  O  O23  1  0.500000  0.171472  0.434601  1
  O  O24  1  0.268625  0.000000  0.000000  1
  O  O25  1  0.731375  0.500000  0.500000  1
  O  O26  1  0.731375  0.000000  0.000000  1
  O  O27  1  0.268625  0.500000  0.500000  1
  O  O28  1  0.000000  0.152019  0.448173  1
  O  O29  1  0.000000  0.847981  0.551827  1
  O  O30  1  0.000000  0.652019  0.051827  1
  O  O31  1  0.000000  0.347981  0.948173  1
