# generated using pymatgen
data_Li2Ca6La9Pr(CdIr2)2
_symmetry_space_group_name_H-M   'P 1'
_cell_length_a   10.10031040
_cell_length_b   10.10031079
_cell_length_c   10.10387100
_cell_angle_alpha   59.98833592
_cell_angle_beta   59.98833463
_cell_angle_gamma   60.44627650
_symmetry_Int_Tables_number   1
_chemical_formula_structural   Li2Ca6La9Pr(CdIr2)2
_chemical_formula_sum   'Li2 Ca6 La9 Pr1 Cd2 Ir4'
_cell_volume   731.15342424
_cell_formula_units_Z   1
loop_
 _symmetry_equiv_pos_site_id
 _symmetry_equiv_pos_as_xyz
  1  'x, y, z'
loop_
 _atom_site_type_symbol
 _atom_site_label
 _atom_site_symmetry_multiplicity
 _atom_site_fract_x
 _atom_site_fract_y
 _atom_site_fract_z
 _atom_site_occupancy
  Li  Li0  1  0.571824  0.571824  0.573432  1
  Li  Li1  1  0.571824  0.571824  0.282920  1
  Ca  Ca2  1  0.808898  0.808898  0.191102  1
  Ca  Ca3  1  0.936793  0.564727  0.561510  1
  Ca  Ca4  1  0.564727  0.936793  0.936970  1
  Ca  Ca5  1  0.564727  0.936793  0.561510  1
  Ca  Ca6  1  0.936793  0.564727  0.936970  1
  Ca  Ca7  1  0.557802  0.557802  0.942198  1
  La  La8  1  0.346494  0.346494  0.347321  1
  La  La9  1  0.346494  0.346494  0.959690  1
  La  La10  1  0.344609  0.970175  0.342608  1
  La  La11  1  0.970175  0.344609  0.342608  1
  La  La12  1  0.809577  0.184443  0.193188  1
  La  La13  1  0.184443  0.809577  0.812791  1
  La  La14  1  0.184443  0.809577  0.193188  1
  La  La15  1  0.809577  0.184443  0.812791  1
  La  La16  1  0.194954  0.194954  0.805046  1
  Pr  Pr17  1  0.940357  0.940357  0.559643  1
  Cd  Cd18  1  0.583155  0.261984  0.577430  1
  Cd  Cd19  1  0.261984  0.583155  0.577430  1
  Ir  Ir20  1  0.138662  0.138662  0.142855  1
  Ir  Ir21  1  0.138662  0.138662  0.579822  1
  Ir  Ir22  1  0.154542  0.578485  0.133486  1
  Ir  Ir23  1  0.578485  0.154542  0.133486  1
