# generated using pymatgen
data_Th5Si12Ir19
_symmetry_space_group_name_H-M   'P 1'
_cell_length_a   12.97274600
_cell_length_b   12.97274685
_cell_length_c   4.02986300
_cell_angle_alpha   90.00000000
_cell_angle_beta   90.00000000
_cell_angle_gamma   120.00000293
_symmetry_Int_Tables_number   1
_chemical_formula_structural   Th5Si12Ir19
_chemical_formula_sum   'Th5 Si12 Ir19'
_cell_volume   587.33348197
_cell_formula_units_Z   1
loop_
 _symmetry_equiv_pos_site_id
 _symmetry_equiv_pos_as_xyz
  1  'x, y, z'
loop_
 _atom_site_type_symbol
 _atom_site_label
 _atom_site_symmetry_multiplicity
 _atom_site_fract_x
 _atom_site_fract_y
 _atom_site_fract_z
 _atom_site_occupancy
  Th  Th0  1  0.000000  0.813682  0.500000  1
  Th  Th1  1  0.186318  0.186318  0.500000  1
  Th  Th2  1  0.813682  0.000000  0.500000  1
  Th  Th3  1  0.333333  0.666667  0.000000  1
  Th  Th4  1  0.666667  0.333333  0.000000  1
  Si  Si5  1  0.000000  0.182964  0.000000  1
  Si  Si6  1  0.817036  0.817036  0.000000  1
  Si  Si7  1  0.182964  0.000000  0.000000  1
  Si  Si8  1  0.521549  0.688260  0.500000  1
  Si  Si9  1  0.311740  0.833289  0.500000  1
  Si  Si10  1  0.166711  0.478451  0.500000  1
  Si  Si11  1  0.478451  0.166711  0.500000  1
  Si  Si12  1  0.688260  0.521549  0.500000  1
  Si  Si13  1  0.833289  0.311740  0.500000  1
  Si  Si14  1  0.000000  0.629696  0.000000  1
  Si  Si15  1  0.370304  0.370304  0.000000  1
  Si  Si16  1  0.629696  0.000000  0.000000  1
  Ir  Ir17  1  0.000000  0.283084  0.500000  1
  Ir  Ir18  1  0.716916  0.716916  0.500000  1
  Ir  Ir19  1  0.283084  0.000000  0.500000  1
  Ir  Ir20  1  0.623156  0.805048  0.000000  1
  Ir  Ir21  1  0.194952  0.818107  0.000000  1
  Ir  Ir22  1  0.181893  0.376844  0.000000  1
  Ir  Ir23  1  0.376844  0.181893  0.000000  1
  Ir  Ir24  1  0.805048  0.623156  0.000000  1
  Ir  Ir25  1  0.818107  0.194952  0.000000  1
  Ir  Ir26  1  0.511253  0.873480  0.500000  1
  Ir  Ir27  1  0.126520  0.637774  0.500000  1
  Ir  Ir28  1  0.362226  0.488747  0.500000  1
  Ir  Ir29  1  0.488747  0.362226  0.500000  1
  Ir  Ir30  1  0.873480  0.511253  0.500000  1
  Ir  Ir31  1  0.637774  0.126520  0.500000  1
  Ir  Ir32  1  0.000000  0.000000  0.000000  1
  Ir  Ir33  1  0.000000  0.447361  0.000000  1
  Ir  Ir34  1  0.552639  0.552639  0.000000  1
  Ir  Ir35  1  0.447361  0.000000  0.000000  1
