# generated using pymatgen
data_MnV17CuSi12Ni
_symmetry_space_group_name_H-M   'P 1'
_cell_length_a   7.00774740
_cell_length_b   7.00774764
_cell_length_c   13.19663000
_cell_angle_alpha   90.00000000
_cell_angle_beta   90.00000000
_cell_angle_gamma   140.75430602
_symmetry_Int_Tables_number   1
_chemical_formula_structural   MnV17CuSi12Ni
_chemical_formula_sum   'Mn1 V17 Cu1 Si12 Ni1'
_cell_volume   409.99775040
_cell_formula_units_Z   1
loop_
 _symmetry_equiv_pos_site_id
 _symmetry_equiv_pos_as_xyz
  1  'x, y, z'
loop_
 _atom_site_type_symbol
 _atom_site_label
 _atom_site_symmetry_multiplicity
 _atom_site_fract_x
 _atom_site_fract_y
 _atom_site_fract_z
 _atom_site_occupancy
  Mn  Mn0  1  0.498426  0.498426  0.500000  1
  V  V1  1  0.068562  0.421595  0.400314  1
  V  V2  1  0.569706  0.932124  0.900980  1
  V  V3  1  0.421595  0.068562  0.599686  1
  V  V4  1  0.932124  0.569706  0.099020  1
  V  V5  1  0.852924  0.655204  0.677919  1
  V  V6  1  0.349930  0.150565  0.179984  1
  V  V7  1  0.655204  0.852924  0.322081  1
  V  V8  1  0.150565  0.349930  0.820016  1
  V  V9  1  0.655204  0.852924  0.677919  1
  V  V10  1  0.150565  0.349930  0.179984  1
  V  V11  1  0.852924  0.655204  0.322081  1
  V  V12  1  0.349930  0.150565  0.820016  1
  V  V13  1  0.421595  0.068562  0.400314  1
  V  V14  1  0.932124  0.569706  0.900980  1
  V  V15  1  0.068562  0.421595  0.599686  1
  V  V16  1  0.569706  0.932124  0.099020  1
  V  V17  1  0.997773  0.997773  0.500000  1
  Cu  Cu18  1  0.501668  0.501668  0.000000  1
  Si  Si19  1  0.250668  0.749502  0.749709  1
  Si  Si20  1  0.749502  0.250668  0.250291  1
  Si  Si21  1  0.749502  0.250668  0.749709  1
  Si  Si22  1  0.250668  0.749502  0.250291  1
  Si  Si23  1  0.257195  0.257195  0.661662  1
  Si  Si24  1  0.755653  0.755653  0.157820  1
  Si  Si25  1  0.257195  0.257195  0.338338  1
  Si  Si26  1  0.755653  0.755653  0.842180  1
  Si  Si27  1  0.577692  0.902802  0.500000  1
  Si  Si28  1  0.089480  0.403497  0.000000  1
  Si  Si29  1  0.902802  0.577692  0.500000  1
  Si  Si30  1  0.403497  0.089480  0.000000  1
  Ni  Ni31  1  0.001406  0.001406  0.000000  1
