# generated using pymatgen
data_LaNdTh2(NiP)4
_symmetry_space_group_name_H-M   'P 1'
_cell_length_a   3.98236500
_cell_length_b   3.98236503
_cell_length_c   16.21350500
_cell_angle_alpha   90.00000000
_cell_angle_beta   90.00000000
_cell_angle_gamma   120.00000808
_symmetry_Int_Tables_number   1
_chemical_formula_structural   LaNdTh2(NiP)4
_chemical_formula_sum   'La1 Nd1 Th2 Ni4 P4'
_cell_volume   222.68431796
_cell_formula_units_Z   1
loop_
 _symmetry_equiv_pos_site_id
 _symmetry_equiv_pos_as_xyz
  1  'x, y, z'
loop_
 _atom_site_type_symbol
 _atom_site_label
 _atom_site_symmetry_multiplicity
 _atom_site_fract_x
 _atom_site_fract_y
 _atom_site_fract_z
 _atom_site_occupancy
  La  La0  1  0.000000  0.000000  0.750000  1
  Nd  Nd1  1  0.000000  0.000000  0.250000  1
  Th  Th2  1  0.000000  0.000000  0.498699  1
  Th  Th3  1  0.000000  0.000000  0.001301  1
  Ni  Ni4  1  0.333333  0.666667  0.381882  1
  Ni  Ni5  1  0.666667  0.333333  0.613786  1
  Ni  Ni6  1  0.666667  0.333333  0.886214  1
  Ni  Ni7  1  0.333333  0.666667  0.118118  1
  P  P8  1  0.333333  0.666667  0.874726  1
  P  P9  1  0.666667  0.333333  0.127892  1
  P  P10  1  0.666667  0.333333  0.372108  1
  P  P11  1  0.333333  0.666667  0.625274  1
