# generated using pymatgen
data_YbTh3(Pd3Pt)3
_symmetry_space_group_name_H-M   'P 1'
_cell_length_a   5.91949066
_cell_length_b   5.90354705
_cell_length_c   9.69808547
_cell_angle_alpha   90.00619609
_cell_angle_beta   90.11998142
_cell_angle_gamma   119.93413495
_symmetry_Int_Tables_number   1
_chemical_formula_structural   YbTh3(Pd3Pt)3
_chemical_formula_sum   'Yb1 Th3 Pd9 Pt3'
_cell_volume   293.69768876
_cell_formula_units_Z   1
loop_
 _symmetry_equiv_pos_site_id
 _symmetry_equiv_pos_as_xyz
  1  'x, y, z'
loop_
 _atom_site_type_symbol
 _atom_site_label
 _atom_site_symmetry_multiplicity
 _atom_site_fract_x
 _atom_site_fract_y
 _atom_site_fract_z
 _atom_site_occupancy
  Yb  Yb0  1  0.333342  0.666662  0.249709  1
  Th  Th1  1  0.000615  0.001054  0.493783  1
  Th  Th2  1  0.000485  0.000998  0.007017  1
  Th  Th3  1  0.664760  0.331120  0.748923  1
  Pd  Pd4  1  0.003524  0.502363  0.497759  1
  Pd  Pd5  1  0.499826  0.501353  0.001832  1
  Pd  Pd6  1  0.499324  0.998933  0.002479  1
  Pd  Pd7  1  0.001656  0.501464  0.002082  1
  Pd  Pd8  1  0.824052  0.648872  0.247841  1
  Pd  Pd9  1  0.350606  0.175390  0.248489  1
  Pd  Pd10  1  0.825334  0.174225  0.247804  1
  Pd  Pd11  1  0.652750  0.826388  0.751690  1
  Pd  Pd12  1  0.172134  0.826318  0.752194  1
  Pt  Pt13  1  0.500561  0.502033  0.498066  1
  Pt  Pt14  1  0.499995  0.998977  0.497487  1
  Pt  Pt15  1  0.171034  0.343852  0.752844  1
