# generated using pymatgen
data_Lu6Co17Si8TcP4
_symmetry_space_group_name_H-M   'P 1'
_cell_length_a   3.70527600
_cell_length_b   10.63785800
_cell_length_c   12.21516900
_cell_angle_alpha   90.00000000
_cell_angle_beta   90.00000000
_cell_angle_gamma   90.00000000
_symmetry_Int_Tables_number   1
_chemical_formula_structural   Lu6Co17Si8TcP4
_chemical_formula_sum   'Lu6 Co17 Si8 Tc1 P4'
_cell_volume   481.47554359
_cell_formula_units_Z   1
loop_
 _symmetry_equiv_pos_site_id
 _symmetry_equiv_pos_as_xyz
  1  'x, y, z'
loop_
 _atom_site_type_symbol
 _atom_site_label
 _atom_site_symmetry_multiplicity
 _atom_site_fract_x
 _atom_site_fract_y
 _atom_site_fract_z
 _atom_site_occupancy
  Lu  Lu0  1  0.000000  0.500000  0.526487  1
  Lu  Lu1  1  0.500000  0.000000  0.474397  1
  Lu  Lu2  1  0.500000  0.821101  0.205286  1
  Lu  Lu3  1  0.500000  0.178899  0.205286  1
  Lu  Lu4  1  0.000000  0.679059  0.797677  1
  Lu  Lu5  1  0.000000  0.320941  0.797677  1
  Co  Co6  1  0.000000  0.000000  0.840002  1
  Co  Co7  1  0.500000  0.500000  0.701871  1
  Co  Co8  1  0.000000  0.000000  0.296911  1
  Co  Co9  1  0.000000  0.500000  0.979733  1
  Co  Co10  1  0.500000  0.000000  0.020383  1
  Co  Co11  1  0.500000  0.331154  0.989748  1
  Co  Co12  1  0.500000  0.668846  0.989748  1
  Co  Co13  1  0.000000  0.163964  0.007063  1
  Co  Co14  1  0.000000  0.836036  0.007063  1
  Co  Co15  1  0.500000  0.302858  0.430903  1
  Co  Co16  1  0.500000  0.697142  0.430903  1
  Co  Co17  1  0.000000  0.195925  0.571760  1
  Co  Co18  1  0.000000  0.804075  0.571760  1
  Co  Co19  1  0.500000  0.883902  0.705503  1
  Co  Co20  1  0.500000  0.116098  0.705503  1
  Co  Co21  1  0.000000  0.618549  0.295145  1
  Co  Co22  1  0.000000  0.381451  0.295145  1
  Si  Si23  1  0.500000  0.307867  0.617074  1
  Si  Si24  1  0.500000  0.692133  0.617074  1
  Si  Si25  1  0.000000  0.191659  0.385404  1
  Si  Si26  1  0.000000  0.808341  0.385404  1
  Si  Si27  1  0.500000  0.853696  0.890171  1
  Si  Si28  1  0.500000  0.146304  0.890171  1
  Si  Si29  1  0.000000  0.652984  0.106298  1
  Si  Si30  1  0.000000  0.347016  0.106298  1
  Tc  Tc31  1  0.500000  0.500000  0.154950  1
  P  P32  1  0.500000  0.500000  0.882161  1
  P  P33  1  0.000000  0.000000  0.117258  1
  P  P34  1  0.500000  0.500000  0.346240  1
  P  P35  1  0.000000  0.000000  0.655547  1
