# generated using pymatgen
data_RbTb10(C2I9)2
_symmetry_space_group_name_H-M   'P 1'
_cell_length_a   11.43122416
_cell_length_b   11.47071179
_cell_length_c   11.54215860
_cell_angle_alpha   113.34653526
_cell_angle_beta   87.07150283
_cell_angle_gamma   119.61421262
_symmetry_Int_Tables_number   1
_chemical_formula_structural   RbTb10(C2I9)2
_chemical_formula_sum   'Rb1 Tb10 C4 I18'
_cell_volume   1188.00238037
_cell_formula_units_Z   1
loop_
 _symmetry_equiv_pos_site_id
 _symmetry_equiv_pos_as_xyz
  1  'x, y, z'
loop_
 _atom_site_type_symbol
 _atom_site_label
 _atom_site_symmetry_multiplicity
 _atom_site_fract_x
 _atom_site_fract_y
 _atom_site_fract_z
 _atom_site_occupancy
  Rb  Rb0  1  0.500000  0.000000  0.500000  1
  Tb  Tb1  1  0.676148  0.723643  0.710302  1
  Tb  Tb2  1  0.276459  0.352372  0.015927  1
  Tb  Tb3  1  0.093270  0.392295  0.292458  1
  Tb  Tb4  1  0.965507  0.038344  0.323278  1
  Tb  Tb5  1  0.906730  0.607705  0.707542  1
  Tb  Tb6  1  0.105568  0.944576  0.000760  1
  Tb  Tb7  1  0.034493  0.961656  0.676722  1
  Tb  Tb8  1  0.323852  0.276357  0.289698  1
  Tb  Tb9  1  0.723541  0.647628  0.984073  1
  Tb  Tb10  1  0.894432  0.055424  0.999240  1
  C  C11  1  0.151728  0.220264  0.121349  1
  C  C12  1  0.848272  0.779736  0.878651  1
  C  C13  1  0.923337  0.855443  0.803143  1
  C  C14  1  0.076663  0.144557  0.196857  1
  I  I15  1  0.449347  0.530553  0.831293  1
  I  I16  1  0.385265  0.039362  0.158282  1
  I  I17  1  0.775541  0.855975  0.501598  1
  I  I18  1  0.836258  0.310928  0.153226  1
  I  I19  1  0.550653  0.469447  0.168707  1
  I  I20  1  0.224459  0.144025  0.498402  1
  I  I21  1  0.317496  0.095308  0.830213  1
  I  I22  1  0.682504  0.904692  0.169787  1
  I  I23  1  0.976531  0.756501  0.169081  1
  I  I24  1  0.933188  0.298613  0.501118  1
  I  I25  1  0.023469  0.243499  0.830919  1
  I  I26  1  0.066812  0.701387  0.498882  1
  I  I27  1  0.262217  0.624050  0.184835  1
  I  I28  1  0.737783  0.375950  0.815165  1
  I  I29  1  0.641656  0.433043  0.499464  1
  I  I30  1  0.163742  0.689072  0.846774  1
  I  I31  1  0.614735  0.960638  0.841718  1
  I  I32  1  0.358344  0.566957  0.500536  1
