# generated using pymatgen
data_SrAsPdPtRh
_symmetry_space_group_name_H-M   'P 1'
_cell_length_a   4.19878700
_cell_length_b   4.19878700
_cell_length_c   11.07120500
_cell_angle_alpha   90.00000000
_cell_angle_beta   90.00000000
_cell_angle_gamma   90.00000000
_symmetry_Int_Tables_number   1
_chemical_formula_structural   SrAsPdPtRh
_chemical_formula_sum   'Sr2 As2 Pd2 Pt2 Rh2'
_cell_volume   195.18326577
_cell_formula_units_Z   2
loop_
 _symmetry_equiv_pos_site_id
 _symmetry_equiv_pos_as_xyz
  1  'x, y, z'
loop_
 _atom_site_type_symbol
 _atom_site_label
 _atom_site_symmetry_multiplicity
 _atom_site_fract_x
 _atom_site_fract_y
 _atom_site_fract_z
 _atom_site_occupancy
  Sr  Sr0  1  0.000000  0.500000  0.264794  1
  Sr  Sr1  1  0.500000  0.000000  0.735206  1
  As  As2  1  0.000000  0.500000  0.877332  1
  As  As3  1  0.500000  0.000000  0.122668  1
  Pd  Pd4  1  0.000000  0.000000  0.500000  1
  Pd  Pd5  1  0.500000  0.500000  0.500000  1
  Pt  Pt6  1  0.000000  0.500000  0.661342  1
  Pt  Pt7  1  0.500000  0.000000  0.338658  1
  Rh  Rh8  1  0.000000  0.000000  0.000000  1
  Rh  Rh9  1  0.500000  0.500000  0.000000  1
