# generated using pymatgen
data_HoTh5H8Br15
_symmetry_space_group_name_H-M   'P 1'
_cell_length_a   9.96726422
_cell_length_b   9.96684025
_cell_length_c   9.96844100
_cell_angle_alpha   109.24718081
_cell_angle_beta   109.28709872
_cell_angle_gamma   109.87304309
_symmetry_Int_Tables_number   1
_chemical_formula_structural   HoTh5H8Br15
_chemical_formula_sum   'Ho1 Th5 H8 Br15'
_cell_volume   762.36085963
_cell_formula_units_Z   1
loop_
 _symmetry_equiv_pos_site_id
 _symmetry_equiv_pos_as_xyz
  1  'x, y, z'
loop_
 _atom_site_type_symbol
 _atom_site_label
 _atom_site_symmetry_multiplicity
 _atom_site_fract_x
 _atom_site_fract_y
 _atom_site_fract_z
 _atom_site_occupancy
  Ho  Ho0  1  0.231216  0.231263  0.000029  1
  Th  Th1  1  0.756617  0.756601  0.999976  1
  Th  Th2  1  0.241611  0.003488  0.238082  1
  Th  Th3  1  0.003486  0.241610  0.238065  1
  Th  Th4  1  0.765406  0.003509  0.761909  1
  Th  Th5  1  0.003521  0.765394  0.761924  1
  H  H6  1  0.178466  0.999647  0.000019  1
  H  H7  1  0.820455  0.998986  0.999973  1
  H  H8  1  0.999670  0.178468  0.000002  1
  H  H9  1  0.998989  0.820413  0.999995  1
  H  H10  1  0.998980  0.998971  0.178498  1
  H  H11  1  0.178454  0.178460  0.178788  1
  H  H12  1  0.999666  0.999660  0.821254  1
  H  H13  1  0.820412  0.820400  0.821428  1
  Br  Br14  1  0.745020  0.254395  0.999882  1
  Br  Br15  1  0.498685  0.498665  0.999994  1
  Br  Br16  1  0.254449  0.745064  0.000061  1
  Br  Br17  1  0.744981  0.999746  0.254779  1
  Br  Br18  1  0.999830  0.744956  0.254873  1
  Br  Br19  1  0.506466  0.256485  0.250088  1
  Br  Br20  1  0.256424  0.506486  0.250060  1
  Br  Br21  1  0.745070  0.745126  0.490691  1
  Br  Br22  1  0.499959  0.999952  0.500000  1
  Br  Br23  1  0.999953  0.499956  0.500010  1
  Br  Br24  1  0.254405  0.254336  0.509279  1
  Br  Br25  1  0.256419  0.006514  0.750092  1
  Br  Br26  1  0.006373  0.256423  0.749963  1
  Br  Br27  1  0.744964  0.490123  0.745202  1
  Br  Br28  1  0.490056  0.744913  0.745089  1
