# generated using pymatgen
data_Hf3SnIr2
_symmetry_space_group_name_H-M   'P 1'
_cell_length_a   4.20363500
_cell_length_b   6.84016200
_cell_length_c   8.30957500
_cell_angle_alpha   90.00000000
_cell_angle_beta   90.00000000
_cell_angle_gamma   90.00000000
_symmetry_Int_Tables_number   1
_chemical_formula_structural   Hf3SnIr2
_chemical_formula_sum   'Hf6 Sn2 Ir4'
_cell_volume   238.92973362
_cell_formula_units_Z   2
loop_
 _symmetry_equiv_pos_site_id
 _symmetry_equiv_pos_as_xyz
  1  'x, y, z'
loop_
 _atom_site_type_symbol
 _atom_site_label
 _atom_site_symmetry_multiplicity
 _atom_site_fract_x
 _atom_site_fract_y
 _atom_site_fract_z
 _atom_site_occupancy
  Hf  Hf0  1  0.250000  0.027140  0.341014  1
  Hf  Hf1  1  0.250000  0.527140  0.158986  1
  Hf  Hf2  1  0.750000  0.980378  0.670736  1
  Hf  Hf3  1  0.750000  0.480378  0.829264  1
  Hf  Hf4  1  0.250000  0.133438  0.937596  1
  Hf  Hf5  1  0.250000  0.633438  0.562404  1
  Sn  Sn6  1  0.750000  0.854237  0.078569  1
  Sn  Sn7  1  0.750000  0.354237  0.421431  1
  Ir  Ir8  1  0.250000  0.236189  0.629783  1
  Ir  Ir9  1  0.250000  0.736189  0.870217  1
  Ir  Ir10  1  0.750000  0.768618  0.402480  1
  Ir  Ir11  1  0.750000  0.268618  0.097520  1
