# generated using pymatgen
data_DyEr3Fe5Si10Rh
_symmetry_space_group_name_H-M   'P 1'
_cell_length_a   8.00502846
_cell_length_b   8.00575051
_cell_length_c   8.00575044
_cell_angle_alpha   140.44072422
_cell_angle_beta   108.14391579
_cell_angle_gamma   85.27632185
_symmetry_Int_Tables_number   1
_chemical_formula_structural   DyEr3Fe5Si10Rh
_chemical_formula_sum   'Dy1 Er3 Fe5 Si10 Rh1'
_cell_volume   299.77661765
_cell_formula_units_Z   1
loop_
 _symmetry_equiv_pos_site_id
 _symmetry_equiv_pos_as_xyz
  1  'x, y, z'
loop_
 _atom_site_type_symbol
 _atom_site_label
 _atom_site_symmetry_multiplicity
 _atom_site_fract_x
 _atom_site_fract_y
 _atom_site_fract_z
 _atom_site_occupancy
  Dy  Dy0  1  0.135661  0.863338  0.272322  1
  Er  Er1  1  0.593224  0.361801  0.231422  1
  Er  Er2  1  0.405312  0.637463  0.767850  1
  Er  Er3  1  0.872252  0.139510  0.732741  1
  Fe  Fe4  1  0.995934  0.747844  0.745015  1
  Fe  Fe5  1  0.447348  0.856423  0.590926  1
  Fe  Fe6  1  0.263752  0.354522  0.909230  1
  Fe  Fe7  1  0.736792  0.644688  0.092103  1
  Fe  Fe8  1  0.995934  0.250919  0.248090  1
  Si  Si9  1  0.249146  0.091106  0.158042  1
  Si  Si10  1  0.734961  0.906821  0.828141  1
  Si  Si11  1  0.075459  0.406306  0.669153  1
  Si  Si12  1  0.923105  0.593859  0.329245  1
  Si  Si13  1  0.797057  0.035634  0.246651  1
  Si  Si14  1  0.210614  0.462106  0.250980  1
  Si  Si15  1  0.210614  0.959632  0.748507  1
  Si  Si16  1  0.503276  0.734682  0.244034  1
  Si  Si17  1  0.503276  0.259242  0.768594  1
  Si  Si18  1  0.797057  0.550407  0.761423  1
  Rh  Rh19  1  0.549229  0.143696  0.405531  1
