# generated using pymatgen
data_MgCu(BrO3)4
_symmetry_space_group_name_H-M   'P 1'
_cell_length_a   4.93677842
_cell_length_b   6.73072216
_cell_length_c   8.47285500
_cell_angle_alpha   82.31328674
_cell_angle_beta   88.64012454
_cell_angle_gamma   94.57823598
_symmetry_Int_Tables_number   1
_chemical_formula_structural   MgCu(BrO3)4
_chemical_formula_sum   'Mg1 Cu1 Br4 O12'
_cell_volume   277.94791772
_cell_formula_units_Z   1
loop_
 _symmetry_equiv_pos_site_id
 _symmetry_equiv_pos_as_xyz
  1  'x, y, z'
loop_
 _atom_site_type_symbol
 _atom_site_label
 _atom_site_symmetry_multiplicity
 _atom_site_fract_x
 _atom_site_fract_y
 _atom_site_fract_z
 _atom_site_occupancy
  Mg  Mg0  1  0.500000  0.000000  0.500000  1
  Cu  Cu1  1  0.500000  0.500000  0.500000  1
  Br  Br2  1  0.574129  0.794560  0.162713  1
  Br  Br3  1  0.053140  0.273946  0.272595  1
  Br  Br4  1  0.946860  0.726054  0.727405  1
  Br  Br5  1  0.425871  0.205440  0.837287  1
  O  O6  1  0.757670  0.625675  0.097133  1
  O  O7  1  0.738523  0.019665  0.111191  1
  O  O8  1  0.241635  0.477899  0.326954  1
  O  O9  1  0.243292  0.079701  0.316622  1
  O  O10  1  0.626173  0.764691  0.377035  1
  O  O11  1  0.791735  0.240643  0.407610  1
  O  O12  1  0.208265  0.759357  0.592390  1
  O  O13  1  0.373827  0.235309  0.622965  1
  O  O14  1  0.756708  0.920299  0.683378  1
  O  O15  1  0.758365  0.522101  0.673046  1
  O  O16  1  0.261477  0.980335  0.888809  1
  O  O17  1  0.242330  0.374325  0.902867  1
