# generated using pymatgen
data_Sc12Ni2RhBr16
_symmetry_space_group_name_H-M   'P 1'
_cell_length_a   8.94841289
_cell_length_b   11.09574339
_cell_length_c   11.73519981
_cell_angle_alpha   117.08604524
_cell_angle_beta   101.72007506
_cell_angle_gamma   101.31942982
_symmetry_Int_Tables_number   1
_chemical_formula_structural   Sc12Ni2RhBr16
_chemical_formula_sum   'Sc12 Ni2 Rh1 Br16'
_cell_volume   958.41329012
_cell_formula_units_Z   1
loop_
 _symmetry_equiv_pos_site_id
 _symmetry_equiv_pos_as_xyz
  1  'x, y, z'
loop_
 _atom_site_type_symbol
 _atom_site_label
 _atom_site_symmetry_multiplicity
 _atom_site_fract_x
 _atom_site_fract_y
 _atom_site_fract_z
 _atom_site_occupancy
  Sc  Sc0  1  0.083363  0.259937  0.352804  1
  Sc  Sc1  1  0.916637  0.740063  0.647196  1
  Sc  Sc2  1  0.778585  0.537204  0.322767  1
  Sc  Sc3  1  0.221415  0.462796  0.677233  1
  Sc  Sc4  1  0.280025  0.740512  0.647482  1
  Sc  Sc5  1  0.719975  0.259488  0.352518  1
  Sc  Sc6  1  0.141866  0.536892  0.323456  1
  Sc  Sc7  1  0.858134  0.463108  0.676544  1
  Sc  Sc8  1  0.402960  0.354555  0.268153  1
  Sc  Sc9  1  0.597040  0.645445  0.731847  1
  Sc  Sc10  1  0.457460  0.303224  0.520851  1
  Sc  Sc11  1  0.542540  0.696776  0.479149  1
  Ni  Ni12  1  0.343321  0.500026  0.499349  1
  Ni  Ni13  1  0.656680  0.499974  0.500651  1
  Rh  Rh14  1  0.000000  0.500000  0.500000  1
  Br  Br15  1  0.398203  0.741407  0.884009  1
  Br  Br16  1  0.601797  0.258593  0.115991  1
  Br  Br17  1  0.190171  0.968310  0.784542  1
  Br  Br18  1  0.809829  0.031690  0.215458  1
  Br  Br19  1  0.338025  0.093730  0.250413  1
  Br  Br20  1  0.661975  0.906270  0.749587  1
  Br  Br21  1  0.555269  0.437907  0.799047  1
  Br  Br22  1  0.444731  0.562093  0.200953  1
  Br  Br23  1  0.310594  0.827262  0.462890  1
  Br  Br24  1  0.689406  0.172738  0.537110  1
  Br  Br25  1  0.168637  0.170905  0.532919  1
  Br  Br26  1  0.831363  0.829095  0.467081  1
  Br  Br27  1  0.926430  0.577022  0.159708  1
  Br  Br28  1  0.073570  0.422978  0.840292  1
  Br  Br29  1  0.922156  0.739995  0.884038  1
  Br  Br30  1  0.077844  0.260005  0.115962  1
