# generated using pymatgen
data_TbY5Ho4(In2Pd)4
_symmetry_space_group_name_H-M   'P 1'
_cell_length_a   3.63820300
_cell_length_b   8.16848310
_cell_length_c   18.27040122
_cell_angle_alpha   90.01792613
_cell_angle_beta   90.00000000
_cell_angle_gamma   90.00000000
_symmetry_Int_Tables_number   1
_chemical_formula_structural   TbY5Ho4(In2Pd)4
_chemical_formula_sum   'Tb1 Y5 Ho4 In8 Pd4'
_cell_volume   542.97071411
_cell_formula_units_Z   1
loop_
 _symmetry_equiv_pos_site_id
 _symmetry_equiv_pos_as_xyz
  1  'x, y, z'
loop_
 _atom_site_type_symbol
 _atom_site_label
 _atom_site_symmetry_multiplicity
 _atom_site_fract_x
 _atom_site_fract_y
 _atom_site_fract_z
 _atom_site_occupancy
  Tb  Tb0  1  0.000000  0.739084  0.281189  1
  Y  Y1  1  0.000000  0.500012  0.499999  1
  Y  Y2  1  0.000000  0.000006  0.999991  1
  Y  Y3  1  0.000000  0.261073  0.718675  1
  Y  Y4  1  0.000000  0.761121  0.781307  1
  Y  Y5  1  0.000000  0.238816  0.218692  1
  Ho  Ho6  1  0.000000  0.617095  0.083470  1
  Ho  Ho7  1  0.000000  0.382940  0.916489  1
  Ho  Ho8  1  0.000000  0.882905  0.583531  1
  Ho  Ho9  1  0.000000  0.117145  0.416512  1
  In  In10  1  0.500000  0.707548  0.932791  1
  In  In11  1  0.500000  0.292434  0.067197  1
  In  In12  1  0.500000  0.792491  0.432882  1
  In  In13  1  0.500000  0.207510  0.567209  1
  In  In14  1  0.500000  0.581250  0.650446  1
  In  In15  1  0.500000  0.418626  0.349607  1
  In  In16  1  0.500000  0.918870  0.150335  1
  In  In17  1  0.500000  0.081233  0.849546  1
  Pd  Pd18  1  0.500000  0.524126  0.194994  1
  Pd  Pd19  1  0.500000  0.476070  0.805137  1
  Pd  Pd20  1  0.500000  0.976055  0.694897  1
  Pd  Pd21  1  0.500000  0.023589  0.305106  1
