# generated using pymatgen
data_Sm3Dy(TcB4)4
_symmetry_space_group_name_H-M   'P 1'
_cell_length_a   6.01293404
_cell_length_b   11.64316099
_cell_length_c   3.63493000
_cell_angle_alpha   90.00000000
_cell_angle_beta   90.00000000
_cell_angle_gamma   89.91809399
_symmetry_Int_Tables_number   1
_chemical_formula_structural   Sm3Dy(TcB4)4
_chemical_formula_sum   'Sm3 Dy1 Tc4 B16'
_cell_volume   254.47958658
_cell_formula_units_Z   1
loop_
 _symmetry_equiv_pos_site_id
 _symmetry_equiv_pos_as_xyz
  1  'x, y, z'
loop_
 _atom_site_type_symbol
 _atom_site_label
 _atom_site_symmetry_multiplicity
 _atom_site_fract_x
 _atom_site_fract_y
 _atom_site_fract_z
 _atom_site_occupancy
  Sm  Sm0  1  0.626087  0.349645  0.000000  1
  Sm  Sm1  1  0.373934  0.650827  0.000000  1
  Sm  Sm2  1  0.126081  0.150068  0.000000  1
  Dy  Dy3  1  0.873962  0.849895  0.000000  1
  Tc  Tc4  1  0.632109  0.085608  0.000000  1
  Tc  Tc5  1  0.368294  0.912684  0.000000  1
  Tc  Tc6  1  0.131227  0.413671  0.000000  1
  Tc  Tc7  1  0.868531  0.588034  0.000000  1
  B  B8  1  0.784418  0.183697  0.500000  1
  B  B9  1  0.213359  0.815787  0.500000  1
  B  B10  1  0.284366  0.315744  0.500000  1
  B  B11  1  0.715722  0.685613  0.500000  1
  B  B12  1  0.862775  0.030512  0.500000  1
  B  B13  1  0.137106  0.967237  0.500000  1
  B  B14  1  0.361773  0.468473  0.500000  1
  B  B15  1  0.638228  0.532597  0.500000  1
  B  B16  1  0.887150  0.454044  0.500000  1
  B  B17  1  0.112196  0.547183  0.500000  1
  B  B18  1  0.387812  0.045493  0.500000  1
  B  B19  1  0.614551  0.952341  0.500000  1
  B  B20  1  0.976062  0.309139  0.500000  1
  B  B21  1  0.022798  0.692556  0.500000  1
  B  B22  1  0.476231  0.190381  0.500000  1
  B  B23  1  0.525231  0.808770  0.500000  1
