# generated using pymatgen
data_Rb19Hf4InAs12
_symmetry_space_group_name_H-M   'P 1'
_cell_length_a   8.80491567
_cell_length_b   9.48801634
_cell_length_c   18.38888100
_cell_angle_alpha   60.16131501
_cell_angle_beta   90.41473664
_cell_angle_gamma   90.21858917
_symmetry_Int_Tables_number   1
_chemical_formula_structural   Rb19Hf4InAs12
_chemical_formula_sum   'Rb19 Hf4 In1 As12'
_cell_volume   1332.53562460
_cell_formula_units_Z   1
loop_
 _symmetry_equiv_pos_site_id
 _symmetry_equiv_pos_as_xyz
  1  'x, y, z'
loop_
 _atom_site_type_symbol
 _atom_site_label
 _atom_site_symmetry_multiplicity
 _atom_site_fract_x
 _atom_site_fract_y
 _atom_site_fract_z
 _atom_site_occupancy
  Rb  Rb0  1  0.195548  0.818349  0.738489  1
  Rb  Rb1  1  0.667236  0.168249  0.756198  1
  Rb  Rb2  1  0.823280  0.154468  0.260590  1
  Rb  Rb3  1  0.320212  0.840021  0.243687  1
  Rb  Rb4  1  0.164751  0.162724  0.419332  1
  Rb  Rb5  1  0.654250  0.840016  0.079996  1
  Rb  Rb6  1  0.827597  0.836186  0.579504  1
  Rb  Rb7  1  0.340179  0.191943  0.904089  1
  Rb  Rb8  1  0.008045  0.081518  0.089933  1
  Rb  Rb9  1  0.503950  0.912842  0.409558  1
  Rb  Rb10  1  0.002701  0.920330  0.901752  1
  Rb  Rb11  1  0.490713  0.076397  0.590170  1
  Rb  Rb12  1  0.506791  0.267010  0.080223  1
  Rb  Rb13  1  0.014739  0.727965  0.421313  1
  Rb  Rb14  1  0.473660  0.736656  0.918264  1
  Rb  Rb15  1  0.988136  0.269508  0.574762  1
  Rb  Rb16  1  0.971453  0.546720  0.256128  1
  Rb  Rb17  1  0.474850  0.454643  0.247154  1
  Rb  Rb18  1  0.027761  0.453011  0.740876  1
  Hf  Hf19  1  0.377216  0.491349  0.585621  1
  Hf  Hf20  1  0.874063  0.506926  0.925153  1
  Hf  Hf21  1  0.627060  0.505225  0.421564  1
  Hf  Hf22  1  0.123062  0.497328  0.081891  1
  In  In23  1  0.594961  0.539804  0.779346  1
  As  As24  1  0.328304  0.484380  0.441838  1
  As  As25  1  0.819711  0.518583  0.063274  1
  As  As26  1  0.680020  0.513649  0.561710  1
  As  As27  1  0.170415  0.482131  0.942633  1
  As  As28  1  0.202062  0.226328  0.214309  1
  As  As29  1  0.700628  0.777620  0.284115  1
  As  As30  1  0.788631  0.767458  0.787413  1
  As  As31  1  0.286240  0.209485  0.712066  1
  As  As32  1  0.245233  0.756509  0.075109  1
  As  As33  1  0.745801  0.250043  0.422419  1
  As  As34  1  0.740874  0.265994  0.918559  1
  As  As35  1  0.239866  0.748628  0.570961  1
