# generated using pymatgen
data_Tb3Y2HoTa2O14
_symmetry_space_group_name_H-M   'P 1'
_cell_length_a   6.51269316
_cell_length_b   6.51764121
_cell_length_c   7.48914367
_cell_angle_alpha   89.98758877
_cell_angle_beta   89.99792332
_cell_angle_gamma   108.63082711
_symmetry_Int_Tables_number   1
_chemical_formula_structural   Tb3Y2HoTa2O14
_chemical_formula_sum   'Tb3 Y2 Ho1 Ta2 O14'
_cell_volume   301.23590699
_cell_formula_units_Z   1
loop_
 _symmetry_equiv_pos_site_id
 _symmetry_equiv_pos_as_xyz
  1  'x, y, z'
loop_
 _atom_site_type_symbol
 _atom_site_label
 _atom_site_symmetry_multiplicity
 _atom_site_fract_x
 _atom_site_fract_y
 _atom_site_fract_z
 _atom_site_occupancy
  Tb  Tb0  1  0.536476  0.537011  0.499346  1
  Tb  Tb1  1  0.462757  0.461624  0.000497  1
  Tb  Tb2  1  0.999949  0.535506  0.240854  1
  Y  Y3  1  0.999912  0.464921  0.740735  1
  Y  Y4  1  0.534707  0.999984  0.759001  1
  Ho  Ho5  1  0.465552  0.999396  0.258982  1
  Ta  Ta6  1  0.002107  0.002250  0.499545  1
  Ta  Ta7  1  0.997777  0.998030  0.000290  1
  O  O8  1  0.932210  0.066667  0.749961  1
  O  O9  1  0.068455  0.932644  0.249994  1
  O  O10  1  0.360978  0.641931  0.249663  1
  O  O11  1  0.639523  0.359849  0.750211  1
  O  O12  1  0.370960  0.629425  0.749941  1
  O  O13  1  0.627120  0.367759  0.250671  1
  O  O14  1  0.327960  0.081589  0.977425  1
  O  O15  1  0.672151  0.918739  0.474318  1
  O  O16  1  0.306527  0.048084  0.543655  1
  O  O17  1  0.694127  0.952652  0.046873  1
  O  O18  1  0.050325  0.307135  0.455745  1
  O  O19  1  0.950423  0.693983  0.955035  1
  O  O20  1  0.916748  0.672606  0.523893  1
  O  O21  1  0.083257  0.328214  0.023365  1
