# generated using pymatgen
data_PrDyAlZn2Ga
_symmetry_space_group_name_H-M   'P 1'
_cell_length_a   4.50653800
_cell_length_b   4.50653680
_cell_length_c   7.37683600
_cell_angle_alpha   90.00000000
_cell_angle_beta   90.00000000
_cell_angle_gamma   120.00000884
_symmetry_Int_Tables_number   1
_chemical_formula_structural   PrDyAlZn2Ga
_chemical_formula_sum   'Pr1 Dy1 Al1 Zn2 Ga1'
_cell_volume   129.74381992
_cell_formula_units_Z   1
loop_
 _symmetry_equiv_pos_site_id
 _symmetry_equiv_pos_as_xyz
  1  'x, y, z'
loop_
 _atom_site_type_symbol
 _atom_site_label
 _atom_site_symmetry_multiplicity
 _atom_site_fract_x
 _atom_site_fract_y
 _atom_site_fract_z
 _atom_site_occupancy
  Pr  Pr0  1  0.000000  0.000000  0.498659  1
  Dy  Dy1  1  0.000000  0.000000  0.003890  1
  Al  Al2  1  0.666667  0.333333  0.787835  1
  Zn  Zn3  1  0.666667  0.333333  0.195865  1
  Zn  Zn4  1  0.333333  0.666667  0.735829  1
  Ga  Ga5  1  0.333333  0.666667  0.265523  1
