# generated using pymatgen
data_Th10Mn13C18
_symmetry_space_group_name_H-M   'P 1'
_cell_length_a   8.93452410
_cell_length_b   8.93452387
_cell_length_c   8.93452400
_cell_angle_alpha   109.47122321
_cell_angle_beta   109.47122267
_cell_angle_gamma   109.47121914
_symmetry_Int_Tables_number   1
_chemical_formula_structural   Th10Mn13C18
_chemical_formula_sum   'Th10 Mn13 C18'
_cell_volume   549.02529041
_cell_formula_units_Z   1
loop_
 _symmetry_equiv_pos_site_id
 _symmetry_equiv_pos_as_xyz
  1  'x, y, z'
loop_
 _atom_site_type_symbol
 _atom_site_label
 _atom_site_symmetry_multiplicity
 _atom_site_fract_x
 _atom_site_fract_y
 _atom_site_fract_z
 _atom_site_occupancy
  Th  Th0  1  0.500000  0.750000  0.250000  1
  Th  Th1  1  0.750000  0.500000  0.250000  1
  Th  Th2  1  0.250000  0.750000  0.500000  1
  Th  Th3  1  0.250000  0.500000  0.750000  1
  Th  Th4  1  0.500000  0.250000  0.750000  1
  Th  Th5  1  0.750000  0.250000  0.500000  1
  Th  Th6  1  0.407029  0.000000  0.000000  1
  Th  Th7  1  0.000000  0.407029  0.000000  1
  Th  Th8  1  0.000000  0.000000  0.407029  1
  Th  Th9  1  0.592971  0.592971  0.592971  1
  Mn  Mn10  1  0.000000  0.000000  0.000000  1
  Mn  Mn11  1  0.674550  0.826518  0.000000  1
  Mn  Mn12  1  0.848033  0.173482  0.173482  1
  Mn  Mn13  1  0.674550  0.000000  0.826518  1
  Mn  Mn14  1  0.826518  0.674550  0.000000  1
  Mn  Mn15  1  0.000000  0.674550  0.826518  1
  Mn  Mn16  1  0.173482  0.848033  0.173482  1
  Mn  Mn17  1  0.173482  0.173482  0.848033  1
  Mn  Mn18  1  0.000000  0.826518  0.674550  1
  Mn  Mn19  1  0.826518  0.000000  0.674550  1
  Mn  Mn20  1  0.325450  0.325450  0.151967  1
  Mn  Mn21  1  0.151967  0.325450  0.325450  1
  Mn  Mn22  1  0.325450  0.151967  0.325450  1
  C  C23  1  0.702315  0.215241  0.000000  1
  C  C24  1  0.487074  0.784759  0.784759  1
  C  C25  1  0.702315  0.000000  0.215241  1
  C  C26  1  0.215241  0.702315  0.000000  1
  C  C27  1  0.000000  0.702315  0.215241  1
  C  C28  1  0.784759  0.487074  0.784759  1
  C  C29  1  0.784759  0.784759  0.487074  1
  C  C30  1  0.000000  0.215241  0.702315  1
  C  C31  1  0.215241  0.000000  0.702315  1
  C  C32  1  0.297685  0.297685  0.512926  1
  C  C33  1  0.512926  0.297685  0.297685  1
  C  C34  1  0.297685  0.512926  0.297685  1
  C  C35  1  0.568853  0.568853  0.000000  1
  C  C36  1  0.000000  0.431147  0.431147  1
  C  C37  1  0.568853  0.000000  0.568853  1
  C  C38  1  0.000000  0.568853  0.568853  1
  C  C39  1  0.431147  0.000000  0.431147  1
  C  C40  1  0.431147  0.431147  0.000000  1
