# generated using pymatgen
data_Yb3ScAl18OsPd5
_symmetry_space_group_name_H-M   'P 1'
_cell_length_a   7.62113807
_cell_length_b   7.62402555
_cell_length_c   9.47640365
_cell_angle_alpha   90.04850053
_cell_angle_beta   90.12380295
_cell_angle_gamma   119.66488312
_symmetry_Int_Tables_number   1
_chemical_formula_structural   Yb3ScAl18OsPd5
_chemical_formula_sum   'Yb3 Sc1 Al18 Os1 Pd5'
_cell_volume   478.44603021
_cell_formula_units_Z   1
loop_
 _symmetry_equiv_pos_site_id
 _symmetry_equiv_pos_as_xyz
  1  'x, y, z'
loop_
 _atom_site_type_symbol
 _atom_site_label
 _atom_site_symmetry_multiplicity
 _atom_site_fract_x
 _atom_site_fract_y
 _atom_site_fract_z
 _atom_site_occupancy
  Yb  Yb0  1  0.993534  0.669459  0.247925  1
  Yb  Yb1  1  0.002866  0.329232  0.751420  1
  Yb  Yb2  1  0.671952  0.996354  0.248276  1
  Sc  Sc3  1  0.330401  0.000892  0.753049  1
  Al  Al4  1  0.132197  0.132809  0.249764  1
  Al  Al5  1  0.874827  0.872968  0.750407  1
  Al  Al6  1  0.996110  0.334929  0.074455  1
  Al  Al7  1  0.998487  0.662281  0.920506  1
  Al  Al8  1  0.003607  0.670049  0.582209  1
  Al  Al9  1  0.333986  0.000955  0.425246  1
  Al  Al10  1  0.002237  0.335794  0.424467  1
  Al  Al11  1  0.661207  0.999872  0.581462  1
  Al  Al12  1  0.662779  0.004117  0.919881  1
  Al  Al13  1  0.340150  0.004076  0.072778  1
  Al  Al14  1  0.332572  0.329777  0.561071  1
  Al  Al15  1  0.664884  0.665730  0.447647  1
  Al  Al16  1  0.666916  0.661864  0.046483  1
  Al  Al17  1  0.335505  0.328369  0.944730  1
  Al  Al18  1  0.339671  0.546616  0.249444  1
  Al  Al19  1  0.655364  0.446942  0.752395  1
  Al  Al20  1  0.546851  0.340032  0.246215  1
  Al  Al21  1  0.454575  0.665483  0.750808  1
  Os  Os22  1  0.670836  0.327656  0.998188  1
  Pd  Pd23  1  0.327904  0.671453  0.998554  1
  Pd  Pd24  1  0.327660  0.671794  0.501655  1
  Pd  Pd25  1  0.672073  0.329190  0.500863  1
  Pd  Pd26  1  0.000864  0.000512  0.999130  1
  Pd  Pd27  1  0.999983  0.000795  0.500974  1
