# generated using pymatgen
data_YbLuB6Ir
_symmetry_space_group_name_H-M   'P 1'
_cell_length_a   3.60481200
_cell_length_b   9.08547300
_cell_length_c   11.45915000
_cell_angle_alpha   90.00000000
_cell_angle_beta   90.00000000
_cell_angle_gamma   90.00000000
_symmetry_Int_Tables_number   1
_chemical_formula_structural   YbLuB6Ir
_chemical_formula_sum   'Yb4 Lu4 B24 Ir4'
_cell_volume   375.30345851
_cell_formula_units_Z   4
loop_
 _symmetry_equiv_pos_site_id
 _symmetry_equiv_pos_as_xyz
  1  'x, y, z'
loop_
 _atom_site_type_symbol
 _atom_site_label
 _atom_site_symmetry_multiplicity
 _atom_site_fract_x
 _atom_site_fract_y
 _atom_site_fract_z
 _atom_site_occupancy
  Yb  Yb0  1  0.000000  0.321861  0.413979  1
  Yb  Yb1  1  0.000000  0.678139  0.586021  1
  Yb  Yb2  1  0.000000  0.821861  0.086021  1
  Yb  Yb3  1  0.000000  0.178139  0.913979  1
  Lu  Lu4  1  0.000000  0.944290  0.373928  1
  Lu  Lu5  1  0.000000  0.055710  0.626072  1
  Lu  Lu6  1  0.000000  0.444290  0.126072  1
  Lu  Lu7  1  0.000000  0.555710  0.873928  1
  B  B8  1  0.500000  0.554210  0.433061  1
  B  B9  1  0.500000  0.445790  0.566939  1
  B  B10  1  0.500000  0.054210  0.066939  1
  B  B11  1  0.500000  0.945790  0.933061  1
  B  B12  1  0.500000  0.749697  0.420180  1
  B  B13  1  0.500000  0.250303  0.579820  1
  B  B14  1  0.500000  0.249697  0.079820  1
  B  B15  1  0.500000  0.750303  0.920180  1
  B  B16  1  0.500000  0.791188  0.265724  1
  B  B17  1  0.500000  0.208812  0.734276  1
  B  B18  1  0.500000  0.291188  0.234276  1
  B  B19  1  0.500000  0.708812  0.765724  1
  B  B20  1  0.500000  0.631078  0.183668  1
  B  B21  1  0.500000  0.368922  0.816332  1
  B  B22  1  0.500000  0.131078  0.316332  1
  B  B23  1  0.500000  0.868922  0.683668  1
  B  B24  1  0.500000  0.982876  0.212949  1
  B  B25  1  0.500000  0.017124  0.787051  1
  B  B26  1  0.500000  0.482876  0.287051  1
  B  B27  1  0.500000  0.517124  0.712949  1
  B  B28  1  0.500000  0.604550  0.028707  1
  B  B29  1  0.500000  0.395450  0.971293  1
  B  B30  1  0.500000  0.104550  0.471293  1
  B  B31  1  0.500000  0.895450  0.528707  1
  Ir  Ir32  1  0.000000  0.638166  0.320510  1
  Ir  Ir33  1  0.000000  0.361834  0.679490  1
  Ir  Ir34  1  0.000000  0.138166  0.179490  1
  Ir  Ir35  1  0.000000  0.861834  0.820510  1
