# generated using pymatgen
data_Yb4H12PdPt
_symmetry_space_group_name_H-M   'P 1'
_cell_length_a   6.98026099
_cell_length_b   6.98026185
_cell_length_c   5.22569818
_cell_angle_alpha   89.99159777
_cell_angle_beta   89.99158412
_cell_angle_gamma   136.08422893
_symmetry_Int_Tables_number   1
_chemical_formula_structural   Yb4H12PdPt
_chemical_formula_sum   'Yb4 H12 Pd1 Pt1'
_cell_volume   176.60249541
_cell_formula_units_Z   1
loop_
 _symmetry_equiv_pos_site_id
 _symmetry_equiv_pos_as_xyz
  1  'x, y, z'
loop_
 _atom_site_type_symbol
 _atom_site_label
 _atom_site_symmetry_multiplicity
 _atom_site_fract_x
 _atom_site_fract_y
 _atom_site_fract_z
 _atom_site_occupancy
  Yb  Yb0  1  0.652816  0.347184  0.000000  1
  Yb  Yb1  1  0.347184  0.652816  0.000000  1
  Yb  Yb2  1  0.850323  0.149677  0.500000  1
  Yb  Yb3  1  0.149677  0.850323  0.500000  1
  H  H4  1  0.867793  0.132207  0.000000  1
  H  H5  1  0.132207  0.867793  0.000000  1
  H  H6  1  0.629616  0.370384  0.500000  1
  H  H7  1  0.370384  0.629616  0.500000  1
  H  H8  1  0.000365  0.500267  0.254268  1
  H  H9  1  0.999635  0.499733  0.745732  1
  H  H10  1  0.499733  0.999635  0.745732  1
  H  H11  1  0.500267  0.000365  0.254268  1
  H  H12  1  0.259314  0.259314  0.265277  1
  H  H13  1  0.740686  0.740686  0.734723  1
  H  H14  1  0.264922  0.264922  0.741269  1
  H  H15  1  0.735078  0.735078  0.258731  1
  Pd  Pd16  1  0.000000  0.000000  0.000000  1
  Pt  Pt17  1  0.500000  0.500000  0.500000  1
