# generated using pymatgen
data_Tm2Lu10Zn2Fe2Os
_symmetry_space_group_name_H-M   'P 1'
_cell_length_a   8.11574165
_cell_length_b   8.11574256
_cell_length_c   8.10393893
_cell_angle_alpha   108.69621869
_cell_angle_beta   108.69620252
_cell_angle_gamma   111.08986705
_symmetry_Int_Tables_number   1
_chemical_formula_structural   Tm2Lu10Zn2Fe2Os
_chemical_formula_sum   'Tm2 Lu10 Zn2 Fe2 Os1'
_cell_volume   410.36625702
_cell_formula_units_Z   1
loop_
 _symmetry_equiv_pos_site_id
 _symmetry_equiv_pos_as_xyz
  1  'x, y, z'
loop_
 _atom_site_type_symbol
 _atom_site_label
 _atom_site_symmetry_multiplicity
 _atom_site_fract_x
 _atom_site_fract_y
 _atom_site_fract_z
 _atom_site_occupancy
  Tm  Tm0  1  0.691861  0.308139  0.000000  1
  Tm  Tm1  1  0.308139  0.691861  0.000000  1
  Lu  Lu2  1  0.189998  0.431949  0.243020  1
  Lu  Lu3  1  0.810002  0.568051  0.756980  1
  Lu  Lu4  1  0.188927  0.946979  0.756980  1
  Lu  Lu5  1  0.946979  0.188927  0.756980  1
  Lu  Lu6  1  0.811073  0.053021  0.243020  1
  Lu  Lu7  1  0.053021  0.811073  0.243020  1
  Lu  Lu8  1  0.431949  0.189998  0.243020  1
  Lu  Lu9  1  0.568051  0.810002  0.756980  1
  Lu  Lu10  1  0.308704  0.308704  0.617408  1
  Lu  Lu11  1  0.691296  0.691296  0.382592  1
  Zn  Zn12  1  0.000000  0.500000  0.500000  1
  Zn  Zn13  1  0.500000  0.000000  0.500000  1
  Fe  Fe14  1  0.381568  0.381568  0.000000  1
  Fe  Fe15  1  0.618432  0.618432  0.000000  1
  Os  Os16  1  0.000000  0.000000  0.000000  1
