# generated using pymatgen
data_Nd6Cd17Ag6Se
_symmetry_space_group_name_H-M   'P 1'
_cell_length_a   9.94971839
_cell_length_b   9.94971980
_cell_length_c   9.94972000
_cell_angle_alpha   60.00000599
_cell_angle_beta   60.00000130
_cell_angle_gamma   60.00000748
_symmetry_Int_Tables_number   1
_chemical_formula_structural   Nd6Cd17Ag6Se
_chemical_formula_sum   'Nd6 Cd17 Ag6 Se1'
_cell_volume   696.49427252
_cell_formula_units_Z   1
loop_
 _symmetry_equiv_pos_site_id
 _symmetry_equiv_pos_as_xyz
  1  'x, y, z'
loop_
 _atom_site_type_symbol
 _atom_site_label
 _atom_site_symmetry_multiplicity
 _atom_site_fract_x
 _atom_site_fract_y
 _atom_site_fract_z
 _atom_site_occupancy
  Nd  Nd0  1  0.789140  0.789140  0.210860  1
  Nd  Nd1  1  0.210860  0.789140  0.210860  1
  Nd  Nd2  1  0.789140  0.210860  0.210860  1
  Nd  Nd3  1  0.210860  0.210860  0.789140  1
  Nd  Nd4  1  0.789140  0.210860  0.789140  1
  Nd  Nd5  1  0.210860  0.789140  0.789140  1
  Cd  Cd6  1  0.832717  0.832717  0.501848  1
  Cd  Cd7  1  0.832717  0.501848  0.832717  1
  Cd  Cd8  1  0.501848  0.832717  0.832717  1
  Cd  Cd9  1  0.832717  0.832717  0.832717  1
  Cd  Cd10  1  0.167283  0.167283  0.498152  1
  Cd  Cd11  1  0.167283  0.498152  0.167283  1
  Cd  Cd12  1  0.498152  0.167283  0.167283  1
  Cd  Cd13  1  0.167283  0.167283  0.167283  1
  Cd  Cd14  1  0.622044  0.622044  0.133869  1
  Cd  Cd15  1  0.622044  0.133869  0.622044  1
  Cd  Cd16  1  0.133869  0.622044  0.622044  1
  Cd  Cd17  1  0.622044  0.622044  0.622044  1
  Cd  Cd18  1  0.377956  0.377956  0.866131  1
  Cd  Cd19  1  0.377956  0.866131  0.377956  1
  Cd  Cd20  1  0.866131  0.377956  0.377956  1
  Cd  Cd21  1  0.377956  0.377956  0.377956  1
  Cd  Cd22  1  0.500000  0.500000  0.500000  1
  Ag  Ag23  1  0.000000  0.000000  0.500000  1
  Ag  Ag24  1  0.500000  0.000000  0.500000  1
  Ag  Ag25  1  0.000000  0.500000  0.500000  1
  Ag  Ag26  1  0.500000  0.500000  0.000000  1
  Ag  Ag27  1  0.000000  0.500000  0.000000  1
  Ag  Ag28  1  0.500000  0.000000  0.000000  1
  Se  Se29  1  0.000000  0.000000  0.000000  1
