# generated using pymatgen
data_Y4Co16Si5Tc4P7
_symmetry_space_group_name_H-M   'P 1'
_cell_length_a   3.73260500
_cell_length_b   10.42169900
_cell_length_c   11.90712900
_cell_angle_alpha   89.99962402
_cell_angle_beta   90.00000000
_cell_angle_gamma   90.00000000
_symmetry_Int_Tables_number   1
_chemical_formula_structural   Y4Co16Si5Tc4P7
_chemical_formula_sum   'Y4 Co16 Si5 Tc4 P7'
_cell_volume   463.18833968
_cell_formula_units_Z   1
loop_
 _symmetry_equiv_pos_site_id
 _symmetry_equiv_pos_as_xyz
  1  'x, y, z'
loop_
 _atom_site_type_symbol
 _atom_site_label
 _atom_site_symmetry_multiplicity
 _atom_site_fract_x
 _atom_site_fract_y
 _atom_site_fract_z
 _atom_site_occupancy
  Y  Y0  1  0.250000  0.917628  0.202155  1
  Y  Y1  1  0.750000  0.083449  0.797555  1
  Y  Y2  1  0.750000  0.419022  0.297850  1
  Y  Y3  1  0.250000  0.583548  0.702308  1
  Co  Co4  1  0.250000  0.092477  0.986873  1
  Co  Co5  1  0.750000  0.906943  0.011144  1
  Co  Co6  1  0.750000  0.594358  0.512168  1
  Co  Co7  1  0.250000  0.410859  0.491392  1
  Co  Co8  1  0.250000  0.285473  0.677238  1
  Co  Co9  1  0.750000  0.714834  0.323540  1
  Co  Co10  1  0.750000  0.784832  0.823636  1
  Co  Co11  1  0.250000  0.213461  0.172328  1
  Co  Co12  1  0.250000  0.617622  0.200919  1
  Co  Co13  1  0.750000  0.383553  0.798656  1
  Co  Co14  1  0.750000  0.114869  0.297533  1
  Co  Co15  1  0.250000  0.882639  0.701765  1
  Co  Co16  1  0.250000  0.030690  0.432860  1
  Co  Co17  1  0.750000  0.963738  0.569637  1
  Co  Co18  1  0.750000  0.535279  0.068751  1
  Co  Co19  1  0.250000  0.465042  0.931298  1
  Si  Si20  1  0.250000  0.082064  0.613395  1
  Si  Si21  1  0.750000  0.918296  0.386420  1
  Si  Si22  1  0.750000  0.581789  0.886328  1
  Si  Si23  1  0.250000  0.417564  0.114045  1
  Si  Si24  1  0.250000  0.228759  0.365569  1
  Tc  Tc25  1  0.250000  0.790778  0.489049  1
  Tc  Tc26  1  0.750000  0.207949  0.512298  1
  Tc  Tc27  1  0.750000  0.291575  0.010365  1
  Tc  Tc28  1  0.250000  0.708490  0.988150  1
  P  P29  1  0.750000  0.771170  0.635360  1
  P  P30  1  0.750000  0.728707  0.135226  1
  P  P31  1  0.250000  0.271715  0.864710  1
  P  P32  1  0.250000  0.901600  0.890920  1
  P  P33  1  0.750000  0.098890  0.108692  1
  P  P34  1  0.750000  0.401739  0.608317  1
  P  P35  1  0.250000  0.598597  0.391552  1
