# generated using pymatgen
data_RbSm5Ho(CBr6)2
_symmetry_space_group_name_H-M   'P 1'
_cell_length_a   9.02714274
_cell_length_b   9.02011305
_cell_length_c   9.51996517
_cell_angle_alpha   72.30608467
_cell_angle_beta   71.01726020
_cell_angle_gamma   72.84407528
_symmetry_Int_Tables_number   1
_chemical_formula_structural   RbSm5Ho(CBr6)2
_chemical_formula_sum   'Rb1 Sm5 Ho1 C2 Br12'
_cell_volume   681.59175074
_cell_formula_units_Z   1
loop_
 _symmetry_equiv_pos_site_id
 _symmetry_equiv_pos_as_xyz
  1  'x, y, z'
loop_
 _atom_site_type_symbol
 _atom_site_label
 _atom_site_symmetry_multiplicity
 _atom_site_fract_x
 _atom_site_fract_y
 _atom_site_fract_z
 _atom_site_occupancy
  Rb  Rb0  1  0.998374  0.500718  0.000447  1
  Sm  Sm1  1  0.474544  0.116593  0.180743  1
  Sm  Sm2  1  0.780899  0.032977  0.406412  1
  Sm  Sm3  1  0.593889  0.721651  0.473639  1
  Sm  Sm4  1  0.405439  0.278046  0.525290  1
  Sm  Sm5  1  0.219159  0.966340  0.595552  1
  Ho  Ho6  1  0.526948  0.884814  0.813257  1
  C  C7  1  0.493091  0.025423  0.424528  1
  C  C8  1  0.507160  0.973003  0.576766  1
  Br  Br9  1  0.798548  0.161991  0.081698  1
  Br  Br10  1  0.584585  0.785912  0.134800  1
  Br  Br11  1  0.349410  0.433837  0.224155  1
  Br  Br12  1  0.134825  0.071631  0.295017  1
  Br  Br13  1  0.924712  0.721910  0.352141  1
  Br  Br14  1  0.716101  0.366655  0.430287  1
  Br  Br15  1  0.282884  0.633245  0.572124  1
  Br  Br16  1  0.074311  0.277752  0.648166  1
  Br  Br17  1  0.858938  0.926813  0.710671  1
  Br  Br18  1  0.647234  0.573170  0.778488  1
  Br  Br19  1  0.417891  0.207893  0.857012  1
  Br  Br20  1  0.211064  0.839626  0.918805  1
