# generated using pymatgen
data_LiEr12Th4Mg3Co4
_symmetry_space_group_name_H-M   'P 1'
_cell_length_a   9.57643030
_cell_length_b   9.57643132
_cell_length_c   9.57643187
_cell_angle_alpha   59.69492425
_cell_angle_beta   59.69491889
_cell_angle_gamma   59.69492169
_symmetry_Int_Tables_number   1
_chemical_formula_structural   LiEr12Th4Mg3Co4
_chemical_formula_sum   'Li1 Er12 Th4 Mg3 Co4'
_cell_volume   616.70280014
_cell_formula_units_Z   1
loop_
 _symmetry_equiv_pos_site_id
 _symmetry_equiv_pos_as_xyz
  1  'x, y, z'
loop_
 _atom_site_type_symbol
 _atom_site_label
 _atom_site_symmetry_multiplicity
 _atom_site_fract_x
 _atom_site_fract_y
 _atom_site_fract_z
 _atom_site_occupancy
  Li  Li0  1  0.829593  0.829593  0.829593  1
  Er  Er1  1  0.063055  0.436496  0.436496  1
  Er  Er2  1  0.434260  0.065019  0.065019  1
  Er  Er3  1  0.436496  0.063055  0.436496  1
  Er  Er4  1  0.065019  0.434260  0.065019  1
  Er  Er5  1  0.436496  0.436496  0.063055  1
  Er  Er6  1  0.065019  0.065019  0.434260  1
  Er  Er7  1  0.184544  0.815628  0.815628  1
  Er  Er8  1  0.815377  0.184696  0.184696  1
  Er  Er9  1  0.815628  0.184544  0.815628  1
  Er  Er10  1  0.184696  0.815377  0.184696  1
  Er  Er11  1  0.815628  0.815628  0.184544  1
  Er  Er12  1  0.184696  0.184696  0.815377  1
  Th  Th13  1  0.594750  0.594750  0.594750  1
  Th  Th14  1  0.594354  0.594354  0.216534  1
  Th  Th15  1  0.594354  0.216534  0.594354  1
  Th  Th16  1  0.216534  0.594354  0.594354  1
  Mg  Mg17  1  0.829949  0.829949  0.510014  1
  Mg  Mg18  1  0.829949  0.510014  0.829949  1
  Mg  Mg19  1  0.510014  0.829949  0.829949  1
  Co  Co20  1  0.394544  0.394544  0.394544  1
  Co  Co21  1  0.394330  0.394330  0.816389  1
  Co  Co22  1  0.394330  0.816389  0.394330  1
  Co  Co23  1  0.816389  0.394330  0.394330  1
