# generated using pymatgen
data_YbTh5Ir18
_symmetry_space_group_name_H-M   'P 1'
_cell_length_a   5.36965900
_cell_length_b   5.36965829
_cell_length_c   17.71485900
_cell_angle_alpha   90.00000000
_cell_angle_beta   90.00000000
_cell_angle_gamma   120.00001051
_symmetry_Int_Tables_number   1
_chemical_formula_structural   YbTh5Ir18
_chemical_formula_sum   'Yb1 Th5 Ir18'
_cell_volume   442.34552901
_cell_formula_units_Z   1
loop_
 _symmetry_equiv_pos_site_id
 _symmetry_equiv_pos_as_xyz
  1  'x, y, z'
loop_
 _atom_site_type_symbol
 _atom_site_label
 _atom_site_symmetry_multiplicity
 _atom_site_fract_x
 _atom_site_fract_y
 _atom_site_fract_z
 _atom_site_occupancy
  Yb  Yb0  1  0.333333  0.666667  0.540076  1
  Th  Th1  1  0.333333  0.666667  0.955429  1
  Th  Th2  1  0.666667  0.333333  0.042738  1
  Th  Th3  1  0.666667  0.333333  0.463799  1
  Th  Th4  1  0.333333  0.666667  0.740708  1
  Th  Th5  1  0.666667  0.333333  0.253929  1
  Ir  Ir6  1  0.167014  0.832986  0.374408  1
  Ir  Ir7  1  0.167014  0.334028  0.374408  1
  Ir  Ir8  1  0.665972  0.832986  0.374408  1
  Ir  Ir9  1  0.833237  0.166763  0.626009  1
  Ir  Ir10  1  0.833237  0.666472  0.626009  1
  Ir  Ir11  1  0.333528  0.166763  0.626009  1
  Ir  Ir12  1  0.833012  0.166988  0.871928  1
  Ir  Ir13  1  0.833012  0.666022  0.871928  1
  Ir  Ir14  1  0.333978  0.166988  0.871928  1
  Ir  Ir15  1  0.167243  0.832757  0.127827  1
  Ir  Ir16  1  0.167243  0.334487  0.127827  1
  Ir  Ir17  1  0.665513  0.832757  0.127827  1
  Ir  Ir18  1  0.333333  0.666667  0.250901  1
  Ir  Ir19  1  0.666667  0.333333  0.749428  1
  Ir  Ir20  1  0.000000  0.000000  0.251128  1
  Ir  Ir21  1  0.000000  0.000000  0.749519  1
  Ir  Ir22  1  0.000000  0.000000  0.501493  1
  Ir  Ir23  1  0.000000  0.000000  0.000336  1
