# generated using pymatgen
data_Dy2Co6Tc(NiP2)3
_symmetry_space_group_name_H-M   'P 1'
_cell_length_a   3.69673900
_cell_length_b   10.36507600
_cell_length_c   11.79001500
_cell_angle_alpha   90.00000000
_cell_angle_beta   90.00000000
_cell_angle_gamma   90.00000000
_symmetry_Int_Tables_number   1
_chemical_formula_structural   Dy2Co6Tc(NiP2)3
_chemical_formula_sum   'Dy4 Co12 Tc2 Ni6 P12'
_cell_volume   451.75777706
_cell_formula_units_Z   2
loop_
 _symmetry_equiv_pos_site_id
 _symmetry_equiv_pos_as_xyz
  1  'x, y, z'
loop_
 _atom_site_type_symbol
 _atom_site_label
 _atom_site_symmetry_multiplicity
 _atom_site_fract_x
 _atom_site_fract_y
 _atom_site_fract_z
 _atom_site_occupancy
  Dy  Dy0  1  0.250000  0.583452  0.702915  1
  Dy  Dy1  1  0.250000  0.916548  0.202915  1
  Dy  Dy2  1  0.750000  0.415349  0.294527  1
  Dy  Dy3  1  0.750000  0.084651  0.794527  1
  Co  Co4  1  0.750000  0.591608  0.509573  1
  Co  Co5  1  0.750000  0.908392  0.009573  1
  Co  Co6  1  0.750000  0.777802  0.822579  1
  Co  Co7  1  0.750000  0.722198  0.322579  1
  Co  Co8  1  0.250000  0.886491  0.701860  1
  Co  Co9  1  0.250000  0.613509  0.201860  1
  Co  Co10  1  0.750000  0.117187  0.301909  1
  Co  Co11  1  0.750000  0.382813  0.801909  1
  Co  Co12  1  0.250000  0.465952  0.931330  1
  Co  Co13  1  0.250000  0.034048  0.431330  1
  Co  Co14  1  0.750000  0.533187  0.069158  1
  Co  Co15  1  0.750000  0.966813  0.569158  1
  Tc  Tc16  1  0.250000  0.710901  0.991214  1
  Tc  Tc17  1  0.250000  0.789099  0.491214  1
  Ni  Ni18  1  0.750000  0.283451  0.010494  1
  Ni  Ni19  1  0.750000  0.216549  0.510494  1
  Ni  Ni20  1  0.250000  0.408337  0.487401  1
  Ni  Ni21  1  0.250000  0.091663  0.987401  1
  Ni  Ni22  1  0.250000  0.220638  0.177218  1
  Ni  Ni23  1  0.250000  0.279362  0.677218  1
  P  P24  1  0.250000  0.420197  0.111351  1
  P  P25  1  0.250000  0.079803  0.611351  1
  P  P26  1  0.750000  0.579131  0.886949  1
  P  P27  1  0.750000  0.920869  0.386949  1
  P  P28  1  0.250000  0.272414  0.869105  1
  P  P29  1  0.250000  0.227586  0.369105  1
  P  P30  1  0.750000  0.729308  0.132679  1
  P  P31  1  0.750000  0.770692  0.632679  1
  P  P32  1  0.250000  0.599101  0.390145  1
  P  P33  1  0.250000  0.900899  0.890145  1
  P  P34  1  0.750000  0.399749  0.609591  1
  P  P35  1  0.750000  0.100251  0.109591  1
