# generated using pymatgen
data_Pr6NdSi4BiO20
_symmetry_space_group_name_H-M   'P 1'
_cell_length_a   7.43779071
_cell_length_b   6.97807230
_cell_length_c   9.40866616
_cell_angle_alpha   71.32761851
_cell_angle_beta   90.19727151
_cell_angle_gamma   90.41701365
_symmetry_Int_Tables_number   1
_chemical_formula_structural   Pr6NdSi4BiO20
_chemical_formula_sum   'Pr6 Nd1 Si4 Bi1 O20'
_cell_volume   462.60772444
_cell_formula_units_Z   1
loop_
 _symmetry_equiv_pos_site_id
 _symmetry_equiv_pos_as_xyz
  1  'x, y, z'
loop_
 _atom_site_type_symbol
 _atom_site_label
 _atom_site_symmetry_multiplicity
 _atom_site_fract_x
 _atom_site_fract_y
 _atom_site_fract_z
 _atom_site_occupancy
  Pr  Pr0  1  0.127807  0.264711  0.018856  1
  Pr  Pr1  1  0.656135  0.096508  0.606552  1
  Pr  Pr2  1  0.845770  0.592689  0.611005  1
  Pr  Pr3  1  0.154908  0.406384  0.390292  1
  Pr  Pr4  1  0.345584  0.906796  0.390195  1
  Pr  Pr5  1  0.877395  0.728807  0.980040  1
  Nd  Nd6  1  0.375663  0.763271  0.022569  1
  Si  Si7  1  0.081020  0.042900  0.701084  1
  Si  Si8  1  0.578873  0.461008  0.299176  1
  Si  Si9  1  0.418454  0.545116  0.703472  1
  Si  Si10  1  0.919015  0.955326  0.298526  1
  Bi  Bi11  1  0.628349  0.218420  0.977592  1
  O  O12  1  0.567343  0.364052  0.709565  1
  O  O13  1  0.359011  0.502595  0.879797  1
  O  O14  1  0.376488  0.041231  0.114726  1
  O  O15  1  0.867145  0.998410  0.118972  1
  O  O16  1  0.249930  0.057572  0.589611  1
  O  O17  1  0.748962  0.943622  0.407982  1
  O  O18  1  0.037901  0.746909  0.367891  1
  O  O19  1  0.136699  0.993213  0.879739  1
  O  O20  1  0.461182  0.249019  0.364057  1
  O  O21  1  0.625989  0.960633  0.883795  1
  O  O22  1  0.071459  0.134539  0.291491  1
  O  O23  1  0.124706  0.548625  0.115184  1
  O  O24  1  0.747001  0.443034  0.412894  1
  O  O25  1  0.540988  0.753148  0.634998  1
  O  O26  1  0.961698  0.251646  0.632399  1
  O  O27  1  0.927357  0.865231  0.706433  1
  O  O28  1  0.634785  0.525144  0.120658  1
  O  O29  1  0.878265  0.446914  0.883377  1
  O  O30  1  0.424107  0.633853  0.296434  1
  O  O31  1  0.250012  0.558674  0.590636  1
