# generated using pymatgen
data_Li2Pr3MgIr2Pd
_symmetry_space_group_name_H-M   'P 1'
_cell_length_a   7.44366219
_cell_length_b   7.43171526
_cell_length_c   4.10351400
_cell_angle_alpha   90.00000000
_cell_angle_beta   90.00000000
_cell_angle_gamma   119.94693068
_symmetry_Int_Tables_number   1
_chemical_formula_structural   Li2Pr3MgIr2Pd
_chemical_formula_sum   'Li2 Pr3 Mg1 Ir2 Pd1'
_cell_volume   196.69542771
_cell_formula_units_Z   1
loop_
 _symmetry_equiv_pos_site_id
 _symmetry_equiv_pos_as_xyz
  1  'x, y, z'
loop_
 _atom_site_type_symbol
 _atom_site_label
 _atom_site_symmetry_multiplicity
 _atom_site_fract_x
 _atom_site_fract_y
 _atom_site_fract_z
 _atom_site_occupancy
  Li  Li0  1  0.760125  0.760937  0.000000  1
  Li  Li1  1  0.239875  0.000812  0.000000  1
  Pr  Pr2  1  0.424352  0.422713  0.500000  1
  Pr  Pr3  1  0.575648  0.998361  0.500000  1
  Pr  Pr4  1  0.000000  0.588052  0.500000  1
  Mg  Mg5  1  0.000000  0.238939  0.000000  1
  Ir  Ir6  1  0.673004  0.330275  0.000000  1
  Ir  Ir7  1  0.326996  0.657272  0.000000  1
  Pd  Pd8  1  0.000000  0.002639  0.500000  1
