# generated using pymatgen
data_La3TcBO9
_symmetry_space_group_name_H-M   'P 1'
_cell_length_a   8.83509600
_cell_length_b   8.83509186
_cell_length_c   5.51854800
_cell_angle_alpha   90.00179605
_cell_angle_beta   89.99825240
_cell_angle_gamma   120.00084944
_symmetry_Int_Tables_number   1
_chemical_formula_structural   La3TcBO9
_chemical_formula_sum   'La6 Tc2 B2 O18'
_cell_volume   373.05604395
_cell_formula_units_Z   2
loop_
 _symmetry_equiv_pos_site_id
 _symmetry_equiv_pos_as_xyz
  1  'x, y, z'
loop_
 _atom_site_type_symbol
 _atom_site_label
 _atom_site_symmetry_multiplicity
 _atom_site_fract_x
 _atom_site_fract_y
 _atom_site_fract_z
 _atom_site_occupancy
  La  La0  1  0.720031  0.628420  0.240167  1
  La  La1  1  0.908309  0.279946  0.240215  1
  La  La2  1  0.371632  0.091667  0.240208  1
  La  La3  1  0.091477  0.720015  0.740194  1
  La  La4  1  0.280015  0.371553  0.740217  1
  La  La5  1  0.628478  0.908467  0.740204  1
  Tc  Tc6  1  0.333333  0.666671  0.251386  1
  Tc  Tc7  1  0.666667  0.333331  0.751379  1
  B  B8  1  0.000003  0.999997  0.377982  1
  B  B9  1  0.000009  0.999998  0.877987  1
  O  O10  1  0.163118  0.502546  0.026216  1
  O  O11  1  0.497449  0.660563  0.026217  1
  O  O12  1  0.339445  0.836882  0.026215  1
  O  O13  1  0.042405  0.867779  0.372996  1
  O  O14  1  0.132227  0.174623  0.373012  1
  O  O15  1  0.825374  0.957603  0.373009  1
  O  O16  1  0.152803  0.512989  0.478649  1
  O  O17  1  0.487027  0.639815  0.478656  1
  O  O18  1  0.360186  0.847188  0.478663  1
  O  O19  1  0.660564  0.163124  0.526192  1
  O  O20  1  0.502554  0.339431  0.526206  1
  O  O21  1  0.836871  0.497426  0.526198  1
  O  O22  1  0.174636  0.042407  0.873014  1
  O  O23  1  0.957608  0.132226  0.873005  1
  O  O24  1  0.867775  0.825372  0.873015  1
  O  O25  1  0.847188  0.486993  0.978668  1
  O  O26  1  0.639815  0.152796  0.978659  1
  O  O27  1  0.512999  0.360180  0.978672  1
