# generated using pymatgen
data_YbTh7(Ta3Si4)4
_symmetry_space_group_name_H-M   'P 1'
_cell_length_a   7.14719885
_cell_length_b   7.14891040
_cell_length_c   13.33616828
_cell_angle_alpha   90.03791457
_cell_angle_beta   90.05539250
_cell_angle_gamma   90.00584218
_symmetry_Int_Tables_number   1
_chemical_formula_structural   YbTh7(Ta3Si4)4
_chemical_formula_sum   'Yb1 Th7 Ta12 Si16'
_cell_volume   681.40683529
_cell_formula_units_Z   1
loop_
 _symmetry_equiv_pos_site_id
 _symmetry_equiv_pos_as_xyz
  1  'x, y, z'
loop_
 _atom_site_type_symbol
 _atom_site_label
 _atom_site_symmetry_multiplicity
 _atom_site_fract_x
 _atom_site_fract_y
 _atom_site_fract_z
 _atom_site_occupancy
  Yb  Yb0  1  0.998663  0.336458  0.218789  1
  Th  Th1  1  0.000790  0.663127  0.718330  1
  Th  Th2  1  0.162961  0.497734  0.466234  1
  Th  Th3  1  0.501658  0.836737  0.032907  1
  Th  Th4  1  0.837443  0.500570  0.969057  1
  Th  Th5  1  0.499282  0.163884  0.530922  1
  Th  Th6  1  0.336664  0.999221  0.781535  1
  Th  Th7  1  0.665526  0.003150  0.281248  1
  Ta  Ta8  1  0.168616  0.169289  0.000285  1
  Ta  Ta9  1  0.831112  0.831097  0.499276  1
  Ta  Ta10  1  0.333596  0.670521  0.249995  1
  Ta  Ta11  1  0.668181  0.331255  0.750466  1
  Ta  Ta12  1  0.159648  0.992375  0.374328  1
  Ta  Ta13  1  0.840002  0.005559  0.874706  1
  Ta  Ta14  1  0.505351  0.660083  0.624092  1
  Ta  Ta15  1  0.339816  0.494213  0.876773  1
  Ta  Ta16  1  0.493435  0.341026  0.123677  1
  Ta  Ta17  1  0.657798  0.506463  0.376061  1
  Ta  Ta18  1  0.994803  0.160608  0.625963  1
  Ta  Ta19  1  0.006418  0.840960  0.125520  1
  Si  Si20  1  0.285954  0.043668  0.186688  1
  Si  Si21  1  0.711092  0.960768  0.685735  1
  Si  Si22  1  0.460932  0.790592  0.435167  1
  Si  Si23  1  0.207254  0.536486  0.067296  1
  Si  Si24  1  0.539946  0.210316  0.936600  1
  Si  Si25  1  0.789480  0.460967  0.563370  1
  Si  Si26  1  0.039614  0.288912  0.814442  1
  Si  Si27  1  0.961409  0.704512  0.310895  1
  Si  Si28  1  0.370323  0.299248  0.311625  1
  Si  Si29  1  0.623853  0.701223  0.814887  1
  Si  Si30  1  0.201531  0.875144  0.563816  1
  Si  Si31  1  0.124663  0.798058  0.936041  1
  Si  Si32  1  0.802000  0.127425  0.066606  1
  Si  Si33  1  0.876844  0.200546  0.434923  1
  Si  Si34  1  0.298825  0.376312  0.685348  1
  Si  Si35  1  0.704517  0.621489  0.186397  1
