# generated using pymatgen
data_DyNp2B2Ru5
_symmetry_space_group_name_H-M   'P 1'
_cell_length_a   9.80405681
_cell_length_b   9.80405705
_cell_length_c   3.16133600
_cell_angle_alpha   90.00000000
_cell_angle_beta   90.00000000
_cell_angle_gamma   90.12188116
_symmetry_Int_Tables_number   1
_chemical_formula_structural   DyNp2B2Ru5
_chemical_formula_sum   'Dy2 Np4 B4 Ru10'
_cell_volume   303.86545024
_cell_formula_units_Z   2
loop_
 _symmetry_equiv_pos_site_id
 _symmetry_equiv_pos_as_xyz
  1  'x, y, z'
loop_
 _atom_site_type_symbol
 _atom_site_label
 _atom_site_symmetry_multiplicity
 _atom_site_fract_x
 _atom_site_fract_y
 _atom_site_fract_z
 _atom_site_occupancy
  Dy  Dy0  1  0.826683  0.673317  0.000000  1
  Dy  Dy1  1  0.173317  0.326683  0.000000  1
  Np  Np2  1  0.324658  0.824658  0.000000  1
  Np  Np3  1  0.675342  0.175342  0.000000  1
  Np  Np4  1  0.500000  0.500000  0.000000  1
  Np  Np5  1  0.000000  0.000000  0.000000  1
  B  B6  1  0.620444  0.879556  0.000000  1
  B  B7  1  0.379556  0.120444  0.000000  1
  B  B8  1  0.118611  0.618611  0.000000  1
  B  B9  1  0.881389  0.381389  0.000000  1
  Ru  Ru10  1  0.567413  0.725493  0.500000  1
  Ru  Ru11  1  0.432587  0.274507  0.500000  1
  Ru  Ru12  1  0.075867  0.778797  0.500000  1
  Ru  Ru13  1  0.924133  0.221203  0.500000  1
  Ru  Ru14  1  0.278797  0.575867  0.500000  1
  Ru  Ru15  1  0.721203  0.424133  0.500000  1
  Ru  Ru16  1  0.225493  0.067413  0.500000  1
  Ru  Ru17  1  0.774507  0.932587  0.500000  1
  Ru  Ru18  1  0.500000  0.000000  0.500000  1
  Ru  Ru19  1  0.000000  0.500000  0.500000  1
