# generated using pymatgen
data_KPr6AuI12
_symmetry_space_group_name_H-M   'P 1'
_cell_length_a   10.14666249
_cell_length_b   10.14666361
_cell_length_c   10.14666300
_cell_angle_alpha   105.53293572
_cell_angle_beta   105.53294920
_cell_angle_gamma   105.53292989
_symmetry_Int_Tables_number   1
_chemical_formula_structural   KPr6AuI12
_chemical_formula_sum   'K1 Pr6 Au1 I12'
_cell_volume   902.54970030
_cell_formula_units_Z   1
loop_
 _symmetry_equiv_pos_site_id
 _symmetry_equiv_pos_as_xyz
  1  'x, y, z'
loop_
 _atom_site_type_symbol
 _atom_site_label
 _atom_site_symmetry_multiplicity
 _atom_site_fract_x
 _atom_site_fract_y
 _atom_site_fract_z
 _atom_site_occupancy
  K  K0  1  0.500000  0.500000  0.500000  1
  Pr  Pr1  1  0.100024  0.311376  0.020981  1
  Pr  Pr2  1  0.311375  0.020980  0.100024  1
  Pr  Pr3  1  0.020980  0.100024  0.311376  1
  Pr  Pr4  1  0.979019  0.899976  0.688624  1
  Pr  Pr5  1  0.688625  0.979019  0.899975  1
  Pr  Pr6  1  0.899976  0.688624  0.979019  1
  Au  Au7  1  0.000000  0.000000  0.000000  1
  I  I8  1  0.224144  0.676980  0.075738  1
  I  I9  1  0.438014  0.354855  0.123553  1
  I  I10  1  0.676980  0.075739  0.224144  1
  I  I11  1  0.924262  0.775857  0.323021  1
  I  I12  1  0.123553  0.438014  0.354855  1
  I  I13  1  0.354855  0.123553  0.438015  1
  I  I14  1  0.645145  0.876447  0.561985  1
  I  I15  1  0.876446  0.561986  0.645145  1
  I  I16  1  0.075739  0.224144  0.676980  1
  I  I17  1  0.323021  0.924262  0.775856  1
  I  I18  1  0.561985  0.645144  0.876447  1
  I  I19  1  0.775856  0.323021  0.924262  1
