# generated using pymatgen
data_Dy4Sb6Ru2Rh5
_symmetry_space_group_name_H-M   'P 1'
_cell_length_a   7.59918903
_cell_length_b   7.59919066
_cell_length_c   7.59918959
_cell_angle_alpha   109.26917648
_cell_angle_beta   109.57233847
_cell_angle_gamma   109.57233634
_symmetry_Int_Tables_number   1
_chemical_formula_structural   Dy4Sb6Ru2Rh5
_chemical_formula_sum   'Dy4 Sb6 Ru2 Rh5'
_cell_volume   337.81266331
_cell_formula_units_Z   1
loop_
 _symmetry_equiv_pos_site_id
 _symmetry_equiv_pos_as_xyz
  1  'x, y, z'
loop_
 _atom_site_type_symbol
 _atom_site_label
 _atom_site_symmetry_multiplicity
 _atom_site_fract_x
 _atom_site_fract_y
 _atom_site_fract_z
 _atom_site_occupancy
  Dy  Dy0  1  0.500000  0.999150  0.000850  1
  Dy  Dy1  1  0.001700  0.500850  0.000850  1
  Dy  Dy2  1  0.998300  0.999150  0.499150  1
  Dy  Dy3  1  0.500000  0.500850  0.499150  1
  Sb  Sb4  1  0.000000  0.314958  0.314958  1
  Sb  Sb5  1  0.684502  0.998965  0.683467  1
  Sb  Sb6  1  0.684502  0.685536  0.001035  1
  Sb  Sb7  1  0.000000  0.685042  0.685042  1
  Sb  Sb8  1  0.315498  0.998965  0.314464  1
  Sb  Sb9  1  0.315498  0.316533  0.001035  1
  Ru  Ru10  1  0.000000  0.000000  0.000000  1
  Ru  Ru11  1  0.500000  0.750000  0.250000  1
  Rh  Rh12  1  0.750588  0.499866  0.250453  1
  Rh  Rh13  1  0.249412  0.749547  0.500134  1
  Rh  Rh14  1  0.249412  0.499866  0.749279  1
  Rh  Rh15  1  0.500000  0.250000  0.750000  1
  Rh  Rh16  1  0.750588  0.250721  0.500134  1
