# generated using pymatgen
data_HoTm4(In2Ni)2
_symmetry_space_group_name_H-M   'P 1'
_cell_length_a   3.54562600
_cell_length_b   7.94275900
_cell_length_c   17.77117100
_cell_angle_alpha   90.00000000
_cell_angle_beta   90.00000000
_cell_angle_gamma   90.00000000
_symmetry_Int_Tables_number   1
_chemical_formula_structural   HoTm4(In2Ni)2
_chemical_formula_sum   'Ho2 Tm8 In8 Ni4'
_cell_volume   500.47265641
_cell_formula_units_Z   2
loop_
 _symmetry_equiv_pos_site_id
 _symmetry_equiv_pos_as_xyz
  1  'x, y, z'
loop_
 _atom_site_type_symbol
 _atom_site_label
 _atom_site_symmetry_multiplicity
 _atom_site_fract_x
 _atom_site_fract_y
 _atom_site_fract_z
 _atom_site_occupancy
  Ho  Ho0  1  0.000000  0.500000  0.500000  1
  Ho  Ho1  1  0.000000  0.000000  0.000000  1
  Tm  Tm2  1  0.000000  0.745996  0.278115  1
  Tm  Tm3  1  0.000000  0.254004  0.721885  1
  Tm  Tm4  1  0.000000  0.754004  0.778115  1
  Tm  Tm5  1  0.000000  0.245996  0.221885  1
  Tm  Tm6  1  0.000000  0.617174  0.088254  1
  Tm  Tm7  1  0.000000  0.382826  0.911746  1
  Tm  Tm8  1  0.000000  0.882826  0.588254  1
  Tm  Tm9  1  0.000000  0.117174  0.411746  1
  In  In10  1  0.500000  0.704375  0.930498  1
  In  In11  1  0.500000  0.295625  0.069502  1
  In  In12  1  0.500000  0.795625  0.430498  1
  In  In13  1  0.500000  0.204375  0.569502  1
  In  In14  1  0.500000  0.573528  0.652394  1
  In  In15  1  0.500000  0.426472  0.347606  1
  In  In16  1  0.500000  0.926472  0.152394  1
  In  In17  1  0.500000  0.073528  0.847606  1
  Ni  Ni18  1  0.500000  0.524555  0.195415  1
  Ni  Ni19  1  0.500000  0.475445  0.804585  1
  Ni  Ni20  1  0.500000  0.975445  0.695415  1
  Ni  Ni21  1  0.500000  0.024555  0.304585  1
