# generated using pymatgen
data_K2BaV4O12
_symmetry_space_group_name_H-M   'P 1'
_cell_length_a   11.34006800
_cell_length_b   11.34006800
_cell_length_c   5.53653700
_cell_angle_alpha   90.00000000
_cell_angle_beta   90.00000000
_cell_angle_gamma   90.00000000
_symmetry_Int_Tables_number   1
_chemical_formula_structural   K2BaV4O12
_chemical_formula_sum   'K4 Ba2 V8 O24'
_cell_volume   711.98283613
_cell_formula_units_Z   2
loop_
 _symmetry_equiv_pos_site_id
 _symmetry_equiv_pos_as_xyz
  1  'x, y, z'
loop_
 _atom_site_type_symbol
 _atom_site_label
 _atom_site_symmetry_multiplicity
 _atom_site_fract_x
 _atom_site_fract_y
 _atom_site_fract_z
 _atom_site_occupancy
  K  K0  1  0.750000  0.750000  0.500000  1
  K  K1  1  0.750000  0.250000  0.500000  1
  K  K2  1  0.250000  0.750000  0.500000  1
  K  K3  1  0.250000  0.250000  0.500000  1
  Ba  Ba4  1  0.500000  0.500000  0.500000  1
  Ba  Ba5  1  0.000000  0.000000  0.500000  1
  V  V6  1  0.714127  0.000000  0.000000  1
  V  V7  1  0.000000  0.285873  0.000000  1
  V  V8  1  0.285873  0.000000  0.000000  1
  V  V9  1  0.500000  0.785873  0.000000  1
  V  V10  1  0.785873  0.500000  0.000000  1
  V  V11  1  0.214127  0.500000  0.000000  1
  V  V12  1  0.500000  0.214127  0.000000  1
  V  V13  1  0.000000  0.714127  0.000000  1
  O  O14  1  0.453741  0.297796  0.231705  1
  O  O15  1  0.546259  0.702204  0.231705  1
  O  O16  1  0.702204  0.453741  0.231705  1
  O  O17  1  0.297796  0.546259  0.231705  1
  O  O18  1  0.297796  0.453741  0.768295  1
  O  O19  1  0.453741  0.702204  0.768295  1
  O  O20  1  0.546259  0.297796  0.768295  1
  O  O21  1  0.702204  0.546259  0.768295  1
  O  O22  1  0.046259  0.202204  0.768295  1
  O  O23  1  0.953741  0.797796  0.768295  1
  O  O24  1  0.797796  0.046259  0.768295  1
  O  O25  1  0.202204  0.953741  0.768295  1
  O  O26  1  0.202204  0.046259  0.231705  1
  O  O27  1  0.046259  0.797796  0.231705  1
  O  O28  1  0.121254  0.378746  0.105289  1
  O  O29  1  0.378746  0.878746  0.105289  1
  O  O30  1  0.621254  0.121254  0.105289  1
  O  O31  1  0.878746  0.621254  0.105289  1
  O  O32  1  0.878746  0.378746  0.894711  1
  O  O33  1  0.121254  0.621254  0.894711  1
  O  O34  1  0.378746  0.121254  0.894711  1
  O  O35  1  0.621254  0.878746  0.894711  1
  O  O36  1  0.797796  0.953741  0.231705  1
  O  O37  1  0.953741  0.202204  0.231705  1
