# generated using pymatgen
data_Sc4PSe4
_symmetry_space_group_name_H-M   'P 1'
_cell_length_a   3.83633772
_cell_length_b   9.47351608
_cell_length_c   8.53079194
_cell_angle_alpha   43.21452851
_cell_angle_beta   103.01460029
_cell_angle_gamma   89.88363101
_symmetry_Int_Tables_number   1
_chemical_formula_structural   Sc4PSe4
_chemical_formula_sum   'Sc4 P1 Se4'
_cell_volume   200.32317462
_cell_formula_units_Z   1
loop_
 _symmetry_equiv_pos_site_id
 _symmetry_equiv_pos_as_xyz
  1  'x, y, z'
loop_
 _atom_site_type_symbol
 _atom_site_label
 _atom_site_symmetry_multiplicity
 _atom_site_fract_x
 _atom_site_fract_y
 _atom_site_fract_z
 _atom_site_occupancy
  Sc  Sc0  1  0.935224  0.974449  0.847110  1
  Sc  Sc1  1  0.143395  0.356503  0.262885  1
  Sc  Sc2  1  0.542100  0.152395  0.063347  1
  Sc  Sc3  1  0.752738  0.534395  0.479409  1
  P  P4  1  0.343688  0.254399  0.663107  1
  Se  Se5  1  0.740906  0.062962  0.457126  1
  Se  Se6  1  0.540071  0.662716  0.054583  1
  Se  Se7  1  0.944391  0.445890  0.869171  1
  Se  Se8  1  0.148086  0.846099  0.272473  1
