# generated using pymatgen
data_CeDy7(CdIr)2
_symmetry_space_group_name_H-M   'P 1'
_cell_length_a   9.64756541
_cell_length_b   9.64756658
_cell_length_c   9.68379100
_cell_angle_alpha   59.87571177
_cell_angle_beta   59.87570772
_cell_angle_gamma   59.77382035
_symmetry_Int_Tables_number   1
_chemical_formula_structural   CeDy7(CdIr)2
_chemical_formula_sum   'Ce2 Dy14 Cd4 Ir4'
_cell_volume   635.04193700
_cell_formula_units_Z   2
loop_
 _symmetry_equiv_pos_site_id
 _symmetry_equiv_pos_as_xyz
  1  'x, y, z'
loop_
 _atom_site_type_symbol
 _atom_site_label
 _atom_site_symmetry_multiplicity
 _atom_site_fract_x
 _atom_site_fract_y
 _atom_site_fract_z
 _atom_site_occupancy
  Ce  Ce0  1  0.596552  0.596552  0.598532  1
  Ce  Ce1  1  0.596552  0.596552  0.208363  1
  Dy  Dy2  1  0.601095  0.198229  0.600338  1
  Dy  Dy3  1  0.198229  0.601095  0.600338  1
  Dy  Dy4  1  0.061598  0.438438  0.439763  1
  Dy  Dy5  1  0.438438  0.061598  0.060201  1
  Dy  Dy6  1  0.438438  0.061598  0.439763  1
  Dy  Dy7  1  0.061598  0.438438  0.060201  1
  Dy  Dy8  1  0.438224  0.438224  0.061776  1
  Dy  Dy9  1  0.061288  0.061288  0.438712  1
  Dy  Dy10  1  0.189112  0.812329  0.812885  1
  Dy  Dy11  1  0.812329  0.189112  0.185674  1
  Dy  Dy12  1  0.812329  0.189112  0.812885  1
  Dy  Dy13  1  0.189112  0.812329  0.185674  1
  Dy  Dy14  1  0.813102  0.813102  0.186898  1
  Dy  Dy15  1  0.188668  0.188668  0.811332  1
  Cd  Cd16  1  0.830574  0.830574  0.831310  1
  Cd  Cd17  1  0.830574  0.830574  0.507542  1
  Cd  Cd18  1  0.830534  0.505249  0.832109  1
  Cd  Cd19  1  0.505249  0.830534  0.832109  1
  Ir  Ir20  1  0.393915  0.393915  0.389957  1
  Ir  Ir21  1  0.393915  0.393915  0.822214  1
  Ir  Ir22  1  0.396433  0.822141  0.390713  1
  Ir  Ir23  1  0.822141  0.396433  0.390713  1
