# generated using pymatgen
data_TbY6Co2Sn23Rh4
_symmetry_space_group_name_H-M   'P 1'
_cell_length_a   9.83231796
_cell_length_b   9.83384209
_cell_length_c   10.06865367
_cell_angle_alpha   89.99999852
_cell_angle_beta   90.02618778
_cell_angle_gamma   120.00512775
_symmetry_Int_Tables_number   1
_chemical_formula_structural   TbY6Co2Sn23Rh4
_chemical_formula_sum   'Tb1 Y6 Co2 Sn23 Rh4'
_cell_volume   843.06037209
_cell_formula_units_Z   1
loop_
 _symmetry_equiv_pos_site_id
 _symmetry_equiv_pos_as_xyz
  1  'x, y, z'
loop_
 _atom_site_type_symbol
 _atom_site_label
 _atom_site_symmetry_multiplicity
 _atom_site_fract_x
 _atom_site_fract_y
 _atom_site_fract_z
 _atom_site_occupancy
  Tb  Tb0  1  0.000000  0.000000  0.000000  1
  Y  Y1  1  0.478758  0.521415  0.306892  1
  Y  Y2  1  0.521242  0.478585  0.693108  1
  Y  Y3  1  0.478758  0.957343  0.306892  1
  Y  Y4  1  0.521242  0.042657  0.693108  1
  Y  Y5  1  0.043467  0.521734  0.307006  1
  Y  Y6  1  0.956533  0.478266  0.692994  1
  Co  Co7  1  0.336562  0.168281  0.198399  1
  Co  Co8  1  0.663438  0.831719  0.801601  1
  Sn  Sn9  1  0.350631  0.004622  0.004719  1
  Sn  Sn10  1  0.649369  0.995378  0.995281  1
  Sn  Sn11  1  0.000000  0.351254  0.000000  1
  Sn  Sn12  1  0.000000  0.648746  0.000000  1
  Sn  Sn13  1  0.649369  0.653991  0.995281  1
  Sn  Sn14  1  0.350631  0.346009  0.004719  1
  Sn  Sn15  1  0.338287  0.669144  0.818832  1
  Sn  Sn16  1  0.661713  0.330856  0.181168  1
  Sn  Sn17  1  0.000000  0.000000  0.500000  1
  Sn  Sn18  1  0.778869  0.221332  0.455851  1
  Sn  Sn19  1  0.221131  0.778668  0.544149  1
  Sn  Sn20  1  0.778869  0.557538  0.455851  1
  Sn  Sn21  1  0.221131  0.442462  0.544149  1
  Sn  Sn22  1  0.438707  0.219353  0.450422  1
  Sn  Sn23  1  0.561293  0.780647  0.549578  1
  Sn  Sn24  1  0.333403  0.666702  0.117738  1
  Sn  Sn25  1  0.666597  0.333298  0.882262  1
  Sn  Sn26  1  0.123266  0.887254  0.276542  1
  Sn  Sn27  1  0.876734  0.112746  0.723458  1
  Sn  Sn28  1  0.123266  0.236013  0.276542  1
  Sn  Sn29  1  0.876734  0.763987  0.723458  1
  Sn  Sn30  1  0.759466  0.879733  0.281577  1
  Sn  Sn31  1  0.240534  0.120267  0.718423  1
  Rh  Rh32  1  0.831448  0.167341  0.197449  1
  Rh  Rh33  1  0.168552  0.832659  0.802551  1
  Rh  Rh34  1  0.831448  0.664107  0.197449  1
  Rh  Rh35  1  0.168552  0.335893  0.802551  1
