# generated using pymatgen
data_LaGdTh(SnIr)3
_symmetry_space_group_name_H-M   'P 1'
_cell_length_a   7.59157000
_cell_length_b   7.56394682
_cell_length_c   4.09976200
_cell_angle_alpha   90.00000000
_cell_angle_beta   90.00000000
_cell_angle_gamma   120.41620047
_symmetry_Int_Tables_number   1
_chemical_formula_structural   LaGdTh(SnIr)3
_chemical_formula_sum   'La1 Gd1 Th1 Sn3 Ir3'
_cell_volume   203.01710556
_cell_formula_units_Z   1
loop_
 _symmetry_equiv_pos_site_id
 _symmetry_equiv_pos_as_xyz
  1  'x, y, z'
loop_
 _atom_site_type_symbol
 _atom_site_label
 _atom_site_symmetry_multiplicity
 _atom_site_fract_x
 _atom_site_fract_y
 _atom_site_fract_z
 _atom_site_occupancy
  La  La0  1  0.412372  0.411586  0.000000  1
  Gd  Gd1  1  0.001560  0.592396  0.000000  1
  Th  Th2  1  0.586722  0.001075  0.000000  1
  Sn  Sn3  1  0.242417  0.996728  0.500000  1
  Sn  Sn4  1  0.006108  0.259270  0.500000  1
  Sn  Sn5  1  0.750016  0.741288  0.500000  1
  Ir  Ir6  1  0.343311  0.683522  0.500000  1
  Ir  Ir7  1  0.669552  0.319478  0.500000  1
  Ir  Ir8  1  0.987942  0.994657  0.000000  1
