# generated using pymatgen
data_TbDy7(AlRu)8
_symmetry_space_group_name_H-M   'P 1'
_cell_length_a   4.08444600
_cell_length_b   7.01346764
_cell_length_c   15.98567174
_cell_angle_alpha   90.05647394
_cell_angle_beta   90.00000000
_cell_angle_gamma   90.00000000
_symmetry_Int_Tables_number   1
_chemical_formula_structural   TbDy7(AlRu)8
_chemical_formula_sum   'Tb1 Dy7 Al8 Ru8'
_cell_volume   457.92740598
_cell_formula_units_Z   1
loop_
 _symmetry_equiv_pos_site_id
 _symmetry_equiv_pos_as_xyz
  1  'x, y, z'
loop_
 _atom_site_type_symbol
 _atom_site_label
 _atom_site_symmetry_multiplicity
 _atom_site_fract_x
 _atom_site_fract_y
 _atom_site_fract_z
 _atom_site_occupancy
  Tb  Tb0  1  0.250000  0.536638  0.719256  1
  Dy  Dy1  1  0.750000  0.963898  0.219526  1
  Dy  Dy2  1  0.250000  0.161147  0.562719  1
  Dy  Dy3  1  0.750000  0.842516  0.436742  1
  Dy  Dy4  1  0.750000  0.463803  0.280891  1
  Dy  Dy5  1  0.750000  0.339266  0.063056  1
  Dy  Dy6  1  0.250000  0.656921  0.937257  1
  Dy  Dy7  1  0.250000  0.035710  0.780695  1
  Al  Al8  1  0.750000  0.503152  0.564887  1
  Al  Al9  1  0.750000  0.363028  0.849479  1
  Al  Al10  1  0.750000  0.997769  0.934687  1
  Al  Al11  1  0.750000  0.867882  0.650610  1
  Al  Al12  1  0.250000  0.501073  0.434558  1
  Al  Al13  1  0.250000  0.997479  0.065791  1
  Al  Al14  1  0.250000  0.633691  0.151145  1
  Al  Al15  1  0.250000  0.135566  0.348999  1
  Ru  Ru16  1  0.750000  0.745802  0.812179  1
  Ru  Ru17  1  0.250000  0.232513  0.936890  1
  Ru  Ru18  1  0.750000  0.266039  0.436619  1
  Ru  Ru19  1  0.250000  0.753560  0.312099  1
  Ru  Ru20  1  0.750000  0.763418  0.063774  1
  Ru  Ru21  1  0.750000  0.248158  0.687394  1
  Ru  Ru22  1  0.250000  0.252956  0.187581  1
  Ru  Ru23  1  0.250000  0.738015  0.563168  1
