# generated using pymatgen
data_Mn27TcW
_symmetry_space_group_name_H-M   'P 1'
_cell_length_a   7.50723696
_cell_length_b   7.51679288
_cell_length_c   7.51679376
_cell_angle_alpha   109.49695851
_cell_angle_beta   109.44546967
_cell_angle_gamma   109.44547458
_symmetry_Int_Tables_number   1
_chemical_formula_structural   Mn27TcW
_chemical_formula_sum   'Mn27 Tc1 W1'
_cell_volume   326.63397101
_cell_formula_units_Z   1
loop_
 _symmetry_equiv_pos_site_id
 _symmetry_equiv_pos_as_xyz
  1  'x, y, z'
loop_
 _atom_site_type_symbol
 _atom_site_label
 _atom_site_symmetry_multiplicity
 _atom_site_fract_x
 _atom_site_fract_y
 _atom_site_fract_z
 _atom_site_occupancy
  Mn  Mn0  1  0.001832  0.637122  0.000000  1
  Mn  Mn1  1  0.001832  0.000000  0.637122  1
  Mn  Mn2  1  0.364710  0.362878  0.362878  1
  Mn  Mn3  1  0.386516  0.675296  0.000000  1
  Mn  Mn4  1  0.711220  0.324704  0.324704  1
  Mn  Mn5  1  0.386516  0.000000  0.675296  1
  Mn  Mn6  1  0.680295  0.393751  0.000000  1
  Mn  Mn7  1  0.000262  0.391689  0.679328  1
  Mn  Mn8  1  0.320933  0.712361  0.320672  1
  Mn  Mn9  1  0.320933  0.320672  0.712361  1
  Mn  Mn10  1  0.000262  0.679328  0.391689  1
  Mn  Mn11  1  0.680295  0.000000  0.393751  1
  Mn  Mn12  1  0.608573  0.608311  0.287639  1
  Mn  Mn13  1  0.286545  0.606249  0.606249  1
  Mn  Mn14  1  0.608573  0.287639  0.608311  1
  Mn  Mn15  1  0.373639  0.194992  0.000000  1
  Mn  Mn16  1  0.178648  0.805008  0.805008  1
  Mn  Mn17  1  0.373639  0.000000  0.194992  1
  Mn  Mn18  1  0.192141  0.372951  0.000000  1
  Mn  Mn19  1  0.004898  0.379300  0.197847  1
  Mn  Mn20  1  0.807051  0.181454  0.802153  1
  Mn  Mn21  1  0.807051  0.802153  0.181454  1
  Mn  Mn22  1  0.004898  0.197847  0.379300  1
  Mn  Mn23  1  0.192141  0.000000  0.372951  1
  Mn  Mn24  1  0.625598  0.620700  0.818546  1
  Mn  Mn25  1  0.819189  0.627049  0.627049  1
  Mn  Mn26  1  0.625598  0.818546  0.620700  1
  Tc  Tc27  1  0.002249  0.000000  0.000000  1
  W  W28  1  0.633965  0.000000  0.000000  1
