# generated using pymatgen
data_Ca12La8Si13Ge3
_symmetry_space_group_name_H-M   'P 1'
_cell_length_a   7.99867970
_cell_length_b   8.00014489
_cell_length_c   14.88013435
_cell_angle_alpha   89.97505403
_cell_angle_beta   89.99778166
_cell_angle_gamma   89.95217576
_symmetry_Int_Tables_number   1
_chemical_formula_structural   Ca12La8Si13Ge3
_chemical_formula_sum   'Ca12 La8 Si13 Ge3'
_cell_volume   952.18825051
_cell_formula_units_Z   1
loop_
 _symmetry_equiv_pos_site_id
 _symmetry_equiv_pos_as_xyz
  1  'x, y, z'
loop_
 _atom_site_type_symbol
 _atom_site_label
 _atom_site_symmetry_multiplicity
 _atom_site_fract_x
 _atom_site_fract_y
 _atom_site_fract_z
 _atom_site_occupancy
  Ca  Ca0  1  0.371674  0.488642  0.374581  1
  Ca  Ca1  1  0.870899  0.012160  0.374801  1
  Ca  Ca2  1  0.988585  0.128575  0.124916  1
  Ca  Ca3  1  0.012155  0.870860  0.625165  1
  Ca  Ca4  1  0.628105  0.511545  0.874701  1
  Ca  Ca5  1  0.488641  0.371657  0.625375  1
  Ca  Ca6  1  0.511025  0.628938  0.125385  1
  Ca  Ca7  1  0.129067  0.987981  0.875136  1
  Ca  Ca8  1  0.687297  0.687291  0.499993  1
  Ca  Ca9  1  0.811833  0.188141  0.750000  1
  Ca  Ca10  1  0.188457  0.812102  0.249527  1
  Ca  Ca11  1  0.312519  0.311959  0.000146  1
  La  La12  1  0.989959  0.621921  0.049888  1
  La  La13  1  0.010618  0.378702  0.549709  1
  La  La14  1  0.620285  0.989239  0.950685  1
  La  La15  1  0.121994  0.511262  0.798743  1
  La  La16  1  0.878096  0.488816  0.298511  1
  La  La17  1  0.510197  0.120917  0.200745  1
  La  La18  1  0.488999  0.878287  0.701351  1
  La  La19  1  0.378770  0.010648  0.450226  1
  Si  Si20  1  0.208085  0.418105  0.191241  1
  Si  Si21  1  0.791878  0.581647  0.691258  1
  Si  Si22  1  0.418095  0.208352  0.808757  1
  Si  Si23  1  0.581835  0.791803  0.308784  1
  Si  Si24  1  0.291516  0.918045  0.058692  1
  Si  Si25  1  0.830877  0.797512  0.805263  1
  Si  Si26  1  0.169234  0.202597  0.305204  1
  Si  Si27  1  0.797423  0.830974  0.194845  1
  Si  Si28  1  0.300343  0.668946  0.557066  1
  Si  Si29  1  0.699695  0.331216  0.057116  1
  Si  Si30  1  0.668947  0.300344  0.442965  1
  Si  Si31  1  0.330649  0.702380  0.944751  1
  Si  Si32  1  0.202553  0.169225  0.694842  1
  Ge  Ge33  1  0.079151  0.709660  0.439629  1
  Ge  Ge34  1  0.920893  0.290473  0.939651  1
  Ge  Ge35  1  0.709651  0.079077  0.560353  1
