# generated using pymatgen
data_TbY6Th(CdIr)2
_symmetry_space_group_name_H-M   'P 1'
_cell_length_a   9.71950654
_cell_length_b   9.71950632
_cell_length_c   9.70917400
_cell_angle_alpha   60.03515918
_cell_angle_beta   60.03515994
_cell_angle_gamma   60.13964067
_symmetry_Int_Tables_number   1
_chemical_formula_structural   TbY6Th(CdIr)2
_chemical_formula_sum   'Tb2 Y12 Th2 Cd4 Ir4'
_cell_volume   649.59552365
_cell_formula_units_Z   2
loop_
 _symmetry_equiv_pos_site_id
 _symmetry_equiv_pos_as_xyz
  1  'x, y, z'
loop_
 _atom_site_type_symbol
 _atom_site_label
 _atom_site_symmetry_multiplicity
 _atom_site_fract_x
 _atom_site_fract_y
 _atom_site_fract_z
 _atom_site_occupancy
  Tb  Tb0  1  0.351815  0.947955  0.350116  1
  Tb  Tb1  1  0.947955  0.351815  0.350116  1
  Y  Y2  1  0.811565  0.189514  0.189131  1
  Y  Y3  1  0.189514  0.811565  0.809789  1
  Y  Y4  1  0.189514  0.811565  0.189131  1
  Y  Y5  1  0.811565  0.189514  0.809789  1
  Y  Y6  1  0.186906  0.186906  0.813094  1
  Y  Y7  1  0.810840  0.810840  0.189160  1
  Y  Y8  1  0.937164  0.564349  0.563414  1
  Y  Y9  1  0.564349  0.937164  0.935074  1
  Y  Y10  1  0.564349  0.937164  0.563414  1
  Y  Y11  1  0.937164  0.564349  0.935074  1
  Y  Y12  1  0.564922  0.564922  0.935078  1
  Y  Y13  1  0.940218  0.940218  0.559782  1
  Th  Th14  1  0.346689  0.346689  0.350242  1
  Th  Th15  1  0.346689  0.346689  0.956381  1
  Cd  Cd16  1  0.581614  0.581614  0.580040  1
  Cd  Cd17  1  0.581614  0.581614  0.256734  1
  Cd  Cd18  1  0.582374  0.253360  0.582133  1
  Cd  Cd19  1  0.253360  0.582374  0.582133  1
  Ir  Ir20  1  0.142165  0.142165  0.144571  1
  Ir  Ir21  1  0.142165  0.142165  0.571100  1
  Ir  Ir22  1  0.144493  0.570998  0.142255  1
  Ir  Ir23  1  0.570998  0.144493  0.142255  1
