# generated using pymatgen
data_Sm2Ho8In8Pd3Rh
_symmetry_space_group_name_H-M   'P 1'
_cell_length_a   3.62249000
_cell_length_b   8.15425372
_cell_length_c   18.33890502
_cell_angle_alpha   90.02690022
_cell_angle_beta   90.00000000
_cell_angle_gamma   90.00000000
_symmetry_Int_Tables_number   1
_chemical_formula_structural   Sm2Ho8In8Pd3Rh
_chemical_formula_sum   'Sm2 Ho8 In8 Pd3 Rh1'
_cell_volume   541.70740097
_cell_formula_units_Z   1
loop_
 _symmetry_equiv_pos_site_id
 _symmetry_equiv_pos_as_xyz
  1  'x, y, z'
loop_
 _atom_site_type_symbol
 _atom_site_label
 _atom_site_symmetry_multiplicity
 _atom_site_fract_x
 _atom_site_fract_y
 _atom_site_fract_z
 _atom_site_occupancy
  Sm  Sm0  1  0.000000  0.499937  0.499906  1
  Sm  Sm1  1  0.000000  0.999633  0.000413  1
  Ho  Ho2  1  0.000000  0.731463  0.278040  1
  Ho  Ho3  1  0.000000  0.260808  0.719495  1
  Ho  Ho4  1  0.000000  0.760234  0.780278  1
  Ho  Ho5  1  0.000000  0.252204  0.219709  1
  Ho  Ho6  1  0.000000  0.614514  0.087333  1
  Ho  Ho7  1  0.000000  0.382424  0.916321  1
  Ho  Ho8  1  0.000000  0.882731  0.583633  1
  Ho  Ho9  1  0.000000  0.117474  0.415078  1
  In  In10  1  0.500000  0.705792  0.931705  1
  In  In11  1  0.500000  0.293782  0.069391  1
  In  In12  1  0.500000  0.793894  0.431008  1
  In  In13  1  0.500000  0.205673  0.568365  1
  In  In14  1  0.500000  0.580991  0.651102  1
  In  In15  1  0.500000  0.421180  0.348977  1
  In  In16  1  0.500000  0.920680  0.151473  1
  In  In17  1  0.500000  0.080870  0.848854  1
  Pd  Pd18  1  0.500000  0.476664  0.804108  1
  Pd  Pd19  1  0.500000  0.976842  0.695959  1
  Pd  Pd20  1  0.500000  0.021175  0.303616  1
  Rh  Rh21  1  0.500000  0.521035  0.195236  1
