# generated using pymatgen
data_Lu13Th7Si15Ru
_symmetry_space_group_name_H-M   'P 1'
_cell_length_a   7.27516957
_cell_length_b   7.66155255
_cell_length_c   14.32583900
_cell_angle_alpha   89.95426988
_cell_angle_beta   89.95184116
_cell_angle_gamma   90.00975820
_symmetry_Int_Tables_number   1
_chemical_formula_structural   Lu13Th7Si15Ru
_chemical_formula_sum   'Lu13 Th7 Si15 Ru1'
_cell_volume   798.50873838
_cell_formula_units_Z   1
loop_
 _symmetry_equiv_pos_site_id
 _symmetry_equiv_pos_as_xyz
  1  'x, y, z'
loop_
 _atom_site_type_symbol
 _atom_site_label
 _atom_site_symmetry_multiplicity
 _atom_site_fract_x
 _atom_site_fract_y
 _atom_site_fract_z
 _atom_site_occupancy
  Lu  Lu0  1  0.660544  0.186904  0.626933  1
  Lu  Lu1  1  0.182561  0.327578  0.871517  1
  Lu  Lu2  1  0.329616  0.821015  0.123931  1
  Lu  Lu3  1  0.826256  0.674193  0.375481  1
  Lu  Lu4  1  0.331261  0.819761  0.377016  1
  Lu  Lu5  1  0.829464  0.673629  0.125666  1
  Lu  Lu6  1  0.663292  0.182963  0.873487  1
  Lu  Lu7  1  0.186394  0.331691  0.626892  1
  Lu  Lu8  1  0.507120  0.676896  0.597045  1
  Lu  Lu9  1  0.832790  0.509481  0.747947  1
  Lu  Lu10  1  0.341663  0.990016  0.749506  1
  Lu  Lu11  1  0.160085  0.487127  0.250055  1
  Lu  Lu12  1  0.660866  0.006119  0.250135  1
  Th  Th13  1  0.005399  0.825416  0.903137  1
  Th  Th14  1  0.489732  0.318586  0.095442  1
  Th  Th15  1  0.991266  0.173966  0.407182  1
  Th  Th16  1  0.487756  0.320030  0.406113  1
  Th  Th17  1  0.993683  0.172835  0.094057  1
  Th  Th18  1  0.507018  0.669924  0.903232  1
  Th  Th19  1  0.007506  0.827164  0.594805  1
  Si  Si20  1  0.659519  0.963143  0.464301  1
  Si  Si21  1  0.157159  0.533187  0.037073  1
  Si  Si22  1  0.337777  0.028128  0.961021  1
  Si  Si23  1  0.841262  0.470848  0.539267  1
  Si  Si24  1  0.338995  0.027415  0.539455  1
  Si  Si25  1  0.847338  0.465763  0.962347  1
  Si  Si26  1  0.661733  0.964109  0.037192  1
  Si  Si27  1  0.153691  0.533795  0.461655  1
  Si  Si28  1  0.966673  0.109735  0.748369  1
  Si  Si29  1  0.530844  0.607723  0.250786  1
  Si  Si30  1  0.034910  0.886923  0.251249  1
  Si  Si31  1  0.718878  0.875982  0.748258  1
  Si  Si32  1  0.215619  0.636653  0.746811  1
  Si  Si33  1  0.284709  0.125033  0.250911  1
  Si  Si34  1  0.785175  0.367971  0.250557  1
  Ru  Ru35  1  0.471448  0.408299  0.751171  1
