# generated using pymatgen
data_La2Co3Cu2Ni3B2
_symmetry_space_group_name_H-M   'P 1'
_cell_length_a   5.14025700
_cell_length_b   5.14025713
_cell_length_c   6.92912700
_cell_angle_alpha   90.00000000
_cell_angle_beta   90.00000000
_cell_angle_gamma   120.00000563
_symmetry_Int_Tables_number   1
_chemical_formula_structural   La2Co3Cu2Ni3B2
_chemical_formula_sum   'La2 Co3 Cu2 Ni3 B2'
_cell_volume   158.55458503
_cell_formula_units_Z   1
loop_
 _symmetry_equiv_pos_site_id
 _symmetry_equiv_pos_as_xyz
  1  'x, y, z'
loop_
 _atom_site_type_symbol
 _atom_site_label
 _atom_site_symmetry_multiplicity
 _atom_site_fract_x
 _atom_site_fract_y
 _atom_site_fract_z
 _atom_site_occupancy
  La  La0  1  0.000000  0.000000  0.499305  1
  La  La1  1  0.000000  0.000000  0.013229  1
  Co  Co2  1  0.500000  0.000000  0.298010  1
  Co  Co3  1  0.500000  0.500000  0.298010  1
  Co  Co4  1  0.000000  0.500000  0.298010  1
  Cu  Cu5  1  0.333333  0.666667  0.999986  1
  Cu  Cu6  1  0.666667  0.333333  0.999986  1
  Ni  Ni7  1  0.500000  0.000000  0.701880  1
  Ni  Ni8  1  0.500000  0.500000  0.701880  1
  Ni  Ni9  1  0.000000  0.500000  0.701880  1
  B  B10  1  0.666667  0.333333  0.493912  1
  B  B11  1  0.333333  0.666667  0.493912  1
