# generated using pymatgen
data_NaTl(SO4)2
_symmetry_space_group_name_H-M   'P 1'
_cell_length_a   4.95604142
_cell_length_b   8.87938206
_cell_length_c   8.86116600
_cell_angle_alpha   67.92064762
_cell_angle_beta   103.34333967
_cell_angle_gamma   76.48446741
_symmetry_Int_Tables_number   1
_chemical_formula_structural   NaTl(SO4)2
_chemical_formula_sum   'Na2 Tl2 S4 O16'
_cell_volume   328.64125769
_cell_formula_units_Z   2
loop_
 _symmetry_equiv_pos_site_id
 _symmetry_equiv_pos_as_xyz
  1  'x, y, z'
loop_
 _atom_site_type_symbol
 _atom_site_label
 _atom_site_symmetry_multiplicity
 _atom_site_fract_x
 _atom_site_fract_y
 _atom_site_fract_z
 _atom_site_occupancy
  Na  Na0  1  0.000000  0.250000  0.250000  1
  Na  Na1  1  0.000000  0.750000  0.750000  1
  Tl  Tl2  1  0.999999  0.500000  0.499999  1
  Tl  Tl3  1  0.000001  0.000000  0.000000  1
  S  S4  1  0.359590  0.561464  0.201835  1
  S  S5  1  0.359590  0.061465  0.701835  1
  S  S6  1  0.640410  0.438534  0.798164  1
  S  S7  1  0.640410  0.938534  0.298164  1
  O  O8  1  0.263954  0.432002  0.167869  1
  O  O9  1  0.263954  0.932002  0.667870  1
  O  O10  1  0.736046  0.567998  0.832132  1
  O  O11  1  0.736046  0.067999  0.332131  1
  O  O12  1  0.732481  0.397094  0.664623  1
  O  O13  1  0.732481  0.897095  0.164621  1
  O  O14  1  0.267520  0.602906  0.335378  1
  O  O15  1  0.267519  0.102905  0.835380  1
  O  O16  1  0.760288  0.269871  0.965388  1
  O  O17  1  0.760286  0.769873  0.465387  1
  O  O18  1  0.239712  0.730129  0.034612  1
  O  O19  1  0.239714  0.230127  0.534613  1
  O  O20  1  0.304601  0.497839  0.737459  1
  O  O21  1  0.304600  0.997840  0.237456  1
  O  O22  1  0.695400  0.502162  0.262541  1
  O  O23  1  0.695401  0.002161  0.762544  1
