# generated using pymatgen
data_Y6Er6Tm4CdHg3Ir4
_symmetry_space_group_name_H-M   'P 1'
_cell_length_a   9.57540964
_cell_length_b   9.56920572
_cell_length_c   9.56920437
_cell_angle_alpha   59.88663734
_cell_angle_beta   59.87304334
_cell_angle_gamma   59.87304690
_symmetry_Int_Tables_number   1
_chemical_formula_structural   Y6Er6Tm4CdHg3Ir4
_chemical_formula_sum   'Y6 Er6 Tm4 Cd1 Hg3 Ir4'
_cell_volume   618.28115656
_cell_formula_units_Z   1
loop_
 _symmetry_equiv_pos_site_id
 _symmetry_equiv_pos_as_xyz
  1  'x, y, z'
loop_
 _atom_site_type_symbol
 _atom_site_label
 _atom_site_symmetry_multiplicity
 _atom_site_fract_x
 _atom_site_fract_y
 _atom_site_fract_z
 _atom_site_occupancy
  Y  Y0  1  0.940483  0.559772  0.559772  1
  Y  Y1  1  0.559010  0.939543  0.939543  1
  Y  Y2  1  0.559713  0.940824  0.560511  1
  Y  Y3  1  0.938945  0.559456  0.939816  1
  Y  Y4  1  0.559713  0.560511  0.940824  1
  Y  Y5  1  0.938945  0.939816  0.559456  1
  Er  Er6  1  0.350030  0.349647  0.349647  1
  Er  Er7  1  0.350981  0.350297  0.951244  1
  Er  Er8  1  0.350981  0.951244  0.350297  1
  Er  Er9  1  0.947806  0.351579  0.351579  1
  Er  Er10  1  0.810160  0.189324  0.189324  1
  Er  Er11  1  0.185317  0.811330  0.811330  1
  Tm  Tm12  1  0.188584  0.810575  0.189085  1
  Tm  Tm13  1  0.809529  0.187303  0.810133  1
  Tm  Tm14  1  0.188584  0.189085  0.810575  1
  Tm  Tm15  1  0.809529  0.810133  0.187303  1
  Cd  Cd16  1  0.261004  0.579532  0.579532  1
  Hg  Hg17  1  0.582405  0.584133  0.584133  1
  Hg  Hg18  1  0.583902  0.585232  0.246058  1
  Hg  Hg19  1  0.583902  0.246058  0.585232  1
  Ir  Ir20  1  0.141872  0.142264  0.142264  1
  Ir  Ir21  1  0.141568  0.143926  0.575554  1
  Ir  Ir22  1  0.141568  0.575554  0.143926  1
  Ir  Ir23  1  0.575471  0.142863  0.142863  1
