# generated using pymatgen
data_Hf7ScCo7Si14Ru
_symmetry_space_group_name_H-M   'P 1'
_cell_length_a   9.46316227
_cell_length_b   9.46636289
_cell_length_c   9.48904627
_cell_angle_alpha   94.15471333
_cell_angle_beta   94.13836122
_cell_angle_gamma   148.76123323
_symmetry_Int_Tables_number   1
_chemical_formula_structural   Hf7ScCo7Si14Ru
_chemical_formula_sum   'Hf7 Sc1 Co7 Si14 Ru1'
_cell_volume   424.64359163
_cell_formula_units_Z   1
loop_
 _symmetry_equiv_pos_site_id
 _symmetry_equiv_pos_as_xyz
  1  'x, y, z'
loop_
 _atom_site_type_symbol
 _atom_site_label
 _atom_site_symmetry_multiplicity
 _atom_site_fract_x
 _atom_site_fract_y
 _atom_site_fract_z
 _atom_site_occupancy
  Hf  Hf0  1  0.862174  0.862176  0.724333  1
  Hf  Hf1  1  0.136030  0.860942  0.998827  1
  Hf  Hf2  1  0.862795  0.137892  0.998824  1
  Hf  Hf3  1  0.304415  0.498175  0.802869  1
  Hf  Hf4  1  0.695821  0.499975  0.195958  1
  Hf  Hf5  1  0.500133  0.695974  0.195952  1
  Hf  Hf6  1  0.498448  0.304701  0.802868  1
  Sc  Sc7  1  0.138416  0.138416  0.276840  1
  Co  Co8  1  0.396532  0.896533  0.793043  1
  Co  Co9  1  0.896636  0.100569  0.501180  1
  Co  Co10  1  0.604535  0.400595  0.501188  1
  Co  Co11  1  0.601543  0.101554  0.202967  1
  Co  Co12  1  0.898298  0.398295  0.796585  1
  Co  Co13  1  0.102847  0.898839  0.501267  1
  Co  Co14  1  0.398403  0.602421  0.501263  1
  Si  Si15  1  0.290088  0.290085  0.580148  1
  Si  Si16  1  0.709789  0.709786  0.419621  1
  Si  Si17  1  0.298139  0.715617  0.995293  1
  Si  Si18  1  0.697189  0.279697  0.995309  1
  Si  Si19  1  0.090347  0.497402  0.592507  1
  Si  Si20  1  0.900079  0.492550  0.412496  1
  Si  Si21  1  0.512453  0.919969  0.412507  1
  Si  Si22  1  0.502162  0.095095  0.592512  1
  Si  Si23  1  0.249645  0.249945  0.998706  1
  Si  Si24  1  0.749062  0.748769  0.998705  1
  Si  Si25  1  0.305149  0.010152  0.301331  1
  Si  Si26  1  0.700892  0.000411  0.700308  1
  Si  Si27  1  0.999418  0.699917  0.700330  1
  Si  Si28  1  0.996153  0.291158  0.301313  1
  Ru  Ru29  1  0.102410  0.602390  0.204948  1
