# generated using pymatgen
data_Dy2Er8In8Pt3Au
_symmetry_space_group_name_H-M   'P 1'
_cell_length_a   3.61181000
_cell_length_b   8.15550667
_cell_length_c   18.25321828
_cell_angle_alpha   90.01320292
_cell_angle_beta   90.00000000
_cell_angle_gamma   90.00000000
_symmetry_Int_Tables_number   1
_chemical_formula_structural   Dy2Er8In8Pt3Au
_chemical_formula_sum   'Dy2 Er8 In8 Pt3 Au1'
_cell_volume   537.66934924
_cell_formula_units_Z   1
loop_
 _symmetry_equiv_pos_site_id
 _symmetry_equiv_pos_as_xyz
  1  'x, y, z'
loop_
 _atom_site_type_symbol
 _atom_site_label
 _atom_site_symmetry_multiplicity
 _atom_site_fract_x
 _atom_site_fract_y
 _atom_site_fract_z
 _atom_site_occupancy
  Dy  Dy0  1  0.000000  0.999499  0.999123  1
  Dy  Dy1  1  0.000000  0.499173  0.500491  1
  Er  Er2  1  0.000000  0.120290  0.419667  1
  Er  Er3  1  0.000000  0.883865  0.586113  1
  Er  Er4  1  0.000000  0.384145  0.914380  1
  Er  Er5  1  0.000000  0.616244  0.083756  1
  Er  Er6  1  0.000000  0.252535  0.217279  1
  Er  Er7  1  0.000000  0.755577  0.779800  1
  Er  Er8  1  0.000000  0.256038  0.720871  1
  Er  Er9  1  0.000000  0.731586  0.279106  1
  In  In10  1  0.500000  0.422250  0.352281  1
  In  In11  1  0.500000  0.575981  0.648890  1
  In  In12  1  0.500000  0.076257  0.851359  1
  In  In13  1  0.500000  0.922284  0.147603  1
  In  In14  1  0.500000  0.292461  0.065750  1
  In  In15  1  0.500000  0.707153  0.932764  1
  In  In16  1  0.500000  0.207875  0.567910  1
  In  In17  1  0.500000  0.792139  0.433798  1
  Pt  Pt18  1  0.500000  0.974293  0.697049  1
  Pt  Pt19  1  0.500000  0.474557  0.803291  1
  Pt  Pt20  1  0.500000  0.527351  0.196354  1
  Au  Au21  1  0.500000  0.028446  0.302368  1
