# generated using pymatgen
data_Ho2Nb3As7Rh9
_symmetry_space_group_name_H-M   'P 1'
_cell_length_a   4.00748400
_cell_length_b   9.96736668
_cell_length_c   9.96748117
_cell_angle_alpha   119.99272049
_cell_angle_beta   90.00009003
_cell_angle_gamma   90.00038726
_symmetry_Int_Tables_number   1
_chemical_formula_structural   Ho2Nb3As7Rh9
_chemical_formula_sum   'Ho2 Nb3 As7 Rh9'
_cell_volume   344.82610806
_cell_formula_units_Z   1
loop_
 _symmetry_equiv_pos_site_id
 _symmetry_equiv_pos_as_xyz
  1  'x, y, z'
loop_
 _atom_site_type_symbol
 _atom_site_label
 _atom_site_symmetry_multiplicity
 _atom_site_fract_x
 _atom_site_fract_y
 _atom_site_fract_z
 _atom_site_occupancy
  Ho  Ho0  1  0.261685  0.666651  0.333388  1
  Ho  Ho1  1  0.761899  0.333323  0.666617  1
  Nb  Nb2  1  0.761973  0.096053  0.875674  1
  Nb  Nb3  1  0.761977  0.124369  0.220388  1
  Nb  Nb4  1  0.761971  0.779596  0.903917  1
  As  As5  1  0.262089  0.999971  0.000031  1
  As  As6  1  0.761957  0.877068  0.587638  1
  As  As7  1  0.761975  0.412352  0.289370  1
  As  As8  1  0.761949  0.710614  0.122967  1
  As  As9  1  0.261840  0.117822  0.416710  1
  As  As10  1  0.261840  0.583287  0.701132  1
  As  As11  1  0.261839  0.298887  0.882183  1
  Rh  Rh12  1  0.261909  0.881293  0.161253  1
  Rh  Rh13  1  0.261915  0.838753  0.720115  1
  Rh  Rh14  1  0.261924  0.279874  0.118604  1
  Rh  Rh15  1  0.761885  0.612788  0.560241  1
  Rh  Rh16  1  0.761892  0.439800  0.052558  1
  Rh  Rh17  1  0.761885  0.947522  0.387195  1
  Rh  Rh18  1  0.261874  0.368189  0.437158  1
  Rh  Rh19  1  0.261842  0.562809  0.931022  1
  Rh  Rh20  1  0.261879  0.068981  0.631836  1
