# generated using pymatgen
data_Hf7(CoSe)2
_symmetry_space_group_name_H-M   'P 1'
_cell_length_a   8.35630171
_cell_length_b   8.35630227
_cell_length_c   8.35630239
_cell_angle_alpha   156.07123424
_cell_angle_beta   117.05618605
_cell_angle_gamma   68.35131923
_symmetry_Int_Tables_number   1
_chemical_formula_structural   Hf7(CoSe)2
_chemical_formula_sum   'Hf7 Co2 Se2'
_cell_volume   208.98725548
_cell_formula_units_Z   1
loop_
 _symmetry_equiv_pos_site_id
 _symmetry_equiv_pos_as_xyz
  1  'x, y, z'
loop_
 _atom_site_type_symbol
 _atom_site_label
 _atom_site_symmetry_multiplicity
 _atom_site_fract_x
 _atom_site_fract_y
 _atom_site_fract_z
 _atom_site_occupancy
  Hf  Hf0  1  0.184499  0.500000  0.684499  1
  Hf  Hf1  1  0.238527  0.182373  0.056155  1
  Hf  Hf2  1  0.873783  0.817627  0.056155  1
  Hf  Hf3  1  0.565721  0.145831  0.419890  1
  Hf  Hf4  1  0.274059  0.854169  0.419890  1
  Hf  Hf5  1  0.634698  0.371688  0.263013  1
  Hf  Hf6  1  0.891325  0.628312  0.263013  1
  Co  Co7  1  0.484307  0.736991  0.747316  1
  Co  Co8  1  0.010323  0.263009  0.747316  1
  Se  Se9  1  0.920482  0.000000  0.920482  1
  Se  Se10  1  0.516915  0.500000  0.016915  1
