# generated using pymatgen
data_Tb3Sm2DyTa2O14
_symmetry_space_group_name_H-M   'P 1'
_cell_length_a   6.50091208
_cell_length_b   6.50261619
_cell_length_c   7.59383700
_cell_angle_alpha   90.00000000
_cell_angle_beta   90.00000000
_cell_angle_gamma   109.42181784
_symmetry_Int_Tables_number   1
_chemical_formula_structural   Tb3Sm2DyTa2O14
_chemical_formula_sum   'Tb3 Sm2 Dy1 Ta2 O14'
_cell_volume   302.74685182
_cell_formula_units_Z   1
loop_
 _symmetry_equiv_pos_site_id
 _symmetry_equiv_pos_as_xyz
  1  'x, y, z'
loop_
 _atom_site_type_symbol
 _atom_site_label
 _atom_site_symmetry_multiplicity
 _atom_site_fract_x
 _atom_site_fract_y
 _atom_site_fract_z
 _atom_site_occupancy
  Tb  Tb0  1  0.534231  0.000467  0.750000  1
  Tb  Tb1  1  0.000420  0.534134  0.250000  1
  Tb  Tb2  1  0.465833  0.999597  0.250000  1
  Sm  Sm3  1  0.499934  0.499974  0.500060  1
  Sm  Sm4  1  0.499934  0.499974  0.999940  1
  Dy  Dy5  1  0.999283  0.466182  0.750000  1
  Ta  Ta6  1  0.999992  0.999999  0.500118  1
  Ta  Ta7  1  0.999992  0.999999  0.999882  1
  O  O8  1  0.679794  0.929560  0.468362  1
  O  O9  1  0.929862  0.679554  0.532139  1
  O  O10  1  0.679794  0.929560  0.031638  1
  O  O11  1  0.929862  0.679554  0.967861  1
  O  O12  1  0.320247  0.070418  0.531630  1
  O  O13  1  0.070278  0.320309  0.468752  1
  O  O14  1  0.320247  0.070418  0.968370  1
  O  O15  1  0.070278  0.320309  0.031248  1
  O  O16  1  0.935982  0.064369  0.750000  1
  O  O17  1  0.064013  0.935925  0.250000  1
  O  O18  1  0.365940  0.632482  0.750000  1
  O  O19  1  0.632935  0.367010  0.250000  1
  O  O20  1  0.640352  0.360944  0.750000  1
  O  O21  1  0.360795  0.639260  0.250000  1
