# generated using pymatgen
data_Rb3SbF8
_symmetry_space_group_name_H-M   'P 1'
_cell_length_a   8.73944200
_cell_length_b   8.73944132
_cell_length_c   6.69732300
_cell_angle_alpha   90.00000000
_cell_angle_beta   90.00000000
_cell_angle_gamma   120.00000258
_symmetry_Int_Tables_number   1
_chemical_formula_structural   Rb3SbF8
_chemical_formula_sum   'Rb6 Sb2 F16'
_cell_volume   442.99542408
_cell_formula_units_Z   2
loop_
 _symmetry_equiv_pos_site_id
 _symmetry_equiv_pos_as_xyz
  1  'x, y, z'
loop_
 _atom_site_type_symbol
 _atom_site_label
 _atom_site_symmetry_multiplicity
 _atom_site_fract_x
 _atom_site_fract_y
 _atom_site_fract_z
 _atom_site_occupancy
  Rb  Rb0  1  0.155742  0.311484  0.244438  1
  Rb  Rb1  1  0.844258  0.688516  0.744439  1
  Rb  Rb2  1  0.688516  0.844258  0.244438  1
  Rb  Rb3  1  0.155742  0.844258  0.244438  1
  Rb  Rb4  1  0.844258  0.155742  0.744439  1
  Rb  Rb5  1  0.311484  0.155742  0.744439  1
  Sb  Sb6  1  0.333333  0.666667  0.734386  1
  Sb  Sb7  1  0.666667  0.333333  0.234386  1
  F  F8  1  0.000000  0.000000  0.002396  1
  F  F9  1  0.000000  0.000000  0.502396  1
  F  F10  1  0.433902  0.566098  0.544570  1
  F  F11  1  0.566098  0.433902  0.044570  1
  F  F12  1  0.433902  0.867804  0.544570  1
  F  F13  1  0.132196  0.566098  0.544570  1
  F  F14  1  0.867804  0.433902  0.044570  1
  F  F15  1  0.566098  0.132196  0.044570  1
  F  F16  1  0.333333  0.666667  0.035291  1
  F  F17  1  0.666667  0.333333  0.535291  1
  F  F18  1  0.207070  0.792930  0.815352  1
  F  F19  1  0.792930  0.207070  0.315352  1
  F  F20  1  0.207070  0.414140  0.815352  1
  F  F21  1  0.585860  0.792930  0.815352  1
  F  F22  1  0.414140  0.207070  0.315352  1
  F  F23  1  0.792930  0.585860  0.315352  1
