# generated using pymatgen
data_Pm3C5
_symmetry_space_group_name_H-M   'P 1'
_cell_length_a   3.69934636
_cell_length_b   3.69781206
_cell_length_c   11.55426099
_cell_angle_alpha   55.94516768
_cell_angle_beta   85.67736660
_cell_angle_gamma   90.33197334
_symmetry_Int_Tables_number   1
_chemical_formula_structural   Pm3C5
_chemical_formula_sum   'Pm3 C5'
_cell_volume   130.35693027
_cell_formula_units_Z   1
loop_
 _symmetry_equiv_pos_site_id
 _symmetry_equiv_pos_as_xyz
  1  'x, y, z'
loop_
 _atom_site_type_symbol
 _atom_site_label
 _atom_site_symmetry_multiplicity
 _atom_site_fract_x
 _atom_site_fract_y
 _atom_site_fract_z
 _atom_site_occupancy
  Pm  Pm0  1  0.124531  0.899137  0.460099  1
  Pm  Pm1  1  0.705398  0.964738  0.139503  1
  Pm  Pm2  1  0.541547  0.829450  0.787370  1
  C  C3  1  0.608168  0.266693  0.533512  1
  C  C4  1  0.124400  0.893418  0.965096  1
  C  C5  1  0.639267  0.520232  0.392740  1
  C  C6  1  0.257985  0.540892  0.075232  1
  C  C7  1  0.988045  0.246108  0.855995  1
