# generated using pymatgen
data_LaCeLu2(ZnGe)4
_symmetry_space_group_name_H-M   'P 1'
_cell_length_a   4.28685200
_cell_length_b   4.28685223
_cell_length_c   15.88478000
_cell_angle_alpha   90.00000000
_cell_angle_beta   90.00000000
_cell_angle_gamma   119.99999822
_symmetry_Int_Tables_number   1
_chemical_formula_structural   LaCeLu2(ZnGe)4
_chemical_formula_sum   'La1 Ce1 Lu2 Zn4 Ge4'
_cell_volume   252.80685584
_cell_formula_units_Z   1
loop_
 _symmetry_equiv_pos_site_id
 _symmetry_equiv_pos_as_xyz
  1  'x, y, z'
loop_
 _atom_site_type_symbol
 _atom_site_label
 _atom_site_symmetry_multiplicity
 _atom_site_fract_x
 _atom_site_fract_y
 _atom_site_fract_z
 _atom_site_occupancy
  La  La0  1  0.000000  0.000000  0.500000  1
  Ce  Ce1  1  0.000000  0.000000  0.000000  1
  Lu  Lu2  1  0.000000  0.000000  0.750667  1
  Lu  Lu3  1  0.000000  0.000000  0.249333  1
  Zn  Zn4  1  0.666667  0.333333  0.843726  1
  Zn  Zn5  1  0.666667  0.333333  0.658241  1
  Zn  Zn6  1  0.333333  0.666667  0.156274  1
  Zn  Zn7  1  0.333333  0.666667  0.341759  1
  Ge  Ge8  1  0.666667  0.333333  0.116741  1
  Ge  Ge9  1  0.666667  0.333333  0.379371  1
  Ge  Ge10  1  0.333333  0.666667  0.883259  1
  Ge  Ge11  1  0.333333  0.666667  0.620629  1
