# generated using pymatgen
data_Zr10Sn5Ge2Sb
_symmetry_space_group_name_H-M   'P 1'
_cell_length_a   8.71040936
_cell_length_b   8.71884949
_cell_length_c   5.91685300
_cell_angle_alpha   90.00000000
_cell_angle_beta   90.00000000
_cell_angle_gamma   120.03206239
_symmetry_Int_Tables_number   1
_chemical_formula_structural   Zr10Sn5Ge2Sb
_chemical_formula_sum   'Zr10 Sn5 Ge2 Sb1'
_cell_volume   389.02611361
_cell_formula_units_Z   1
loop_
 _symmetry_equiv_pos_site_id
 _symmetry_equiv_pos_as_xyz
  1  'x, y, z'
loop_
 _atom_site_type_symbol
 _atom_site_label
 _atom_site_symmetry_multiplicity
 _atom_site_fract_x
 _atom_site_fract_y
 _atom_site_fract_z
 _atom_site_occupancy
  Zr  Zr0  1  0.667526  0.333558  0.999473  1
  Zr  Zr1  1  0.332474  0.666033  0.999473  1
  Zr  Zr2  1  0.332474  0.666033  0.500527  1
  Zr  Zr3  1  0.667526  0.333558  0.500527  1
  Zr  Zr4  1  0.737483  0.737005  0.750000  1
  Zr  Zr5  1  0.262517  0.999522  0.750000  1
  Zr  Zr6  1  0.000000  0.263277  0.750000  1
  Zr  Zr7  1  0.262032  0.262520  0.250000  1
  Zr  Zr8  1  0.737968  0.000488  0.250000  1
  Zr  Zr9  1  0.000000  0.736758  0.250000  1
  Sn  Sn10  1  0.393226  0.392694  0.750000  1
  Sn  Sn11  1  0.606774  0.999468  0.750000  1
  Sn  Sn12  1  0.000000  0.608345  0.750000  1
  Sn  Sn13  1  0.607362  0.607323  0.250000  1
  Sn  Sn14  1  0.392638  0.999961  0.250000  1
  Ge  Ge15  1  0.000000  0.999527  0.999749  1
  Ge  Ge16  1  0.000000  0.999527  0.500251  1
  Sb  Sb17  1  0.000000  0.394404  0.250000  1
