# generated using pymatgen
data_ErTh3Pd5Pt7
_symmetry_space_group_name_H-M   'P 1'
_cell_length_a   5.93433900
_cell_length_b   5.93073097
_cell_length_c   9.75261400
_cell_angle_alpha   90.00000000
_cell_angle_beta   90.00000000
_cell_angle_gamma   120.02012091
_symmetry_Int_Tables_number   1
_chemical_formula_structural   ErTh3Pd5Pt7
_chemical_formula_sum   'Er1 Th3 Pd5 Pt7'
_cell_volume   297.19681673
_cell_formula_units_Z   1
loop_
 _symmetry_equiv_pos_site_id
 _symmetry_equiv_pos_as_xyz
  1  'x, y, z'
loop_
 _atom_site_type_symbol
 _atom_site_label
 _atom_site_symmetry_multiplicity
 _atom_site_fract_x
 _atom_site_fract_y
 _atom_site_fract_z
 _atom_site_occupancy
  Er  Er0  1  0.333366  0.666734  0.250000  1
  Th  Th1  1  0.000160  0.000320  0.495383  1
  Th  Th2  1  0.000160  0.000320  0.004617  1
  Th  Th3  1  0.666224  0.332446  0.750000  1
  Pd  Pd4  1  0.824484  0.648968  0.250000  1
  Pd  Pd5  1  0.349808  0.174957  0.250000  1
  Pd  Pd6  1  0.825149  0.174957  0.250000  1
  Pd  Pd7  1  0.652208  0.826258  0.750000  1
  Pd  Pd8  1  0.174052  0.826258  0.750000  1
  Pt  Pt9  1  0.499342  0.500956  0.497719  1
  Pt  Pt10  1  0.499289  0.998578  0.497446  1
  Pt  Pt11  1  0.001615  0.500956  0.497719  1
  Pt  Pt12  1  0.499342  0.500956  0.002281  1
  Pt  Pt13  1  0.499289  0.998578  0.002554  1
  Pt  Pt14  1  0.001615  0.500956  0.002281  1
  Pt  Pt15  1  0.173899  0.347798  0.750000  1
