# generated using pymatgen
data_Ca20(SiSb3)3
_symmetry_space_group_name_H-M   'P 1'
_cell_length_a   8.07288321
_cell_length_b   9.53089200
_cell_length_c   12.76483396
_cell_angle_alpha   90.00000000
_cell_angle_beta   89.76499926
_cell_angle_gamma   90.00000000
_symmetry_Int_Tables_number   1
_chemical_formula_structural   Ca20(SiSb3)3
_chemical_formula_sum   'Ca20 Si3 Sb9'
_cell_volume   982.14075962
_cell_formula_units_Z   1
loop_
 _symmetry_equiv_pos_site_id
 _symmetry_equiv_pos_as_xyz
  1  'x, y, z'
loop_
 _atom_site_type_symbol
 _atom_site_label
 _atom_site_symmetry_multiplicity
 _atom_site_fract_x
 _atom_site_fract_y
 _atom_site_fract_z
 _atom_site_occupancy
  Ca  Ca0  1  0.325787  0.972644  0.073995  1
  Ca  Ca1  1  0.820846  0.039879  0.420003  1
  Ca  Ca2  1  0.675779  0.470706  0.923777  1
  Ca  Ca3  1  0.179537  0.518827  0.582417  1
  Ca  Ca4  1  0.675779  0.029294  0.923777  1
  Ca  Ca5  1  0.179537  0.981173  0.582417  1
  Ca  Ca6  1  0.325787  0.527356  0.073995  1
  Ca  Ca7  1  0.820846  0.460121  0.420003  1
  Ca  Ca8  1  0.670110  0.750000  0.214731  1
  Ca  Ca9  1  0.174691  0.250000  0.282263  1
  Ca  Ca10  1  0.330339  0.250000  0.785017  1
  Ca  Ca11  1  0.815094  0.750000  0.729038  1
  Ca  Ca12  1  0.157981  0.750000  0.292745  1
  Ca  Ca13  1  0.646076  0.250000  0.194429  1
  Ca  Ca14  1  0.853817  0.250000  0.696693  1
  Ca  Ca15  1  0.349770  0.750000  0.804374  1
  Ca  Ca16  1  0.541180  0.750000  0.500769  1
  Ca  Ca17  1  0.053504  0.250000  0.000512  1
  Ca  Ca18  1  0.447153  0.250000  0.498859  1
  Ca  Ca19  1  0.947522  0.750000  0.002101  1
  Si  Si20  1  0.561841  0.750000  0.989133  1
  Si  Si21  1  0.059771  0.250000  0.507759  1
  Si  Si22  1  0.441179  0.250000  0.008269  1
  Sb  Sb23  1  0.947649  0.006911  0.170921  1
  Sb  Sb24  1  0.446035  0.991624  0.330590  1
  Sb  Sb25  1  0.052976  0.507134  0.830530  1
  Sb  Sb26  1  0.555402  0.492226  0.668477  1
  Sb  Sb27  1  0.052976  0.992866  0.830530  1
  Sb  Sb28  1  0.555402  0.007774  0.668477  1
  Sb  Sb29  1  0.947649  0.493089  0.170921  1
  Sb  Sb30  1  0.446035  0.508376  0.330590  1
  Sb  Sb31  1  0.941950  0.750000  0.491888  1
