# generated using pymatgen
data_Pr4Cu3Sb8
_symmetry_space_group_name_H-M   'P 1'
_cell_length_a   11.00836106
_cell_length_b   11.00836133
_cell_length_c   11.00836147
_cell_angle_alpha   147.23392001
_cell_angle_beta   147.23392472
_cell_angle_gamma   47.01754593
_symmetry_Int_Tables_number   1
_chemical_formula_structural   Pr4Cu3Sb8
_chemical_formula_sum   'Pr4 Cu3 Sb8'
_cell_volume   389.28893725
_cell_formula_units_Z   1
loop_
 _symmetry_equiv_pos_site_id
 _symmetry_equiv_pos_as_xyz
  1  'x, y, z'
loop_
 _atom_site_type_symbol
 _atom_site_label
 _atom_site_symmetry_multiplicity
 _atom_site_fract_x
 _atom_site_fract_y
 _atom_site_fract_z
 _atom_site_occupancy
  Pr  Pr0  1  0.631841  0.631841  0.503076  1
  Pr  Pr1  1  0.128764  0.128764  0.496924  1
  Pr  Pr2  1  0.368159  0.871236  0.000000  1
  Pr  Pr3  1  0.871236  0.368159  0.000000  1
  Cu  Cu4  1  0.000000  0.000000  0.000000  1
  Cu  Cu5  1  0.000000  0.500000  0.500000  1
  Cu  Cu6  1  0.500000  0.000000  0.500000  1
  Sb  Sb7  1  0.327412  0.327412  0.510999  1
  Sb  Sb8  1  0.816413  0.816413  0.489001  1
  Sb  Sb9  1  0.672588  0.183587  0.000000  1
  Sb  Sb10  1  0.183587  0.672588  0.000000  1
  Sb  Sb11  1  0.249828  0.249828  0.000000  1
  Sb  Sb12  1  0.750172  0.750172  0.000000  1
  Sb  Sb13  1  0.750000  0.250000  0.500000  1
  Sb  Sb14  1  0.250000  0.750000  0.500000  1
