# generated using pymatgen
data_Lu4Sn2As4Rh7
_symmetry_space_group_name_H-M   'P 1'
_cell_length_a   7.30211035
_cell_length_b   7.30211063
_cell_length_c   7.34451989
_cell_angle_alpha   109.48524968
_cell_angle_beta   109.48525275
_cell_angle_gamma   109.20791443
_symmetry_Int_Tables_number   1
_chemical_formula_structural   Lu4Sn2As4Rh7
_chemical_formula_sum   'Lu4 Sn2 As4 Rh7'
_cell_volume   302.33627658
_cell_formula_units_Z   1
loop_
 _symmetry_equiv_pos_site_id
 _symmetry_equiv_pos_as_xyz
  1  'x, y, z'
loop_
 _atom_site_type_symbol
 _atom_site_label
 _atom_site_symmetry_multiplicity
 _atom_site_fract_x
 _atom_site_fract_y
 _atom_site_fract_z
 _atom_site_occupancy
  Lu  Lu0  1  0.542938  0.542938  0.538378  1
  Lu  Lu1  1  0.995594  0.495594  0.991188  1
  Lu  Lu2  1  0.495594  0.995594  0.991188  1
  Lu  Lu3  1  0.995440  0.995440  0.538378  1
  Sn  Sn4  1  0.010383  0.296881  0.307265  1
  Sn  Sn5  1  0.296881  0.010383  0.307265  1
  As  As6  1  0.664875  0.005793  0.670668  1
  As  As7  1  0.686410  0.686410  0.011192  1
  As  As8  1  0.324782  0.324782  0.011192  1
  As  As9  1  0.005793  0.664875  0.670668  1
  Rh  Rh10  1  0.749785  0.500190  0.249975  1
  Rh  Rh11  1  0.500734  0.257401  0.758135  1
  Rh  Rh12  1  0.749542  0.249542  0.499083  1
  Rh  Rh13  1  0.249542  0.749542  0.499083  1
  Rh  Rh14  1  0.257401  0.500734  0.758135  1
  Rh  Rh15  1  0.500190  0.749785  0.249975  1
  Rh  Rh16  1  0.974116  0.974116  0.948231  1
