# generated using pymatgen
data_Ac3Sn6Ru
_symmetry_space_group_name_H-M   'P 1'
_cell_length_a   9.07598945
_cell_length_b   9.07598988
_cell_length_c   13.80396600
_cell_angle_alpha   90.00000000
_cell_angle_beta   90.00000000
_cell_angle_gamma   148.36218208
_symmetry_Int_Tables_number   1
_chemical_formula_structural   Ac3Sn6Ru
_chemical_formula_sum   'Ac6 Sn12 Ru2'
_cell_volume   596.45416922
_cell_formula_units_Z   2
loop_
 _symmetry_equiv_pos_site_id
 _symmetry_equiv_pos_as_xyz
  1  'x, y, z'
loop_
 _atom_site_type_symbol
 _atom_site_label
 _atom_site_symmetry_multiplicity
 _atom_site_fract_x
 _atom_site_fract_y
 _atom_site_fract_z
 _atom_site_occupancy
  Ac  Ac0  1  0.605534  0.394466  0.250000  1
  Ac  Ac1  1  0.394466  0.605534  0.750000  1
  Ac  Ac2  1  0.400659  0.599341  0.406965  1
  Ac  Ac3  1  0.599341  0.400659  0.593035  1
  Ac  Ac4  1  0.400659  0.599341  0.093035  1
  Ac  Ac5  1  0.599341  0.400659  0.906965  1
  Sn  Sn6  1  0.934065  0.065935  0.921635  1
  Sn  Sn7  1  0.065935  0.934065  0.078365  1
  Sn  Sn8  1  0.934065  0.065935  0.578365  1
  Sn  Sn9  1  0.065935  0.934065  0.421635  1
  Sn  Sn10  1  0.955025  0.044975  0.250000  1
  Sn  Sn11  1  0.044975  0.955025  0.750000  1
  Sn  Sn12  1  0.752542  0.247459  0.435743  1
  Sn  Sn13  1  0.247459  0.752541  0.564257  1
  Sn  Sn14  1  0.752542  0.247459  0.064257  1
  Sn  Sn15  1  0.247459  0.752541  0.935743  1
  Sn  Sn16  1  0.239078  0.760922  0.250000  1
  Sn  Sn17  1  0.760922  0.239078  0.750000  1
  Ru  Ru18  1  0.798083  0.201917  0.250000  1
  Ru  Ru19  1  0.201917  0.798083  0.750000  1
