# generated using pymatgen
data_ZrSc(SiW)2
_symmetry_space_group_name_H-M   'P 1'
_cell_length_a   3.53445000
_cell_length_b   7.00961900
_cell_length_c   8.23193500
_cell_angle_alpha   90.00000000
_cell_angle_beta   90.00000000
_cell_angle_gamma   90.00000000
_symmetry_Int_Tables_number   1
_chemical_formula_structural   ZrSc(SiW)2
_chemical_formula_sum   'Zr2 Sc2 Si4 W4'
_cell_volume   203.94740692
_cell_formula_units_Z   2
loop_
 _symmetry_equiv_pos_site_id
 _symmetry_equiv_pos_as_xyz
  1  'x, y, z'
loop_
 _atom_site_type_symbol
 _atom_site_label
 _atom_site_symmetry_multiplicity
 _atom_site_fract_x
 _atom_site_fract_y
 _atom_site_fract_z
 _atom_site_occupancy
  Zr  Zr0  1  0.750000  0.458112  0.833393  1
  Zr  Zr1  1  0.750000  0.958112  0.666607  1
  Sc  Sc2  1  0.250000  0.541022  0.164948  1
  Sc  Sc3  1  0.250000  0.041022  0.335052  1
  Si  Si4  1  0.250000  0.757071  0.862635  1
  Si  Si5  1  0.250000  0.257071  0.637365  1
  Si  Si6  1  0.750000  0.241210  0.142291  1
  Si  Si7  1  0.750000  0.741210  0.357709  1
  W  W8  1  0.250000  0.630786  0.559431  1
  W  W9  1  0.250000  0.130786  0.940569  1
  W  W10  1  0.750000  0.371799  0.440699  1
  W  W11  1  0.750000  0.871799  0.059301  1
