# generated using pymatgen
data_DyBi3Ru2O11
_symmetry_space_group_name_H-M   'P 1'
_cell_length_a   6.53875831
_cell_length_b   7.52807028
_cell_length_c   9.81993462
_cell_angle_alpha   100.95987463
_cell_angle_beta   91.29310523
_cell_angle_gamma   90.11459526
_symmetry_Int_Tables_number   1
_chemical_formula_structural   DyBi3Ru2O11
_chemical_formula_sum   'Dy2 Bi6 Ru4 O22'
_cell_volume   474.43158846
_cell_formula_units_Z   2
loop_
 _symmetry_equiv_pos_site_id
 _symmetry_equiv_pos_as_xyz
  1  'x, y, z'
loop_
 _atom_site_type_symbol
 _atom_site_label
 _atom_site_symmetry_multiplicity
 _atom_site_fract_x
 _atom_site_fract_y
 _atom_site_fract_z
 _atom_site_occupancy
  Dy  Dy0  1  0.749066  0.371193  0.478392  1
  Dy  Dy1  1  0.250934  0.628807  0.521608  1
  Bi  Bi2  1  0.757911  0.870033  0.492214  1
  Bi  Bi3  1  0.242089  0.129967  0.507786  1
  Bi  Bi4  1  0.469972  0.952808  0.820526  1
  Bi  Bi5  1  0.530028  0.047192  0.179474  1
  Bi  Bi6  1  0.398386  0.452616  0.824982  1
  Bi  Bi7  1  0.601614  0.547384  0.175018  1
  Ru  Ru8  1  0.932996  0.702571  0.810682  1
  Ru  Ru9  1  0.067004  0.297429  0.189318  1
  Ru  Ru10  1  0.930552  0.203009  0.811916  1
  Ru  Ru11  1  0.069448  0.796991  0.188084  1
  O  O12  1  0.227875  0.720057  0.760437  1
  O  O13  1  0.772125  0.279943  0.239563  1
  O  O14  1  0.636730  0.674160  0.834244  1
  O  O15  1  0.363270  0.325840  0.165756  1
  O  O16  1  0.635322  0.243091  0.847162  1
  O  O17  1  0.364678  0.756909  0.152838  1
  O  O18  1  0.883337  0.182878  0.607761  1
  O  O19  1  0.116663  0.817122  0.392239  1
  O  O20  1  0.224270  0.157701  0.760631  1
  O  O21  1  0.775730  0.842299  0.239369  1
  O  O22  1  0.902764  0.627365  0.601453  1
  O  O23  1  0.097236  0.372635  0.398547  1
  O  O24  1  0.007895  0.542717  0.171301  1
  O  O25  1  0.992105  0.457283  0.828699  1
  O  O26  1  0.997732  0.787300  0.999257  1
  O  O27  1  0.002268  0.212700  0.000743  1
  O  O28  1  0.569146  0.601068  0.397250  1
  O  O29  1  0.430854  0.398932  0.602750  1
  O  O30  1  0.157110  0.055808  0.223242  1
  O  O31  1  0.842890  0.944192  0.776758  1
  O  O32  1  0.548007  0.103551  0.400949  1
  O  O33  1  0.451993  0.896449  0.599051  1
