# generated using pymatgen
data_Mg2MnP6IN12
_symmetry_space_group_name_H-M   'P 1'
_cell_length_a   7.29199917
_cell_length_b   7.34323141
_cell_length_c   7.34323071
_cell_angle_alpha   110.87471122
_cell_angle_beta   109.35856604
_cell_angle_gamma   109.35855284
_symmetry_Int_Tables_number   1
_chemical_formula_structural   Mg2MnP6IN12
_chemical_formula_sum   'Mg2 Mn1 P6 I1 N12'
_cell_volume   298.15622107
_cell_formula_units_Z   1
loop_
 _symmetry_equiv_pos_site_id
 _symmetry_equiv_pos_as_xyz
  1  'x, y, z'
loop_
 _atom_site_type_symbol
 _atom_site_label
 _atom_site_symmetry_multiplicity
 _atom_site_fract_x
 _atom_site_fract_y
 _atom_site_fract_z
 _atom_site_occupancy
  Mg  Mg0  1  0.998237  0.373795  0.005778  1
  Mg  Mg1  1  0.998237  0.005778  0.373795  1
  Mn  Mn2  1  0.440016  0.048467  0.048467  1
  P  P3  1  0.493401  0.258882  0.735089  1
  P  P4  1  0.258374  0.757250  0.512824  1
  P  P5  1  0.746420  0.497787  0.247761  1
  P  P6  1  0.746420  0.247761  0.497787  1
  P  P7  1  0.493401  0.735089  0.258882  1
  P  P8  1  0.258374  0.512824  0.757250  1
  I  I9  1  0.992626  0.975651  0.975651  1
  N  N10  1  0.425357  0.706300  0.435197  1
  N  N11  1  0.644124  0.352884  0.352884  1
  N  N12  1  0.425357  0.435197  0.706300  1
  N  N13  1  0.724119  0.299252  0.720067  1
  N  N14  1  0.999712  0.560011  0.297116  1
  N  N15  1  0.276361  0.557747  0.000289  1
  N  N16  1  0.276361  0.000289  0.557747  1
  N  N17  1  0.999712  0.297116  0.560011  1
  N  N18  1  0.724119  0.720067  0.299252  1
  N  N19  1  0.568994  0.984639  0.282764  1
  N  N20  1  0.301280  0.750445  0.750445  1
  N  N21  1  0.568994  0.282764  0.984639  1
