# generated using pymatgen
data_TbDyEr(Ga2Ni3)3
_symmetry_space_group_name_H-M   'P 1'
_cell_length_a   8.75754900
_cell_length_b   8.75754883
_cell_length_c   4.09183600
_cell_angle_alpha   90.00000000
_cell_angle_beta   90.00000000
_cell_angle_gamma   119.99999687
_symmetry_Int_Tables_number   1
_chemical_formula_structural   TbDyEr(Ga2Ni3)3
_chemical_formula_sum   'Tb1 Dy1 Er1 Ga6 Ni9'
_cell_volume   271.77781814
_cell_formula_units_Z   1
loop_
 _symmetry_equiv_pos_site_id
 _symmetry_equiv_pos_as_xyz
  1  'x, y, z'
loop_
 _atom_site_type_symbol
 _atom_site_label
 _atom_site_symmetry_multiplicity
 _atom_site_fract_x
 _atom_site_fract_y
 _atom_site_fract_z
 _atom_site_occupancy
  Tb  Tb0  1  0.333333  0.666667  0.500000  1
  Dy  Dy1  1  0.666667  0.333333  0.500000  1
  Er  Er2  1  0.000000  0.000000  0.000000  1
  Ga  Ga3  1  0.482355  0.482208  0.000000  1
  Ga  Ga4  1  0.517792  0.000147  0.000000  1
  Ga  Ga5  1  0.999853  0.517645  0.000000  1
  Ga  Ga6  1  0.730084  0.729994  0.500000  1
  Ga  Ga7  1  0.270006  0.000089  0.500000  1
  Ga  Ga8  1  0.999911  0.269916  0.500000  1
  Ni  Ni9  1  0.825934  0.197102  0.000000  1
  Ni  Ni10  1  0.802898  0.628832  0.000000  1
  Ni  Ni11  1  0.371168  0.174066  0.000000  1
  Ni  Ni12  1  0.196937  0.826076  0.000000  1
  Ni  Ni13  1  0.629139  0.803063  0.000000  1
  Ni  Ni14  1  0.173924  0.370861  0.000000  1
  Ni  Ni15  1  0.293261  0.293158  0.500000  1
  Ni  Ni16  1  0.706842  0.000102  0.500000  1
  Ni  Ni17  1  0.999898  0.706739  0.500000  1
