# generated using pymatgen
data_La10AlZn3(Ir2Ru)2
_symmetry_space_group_name_H-M   'P 1'
_cell_length_a   8.69071502
_cell_length_b   8.70316901
_cell_length_c   8.62691008
_cell_angle_alpha   109.47040381
_cell_angle_beta   109.81043043
_cell_angle_gamma   109.69166450
_symmetry_Int_Tables_number   1
_chemical_formula_structural   La10AlZn3(Ir2Ru)2
_chemical_formula_sum   'La10 Al1 Zn3 Ir4 Ru2'
_cell_volume   498.80587985
_cell_formula_units_Z   1
loop_
 _symmetry_equiv_pos_site_id
 _symmetry_equiv_pos_as_xyz
  1  'x, y, z'
loop_
 _atom_site_type_symbol
 _atom_site_label
 _atom_site_symmetry_multiplicity
 _atom_site_fract_x
 _atom_site_fract_y
 _atom_site_fract_z
 _atom_site_occupancy
  La  La0  1  0.249726  0.683071  0.440782  1
  La  La1  1  0.742618  0.810676  0.055708  1
  La  La2  1  0.438947  0.249480  0.686330  1
  La  La3  1  0.685595  0.437739  0.251106  1
  La  La4  1  0.060770  0.748440  0.812848  1
  La  La5  1  0.810041  0.059483  0.745326  1
  La  La6  1  0.219738  0.219858  0.220202  1
  La  La7  1  0.502179  0.997665  0.280979  1
  La  La8  1  0.285466  0.503572  0.002019  1
  La  La9  1  0.004113  0.284816  0.501793  1
  Al  Al10  1  0.999492  0.906575  0.498243  1
  Zn  Zn11  1  0.496839  0.999092  0.908882  1
  Zn  Zn12  1  0.588318  0.589344  0.588023  1
  Zn  Zn13  1  0.911955  0.501771  0.002235  1
  Ir  Ir14  1  0.243361  0.122164  0.866362  1
  Ir  Ir15  1  0.748632  0.372009  0.621298  1
  Ir  Ir16  1  0.877478  0.251492  0.125861  1
  Ir  Ir17  1  0.124291  0.880942  0.258978  1
  Ru  Ru18  1  0.636821  0.758638  0.379789  1
  Ru  Ru19  1  0.373622  0.623175  0.753239  1
