# generated using pymatgen
data_Dy3Co(P3Ru4)2
_symmetry_space_group_name_H-M   'P 1'
_cell_length_a   3.91254400
_cell_length_b   11.10979800
_cell_length_c   12.60417100
_cell_angle_alpha   90.00000000
_cell_angle_beta   90.00000000
_cell_angle_gamma   90.00000000
_symmetry_Int_Tables_number   1
_chemical_formula_structural   Dy3Co(P3Ru4)2
_chemical_formula_sum   'Dy6 Co2 P12 Ru16'
_cell_volume   547.87272943
_cell_formula_units_Z   2
loop_
 _symmetry_equiv_pos_site_id
 _symmetry_equiv_pos_as_xyz
  1  'x, y, z'
loop_
 _atom_site_type_symbol
 _atom_site_label
 _atom_site_symmetry_multiplicity
 _atom_site_fract_x
 _atom_site_fract_y
 _atom_site_fract_z
 _atom_site_occupancy
  Dy  Dy0  1  0.000000  0.500000  0.526127  1
  Dy  Dy1  1  0.500000  0.000000  0.473873  1
  Dy  Dy2  1  0.500000  0.819051  0.204448  1
  Dy  Dy3  1  0.500000  0.180949  0.204448  1
  Dy  Dy4  1  0.000000  0.680949  0.795552  1
  Dy  Dy5  1  0.000000  0.319051  0.795552  1
  Co  Co6  1  0.000000  0.500000  0.986612  1
  Co  Co7  1  0.500000  0.000000  0.013388  1
  P  P8  1  0.500000  0.500000  0.882171  1
  P  P9  1  0.000000  0.000000  0.117829  1
  P  P10  1  0.500000  0.500000  0.337596  1
  P  P11  1  0.000000  0.000000  0.662404  1
  P  P12  1  0.500000  0.302436  0.617472  1
  P  P13  1  0.500000  0.697564  0.617472  1
  P  P14  1  0.000000  0.197564  0.382528  1
  P  P15  1  0.000000  0.802436  0.382528  1
  P  P16  1  0.500000  0.849379  0.898458  1
  P  P17  1  0.500000  0.150621  0.898458  1
  P  P18  1  0.000000  0.650621  0.101542  1
  P  P19  1  0.000000  0.349379  0.101542  1
  Ru  Ru20  1  0.500000  0.500000  0.153268  1
  Ru  Ru21  1  0.000000  0.000000  0.846732  1
  Ru  Ru22  1  0.500000  0.500000  0.694877  1
  Ru  Ru23  1  0.000000  0.000000  0.305123  1
  Ru  Ru24  1  0.500000  0.334582  0.989625  1
  Ru  Ru25  1  0.500000  0.665418  0.989625  1
  Ru  Ru26  1  0.000000  0.165418  0.010375  1
  Ru  Ru27  1  0.000000  0.834582  0.010375  1
  Ru  Ru28  1  0.500000  0.301407  0.430234  1
  Ru  Ru29  1  0.500000  0.698593  0.430234  1
  Ru  Ru30  1  0.000000  0.198593  0.569766  1
  Ru  Ru31  1  0.000000  0.801407  0.569766  1
  Ru  Ru32  1  0.500000  0.878461  0.715842  1
  Ru  Ru33  1  0.500000  0.121539  0.715842  1
  Ru  Ru34  1  0.000000  0.621539  0.284158  1
  Ru  Ru35  1  0.000000  0.378461  0.284158  1
