# generated using pymatgen
data_Nd3Co8P6W
_symmetry_space_group_name_H-M   'P 1'
_cell_length_a   3.77998800
_cell_length_b   10.69190800
_cell_length_c   12.42532300
_cell_angle_alpha   90.00000000
_cell_angle_beta   90.00000000
_cell_angle_gamma   90.00000000
_symmetry_Int_Tables_number   1
_chemical_formula_structural   Nd3Co8P6W
_chemical_formula_sum   'Nd6 Co16 P12 W2'
_cell_volume   502.17295706
_cell_formula_units_Z   2
loop_
 _symmetry_equiv_pos_site_id
 _symmetry_equiv_pos_as_xyz
  1  'x, y, z'
loop_
 _atom_site_type_symbol
 _atom_site_label
 _atom_site_symmetry_multiplicity
 _atom_site_fract_x
 _atom_site_fract_y
 _atom_site_fract_z
 _atom_site_occupancy
  Nd  Nd0  1  0.000000  0.500000  0.523540  1
  Nd  Nd1  1  0.500000  0.000000  0.476460  1
  Nd  Nd2  1  0.500000  0.819197  0.205083  1
  Nd  Nd3  1  0.500000  0.180803  0.205083  1
  Nd  Nd4  1  0.000000  0.680803  0.794917  1
  Nd  Nd5  1  0.000000  0.319197  0.794917  1
  Co  Co6  1  0.500000  0.500000  0.702895  1
  Co  Co7  1  0.000000  0.000000  0.297105  1
  Co  Co8  1  0.000000  0.500000  0.988505  1
  Co  Co9  1  0.500000  0.000000  0.011495  1
  Co  Co10  1  0.500000  0.332633  0.992136  1
  Co  Co11  1  0.500000  0.667367  0.992136  1
  Co  Co12  1  0.000000  0.167367  0.007864  1
  Co  Co13  1  0.000000  0.832633  0.007864  1
  Co  Co14  1  0.500000  0.295705  0.430810  1
  Co  Co15  1  0.500000  0.704295  0.430810  1
  Co  Co16  1  0.000000  0.204295  0.569190  1
  Co  Co17  1  0.000000  0.795705  0.569190  1
  Co  Co18  1  0.500000  0.880601  0.709289  1
  Co  Co19  1  0.500000  0.119399  0.709289  1
  Co  Co20  1  0.000000  0.619399  0.290711  1
  Co  Co21  1  0.000000  0.380601  0.290711  1
  P  P22  1  0.500000  0.500000  0.885324  1
  P  P23  1  0.000000  0.000000  0.114676  1
  P  P24  1  0.500000  0.500000  0.345327  1
  P  P25  1  0.000000  0.000000  0.654673  1
  P  P26  1  0.500000  0.306933  0.614212  1
  P  P27  1  0.500000  0.693067  0.614212  1
  P  P28  1  0.000000  0.193067  0.385788  1
  P  P29  1  0.000000  0.806933  0.385788  1
  P  P30  1  0.500000  0.846081  0.894892  1
  P  P31  1  0.500000  0.153919  0.894892  1
  P  P32  1  0.000000  0.653919  0.105108  1
  P  P33  1  0.000000  0.346081  0.105108  1
  W  W34  1  0.500000  0.500000  0.154391  1
  W  W35  1  0.000000  0.000000  0.845609  1
