# generated using pymatgen
data_LiSm2Co6(NiP2)3
_symmetry_space_group_name_H-M   'P 1'
_cell_length_a   3.72554600
_cell_length_b   10.37221700
_cell_length_c   11.97621600
_cell_angle_alpha   90.00000000
_cell_angle_beta   90.00000000
_cell_angle_gamma   90.00000000
_symmetry_Int_Tables_number   1
_chemical_formula_structural   LiSm2Co6(NiP2)3
_chemical_formula_sum   'Li2 Sm4 Co12 Ni6 P12'
_cell_volume   462.78699326
_cell_formula_units_Z   2
loop_
 _symmetry_equiv_pos_site_id
 _symmetry_equiv_pos_as_xyz
  1  'x, y, z'
loop_
 _atom_site_type_symbol
 _atom_site_label
 _atom_site_symmetry_multiplicity
 _atom_site_fract_x
 _atom_site_fract_y
 _atom_site_fract_z
 _atom_site_occupancy
  Li  Li0  1  0.250000  0.701206  0.992002  1
  Li  Li1  1  0.250000  0.798794  0.492002  1
  Sm  Sm2  1  0.250000  0.581884  0.701990  1
  Sm  Sm3  1  0.250000  0.918116  0.201990  1
  Sm  Sm4  1  0.750000  0.418430  0.296222  1
  Sm  Sm5  1  0.750000  0.081570  0.796222  1
  Co  Co6  1  0.250000  0.222275  0.174306  1
  Co  Co7  1  0.250000  0.277725  0.674306  1
  Co  Co8  1  0.750000  0.781406  0.827543  1
  Co  Co9  1  0.750000  0.718594  0.327543  1
  Co  Co10  1  0.250000  0.882143  0.697563  1
  Co  Co11  1  0.250000  0.617857  0.197563  1
  Co  Co12  1  0.750000  0.119967  0.302412  1
  Co  Co13  1  0.750000  0.380033  0.802412  1
  Co  Co14  1  0.250000  0.466060  0.932145  1
  Co  Co15  1  0.250000  0.033940  0.432145  1
  Co  Co16  1  0.750000  0.530908  0.065399  1
  Co  Co17  1  0.750000  0.969092  0.565399  1
  Ni  Ni18  1  0.750000  0.290205  0.010912  1
  Ni  Ni19  1  0.750000  0.209795  0.510912  1
  Ni  Ni20  1  0.250000  0.405331  0.486107  1
  Ni  Ni21  1  0.250000  0.094669  0.986107  1
  Ni  Ni22  1  0.750000  0.589163  0.512260  1
  Ni  Ni23  1  0.750000  0.910837  0.012260  1
  P  P24  1  0.250000  0.421121  0.110938  1
  P  P25  1  0.250000  0.078879  0.610938  1
  P  P26  1  0.750000  0.578539  0.886234  1
  P  P27  1  0.750000  0.921461  0.386234  1
  P  P28  1  0.250000  0.273767  0.862966  1
  P  P29  1  0.250000  0.226233  0.362966  1
  P  P30  1  0.750000  0.721297  0.141957  1
  P  P31  1  0.750000  0.778703  0.641957  1
  P  P32  1  0.250000  0.605226  0.388249  1
  P  P33  1  0.250000  0.894774  0.888249  1
  P  P34  1  0.750000  0.390957  0.610794  1
  P  P35  1  0.750000  0.109043  0.110794  1
