# generated using pymatgen
data_NdLuCo3P7Ru9
_symmetry_space_group_name_H-M   'P 1'
_cell_length_a   9.34471700
_cell_length_b   9.34471698
_cell_length_c   3.83387100
_cell_angle_alpha   90.00000000
_cell_angle_beta   90.00000000
_cell_angle_gamma   120.00000975
_symmetry_Int_Tables_number   1
_chemical_formula_structural   NdLuCo3P7Ru9
_chemical_formula_sum   'Nd1 Lu1 Co3 P7 Ru9'
_cell_volume   289.93483034
_cell_formula_units_Z   1
loop_
 _symmetry_equiv_pos_site_id
 _symmetry_equiv_pos_as_xyz
  1  'x, y, z'
loop_
 _atom_site_type_symbol
 _atom_site_label
 _atom_site_symmetry_multiplicity
 _atom_site_fract_x
 _atom_site_fract_y
 _atom_site_fract_z
 _atom_site_occupancy
  Nd  Nd0  1  0.333333  0.666667  0.000000  1
  Lu  Lu1  1  0.000000  0.000000  0.500000  1
  Co  Co2  1  0.935758  0.444059  0.000000  1
  Co  Co3  1  0.508300  0.064242  0.000000  1
  Co  Co4  1  0.555941  0.491700  0.000000  1
  P  P5  1  0.970053  0.222864  0.000000  1
  P  P6  1  0.252811  0.029947  0.000000  1
  P  P7  1  0.777136  0.747189  0.000000  1
  P  P8  1  0.063445  0.616744  0.500000  1
  P  P9  1  0.553298  0.936555  0.500000  1
  P  P10  1  0.383256  0.446702  0.500000  1
  P  P11  1  0.666667  0.333333  0.000000  1
  Ru  Ru12  1  0.731650  0.972593  0.000000  1
  Ru  Ru13  1  0.240943  0.268350  0.000000  1
  Ru  Ru14  1  0.027407  0.759057  0.000000  1
  Ru  Ru15  1  0.099844  0.381426  0.500000  1
  Ru  Ru16  1  0.281581  0.900156  0.500000  1
  Ru  Ru17  1  0.618574  0.718419  0.500000  1
  Ru  Ru18  1  0.751904  0.214110  0.500000  1
  Ru  Ru19  1  0.462206  0.248096  0.500000  1
  Ru  Ru20  1  0.785890  0.537794  0.500000  1
