# generated using pymatgen
data_Ba2NaTcO6
_symmetry_space_group_name_H-M   'P 1'
_cell_length_a   5.80569444
_cell_length_b   5.80569419
_cell_length_c   5.80569500
_cell_angle_alpha   119.99999893
_cell_angle_beta   119.99999749
_cell_angle_gamma   59.99998708
_symmetry_Int_Tables_number   1
_chemical_formula_structural   Ba2NaTcO6
_chemical_formula_sum   'Ba2 Na1 Tc1 O6'
_cell_volume   138.37177716
_cell_formula_units_Z   1
loop_
 _symmetry_equiv_pos_site_id
 _symmetry_equiv_pos_as_xyz
  1  'x, y, z'
loop_
 _atom_site_type_symbol
 _atom_site_label
 _atom_site_symmetry_multiplicity
 _atom_site_fract_x
 _atom_site_fract_y
 _atom_site_fract_z
 _atom_site_occupancy
  Ba  Ba0  1  0.750001  0.750001  0.249999  1
  Ba  Ba1  1  0.250000  0.250000  0.749998  1
  Na  Na2  1  0.500000  0.500000  0.500001  1
  Tc  Tc3  1  0.000000  0.000000  0.000000  1
  O  O4  1  0.230228  0.230228  0.230228  1
  O  O5  1  0.769772  0.230229  0.230230  1
  O  O6  1  0.230229  0.769772  0.230230  1
  O  O7  1  0.769772  0.769772  0.769772  1
  O  O8  1  0.769771  0.230228  0.769772  1
  O  O9  1  0.230228  0.769771  0.769772  1
