# generated using pymatgen
data_Zr2Sc5NbH16
_symmetry_space_group_name_H-M   'P 1'
_cell_length_a   6.72990333
_cell_length_b   6.72990379
_cell_length_c   6.72845300
_cell_angle_alpha   60.00712594
_cell_angle_beta   60.00712370
_cell_angle_gamma   59.93589338
_symmetry_Int_Tables_number   1
_chemical_formula_structural   Zr2Sc5NbH16
_chemical_formula_sum   'Zr2 Sc5 Nb1 H16'
_cell_volume   215.40400408
_cell_formula_units_Z   1
loop_
 _symmetry_equiv_pos_site_id
 _symmetry_equiv_pos_as_xyz
  1  'x, y, z'
loop_
 _atom_site_type_symbol
 _atom_site_label
 _atom_site_symmetry_multiplicity
 _atom_site_fract_x
 _atom_site_fract_y
 _atom_site_fract_z
 _atom_site_occupancy
  Zr  Zr0  1  0.000000  0.000000  0.500000  1
  Zr  Zr1  1  0.500000  0.500000  0.500000  1
  Sc  Sc2  1  0.500000  0.000000  0.500000  1
  Sc  Sc3  1  0.000000  0.500000  0.500000  1
  Sc  Sc4  1  0.500000  0.500000  0.000000  1
  Sc  Sc5  1  0.000000  0.500000  0.000000  1
  Sc  Sc6  1  0.500000  0.000000  0.000000  1
  Nb  Nb7  1  0.000000  0.000000  0.000000  1
  H  H8  1  0.879843  0.879843  0.360378  1
  H  H9  1  0.880025  0.360112  0.879933  1
  H  H10  1  0.360112  0.880025  0.879933  1
  H  H11  1  0.879843  0.879843  0.879938  1
  H  H12  1  0.120157  0.120157  0.639622  1
  H  H13  1  0.119975  0.639888  0.120067  1
  H  H14  1  0.639888  0.119975  0.120067  1
  H  H15  1  0.120157  0.120157  0.120062  1
  H  H16  1  0.625102  0.625102  0.124802  1
  H  H17  1  0.624891  0.124786  0.625161  1
  H  H18  1  0.124786  0.624891  0.625161  1
  H  H19  1  0.625102  0.625102  0.624992  1
  H  H20  1  0.374898  0.374898  0.875198  1
  H  H21  1  0.375109  0.875214  0.374839  1
  H  H22  1  0.875214  0.375109  0.374839  1
  H  H23  1  0.374898  0.374898  0.375008  1
