# generated using pymatgen
data_Tm3BeCo9GeB4
_symmetry_space_group_name_H-M   'P 1'
_cell_length_a   5.05661500
_cell_length_b   5.05661521
_cell_length_c   9.43001100
_cell_angle_alpha   90.00000000
_cell_angle_beta   90.00000000
_cell_angle_gamma   120.00000517
_symmetry_Int_Tables_number   1
_chemical_formula_structural   Tm3BeCo9GeB4
_chemical_formula_sum   'Tm3 Be1 Co9 Ge1 B4'
_cell_volume   208.81543806
_cell_formula_units_Z   1
loop_
 _symmetry_equiv_pos_site_id
 _symmetry_equiv_pos_as_xyz
  1  'x, y, z'
loop_
 _atom_site_type_symbol
 _atom_site_label
 _atom_site_symmetry_multiplicity
 _atom_site_fract_x
 _atom_site_fract_y
 _atom_site_fract_z
 _atom_site_occupancy
  Tm  Tm0  1  0.000000  0.000000  0.000000  1
  Tm  Tm1  1  0.000000  0.000000  0.661122  1
  Tm  Tm2  1  0.000000  0.000000  0.338878  1
  Be  Be3  1  0.666667  0.333333  0.000000  1
  Co  Co4  1  0.499408  0.500592  0.500000  1
  Co  Co5  1  0.499408  0.998816  0.500000  1
  Co  Co6  1  0.001184  0.500592  0.500000  1
  Co  Co7  1  0.501866  0.498134  0.802266  1
  Co  Co8  1  0.501866  0.003733  0.802266  1
  Co  Co9  1  0.996267  0.498134  0.802266  1
  Co  Co10  1  0.501866  0.498134  0.197734  1
  Co  Co11  1  0.501866  0.003733  0.197734  1
  Co  Co12  1  0.996267  0.498134  0.197734  1
  Ge  Ge13  1  0.333333  0.666667  0.000000  1
  B  B14  1  0.666667  0.333333  0.653481  1
  B  B15  1  0.333333  0.666667  0.655670  1
  B  B16  1  0.333333  0.666667  0.344330  1
  B  B17  1  0.666667  0.333333  0.346519  1
