# generated using pymatgen
data_Ho20SnBi7Pt4
_symmetry_space_group_name_H-M   'P 1'
_cell_length_a   8.02834387
_cell_length_b   9.03923773
_cell_length_c   12.35856794
_cell_angle_alpha   89.98022848
_cell_angle_beta   89.98239764
_cell_angle_gamma   89.96225182
_symmetry_Int_Tables_number   1
_chemical_formula_structural   Ho20SnBi7Pt4
_chemical_formula_sum   'Ho20 Sn1 Bi7 Pt4'
_cell_volume   896.86232958
_cell_formula_units_Z   1
loop_
 _symmetry_equiv_pos_site_id
 _symmetry_equiv_pos_as_xyz
  1  'x, y, z'
loop_
 _atom_site_type_symbol
 _atom_site_label
 _atom_site_symmetry_multiplicity
 _atom_site_fract_x
 _atom_site_fract_y
 _atom_site_fract_z
 _atom_site_occupancy
  Ho  Ho0  1  0.341180  0.746080  0.712826  1
  Ho  Ho1  1  0.660559  0.249323  0.289073  1
  Ho  Ho2  1  0.835604  0.254122  0.789115  1
  Ho  Ho3  1  0.160787  0.750308  0.209213  1
  Ho  Ho4  1  0.868478  0.746100  0.801410  1
  Ho  Ho5  1  0.126209  0.249968  0.198420  1
  Ho  Ho6  1  0.378189  0.254247  0.700903  1
  Ho  Ho7  1  0.625417  0.749889  0.301976  1
  Ho  Ho8  1  0.676820  0.544677  0.571489  1
  Ho  Ho9  1  0.321305  0.454631  0.433329  1
  Ho  Ho10  1  0.182948  0.456096  0.932559  1
  Ho  Ho11  1  0.321289  0.045786  0.433701  1
  Ho  Ho12  1  0.819432  0.544676  0.063594  1
  Ho  Ho13  1  0.679599  0.954625  0.566977  1
  Ho  Ho14  1  0.820086  0.955743  0.066077  1
  Ho  Ho15  1  0.179061  0.044756  0.933448  1
  Ho  Ho16  1  0.051721  0.750368  0.501148  1
  Ho  Ho17  1  0.949310  0.249598  0.499006  1
  Ho  Ho18  1  0.550553  0.254261  0.997173  1
  Ho  Ho19  1  0.452341  0.745881  0.998248  1
  Sn  Sn20  1  0.570222  0.508828  0.829097  1
  Bi  Bi21  1  0.428795  0.490156  0.173032  1
  Bi  Bi22  1  0.070997  0.489722  0.671352  1
  Bi  Bi23  1  0.429236  0.009539  0.170574  1
  Bi  Bi24  1  0.929090  0.510323  0.327785  1
  Bi  Bi25  1  0.570695  0.990657  0.828238  1
  Bi  Bi26  1  0.929172  0.989568  0.327696  1
  Bi  Bi27  1  0.071269  0.010016  0.673146  1
  Pt  Pt28  1  0.072955  0.749832  0.987685  1
  Pt  Pt29  1  0.926372  0.249830  0.011256  1
  Pt  Pt30  1  0.575136  0.249981  0.511519  1
  Pt  Pt31  1  0.425175  0.750415  0.488935  1
