# generated using pymatgen
data_Nd2Sm6Lu8Sc4Si15As
_symmetry_space_group_name_H-M   'P 1'
_cell_length_a   7.38395841
_cell_length_b   7.57945379
_cell_length_c   14.35990367
_cell_angle_alpha   90.08368001
_cell_angle_beta   88.09024925
_cell_angle_gamma   90.23224260
_symmetry_Int_Tables_number   1
_chemical_formula_structural   Nd2Sm6Lu8Sc4Si15As
_chemical_formula_sum   'Nd2 Sm6 Lu8 Sc4 Si15 As1'
_cell_volume   803.21800752
_cell_formula_units_Z   1
loop_
 _symmetry_equiv_pos_site_id
 _symmetry_equiv_pos_as_xyz
  1  'x, y, z'
loop_
 _atom_site_type_symbol
 _atom_site_label
 _atom_site_symmetry_multiplicity
 _atom_site_fract_x
 _atom_site_fract_y
 _atom_site_fract_z
 _atom_site_occupancy
  Nd  Nd0  1  0.014355  0.175469  0.096471  1
  Nd  Nd1  1  0.988458  0.826634  0.902332  1
  Sm  Sm2  1  0.486808  0.675173  0.901836  1
  Sm  Sm3  1  0.998106  0.821658  0.599194  1
  Sm  Sm4  1  0.512487  0.325256  0.095901  1
  Sm  Sm5  1  0.999672  0.178232  0.403138  1
  Sm  Sm6  1  0.500734  0.317781  0.401089  1
  Sm  Sm7  1  0.504424  0.678802  0.599832  1
  Lu  Lu8  1  0.169666  0.501189  0.751237  1
  Lu  Lu9  1  0.828743  0.496687  0.252726  1
  Lu  Lu10  1  0.326660  0.002563  0.250450  1
  Lu  Lu11  1  0.673498  0.000317  0.749038  1
  Lu  Lu12  1  0.351221  0.167574  0.624095  1
  Lu  Lu13  1  0.652016  0.830999  0.378250  1
  Lu  Lu14  1  0.149705  0.667909  0.379481  1
  Lu  Lu15  1  0.666550  0.821778  0.121141  1
  Sc  Sc16  1  0.844654  0.333117  0.623672  1
  Sc  Sc17  1  0.333856  0.177124  0.874227  1
  Sc  Sc18  1  0.833970  0.324023  0.875087  1
  Sc  Sc19  1  0.166932  0.676459  0.122975  1
  Si  Si20  1  0.045057  0.124289  0.752492  1
  Si  Si21  1  0.955344  0.878988  0.247111  1
  Si  Si22  1  0.450412  0.616504  0.246533  1
  Si  Si23  1  0.548766  0.381548  0.752939  1
  Si  Si24  1  0.292409  0.876635  0.752888  1
  Si  Si25  1  0.709242  0.123816  0.247438  1
  Si  Si26  1  0.209100  0.377913  0.247068  1
  Si  Si27  1  0.792379  0.620325  0.751926  1
  Si  Si28  1  0.802217  0.535658  0.459755  1
  Si  Si29  1  0.312885  0.961394  0.458719  1
  Si  Si30  1  0.850632  0.530840  0.037327  1
  Si  Si31  1  0.691609  0.044111  0.543717  1
  Si  Si32  1  0.155162  0.465018  0.960559  1
  Si  Si33  1  0.649658  0.038277  0.957463  1
  Si  Si34  1  0.343049  0.965478  0.036308  1
  As  As35  1  0.189564  0.460463  0.545588  1
