# generated using pymatgen
data_CeEr3Lu4(Si3Rh)4
_symmetry_space_group_name_H-M   'P 1'
_cell_length_a   8.13428100
_cell_length_b   8.13428076
_cell_length_c   7.79894100
_cell_angle_alpha   90.00000000
_cell_angle_beta   90.00000000
_cell_angle_gamma   119.99999691
_symmetry_Int_Tables_number   1
_chemical_formula_structural   CeEr3Lu4(Si3Rh)4
_chemical_formula_sum   'Ce1 Er3 Lu4 Si12 Rh4'
_cell_volume   446.89408815
_cell_formula_units_Z   1
loop_
 _symmetry_equiv_pos_site_id
 _symmetry_equiv_pos_as_xyz
  1  'x, y, z'
loop_
 _atom_site_type_symbol
 _atom_site_label
 _atom_site_symmetry_multiplicity
 _atom_site_fract_x
 _atom_site_fract_y
 _atom_site_fract_z
 _atom_site_occupancy
  Ce  Ce0  1  0.000000  0.000000  0.250000  1
  Er  Er1  1  0.491775  0.508225  0.250000  1
  Er  Er2  1  0.491775  0.983551  0.250000  1
  Er  Er3  1  0.016449  0.508225  0.250000  1
  Lu  Lu4  1  0.000000  0.000000  0.750000  1
  Lu  Lu5  1  0.509158  0.490842  0.750000  1
  Lu  Lu6  1  0.981683  0.490842  0.750000  1
  Lu  Lu7  1  0.509158  0.018317  0.750000  1
  Si  Si8  1  0.833268  0.166732  0.503624  1
  Si  Si9  1  0.833268  0.666535  0.503624  1
  Si  Si10  1  0.333465  0.166732  0.503624  1
  Si  Si11  1  0.833268  0.166732  0.996376  1
  Si  Si12  1  0.833268  0.666535  0.996376  1
  Si  Si13  1  0.333465  0.166732  0.996376  1
  Si  Si14  1  0.167595  0.832405  0.998528  1
  Si  Si15  1  0.664811  0.832405  0.998528  1
  Si  Si16  1  0.167595  0.335189  0.998528  1
  Si  Si17  1  0.167595  0.832405  0.501472  1
  Si  Si18  1  0.664811  0.832405  0.501472  1
  Si  Si19  1  0.167595  0.335189  0.501472  1
  Rh  Rh20  1  0.666667  0.333333  0.473153  1
  Rh  Rh21  1  0.666667  0.333333  0.026847  1
  Rh  Rh22  1  0.333333  0.666667  0.958937  1
  Rh  Rh23  1  0.333333  0.666667  0.541063  1
