# generated using pymatgen
data_Tm3(In2Pt)2
_symmetry_space_group_name_H-M   'P 1'
_cell_length_a   7.83471300
_cell_length_b   7.83471233
_cell_length_c   3.82173500
_cell_angle_alpha   90.00000000
_cell_angle_beta   90.00000000
_cell_angle_gamma   119.99999862
_symmetry_Int_Tables_number   1
_chemical_formula_structural   Tm3(In2Pt)2
_chemical_formula_sum   'Tm3 In4 Pt2'
_cell_volume   203.15960241
_cell_formula_units_Z   1
loop_
 _symmetry_equiv_pos_site_id
 _symmetry_equiv_pos_as_xyz
  1  'x, y, z'
loop_
 _atom_site_type_symbol
 _atom_site_label
 _atom_site_symmetry_multiplicity
 _atom_site_fract_x
 _atom_site_fract_y
 _atom_site_fract_z
 _atom_site_occupancy
  Tm  Tm0  1  0.410885  0.031486  0.000000  1
  Tm  Tm1  1  0.968514  0.379398  0.000000  1
  Tm  Tm2  1  0.620601  0.589116  0.000000  1
  In  In3  1  0.739003  0.996975  0.500001  1
  In  In4  1  0.257973  0.260997  0.500001  1
  In  In5  1  0.333334  0.666667  0.500001  1
  In  In6  1  0.003025  0.742027  0.500001  1
  Pt  Pt7  1  0.000000  0.000000  0.000000  1
  Pt  Pt8  1  0.666666  0.333333  0.500001  1
