# generated using pymatgen
data_Lu11ScSi12(IrRu)2
_symmetry_space_group_name_H-M   'P 1'
_cell_length_a   4.14101000
_cell_length_b   10.51945197
_cell_length_c   12.02786513
_cell_angle_alpha   89.93373950
_cell_angle_beta   90.00000000
_cell_angle_gamma   90.00000000
_symmetry_Int_Tables_number   1
_chemical_formula_structural   Lu11ScSi12(IrRu)2
_chemical_formula_sum   'Lu11 Sc1 Si12 Ir2 Ru2'
_cell_volume   523.94735668
_cell_formula_units_Z   1
loop_
 _symmetry_equiv_pos_site_id
 _symmetry_equiv_pos_as_xyz
  1  'x, y, z'
loop_
 _atom_site_type_symbol
 _atom_site_label
 _atom_site_symmetry_multiplicity
 _atom_site_fract_x
 _atom_site_fract_y
 _atom_site_fract_z
 _atom_site_occupancy
  Lu  Lu0  1  0.250000  0.880070  0.018245  1
  Lu  Lu1  1  0.250000  0.620485  0.518823  1
  Lu  Lu2  1  0.750000  0.121081  0.978190  1
  Lu  Lu3  1  0.750000  0.377428  0.481874  1
  Lu  Lu4  1  0.250000  0.922544  0.604662  1
  Lu  Lu5  1  0.250000  0.578540  0.104327  1
  Lu  Lu6  1  0.750000  0.078377  0.397571  1
  Lu  Lu7  1  0.750000  0.420363  0.894708  1
  Lu  Lu8  1  0.250000  0.661323  0.799648  1
  Lu  Lu9  1  0.250000  0.839789  0.299848  1
  Lu  Lu10  1  0.750000  0.336887  0.201027  1
  Sc  Sc11  1  0.750000  0.160782  0.702541  1
  Si  Si12  1  0.250000  0.015040  0.820177  1
  Si  Si13  1  0.250000  0.485692  0.321665  1
  Si  Si14  1  0.750000  0.986750  0.177314  1
  Si  Si15  1  0.750000  0.515224  0.677488  1
  Si  Si16  1  0.250000  0.248105  0.838442  1
  Si  Si17  1  0.250000  0.249713  0.344394  1
  Si  Si18  1  0.750000  0.750392  0.158502  1
  Si  Si19  1  0.750000  0.750363  0.658241  1
  Si  Si20  1  0.250000  0.196573  0.550291  1
  Si  Si21  1  0.250000  0.302048  0.042818  1
  Si  Si22  1  0.750000  0.800398  0.455713  1
  Si  Si23  1  0.750000  0.699826  0.955255  1
  Ir  Ir24  1  0.250000  0.390660  0.679362  1
  Ir  Ir25  1  0.250000  0.110253  0.180059  1
  Ru  Ru26  1  0.750000  0.608052  0.319995  1
  Ru  Ru27  1  0.750000  0.893240  0.818818  1
