# generated using pymatgen
data_Er4Nb2B4(IrRu)5
_symmetry_space_group_name_H-M   'P 1'
_cell_length_a   9.70703618
_cell_length_b   9.72141918
_cell_length_c   3.11869500
_cell_angle_alpha   90.00000000
_cell_angle_beta   90.00000000
_cell_angle_gamma   90.02205906
_symmetry_Int_Tables_number   1
_chemical_formula_structural   Er4Nb2B4(IrRu)5
_chemical_formula_sum   'Er4 Nb2 B4 Ir5 Ru5'
_cell_volume   294.29927357
_cell_formula_units_Z   1
loop_
 _symmetry_equiv_pos_site_id
 _symmetry_equiv_pos_as_xyz
  1  'x, y, z'
loop_
 _atom_site_type_symbol
 _atom_site_label
 _atom_site_symmetry_multiplicity
 _atom_site_fract_x
 _atom_site_fract_y
 _atom_site_fract_z
 _atom_site_occupancy
  Er  Er0  1  0.824855  0.675029  0.000000  1
  Er  Er1  1  0.173527  0.322823  0.000000  1
  Er  Er2  1  0.325704  0.828609  0.000000  1
  Er  Er3  1  0.674983  0.173714  0.000000  1
  Nb  Nb4  1  0.505537  0.498172  0.000000  1
  Nb  Nb5  1  0.999337  0.999943  0.000000  1
  B  B6  1  0.623619  0.885932  0.000000  1
  B  B7  1  0.375659  0.114687  0.000000  1
  B  B8  1  0.119065  0.616874  0.000000  1
  B  B9  1  0.877398  0.383400  0.000000  1
  Ir  Ir10  1  0.570147  0.720945  0.500000  1
  Ir  Ir11  1  0.428374  0.279765  0.500000  1
  Ir  Ir12  1  0.072262  0.778648  0.500000  1
  Ir  Ir13  1  0.928510  0.220985  0.500000  1
  Ir  Ir14  1  0.281666  0.570059  0.500000  1
  Ru  Ru15  1  0.718951  0.430172  0.500000  1
  Ru  Ru16  1  0.217909  0.070419  0.500000  1
  Ru  Ru17  1  0.781726  0.928985  0.500000  1
  Ru  Ru18  1  0.500213  0.000685  0.500000  1
  Ru  Ru19  1  0.000557  0.500155  0.500000  1
