# generated using pymatgen
data_Ca3NdPt4
_symmetry_space_group_name_H-M   'P 1'
_cell_length_a   4.40456600
_cell_length_b   5.75694130
_cell_length_c   7.44285573
_cell_angle_alpha   90.15479216
_cell_angle_beta   90.00000000
_cell_angle_gamma   90.00000000
_symmetry_Int_Tables_number   1
_chemical_formula_structural   Ca3NdPt4
_chemical_formula_sum   'Ca3 Nd1 Pt4'
_cell_volume   188.72652317
_cell_formula_units_Z   1
loop_
 _symmetry_equiv_pos_site_id
 _symmetry_equiv_pos_as_xyz
  1  'x, y, z'
loop_
 _atom_site_type_symbol
 _atom_site_label
 _atom_site_symmetry_multiplicity
 _atom_site_fract_x
 _atom_site_fract_y
 _atom_site_fract_z
 _atom_site_occupancy
  Ca  Ca0  1  0.250000  0.365480  0.678039  1
  Ca  Ca1  1  0.250000  0.136975  0.185151  1
  Ca  Ca2  1  0.750000  0.635729  0.319227  1
  Nd  Nd3  1  0.750000  0.867394  0.818144  1
  Pt  Pt4  1  0.250000  0.857159  0.543565  1
  Pt  Pt5  1  0.250000  0.644881  0.031064  1
  Pt  Pt6  1  0.750000  0.142165  0.463503  1
  Pt  Pt7  1  0.750000  0.350215  0.961307  1
