# generated using pymatgen
data_PrNd(PPt3)4
_symmetry_space_group_name_H-M   'P 1'
_cell_length_a   8.56594302
_cell_length_b   8.56584200
_cell_length_c   8.56581602
_cell_angle_alpha   90.00000000
_cell_angle_beta   90.00779918
_cell_angle_gamma   90.00000000
_symmetry_Int_Tables_number   1
_chemical_formula_structural   PrNd(PPt3)4
_chemical_formula_sum   'Pr2 Nd2 P8 Pt24'
_cell_volume   628.51258583
_cell_formula_units_Z   2
loop_
 _symmetry_equiv_pos_site_id
 _symmetry_equiv_pos_as_xyz
  1  'x, y, z'
loop_
 _atom_site_type_symbol
 _atom_site_label
 _atom_site_symmetry_multiplicity
 _atom_site_fract_x
 _atom_site_fract_y
 _atom_site_fract_z
 _atom_site_occupancy
  Pr  Pr0  1  0.500000  0.500000  0.000000  1
  Pr  Pr1  1  0.500000  0.000000  0.500000  1
  Nd  Nd2  1  0.000000  0.500000  0.500000  1
  Nd  Nd3  1  0.000000  0.000000  0.000000  1
  P  P4  1  0.805594  0.305599  0.194408  1
  P  P5  1  0.194406  0.805599  0.305592  1
  P  P6  1  0.694399  0.694405  0.694399  1
  P  P7  1  0.305601  0.194405  0.805601  1
  P  P8  1  0.194406  0.694401  0.805592  1
  P  P9  1  0.805594  0.194401  0.694408  1
  P  P10  1  0.305601  0.305595  0.305601  1
  P  P11  1  0.694399  0.805595  0.194399  1
  Pt  Pt12  1  0.422327  0.843199  0.158401  1
  Pt  Pt13  1  0.577673  0.343199  0.341599  1
  Pt  Pt14  1  0.077626  0.156764  0.658438  1
  Pt  Pt15  1  0.922374  0.656764  0.841562  1
  Pt  Pt16  1  0.158320  0.422332  0.843206  1
  Pt  Pt17  1  0.341486  0.577635  0.343225  1
  Pt  Pt18  1  0.658514  0.077635  0.156775  1
  Pt  Pt19  1  0.841680  0.922332  0.656794  1
  Pt  Pt20  1  0.843269  0.158441  0.422336  1
  Pt  Pt21  1  0.343167  0.341606  0.577639  1
  Pt  Pt22  1  0.156731  0.658441  0.077664  1
  Pt  Pt23  1  0.656833  0.841606  0.922361  1
  Pt  Pt24  1  0.577673  0.156801  0.841599  1
  Pt  Pt25  1  0.422327  0.656801  0.658401  1
  Pt  Pt26  1  0.922374  0.843236  0.341562  1
  Pt  Pt27  1  0.077626  0.343236  0.158438  1
  Pt  Pt28  1  0.841680  0.577668  0.156794  1
  Pt  Pt29  1  0.658514  0.422365  0.656775  1
  Pt  Pt30  1  0.341486  0.922365  0.843225  1
  Pt  Pt31  1  0.158320  0.077668  0.343206  1
  Pt  Pt32  1  0.156731  0.841559  0.577664  1
  Pt  Pt33  1  0.656833  0.658394  0.422361  1
  Pt  Pt34  1  0.843269  0.341559  0.922336  1
  Pt  Pt35  1  0.343167  0.158394  0.077639  1
