# generated using pymatgen
data_Er8Ti8Nb3Si16Ru
_symmetry_space_group_name_H-M   'P 1'
_cell_length_a   7.00713331
_cell_length_b   7.00713304
_cell_length_c   12.85426320
_cell_angle_alpha   90.08531255
_cell_angle_beta   89.91468675
_cell_angle_gamma   89.77883333
_symmetry_Int_Tables_number   1
_chemical_formula_structural   Er8Ti8Nb3Si16Ru
_chemical_formula_sum   'Er8 Ti8 Nb3 Si16 Ru1'
_cell_volume   631.13712862
_cell_formula_units_Z   1
loop_
 _symmetry_equiv_pos_site_id
 _symmetry_equiv_pos_as_xyz
  1  'x, y, z'
loop_
 _atom_site_type_symbol
 _atom_site_label
 _atom_site_symmetry_multiplicity
 _atom_site_fract_x
 _atom_site_fract_y
 _atom_site_fract_z
 _atom_site_occupancy
  Er  Er0  1  0.341147  0.002651  0.467590  1
  Er  Er1  1  0.497606  0.841575  0.718035  1
  Er  Er2  1  0.500608  0.158853  0.215489  1
  Er  Er3  1  0.841575  0.497606  0.281965  1
  Er  Er4  1  0.158853  0.500608  0.784511  1
  Er  Er5  1  0.658392  0.999147  0.968496  1
  Er  Er6  1  0.002651  0.341147  0.532410  1
  Er  Er7  1  0.999147  0.658392  0.031504  1
  Ti  Ti8  1  0.148967  0.003237  0.874527  1
  Ti  Ti9  1  0.491636  0.656207  0.125176  1
  Ti  Ti10  1  0.508330  0.349081  0.627894  1
  Ti  Ti11  1  0.656207  0.491636  0.874824  1
  Ti  Ti12  1  0.349081  0.508330  0.372106  1
  Ti  Ti13  1  0.848419  0.992910  0.374726  1
  Ti  Ti14  1  0.003237  0.148967  0.125473  1
  Ti  Ti15  1  0.992910  0.848419  0.625274  1
  Nb  Nb16  1  0.174601  0.827125  0.247995  1
  Nb  Nb17  1  0.827125  0.174601  0.752005  1
  Nb  Nb18  1  0.674162  0.674162  0.500000  1
  Si  Si19  1  0.203947  0.132202  0.684301  1
  Si  Si20  1  0.371926  0.700206  0.933391  1
  Si  Si21  1  0.631275  0.296006  0.434150  1
  Si  Si22  1  0.700206  0.371926  0.066609  1
  Si  Si23  1  0.296006  0.631275  0.565850  1
  Si  Si24  1  0.795824  0.867258  0.183544  1
  Si  Si25  1  0.132202  0.203947  0.315699  1
  Si  Si26  1  0.867258  0.795824  0.816456  1
  Si  Si27  1  0.288837  0.955154  0.062206  1
  Si  Si28  1  0.547915  0.793977  0.314631  1
  Si  Si29  1  0.449103  0.208533  0.818124  1
  Si  Si30  1  0.793977  0.547915  0.685369  1
  Si  Si31  1  0.208533  0.449103  0.181876  1
  Si  Si32  1  0.707237  0.048299  0.564551  1
  Si  Si33  1  0.955154  0.288837  0.937794  1
  Si  Si34  1  0.048299  0.707237  0.435449  1
  Ru  Ru35  1  0.327652  0.327652  0.000000  1
