# generated using pymatgen
data_Ca4Tc(H6Rh)2
_symmetry_space_group_name_H-M   'P 1'
_cell_length_a   6.32594033
_cell_length_b   6.32594064
_cell_length_c   6.32594014
_cell_angle_alpha   109.97901329
_cell_angle_beta   109.97901187
_cell_angle_gamma   108.46034410
_symmetry_Int_Tables_number   1
_chemical_formula_structural   Ca4Tc(H6Rh)2
_chemical_formula_sum   'Ca4 Tc1 H12 Rh2'
_cell_volume   194.82836720
_cell_formula_units_Z   1
loop_
 _symmetry_equiv_pos_site_id
 _symmetry_equiv_pos_as_xyz
  1  'x, y, z'
loop_
 _atom_site_type_symbol
 _atom_site_label
 _atom_site_symmetry_multiplicity
 _atom_site_fract_x
 _atom_site_fract_y
 _atom_site_fract_z
 _atom_site_occupancy
  Ca  Ca0  1  0.000000  0.000000  0.500000  1
  Ca  Ca1  1  0.000000  0.500000  0.000000  1
  Ca  Ca2  1  0.500000  0.000000  0.000000  1
  Ca  Ca3  1  0.500000  0.500000  0.500000  1
  Tc  Tc4  1  0.500000  0.500000  0.000000  1
  H  H5  1  0.742209  0.742209  0.000000  1
  H  H6  1  0.267086  0.000000  0.267086  1
  H  H7  1  0.000000  0.267086  0.267086  1
  H  H8  1  0.257791  0.257791  0.000000  1
  H  H9  1  0.732914  0.000000  0.732914  1
  H  H10  1  0.000000  0.732914  0.732914  1
  H  H11  1  0.750000  0.250000  0.500000  1
  H  H12  1  0.753462  0.500000  0.253462  1
  H  H13  1  0.500000  0.246538  0.746538  1
  H  H14  1  0.246538  0.500000  0.746538  1
  H  H15  1  0.250000  0.750000  0.500000  1
  H  H16  1  0.500000  0.753462  0.253462  1
  Rh  Rh17  1  0.000000  0.500000  0.500000  1
  Rh  Rh18  1  0.500000  0.000000  0.500000  1
