# generated using pymatgen
data_La16Cd4FeCuRu2
_symmetry_space_group_name_H-M   'P 1'
_cell_length_a   10.13327118
_cell_length_b   10.13327074
_cell_length_c   10.02645543
_cell_angle_alpha   59.55191632
_cell_angle_beta   59.55191269
_cell_angle_gamma   59.83044192
_symmetry_Int_Tables_number   1
_chemical_formula_structural   La16Cd4FeCuRu2
_chemical_formula_sum   'La16 Cd4 Fe1 Cu1 Ru2'
_cell_volume   722.11262916
_cell_formula_units_Z   1
loop_
 _symmetry_equiv_pos_site_id
 _symmetry_equiv_pos_as_xyz
  1  'x, y, z'
loop_
 _atom_site_type_symbol
 _atom_site_label
 _atom_site_symmetry_multiplicity
 _atom_site_fract_x
 _atom_site_fract_y
 _atom_site_fract_z
 _atom_site_occupancy
  La  La0  1  0.900778  0.900778  0.906070  1
  La  La1  1  0.438113  0.438113  0.063486  1
  La  La2  1  0.059469  0.059469  0.425700  1
  La  La3  1  0.433629  0.061471  0.061983  1
  La  La4  1  0.307952  0.690027  0.312286  1
  La  La5  1  0.689039  0.689039  0.310450  1
  La  La6  1  0.690027  0.307952  0.312286  1
  La  La7  1  0.292984  0.903683  0.908495  1
  La  La8  1  0.903683  0.292984  0.908495  1
  La  La9  1  0.308099  0.686193  0.694418  1
  La  La10  1  0.908072  0.908072  0.283878  1
  La  La11  1  0.061471  0.433629  0.061983  1
  La  La12  1  0.308744  0.308744  0.695903  1
  La  La13  1  0.056885  0.452037  0.433595  1
  La  La14  1  0.452037  0.056885  0.433595  1
  La  La15  1  0.686193  0.308099  0.694418  1
  Cd  Cd16  1  0.670870  0.670870  0.988308  1
  Cd  Cd17  1  0.987432  0.671077  0.670637  1
  Cd  Cd18  1  0.671077  0.987432  0.670637  1
  Cd  Cd19  1  0.671703  0.671703  0.671134  1
  Fe  Fe20  1  0.113375  0.113375  0.106205  1
  Cu  Cu21  1  0.108410  0.108410  0.672086  1
  Ru  Ru22  1  0.113863  0.666096  0.106977  1
  Ru  Ru23  1  0.666096  0.113863  0.106977  1
