# generated using pymatgen
data_HoTm2Lu9Co4
_symmetry_space_group_name_H-M   'P 1'
_cell_length_a   6.09674710
_cell_length_b   6.84831091
_cell_length_c   9.13585000
_cell_angle_alpha   90.00000000
_cell_angle_beta   90.00000000
_cell_angle_gamma   90.01902891
_symmetry_Int_Tables_number   1
_chemical_formula_structural   HoTm2Lu9Co4
_chemical_formula_sum   'Ho1 Tm2 Lu9 Co4'
_cell_volume   381.44382272
_cell_formula_units_Z   1
loop_
 _symmetry_equiv_pos_site_id
 _symmetry_equiv_pos_as_xyz
  1  'x, y, z'
loop_
 _atom_site_type_symbol
 _atom_site_label
 _atom_site_symmetry_multiplicity
 _atom_site_fract_x
 _atom_site_fract_y
 _atom_site_fract_z
 _atom_site_occupancy
  Ho  Ho0  1  0.136091  0.457650  0.750000  1
  Tm  Tm1  1  0.864296  0.542626  0.250000  1
  Tm  Tm2  1  0.636147  0.041539  0.250000  1
  Lu  Lu3  1  0.324404  0.676193  0.066721  1
  Lu  Lu4  1  0.175921  0.174197  0.433387  1
  Lu  Lu5  1  0.675009  0.324238  0.566217  1
  Lu  Lu6  1  0.823563  0.825449  0.933179  1
  Lu  Lu7  1  0.675009  0.324238  0.933783  1
  Lu  Lu8  1  0.823563  0.825449  0.566821  1
  Lu  Lu9  1  0.324404  0.676193  0.433279  1
  Lu  Lu10  1  0.175921  0.174197  0.066613  1
  Lu  Lu11  1  0.363982  0.958252  0.750000  1
  Co  Co12  1  0.044560  0.887424  0.250000  1
  Co  Co13  1  0.454818  0.387253  0.250000  1
  Co  Co14  1  0.955321  0.111474  0.750000  1
  Co  Co15  1  0.546990  0.613627  0.750000  1
