# generated using pymatgen
data_Nd2Eu2P7Ir8
_symmetry_space_group_name_H-M   'P 1'
_cell_length_a   3.98702100
_cell_length_b   12.84985480
_cell_length_c   13.27284895
_cell_angle_alpha   80.62442606
_cell_angle_beta   90.00000000
_cell_angle_gamma   90.00000000
_symmetry_Int_Tables_number   1
_chemical_formula_structural   Nd2Eu2P7Ir8
_chemical_formula_sum   'Nd4 Eu4 P14 Ir16'
_cell_volume   670.91941947
_cell_formula_units_Z   2
loop_
 _symmetry_equiv_pos_site_id
 _symmetry_equiv_pos_as_xyz
  1  'x, y, z'
loop_
 _atom_site_type_symbol
 _atom_site_label
 _atom_site_symmetry_multiplicity
 _atom_site_fract_x
 _atom_site_fract_y
 _atom_site_fract_z
 _atom_site_occupancy
  Nd  Nd0  1  0.750000  0.789823  0.561940  1
  Nd  Nd1  1  0.250000  0.210177  0.438060  1
  Nd  Nd2  1  0.750000  0.481377  0.706254  1
  Nd  Nd3  1  0.250000  0.518623  0.293746  1
  Eu  Eu4  1  0.750000  0.719593  0.895533  1
  Eu  Eu5  1  0.250000  0.106013  0.788553  1
  Eu  Eu6  1  0.750000  0.893987  0.211447  1
  Eu  Eu7  1  0.250000  0.280407  0.104467  1
  P  P8  1  0.250000  0.908649  0.410359  1
  P  P9  1  0.750000  0.473288  0.127793  1
  P  P10  1  0.250000  0.526712  0.872207  1
  P  P11  1  0.750000  0.091351  0.589641  1
  P  P12  1  0.250000  0.742389  0.079674  1
  P  P13  1  0.750000  0.257611  0.920326  1
  P  P14  1  0.750000  0.156169  0.279697  1
  P  P15  1  0.250000  0.843831  0.720303  1
  P  P16  1  0.250000  0.053960  0.099177  1
  P  P17  1  0.750000  0.946040  0.900823  1
  P  P18  1  0.250000  0.313094  0.688259  1
  P  P19  1  0.750000  0.686906  0.311741  1
  P  P20  1  0.250000  0.607382  0.562302  1
  P  P21  1  0.750000  0.392618  0.437698  1
  Ir  Ir22  1  0.250000  0.987767  0.576674  1
  Ir  Ir23  1  0.750000  0.012233  0.423326  1
  Ir  Ir24  1  0.250000  0.662393  0.728937  1
  Ir  Ir25  1  0.750000  0.337607  0.271063  1
  Ir  Ir26  1  0.250000  0.551114  0.048661  1
  Ir  Ir27  1  0.750000  0.448886  0.951339  1
  Ir  Ir28  1  0.250000  0.062403  0.272147  1
  Ir  Ir29  1  0.750000  0.937597  0.727853  1
  Ir  Ir30  1  0.250000  0.423350  0.527447  1
  Ir  Ir31  1  0.750000  0.576650  0.472553  1
  Ir  Ir32  1  0.250000  0.917996  0.998304  1
  Ir  Ir33  1  0.750000  0.082004  0.001696  1
  Ir  Ir34  1  0.250000  0.729450  0.396077  1
  Ir  Ir35  1  0.750000  0.270550  0.603923  1
  Ir  Ir36  1  0.250000  0.341286  0.859475  1
  Ir  Ir37  1  0.750000  0.658714  0.140525  1
