# generated using pymatgen
data_Tb2Sm4RuI10
_symmetry_space_group_name_H-M   'P 1'
_cell_length_a   7.84197616
_cell_length_b   9.84487848
_cell_length_c   9.89096058
_cell_angle_alpha   107.52078130
_cell_angle_beta   96.54192652
_cell_angle_gamma   104.68287046
_symmetry_Int_Tables_number   1
_chemical_formula_structural   Tb2Sm4RuI10
_chemical_formula_sum   'Tb2 Sm4 Ru1 I10'
_cell_volume   689.26716934
_cell_formula_units_Z   1
loop_
 _symmetry_equiv_pos_site_id
 _symmetry_equiv_pos_as_xyz
  1  'x, y, z'
loop_
 _atom_site_type_symbol
 _atom_site_label
 _atom_site_symmetry_multiplicity
 _atom_site_fract_x
 _atom_site_fract_y
 _atom_site_fract_z
 _atom_site_occupancy
  Tb  Tb0  1  0.351763  0.125029  0.168318  1
  Tb  Tb1  1  0.648237  0.874971  0.831682  1
  Sm  Sm2  1  0.115855  0.041252  0.762212  1
  Sm  Sm3  1  0.884145  0.958748  0.237788  1
  Sm  Sm4  1  0.970315  0.281859  0.085650  1
  Sm  Sm5  1  0.029685  0.718141  0.914350  1
  Ru  Ru6  1  0.000000  0.000000  0.000000  1
  I  I7  1  0.546502  0.183314  0.911017  1
  I  I8  1  0.453498  0.816686  0.088983  1
  I  I9  1  0.356046  0.449158  0.272664  1
  I  I10  1  0.643954  0.550842  0.727336  1
  I  I11  1  0.258815  0.087077  0.457542  1
  I  I12  1  0.741185  0.912923  0.542458  1
  I  I13  1  0.779219  0.259087  0.347880  1
  I  I14  1  0.220781  0.740913  0.652120  1
  I  I15  1  0.089682  0.370746  0.822452  1
  I  I16  1  0.910318  0.629254  0.177548  1
