# generated using pymatgen
data_Ho16MnIn6Pt
_symmetry_space_group_name_H-M   'P 1'
_cell_length_a   10.41140300
_cell_length_b   10.41140183
_cell_length_c   6.95196800
_cell_angle_alpha   90.00000000
_cell_angle_beta   90.00000000
_cell_angle_gamma   119.99999419
_symmetry_Int_Tables_number   1
_chemical_formula_structural   Ho16MnIn6Pt
_chemical_formula_sum   'Ho16 Mn1 In6 Pt1'
_cell_volume   652.61475295
_cell_formula_units_Z   1
loop_
 _symmetry_equiv_pos_site_id
 _symmetry_equiv_pos_as_xyz
  1  'x, y, z'
loop_
 _atom_site_type_symbol
 _atom_site_label
 _atom_site_symmetry_multiplicity
 _atom_site_fract_x
 _atom_site_fract_y
 _atom_site_fract_z
 _atom_site_occupancy
  Ho  Ho0  1  0.528254  0.056509  0.795197  1
  Ho  Ho1  1  0.943491  0.471746  0.795197  1
  Ho  Ho2  1  0.528254  0.471746  0.795197  1
  Ho  Ho3  1  0.465270  0.930541  0.292371  1
  Ho  Ho4  1  0.069459  0.534730  0.292371  1
  Ho  Ho5  1  0.465270  0.534730  0.292371  1
  Ho  Ho6  1  0.824425  0.648849  0.501713  1
  Ho  Ho7  1  0.351151  0.175575  0.501713  1
  Ho  Ho8  1  0.824425  0.175575  0.501713  1
  Ho  Ho9  1  0.174773  0.349546  0.003182  1
  Ho  Ho10  1  0.650454  0.825227  0.003182  1
  Ho  Ho11  1  0.174773  0.825227  0.003182  1
  Ho  Ho12  1  0.666667  0.333333  0.170893  1
  Ho  Ho13  1  0.333333  0.666667  0.671952  1
  Ho  Ho14  1  0.000000  0.000000  0.779860  1
  Ho  Ho15  1  0.000000  0.000000  0.279513  1
  Mn  Mn16  1  0.333333  0.666667  0.052012  1
  In  In17  1  0.836203  0.672406  0.039082  1
  In  In18  1  0.327594  0.163797  0.039082  1
  In  In19  1  0.836203  0.163797  0.039082  1
  In  In20  1  0.163283  0.326567  0.538602  1
  In  In21  1  0.673433  0.836717  0.538602  1
  In  In22  1  0.163283  0.836717  0.538602  1
  Pt  Pt23  1  0.666667  0.333333  0.571231  1
