# generated using pymatgen
data_Th2Ga10Tc3
_symmetry_space_group_name_H-M   'P 1'
_cell_length_a   9.02853500
_cell_length_b   9.02853500
_cell_length_c   6.64840900
_cell_angle_alpha   90.00000000
_cell_angle_beta   90.00000000
_cell_angle_gamma   90.00000000
_symmetry_Int_Tables_number   1
_chemical_formula_structural   Th2Ga10Tc3
_chemical_formula_sum   'Th4 Ga20 Tc6'
_cell_volume   541.94136476
_cell_formula_units_Z   2
loop_
 _symmetry_equiv_pos_site_id
 _symmetry_equiv_pos_as_xyz
  1  'x, y, z'
loop_
 _atom_site_type_symbol
 _atom_site_label
 _atom_site_symmetry_multiplicity
 _atom_site_fract_x
 _atom_site_fract_y
 _atom_site_fract_z
 _atom_site_occupancy
  Th  Th0  1  0.683992  0.183992  0.000000  1
  Th  Th1  1  0.316008  0.816008  0.000000  1
  Th  Th2  1  0.816008  0.683992  0.000000  1
  Th  Th3  1  0.183992  0.316008  0.000000  1
  Ga  Ga4  1  0.940711  0.205278  0.302382  1
  Ga  Ga5  1  0.705278  0.440711  0.302382  1
  Ga  Ga6  1  0.500000  0.000000  0.300586  1
  Ga  Ga7  1  0.559289  0.705278  0.697618  1
  Ga  Ga8  1  0.294722  0.559289  0.697618  1
  Ga  Ga9  1  0.794722  0.940711  0.302382  1
  Ga  Ga10  1  0.940711  0.205278  0.697618  1
  Ga  Ga11  1  0.294722  0.559289  0.302382  1
  Ga  Ga12  1  0.059289  0.794722  0.302382  1
  Ga  Ga13  1  0.705278  0.440711  0.697618  1
  Ga  Ga14  1  0.440711  0.294722  0.697618  1
  Ga  Ga15  1  0.059289  0.794722  0.697618  1
  Ga  Ga16  1  0.205278  0.059289  0.697618  1
  Ga  Ga17  1  0.794722  0.940711  0.697618  1
  Ga  Ga18  1  0.205278  0.059289  0.302382  1
  Ga  Ga19  1  0.000000  0.500000  0.699414  1
  Ga  Ga20  1  0.000000  0.500000  0.300586  1
  Ga  Ga21  1  0.559289  0.705278  0.302382  1
  Ga  Ga22  1  0.440711  0.294722  0.302382  1
  Ga  Ga23  1  0.500000  0.000000  0.699414  1
  Tc  Tc24  1  0.678913  0.178913  0.500000  1
  Tc  Tc25  1  0.821087  0.678913  0.500000  1
  Tc  Tc26  1  0.178913  0.321087  0.500000  1
  Tc  Tc27  1  0.000000  0.000000  0.000000  1
  Tc  Tc28  1  0.321087  0.821087  0.500000  1
  Tc  Tc29  1  0.500000  0.500000  0.000000  1
