# generated using pymatgen
data_La12SiAs(PBr6)2
_symmetry_space_group_name_H-M   'P 1'
_cell_length_a   10.55095856
_cell_length_b   10.55100261
_cell_length_c   10.56397935
_cell_angle_alpha   109.55796244
_cell_angle_beta   109.55802887
_cell_angle_gamma   109.50689405
_symmetry_Int_Tables_number   1
_chemical_formula_structural   La12SiAs(PBr6)2
_chemical_formula_sum   'La12 Si1 As1 P2 Br12'
_cell_volume   902.95214793
_cell_formula_units_Z   1
loop_
 _symmetry_equiv_pos_site_id
 _symmetry_equiv_pos_as_xyz
  1  'x, y, z'
loop_
 _atom_site_type_symbol
 _atom_site_label
 _atom_site_symmetry_multiplicity
 _atom_site_fract_x
 _atom_site_fract_y
 _atom_site_fract_z
 _atom_site_occupancy
  La  La0  1  0.477324  0.492435  0.235499  1
  La  La1  1  0.752934  0.239288  0.262748  1
  La  La2  1  0.753044  0.013384  0.490255  1
  La  La3  1  0.235891  0.477918  0.492543  1
  La  La4  1  0.260675  0.747071  0.237250  1
  La  La5  1  0.022104  0.264109  0.007439  1
  La  La6  1  0.007588  0.022655  0.264507  1
  La  La7  1  0.486653  0.746971  0.009757  1
  La  La8  1  0.492359  0.238596  0.481308  1
  La  La9  1  0.013440  0.486551  0.749981  1
  La  La10  1  0.261364  0.007628  0.018727  1
  La  La11  1  0.236703  0.263268  0.749996  1
  Si  Si12  1  0.500122  0.999885  0.250002  1
  As  As13  1  0.249782  0.250229  0.250008  1
  P  P14  1  0.000389  0.250268  0.500566  1
  P  P15  1  0.249729  0.499619  0.999434  1
  Br  Br16  1  0.249839  0.755575  0.743567  1
  Br  Br17  1  0.510632  0.505436  0.755519  1
  Br  Br18  1  0.988780  0.744144  0.994276  1
  Br  Br19  1  0.744433  0.250168  0.756435  1
  Br  Br20  1  0.994568  0.989374  0.744483  1
  Br  Br21  1  0.249746  0.994738  0.505812  1
  Br  Br22  1  0.755854  0.511206  0.505712  1
  Br  Br23  1  0.505257  0.250256  0.994192  1
  Br  Br24  1  0.756227  0.743785  0.250009  1
  Br  Br25  1  0.744889  0.994822  0.989272  1
  Br  Br26  1  0.994492  0.505505  0.249990  1
  Br  Br27  1  0.505182  0.755113  0.510717  1
