# generated using pymatgen
data_Mn4Cd2Pd9Au
_symmetry_space_group_name_H-M   'P 1'
_cell_length_a   6.92746465
_cell_length_b   6.92746477
_cell_length_c   6.92746445
_cell_angle_alpha   107.19520725
_cell_angle_beta   107.18727151
_cell_angle_gamma   114.13424575
_symmetry_Int_Tables_number   1
_chemical_formula_structural   Mn4Cd2Pd9Au
_chemical_formula_sum   'Mn4 Cd2 Pd9 Au1'
_cell_volume   254.63613405
_cell_formula_units_Z   1
loop_
 _symmetry_equiv_pos_site_id
 _symmetry_equiv_pos_as_xyz
  1  'x, y, z'
loop_
 _atom_site_type_symbol
 _atom_site_label
 _atom_site_symmetry_multiplicity
 _atom_site_fract_x
 _atom_site_fract_y
 _atom_site_fract_z
 _atom_site_occupancy
  Mn  Mn0  1  0.232195  0.245910  0.478105  1
  Mn  Mn1  1  0.767805  0.754090  0.521895  1
  Mn  Mn2  1  0.232195  0.754090  0.986285  1
  Mn  Mn3  1  0.767805  0.245910  0.013715  1
  Cd  Cd4  1  0.500000  0.000000  0.500000  1
  Cd  Cd5  1  0.500000  0.500000  0.000000  1
  Pd  Pd6  1  0.499249  0.250091  0.249156  1
  Pd  Pd7  1  0.500751  0.749909  0.750844  1
  Pd  Pd8  1  0.000935  0.250091  0.750844  1
  Pd  Pd9  1  0.256921  0.007978  0.751057  1
  Pd  Pd10  1  0.999065  0.749909  0.249156  1
  Pd  Pd11  1  0.743079  0.992022  0.248943  1
  Pd  Pd12  1  0.256921  0.505865  0.248943  1
  Pd  Pd13  1  0.743079  0.494135  0.751057  1
  Pd  Pd14  1  0.000000  0.000000  0.000000  1
  Au  Au15  1  0.000000  0.500000  0.500000  1
