# generated using pymatgen
data_Rb8SmY3F20
_symmetry_space_group_name_H-M   'P 1'
_cell_length_a   6.97110862
_cell_length_b   7.52213500
_cell_length_c   11.51175681
_cell_angle_alpha   90.00000000
_cell_angle_beta   90.25216358
_cell_angle_gamma   90.00000000
_symmetry_Int_Tables_number   1
_chemical_formula_structural   Rb8SmY3F20
_chemical_formula_sum   'Rb8 Sm1 Y3 F20'
_cell_volume   603.64328411
_cell_formula_units_Z   1
loop_
 _symmetry_equiv_pos_site_id
 _symmetry_equiv_pos_as_xyz
  1  'x, y, z'
loop_
 _atom_site_type_symbol
 _atom_site_label
 _atom_site_symmetry_multiplicity
 _atom_site_fract_x
 _atom_site_fract_y
 _atom_site_fract_z
 _atom_site_occupancy
  Rb  Rb0  1  0.965486  0.503049  0.670093  1
  Rb  Rb1  1  0.034702  0.001948  0.329901  1
  Rb  Rb2  1  0.534379  0.503447  0.171962  1
  Rb  Rb3  1  0.465059  0.001545  0.827882  1
  Rb  Rb4  1  0.965486  0.996951  0.670093  1
  Rb  Rb5  1  0.034702  0.498052  0.329901  1
  Rb  Rb6  1  0.534379  0.996553  0.171962  1
  Rb  Rb7  1  0.465059  0.498455  0.827882  1
  Sm  Sm8  1  0.938908  0.250000  0.997855  1
  Y  Y9  1  0.061209  0.750000  0.001771  1
  Y  Y10  1  0.559613  0.250000  0.498413  1
  Y  Y11  1  0.440969  0.750000  0.501485  1
  F  F12  1  0.857610  0.537988  0.927508  1
  F  F13  1  0.142921  0.030293  0.072982  1
  F  F14  1  0.641809  0.534729  0.429594  1
  F  F15  1  0.358847  0.034434  0.570222  1
  F  F16  1  0.857610  0.962012  0.927508  1
  F  F17  1  0.142921  0.469707  0.072982  1
  F  F18  1  0.641809  0.965271  0.429594  1
  F  F19  1  0.358847  0.465566  0.570222  1
  F  F20  1  0.621124  0.750000  0.659571  1
  F  F21  1  0.379293  0.250000  0.340302  1
  F  F22  1  0.879465  0.750000  0.159102  1
  F  F23  1  0.124832  0.250000  0.836393  1
  F  F24  1  0.124866  0.750000  0.515520  1
  F  F25  1  0.875512  0.250000  0.484712  1
  F  F26  1  0.377890  0.750000  0.014600  1
  F  F27  1  0.615733  0.250000  0.985702  1
  F  F28  1  0.152621  0.750000  0.816851  1
  F  F29  1  0.845635  0.250000  0.187092  1
  F  F30  1  0.347980  0.750000  0.317043  1
  F  F31  1  0.652725  0.250000  0.683300  1
