# generated using pymatgen
data_Pr12Ir3AuI12
_symmetry_space_group_name_H-M   'P 1'
_cell_length_a   11.03206359
_cell_length_b   11.03206428
_cell_length_c   11.03206459
_cell_angle_alpha   109.84148222
_cell_angle_beta   109.84148334
_cell_angle_gamma   109.84148260
_symmetry_Int_Tables_number   1
_chemical_formula_structural   Pr12Ir3AuI12
_chemical_formula_sum   'Pr12 Ir3 Au1 I12'
_cell_volume   1019.17515561
_cell_formula_units_Z   1
loop_
 _symmetry_equiv_pos_site_id
 _symmetry_equiv_pos_as_xyz
  1  'x, y, z'
loop_
 _atom_site_type_symbol
 _atom_site_label
 _atom_site_symmetry_multiplicity
 _atom_site_fract_x
 _atom_site_fract_y
 _atom_site_fract_z
 _atom_site_occupancy
  Pr  Pr0  1  0.459837  0.488097  0.223338  1
  Pr  Pr1  1  0.750000  0.228365  0.271635  1
  Pr  Pr2  1  0.750000  0.020971  0.479029  1
  Pr  Pr3  1  0.223338  0.459837  0.488097  1
  Pr  Pr4  1  0.271635  0.750000  0.228365  1
  Pr  Pr5  1  0.040163  0.276662  0.011903  1
  Pr  Pr6  1  0.011903  0.040163  0.276662  1
  Pr  Pr7  1  0.479029  0.750000  0.020971  1
  Pr  Pr8  1  0.488097  0.223338  0.459837  1
  Pr  Pr9  1  0.020971  0.479029  0.750000  1
  Pr  Pr10  1  0.276662  0.011903  0.040163  1
  Pr  Pr11  1  0.228365  0.271635  0.750000  1
  Ir  Ir12  1  0.501064  0.998936  0.250000  1
  Ir  Ir13  1  0.998936  0.250000  0.501064  1
  Ir  Ir14  1  0.250000  0.501064  0.998936  1
  Au  Au15  1  0.250000  0.250000  0.250000  1
  I  I16  1  0.250000  0.759615  0.740385  1
  I  I17  1  0.514718  0.506619  0.756518  1
  I  I18  1  0.985282  0.743482  0.993381  1
  I  I19  1  0.740385  0.250000  0.759615  1
  I  I20  1  0.993381  0.985282  0.743482  1
  I  I21  1  0.250000  0.993338  0.506662  1
  I  I22  1  0.756518  0.514718  0.506619  1
  I  I23  1  0.506662  0.250000  0.993338  1
  I  I24  1  0.759615  0.740385  0.250000  1
  I  I25  1  0.743482  0.993381  0.985282  1
  I  I26  1  0.993338  0.506662  0.250000  1
  I  I27  1  0.506619  0.756518  0.514718  1
