# generated using pymatgen
data_Tb3YMg2(B2Rh5)2
_symmetry_space_group_name_H-M   'P 1'
_cell_length_a   9.66644300
_cell_length_b   9.66644300
_cell_length_c   3.18940100
_cell_angle_alpha   90.00000000
_cell_angle_beta   90.00000000
_cell_angle_gamma   89.99965622
_symmetry_Int_Tables_number   1
_chemical_formula_structural   Tb3YMg2(B2Rh5)2
_chemical_formula_sum   'Tb3 Y1 Mg2 B4 Rh10'
_cell_volume   298.01801303
_cell_formula_units_Z   1
loop_
 _symmetry_equiv_pos_site_id
 _symmetry_equiv_pos_as_xyz
  1  'x, y, z'
loop_
 _atom_site_type_symbol
 _atom_site_label
 _atom_site_symmetry_multiplicity
 _atom_site_fract_x
 _atom_site_fract_y
 _atom_site_fract_z
 _atom_site_occupancy
  Tb  Tb0  1  0.676388  0.176355  0.000000  1
  Tb  Tb1  1  0.323645  0.823612  0.000000  1
  Tb  Tb2  1  0.176424  0.323576  0.000000  1
  Y  Y3  1  0.823562  0.676438  0.000000  1
  Mg  Mg4  1  0.999950  0.999941  0.000000  1
  Mg  Mg5  1  0.500059  0.500050  0.000000  1
  B  B6  1  0.121492  0.621807  0.000000  1
  B  B7  1  0.878193  0.378508  0.000000  1
  B  B8  1  0.621944  0.878056  0.000000  1
  B  B9  1  0.378394  0.121606  0.000000  1
  Rh  Rh10  1  0.500009  0.999991  0.500000  1
  Rh  Rh11  1  0.000026  0.499974  0.500000  1
  Rh  Rh12  1  0.224842  0.069939  0.500000  1
  Rh  Rh13  1  0.775212  0.930130  0.500000  1
  Rh  Rh14  1  0.069990  0.775208  0.500000  1
  Rh  Rh15  1  0.724792  0.430010  0.500000  1
  Rh  Rh16  1  0.930044  0.224896  0.500000  1
  Rh  Rh17  1  0.275104  0.569956  0.500000  1
  Rh  Rh18  1  0.569870  0.724788  0.500000  1
  Rh  Rh19  1  0.430061  0.275158  0.500000  1
