# generated using pymatgen
data_YHf5(ScPt2)2
_symmetry_space_group_name_H-M   'P 1'
_cell_length_a   4.59224900
_cell_length_b   6.79768580
_cell_length_c   8.10723769
_cell_angle_alpha   89.81031989
_cell_angle_beta   90.00000000
_cell_angle_gamma   90.00000000
_symmetry_Int_Tables_number   1
_chemical_formula_structural   YHf5(ScPt2)2
_chemical_formula_sum   'Y1 Hf5 Sc2 Pt4'
_cell_volume   253.07954289
_cell_formula_units_Z   1
loop_
 _symmetry_equiv_pos_site_id
 _symmetry_equiv_pos_as_xyz
  1  'x, y, z'
loop_
 _atom_site_type_symbol
 _atom_site_label
 _atom_site_symmetry_multiplicity
 _atom_site_fract_x
 _atom_site_fract_y
 _atom_site_fract_z
 _atom_site_occupancy
  Y  Y0  1  0.750000  0.513998  0.817610  1
  Hf  Hf1  1  0.250000  0.851172  0.922387  1
  Hf  Hf2  1  0.250000  0.342969  0.576990  1
  Hf  Hf3  1  0.750000  0.148805  0.081735  1
  Hf  Hf4  1  0.750000  0.653986  0.417349  1
  Hf  Hf5  1  0.250000  0.987460  0.326219  1
  Sc  Sc6  1  0.250000  0.482415  0.181646  1
  Sc  Sc7  1  0.750000  0.013913  0.674567  1
  Pt  Pt8  1  0.250000  0.237249  0.910025  1
  Pt  Pt9  1  0.250000  0.743836  0.589727  1
  Pt  Pt10  1  0.750000  0.764552  0.097783  1
  Pt  Pt11  1  0.750000  0.259644  0.403964  1
