# generated using pymatgen
data_TbY7Mg2(SiB4)4
_symmetry_space_group_name_H-M   'P 1'
_cell_length_a   7.18375103
_cell_length_b   7.18375103
_cell_length_c   7.87317100
_cell_angle_alpha   90.00283864
_cell_angle_beta   89.99716136
_cell_angle_gamma   89.99014201
_symmetry_Int_Tables_number   1
_chemical_formula_structural   TbY7Mg2(SiB4)4
_chemical_formula_sum   'Tb1 Y7 Mg2 Si4 B16'
_cell_volume   406.30505125
_cell_formula_units_Z   1
loop_
 _symmetry_equiv_pos_site_id
 _symmetry_equiv_pos_as_xyz
  1  'x, y, z'
loop_
 _atom_site_type_symbol
 _atom_site_label
 _atom_site_symmetry_multiplicity
 _atom_site_fract_x
 _atom_site_fract_y
 _atom_site_fract_z
 _atom_site_occupancy
  Tb  Tb0  1  0.183011  0.316989  0.233887  1
  Y  Y1  1  0.682885  0.182920  0.233658  1
  Y  Y2  1  0.317091  0.817056  0.766350  1
  Y  Y3  1  0.317080  0.817115  0.233658  1
  Y  Y4  1  0.817091  0.682909  0.233541  1
  Y  Y5  1  0.817068  0.682932  0.766438  1
  Y  Y6  1  0.682944  0.182909  0.766350  1
  Y  Y7  1  0.182900  0.317100  0.766390  1
  Mg  Mg8  1  0.999971  0.999941  0.500051  1
  Mg  Mg9  1  0.500059  0.500029  0.500051  1
  Si  Si10  1  0.115265  0.615499  0.500125  1
  Si  Si11  1  0.884501  0.384735  0.500125  1
  Si  Si12  1  0.384854  0.115146  0.500168  1
  Si  Si13  1  0.615354  0.884646  0.500045  1
  B  B14  1  0.173528  0.039838  0.999941  1
  B  B15  1  0.826381  0.960089  0.999930  1
  B  B16  1  0.960124  0.173608  0.999945  1
  B  B17  1  0.326392  0.539876  0.999945  1
  B  B18  1  0.039811  0.826331  0.999926  1
  B  B19  1  0.673669  0.460189  0.999926  1
  B  B20  1  0.539911  0.673619  0.999930  1
  B  B21  1  0.460162  0.326472  0.999941  1
  B  B22  1  0.089534  0.589569  0.999969  1
  B  B23  1  0.910431  0.410466  0.999969  1
  B  B24  1  0.410358  0.089642  0.000092  1
  B  B25  1  0.589592  0.910408  0.999944  1
  B  B26  1  0.999969  0.999919  0.161473  1
  B  B27  1  0.999947  0.999967  0.838379  1
  B  B28  1  0.500033  0.500053  0.838379  1
  B  B29  1  0.500081  0.500031  0.161473  1
