# generated using pymatgen
data_Hf4Nb2CrSi4W
_symmetry_space_group_name_H-M   'P 1'
_cell_length_a   3.53862100
_cell_length_b   6.93296694
_cell_length_c   8.26447252
_cell_angle_alpha   90.43675211
_cell_angle_beta   90.00000000
_cell_angle_gamma   90.00000000
_symmetry_Int_Tables_number   1
_chemical_formula_structural   Hf4Nb2CrSi4W
_chemical_formula_sum   'Hf4 Nb2 Cr1 Si4 W1'
_cell_volume   202.74759053
_cell_formula_units_Z   1
loop_
 _symmetry_equiv_pos_site_id
 _symmetry_equiv_pos_as_xyz
  1  'x, y, z'
loop_
 _atom_site_type_symbol
 _atom_site_label
 _atom_site_symmetry_multiplicity
 _atom_site_fract_x
 _atom_site_fract_y
 _atom_site_fract_z
 _atom_site_occupancy
  Hf  Hf0  1  0.250000  0.543080  0.166724  1
  Hf  Hf1  1  0.250000  0.044861  0.336576  1
  Hf  Hf2  1  0.750000  0.457732  0.830590  1
  Hf  Hf3  1  0.750000  0.958366  0.666513  1
  Nb  Nb4  1  0.250000  0.624956  0.557207  1
  Nb  Nb5  1  0.250000  0.135509  0.940926  1
  Cr  Cr6  1  0.750000  0.369340  0.439438  1
  Si  Si7  1  0.250000  0.755694  0.862437  1
  Si  Si8  1  0.250000  0.255561  0.628084  1
  Si  Si9  1  0.750000  0.245494  0.150830  1
  Si  Si10  1  0.750000  0.742492  0.357971  1
  W  W11  1  0.750000  0.866915  0.062706  1
