# generated using pymatgen
data_HoTm9(IrOs)2
_symmetry_space_group_name_H-M   'P 1'
_cell_length_a   6.34755335
_cell_length_b   7.26765198
_cell_length_c   8.30653508
_cell_angle_alpha   96.70193224
_cell_angle_beta   112.45671301
_cell_angle_gamma   89.95673582
_symmetry_Int_Tables_number   1
_chemical_formula_structural   HoTm9(IrOs)2
_chemical_formula_sum   'Ho1 Tm9 Ir2 Os2'
_cell_volume   351.31609711
_cell_formula_units_Z   1
loop_
 _symmetry_equiv_pos_site_id
 _symmetry_equiv_pos_as_xyz
  1  'x, y, z'
loop_
 _atom_site_type_symbol
 _atom_site_label
 _atom_site_symmetry_multiplicity
 _atom_site_fract_x
 _atom_site_fract_y
 _atom_site_fract_z
 _atom_site_occupancy
  Ho  Ho0  1  0.969224  0.916207  0.179213  1
  Tm  Tm1  1  0.790291  0.583863  0.820838  1
  Tm  Tm2  1  0.026289  0.082392  0.816309  1
  Tm  Tm3  1  0.209794  0.417874  0.183248  1
  Tm  Tm4  1  0.652623  0.818007  0.440495  1
  Tm  Tm5  1  0.212544  0.681850  0.559868  1
  Tm  Tm6  1  0.350501  0.178761  0.561828  1
  Tm  Tm7  1  0.788890  0.321315  0.438509  1
  Tm  Tm8  1  0.422481  0.749769  0.999732  1
  Tm  Tm9  1  0.578202  0.250142  0.000038  1
  Ir  Ir10  1  0.173606  0.423227  0.779996  1
  Ir  Ir11  1  0.394433  0.077378  0.219889  1
  Os  Os12  1  0.824001  0.574595  0.217386  1
  Os  Os13  1  0.607122  0.924619  0.782651  1
