# generated using pymatgen
data_Rb4Na2ErBi4Pb
_symmetry_space_group_name_H-M   'P 1'
_cell_length_a   10.30398738
_cell_length_b   10.30398580
_cell_length_c   10.30398676
_cell_angle_alpha   136.77860571
_cell_angle_beta   62.62373945
_cell_angle_gamma   136.98028386
_symmetry_Int_Tables_number   1
_chemical_formula_structural   Rb4Na2ErBi4Pb
_chemical_formula_sum   'Rb4 Na2 Er1 Bi4 Pb1'
_cell_volume   504.86687833
_cell_formula_units_Z   1
loop_
 _symmetry_equiv_pos_site_id
 _symmetry_equiv_pos_as_xyz
  1  'x, y, z'
loop_
 _atom_site_type_symbol
 _atom_site_label
 _atom_site_symmetry_multiplicity
 _atom_site_fract_x
 _atom_site_fract_y
 _atom_site_fract_z
 _atom_site_occupancy
  Rb  Rb0  1  0.817263  0.256232  0.092022  1
  Rb  Rb1  1  0.682736  0.774760  0.438970  1
  Rb  Rb2  1  0.335791  0.243768  0.561030  1
  Rb  Rb3  1  0.164209  0.725239  0.907977  1
  Na  Na4  1  0.750000  0.250000  0.500000  1
  Na  Na5  1  0.250000  0.750000  0.500000  1
  Er  Er6  1  0.250000  0.250000  0.000000  1
  Bi  Bi7  1  0.388376  0.721537  0.127756  1
  Bi  Bi8  1  0.111623  0.239377  0.333160  1
  Bi  Bi9  1  0.906216  0.778462  0.666840  1
  Bi  Bi10  1  0.593783  0.260623  0.872244  1
  Pb  Pb11  1  0.750001  0.750001  0.000000  1
