# generated using pymatgen
data_PrTh7IrSe17
_symmetry_space_group_name_H-M   'P 1'
_cell_length_a   8.46806382
_cell_length_b   8.44737276
_cell_length_c   11.20058700
_cell_angle_alpha   80.61375854
_cell_angle_beta   80.47758471
_cell_angle_gamma   64.89850237
_symmetry_Int_Tables_number   1
_chemical_formula_structural   PrTh7IrSe17
_chemical_formula_sum   'Pr1 Th7 Ir1 Se17'
_cell_volume   711.66241868
_cell_formula_units_Z   1
loop_
 _symmetry_equiv_pos_site_id
 _symmetry_equiv_pos_as_xyz
  1  'x, y, z'
loop_
 _atom_site_type_symbol
 _atom_site_label
 _atom_site_symmetry_multiplicity
 _atom_site_fract_x
 _atom_site_fract_y
 _atom_site_fract_z
 _atom_site_occupancy
  Pr  Pr0  1  0.814019  0.304372  0.297945  1
  Th  Th1  1  0.301447  0.815981  0.294975  1
  Th  Th2  1  0.184288  0.697795  0.703264  1
  Th  Th3  1  0.697943  0.185415  0.702911  1
  Th  Th4  1  0.204269  0.203716  0.543986  1
  Th  Th5  1  0.795647  0.795725  0.453206  1
  Th  Th6  1  0.679314  0.676251  0.980867  1
  Th  Th7  1  0.320154  0.321449  0.022040  1
  Ir  Ir8  1  0.001547  0.999323  0.999276  1
  Se  Se9  1  0.823651  0.433026  0.536505  1
  Se  Se10  1  0.432406  0.820163  0.532541  1
  Se  Se11  1  0.178135  0.566954  0.467942  1
  Se  Se12  1  0.567931  0.173853  0.471806  1
  Se  Se13  1  0.950930  0.316100  0.022290  1
  Se  Se14  1  0.316584  0.950822  0.023357  1
  Se  Se15  1  0.049873  0.683165  0.974126  1
  Se  Se16  1  0.684060  0.051494  0.974243  1
  Se  Se17  1  0.217463  0.206149  0.279106  1
  Se  Se18  1  0.789871  0.789403  0.722014  1
  Se  Se19  1  0.054243  0.054489  0.775375  1
  Se  Se20  1  0.948255  0.942356  0.224378  1
  Se  Se21  1  0.303579  0.303482  0.756168  1
  Se  Se22  1  0.690499  0.705535  0.242308  1
  Se  Se23  1  0.519062  0.521544  0.831982  1
  Se  Se24  1  0.473136  0.485610  0.163552  1
  Se  Se25  1  0.001694  0.995825  0.503836  1
