# generated using pymatgen
data_Zr5InBiPb2
_symmetry_space_group_name_H-M   'P 1'
_cell_length_a   8.95634172
_cell_length_b   8.94672154
_cell_length_c   6.04883900
_cell_angle_alpha   90.00000000
_cell_angle_beta   90.00000000
_cell_angle_gamma   119.96447788
_symmetry_Int_Tables_number   1
_chemical_formula_structural   Zr5InBiPb2
_chemical_formula_sum   'Zr10 In2 Bi2 Pb4'
_cell_volume   419.90647800
_cell_formula_units_Z   2
loop_
 _symmetry_equiv_pos_site_id
 _symmetry_equiv_pos_as_xyz
  1  'x, y, z'
loop_
 _atom_site_type_symbol
 _atom_site_label
 _atom_site_symmetry_multiplicity
 _atom_site_fract_x
 _atom_site_fract_y
 _atom_site_fract_z
 _atom_site_occupancy
  Zr  Zr0  1  0.666733  0.333511  0.001421  1
  Zr  Zr1  1  0.333267  0.666778  0.001421  1
  Zr  Zr2  1  0.333267  0.666778  0.498579  1
  Zr  Zr3  1  0.666733  0.333511  0.498579  1
  Zr  Zr4  1  0.720679  0.720318  0.750000  1
  Zr  Zr5  1  0.279321  0.999639  0.750000  1
  Zr  Zr6  1  0.000000  0.280023  0.750000  1
  Zr  Zr7  1  0.280198  0.279701  0.250000  1
  Zr  Zr8  1  0.719802  0.999503  0.250000  1
  Zr  Zr9  1  0.000000  0.719634  0.250000  1
  In  In10  1  0.000000  0.999511  0.000945  1
  In  In11  1  0.000000  0.999511  0.499055  1
  Bi  Bi12  1  0.384107  0.383997  0.750000  1
  Bi  Bi13  1  0.615893  0.999890  0.750000  1
  Pb  Pb14  1  0.000000  0.617441  0.750000  1
  Pb  Pb15  1  0.617927  0.617657  0.250000  1
  Pb  Pb16  1  0.382073  0.999730  0.250000  1
  Pb  Pb17  1  0.000000  0.382866  0.250000  1
