# generated using pymatgen
data_Ho3Co8ReP6
_symmetry_space_group_name_H-M   'P 1'
_cell_length_a   3.71417100
_cell_length_b   10.49081700
_cell_length_c   12.18601700
_cell_angle_alpha   90.00000000
_cell_angle_beta   90.00000000
_cell_angle_gamma   90.00000000
_symmetry_Int_Tables_number   1
_chemical_formula_structural   Ho3Co8ReP6
_chemical_formula_sum   'Ho6 Co16 Re2 P12'
_cell_volume   474.82435363
_cell_formula_units_Z   2
loop_
 _symmetry_equiv_pos_site_id
 _symmetry_equiv_pos_as_xyz
  1  'x, y, z'
loop_
 _atom_site_type_symbol
 _atom_site_label
 _atom_site_symmetry_multiplicity
 _atom_site_fract_x
 _atom_site_fract_y
 _atom_site_fract_z
 _atom_site_occupancy
  Ho  Ho0  1  0.000000  0.500000  0.524967  1
  Ho  Ho1  1  0.500000  0.000000  0.475033  1
  Ho  Ho2  1  0.500000  0.818398  0.205946  1
  Ho  Ho3  1  0.500000  0.181602  0.205946  1
  Ho  Ho4  1  0.000000  0.681602  0.794054  1
  Ho  Ho5  1  0.000000  0.318398  0.794054  1
  Co  Co6  1  0.000000  0.500000  0.987912  1
  Co  Co7  1  0.500000  0.000000  0.012088  1
  Co  Co8  1  0.500000  0.296816  0.431160  1
  Co  Co9  1  0.500000  0.703184  0.431160  1
  Co  Co10  1  0.000000  0.203184  0.568840  1
  Co  Co11  1  0.000000  0.796816  0.568840  1
  Co  Co12  1  0.500000  0.878993  0.708221  1
  Co  Co13  1  0.500000  0.121007  0.708221  1
  Co  Co14  1  0.000000  0.621007  0.291779  1
  Co  Co15  1  0.000000  0.378993  0.291779  1
  Co  Co16  1  0.500000  0.332353  0.989654  1
  Co  Co17  1  0.500000  0.667647  0.989654  1
  Co  Co18  1  0.000000  0.167647  0.010346  1
  Co  Co19  1  0.000000  0.832353  0.010346  1
  Co  Co20  1  0.500000  0.500000  0.701896  1
  Co  Co21  1  0.000000  0.000000  0.298104  1
  Re  Re22  1  0.500000  0.500000  0.156455  1
  Re  Re23  1  0.000000  0.000000  0.843545  1
  P  P24  1  0.500000  0.312294  0.616240  1
  P  P25  1  0.500000  0.687706  0.616240  1
  P  P26  1  0.000000  0.187706  0.383760  1
  P  P27  1  0.000000  0.812294  0.383760  1
  P  P28  1  0.500000  0.500000  0.879572  1
  P  P29  1  0.000000  0.000000  0.120428  1
  P  P30  1  0.500000  0.845651  0.892088  1
  P  P31  1  0.500000  0.154349  0.892088  1
  P  P32  1  0.000000  0.654349  0.107912  1
  P  P33  1  0.000000  0.345651  0.107912  1
  P  P34  1  0.500000  0.500000  0.349797  1
  P  P35  1  0.000000  0.000000  0.650203  1
