# generated using pymatgen
data_Er5TlGaTc
_symmetry_space_group_name_H-M   'P 1'
_cell_length_a   8.74505735
_cell_length_b   8.74505723
_cell_length_c   8.74505600
_cell_angle_alpha   127.06354953
_cell_angle_beta   127.15246439
_cell_angle_gamma   78.07456379
_symmetry_Int_Tables_number   1
_chemical_formula_structural   Er5TlGaTc
_chemical_formula_sum   'Er10 Tl2 Ga2 Tc2'
_cell_volume   412.12797734
_cell_formula_units_Z   2
loop_
 _symmetry_equiv_pos_site_id
 _symmetry_equiv_pos_as_xyz
  1  'x, y, z'
loop_
 _atom_site_type_symbol
 _atom_site_label
 _atom_site_symmetry_multiplicity
 _atom_site_fract_x
 _atom_site_fract_y
 _atom_site_fract_z
 _atom_site_occupancy
  Er  Er0  1  0.000515  0.993326  0.993840  1
  Er  Er1  1  0.500515  0.506674  0.007189  1
  Er  Er2  1  0.803683  0.284806  0.811487  1
  Er  Er3  1  0.303683  0.492197  0.518877  1
  Er  Er4  1  0.971271  0.812426  0.508928  1
  Er  Er5  1  0.696501  0.537657  0.508928  1
  Er  Er6  1  0.026681  0.215194  0.518877  1
  Er  Er7  1  0.526681  0.007803  0.811487  1
  Er  Er8  1  0.196501  0.687574  0.158844  1
  Er  Er9  1  0.471271  0.962343  0.158844  1
  Tl  Tl10  1  0.257949  0.250000  0.007949  1
  Tl  Tl11  1  0.757949  0.750000  0.007949  1
  Ga  Ga12  1  0.870039  0.366950  0.236990  1
  Ga  Ga13  1  0.370039  0.133050  0.503089  1
  Tc  Tc14  1  0.623361  0.875624  0.498985  1
  Tc  Tc15  1  0.123361  0.624376  0.747736  1
