# generated using pymatgen
data_Pr6EuPtBr12
_symmetry_space_group_name_H-M   'P 1'
_cell_length_a   9.71803948
_cell_length_b   9.71752459
_cell_length_c   9.71773642
_cell_angle_alpha   107.06758259
_cell_angle_beta   107.07080950
_cell_angle_gamma   107.06665742
_symmetry_Int_Tables_number   1
_chemical_formula_structural   Pr6EuPtBr12
_chemical_formula_sum   'Pr6 Eu1 Pt1 Br12'
_cell_volume   762.83757312
_cell_formula_units_Z   1
loop_
 _symmetry_equiv_pos_site_id
 _symmetry_equiv_pos_as_xyz
  1  'x, y, z'
loop_
 _atom_site_type_symbol
 _atom_site_label
 _atom_site_symmetry_multiplicity
 _atom_site_fract_x
 _atom_site_fract_y
 _atom_site_fract_z
 _atom_site_occupancy
  Pr  Pr0  1  0.109582  0.317269  0.026244  1
  Pr  Pr1  1  0.317235  0.026231  0.109569  1
  Pr  Pr2  1  0.026226  0.109571  0.317230  1
  Pr  Pr3  1  0.973775  0.890429  0.682771  1
  Pr  Pr4  1  0.682765  0.973770  0.890431  1
  Pr  Pr5  1  0.890418  0.682731  0.973756  1
  Eu  Eu6  1  0.500000  0.500000  0.500000  1
  Pt  Pt7  1  0.000000  0.000000  0.000000  1
  Br  Br8  1  0.214631  0.685140  0.072644  1
  Br  Br9  1  0.458386  0.375544  0.159974  1
  Br  Br10  1  0.685124  0.072631  0.214591  1
  Br  Br11  1  0.927330  0.785375  0.314859  1
  Br  Br12  1  0.159988  0.458380  0.375562  1
  Br  Br13  1  0.375563  0.160005  0.458415  1
  Br  Br14  1  0.624437  0.839995  0.541586  1
  Br  Br15  1  0.840013  0.541620  0.624438  1
  Br  Br16  1  0.072671  0.214625  0.685142  1
  Br  Br17  1  0.314877  0.927370  0.785409  1
  Br  Br18  1  0.541614  0.624456  0.840027  1
  Br  Br19  1  0.785369  0.314860  0.927356  1
