# generated using pymatgen
data_Ho8Lu2Ir5Os
_symmetry_space_group_name_H-M   'P 1'
_cell_length_a   10.79206700
_cell_length_b   10.79206700
_cell_length_c   6.35455600
_cell_angle_alpha   90.00000000
_cell_angle_beta   90.00000000
_cell_angle_gamma   90.00000000
_symmetry_Int_Tables_number   1
_chemical_formula_structural   Ho8Lu2Ir5Os
_chemical_formula_sum   'Ho16 Lu4 Ir10 Os2'
_cell_volume   740.10694078
_cell_formula_units_Z   2
loop_
 _symmetry_equiv_pos_site_id
 _symmetry_equiv_pos_as_xyz
  1  'x, y, z'
loop_
 _atom_site_type_symbol
 _atom_site_label
 _atom_site_symmetry_multiplicity
 _atom_site_fract_x
 _atom_site_fract_y
 _atom_site_fract_z
 _atom_site_occupancy
  Ho  Ho0  1  0.293134  0.085712  0.378520  1
  Ho  Ho1  1  0.293134  0.914288  0.878520  1
  Ho  Ho2  1  0.706866  0.085712  0.878520  1
  Ho  Ho3  1  0.706866  0.914288  0.378520  1
  Ho  Ho4  1  0.585712  0.793134  0.878520  1
  Ho  Ho5  1  0.585712  0.206866  0.378520  1
  Ho  Ho6  1  0.414288  0.793134  0.378520  1
  Ho  Ho7  1  0.414288  0.206866  0.878520  1
  Ho  Ho8  1  0.210261  0.412489  0.621608  1
  Ho  Ho9  1  0.210261  0.587511  0.121608  1
  Ho  Ho10  1  0.789739  0.412489  0.121608  1
  Ho  Ho11  1  0.789739  0.587511  0.621608  1
  Ho  Ho12  1  0.912489  0.710261  0.121608  1
  Ho  Ho13  1  0.912489  0.289739  0.621608  1
  Ho  Ho14  1  0.087511  0.710261  0.621608  1
  Ho  Ho15  1  0.087511  0.289739  0.121608  1
  Lu  Lu16  1  0.000000  0.000000  0.498460  1
  Lu  Lu17  1  0.000000  0.000000  0.998460  1
  Lu  Lu18  1  0.500000  0.500000  0.998460  1
  Lu  Lu19  1  0.500000  0.500000  0.498460  1
  Ir  Ir20  1  0.850820  0.151913  0.249167  1
  Ir  Ir21  1  0.850820  0.848087  0.749167  1
  Ir  Ir22  1  0.149180  0.151913  0.749167  1
  Ir  Ir23  1  0.149180  0.848087  0.249167  1
  Ir  Ir24  1  0.651913  0.350820  0.749167  1
  Ir  Ir25  1  0.651913  0.649180  0.249167  1
  Ir  Ir26  1  0.348087  0.350820  0.249167  1
  Ir  Ir27  1  0.348087  0.649180  0.749167  1
  Ir  Ir28  1  0.000000  0.500000  0.880067  1
  Ir  Ir29  1  0.000000  0.500000  0.380067  1
  Os  Os30  1  0.500000  0.000000  0.125834  1
  Os  Os31  1  0.500000  0.000000  0.625834  1
