# generated using pymatgen
data_YHo2Si2Ag3Ge
_symmetry_space_group_name_H-M   'P 1'
_cell_length_a   7.07483300
_cell_length_b   7.08004071
_cell_length_c   4.21643700
_cell_angle_alpha   90.00000000
_cell_angle_beta   90.00000000
_cell_angle_gamma   119.97566659
_symmetry_Int_Tables_number   1
_chemical_formula_structural   YHo2Si2Ag3Ge
_chemical_formula_sum   'Y1 Ho2 Si2 Ag3 Ge1'
_cell_volume   182.95093427
_cell_formula_units_Z   1
loop_
 _symmetry_equiv_pos_site_id
 _symmetry_equiv_pos_as_xyz
  1  'x, y, z'
loop_
 _atom_site_type_symbol
 _atom_site_label
 _atom_site_symmetry_multiplicity
 _atom_site_fract_x
 _atom_site_fract_y
 _atom_site_fract_z
 _atom_site_occupancy
  Y  Y0  1  0.418700  0.000000  0.500000  1
  Ho  Ho1  1  0.000125  0.418607  0.500000  1
  Ho  Ho2  1  0.581518  0.581393  0.500000  1
  Si  Si3  1  0.333144  0.665649  0.000000  1
  Si  Si4  1  0.667496  0.334351  0.000000  1
  Ag  Ag5  1  0.999688  0.743684  0.000000  1
  Ag  Ag6  1  0.256004  0.256316  0.000000  1
  Ag  Ag7  1  0.744581  0.000000  0.000000  1
  Ge  Ge8  1  0.998747  0.000000  0.500000  1
