# generated using pymatgen
data_Dy3Y2Mn2O12
_symmetry_space_group_name_H-M   'P 1'
_cell_length_a   6.82030972
_cell_length_b   6.82038381
_cell_length_c   7.25025106
_cell_angle_alpha   74.54669902
_cell_angle_beta   74.54680230
_cell_angle_gamma   50.03962911
_symmetry_Int_Tables_number   1
_chemical_formula_structural   Dy3Y2Mn2O12
_chemical_formula_sum   'Dy3 Y2 Mn2 O12'
_cell_volume   247.07854715
_cell_formula_units_Z   1
loop_
 _symmetry_equiv_pos_site_id
 _symmetry_equiv_pos_as_xyz
  1  'x, y, z'
loop_
 _atom_site_type_symbol
 _atom_site_label
 _atom_site_symmetry_multiplicity
 _atom_site_fract_x
 _atom_site_fract_y
 _atom_site_fract_z
 _atom_site_occupancy
  Dy  Dy0  1  0.694885  0.694873  0.643780  1
  Dy  Dy1  1  0.307469  0.307451  0.835542  1
  Dy  Dy2  1  0.692526  0.692529  0.164370  1
  Y  Y3  1  0.305264  0.305256  0.356524  1
  Y  Y4  1  0.999974  0.999964  0.499857  1
  Mn  Mn5  1  0.754393  0.245758  0.999866  1
  Mn  Mn6  1  0.245709  0.754423  0.999870  1
  O  O7  1  0.901423  0.421472  0.918763  1
  O  O8  1  0.421467  0.901419  0.918765  1
  O  O9  1  0.098317  0.578875  0.080768  1
  O  O10  1  0.578897  0.098310  0.080763  1
  O  O11  1  0.096662  0.597927  0.575207  1
  O  O12  1  0.597942  0.096642  0.575210  1
  O  O13  1  0.902159  0.402646  0.425422  1
  O  O14  1  0.402653  0.902157  0.425421  1
  O  O15  1  0.999920  0.999939  0.822197  1
  O  O16  1  0.000099  0.000113  0.177850  1
  O  O17  1  0.499966  0.499969  0.819994  1
  O  O18  1  0.500275  0.500277  0.179831  1
