# generated using pymatgen
data_Hf2Ga2PdRh
_symmetry_space_group_name_H-M   'P 1'
_cell_length_a   7.26818200
_cell_length_b   7.26818128
_cell_length_c   6.75790400
_cell_angle_alpha   90.00000000
_cell_angle_beta   90.00000000
_cell_angle_gamma   119.99999416
_symmetry_Int_Tables_number   1
_chemical_formula_structural   Hf2Ga2PdRh
_chemical_formula_sum   'Hf6 Ga6 Pd3 Rh3'
_cell_volume   309.16777467
_cell_formula_units_Z   3
loop_
 _symmetry_equiv_pos_site_id
 _symmetry_equiv_pos_as_xyz
  1  'x, y, z'
loop_
 _atom_site_type_symbol
 _atom_site_label
 _atom_site_symmetry_multiplicity
 _atom_site_fract_x
 _atom_site_fract_y
 _atom_site_fract_z
 _atom_site_occupancy
  Hf  Hf0  1  0.601777  0.600787  0.253329  1
  Hf  Hf1  1  0.012335  0.404441  0.746584  1
  Hf  Hf2  1  0.399213  0.000989  0.253329  1
  Hf  Hf3  1  0.999011  0.398223  0.253329  1
  Hf  Hf4  1  0.392105  0.987665  0.746584  1
  Hf  Hf5  1  0.595559  0.607895  0.746584  1
  Ga  Ga6  1  0.273986  0.270842  0.500405  1
  Ga  Ga7  1  0.729158  0.003143  0.500405  1
  Ga  Ga8  1  0.996857  0.726014  0.500405  1
  Ga  Ga9  1  0.729045  0.000601  0.000521  1
  Ga  Ga10  1  0.271555  0.270955  0.000521  1
  Ga  Ga11  1  0.999399  0.728445  0.000521  1
  Pd  Pd12  1  0.000000  0.000000  0.749340  1
  Pd  Pd13  1  0.000000  0.000000  0.251644  1
  Pd  Pd14  1  0.666667  0.333333  0.987706  1
  Rh  Rh15  1  0.333333  0.666667  0.491189  1
  Rh  Rh16  1  0.333333  0.666667  0.009102  1
  Rh  Rh17  1  0.666667  0.333333  0.508502  1
