# generated using pymatgen
data_TbNd5Zn4IrPd12
_symmetry_space_group_name_H-M   'P 1'
_cell_length_a   8.36954129
_cell_length_b   8.36954110
_cell_length_c   8.36954107
_cell_angle_alpha   109.46392107
_cell_angle_beta   109.46391952
_cell_angle_gamma   109.48581919
_symmetry_Int_Tables_number   1
_chemical_formula_structural   TbNd5Zn4IrPd12
_chemical_formula_sum   'Tb1 Nd5 Zn4 Ir1 Pd12'
_cell_volume   451.31841262
_cell_formula_units_Z   1
loop_
 _symmetry_equiv_pos_site_id
 _symmetry_equiv_pos_as_xyz
  1  'x, y, z'
loop_
 _atom_site_type_symbol
 _atom_site_label
 _atom_site_symmetry_multiplicity
 _atom_site_fract_x
 _atom_site_fract_y
 _atom_site_fract_z
 _atom_site_occupancy
  Tb  Tb0  1  0.700950  0.700950  0.000000  1
  Nd  Nd1  1  0.295577  0.999533  0.296044  1
  Nd  Nd2  1  0.999533  0.295577  0.296044  1
  Nd  Nd3  1  0.296039  0.296039  0.000000  1
  Nd  Nd4  1  0.703489  0.999533  0.703956  1
  Nd  Nd5  1  0.999533  0.703489  0.703956  1
  Zn  Zn6  1  0.000117  0.000117  0.498678  1
  Zn  Zn7  1  0.000117  0.501439  0.000000  1
  Zn  Zn8  1  0.501439  0.000117  0.000000  1
  Zn  Zn9  1  0.501439  0.501439  0.501322  1
  Ir  Ir10  1  0.994628  0.994628  0.000000  1
  Pd  Pd11  1  0.334961  0.334961  0.667803  1
  Pd  Pd12  1  0.668758  0.999156  0.330398  1
  Pd  Pd13  1  0.999156  0.668758  0.330398  1
  Pd  Pd14  1  0.667158  0.334961  0.000000  1
  Pd  Pd15  1  0.331967  0.664014  0.332047  1
  Pd  Pd16  1  0.999920  0.331967  0.667953  1
  Pd  Pd17  1  0.334961  0.667158  0.000000  1
  Pd  Pd18  1  0.331967  0.999920  0.667953  1
  Pd  Pd19  1  0.664014  0.331967  0.332047  1
  Pd  Pd20  1  0.667158  0.667158  0.332197  1
  Pd  Pd21  1  0.668758  0.338360  0.669602  1
  Pd  Pd22  1  0.338360  0.668758  0.669602  1
