# generated using pymatgen
data_Y5AsRuO12
_symmetry_space_group_name_H-M   'P 1'
_cell_length_a   6.83078275
_cell_length_b   6.83078272
_cell_length_c   7.22394200
_cell_angle_alpha   74.57827552
_cell_angle_beta   74.57827560
_cell_angle_gamma   51.12820670
_symmetry_Int_Tables_number   1
_chemical_formula_structural   Y5AsRuO12
_chemical_formula_sum   'Y5 As1 Ru1 O12'
_cell_volume   250.76289647
_cell_formula_units_Z   1
loop_
 _symmetry_equiv_pos_site_id
 _symmetry_equiv_pos_as_xyz
  1  'x, y, z'
loop_
 _atom_site_type_symbol
 _atom_site_label
 _atom_site_symmetry_multiplicity
 _atom_site_fract_x
 _atom_site_fract_y
 _atom_site_fract_z
 _atom_site_occupancy
  Y  Y0  1  0.302322  0.301800  0.359975  1
  Y  Y1  1  0.698200  0.697678  0.640025  1
  Y  Y2  1  0.307346  0.305443  0.832187  1
  Y  Y3  1  0.694557  0.692654  0.167813  1
  Y  Y4  1  0.007403  0.992597  0.500000  1
  As  As5  1  0.242387  0.757613  0.000000  1
  Ru  Ru6  1  0.752436  0.247564  0.000000  1
  O  O7  1  0.902319  0.428112  0.918342  1
  O  O8  1  0.417757  0.898228  0.919659  1
  O  O9  1  0.101772  0.582243  0.080341  1
  O  O10  1  0.571888  0.097681  0.081658  1
  O  O11  1  0.098968  0.594564  0.574033  1
  O  O12  1  0.601525  0.095287  0.575805  1
  O  O13  1  0.904713  0.398475  0.424195  1
  O  O14  1  0.405436  0.901032  0.425967  1
  O  O15  1  0.015009  0.985159  0.823072  1
  O  O16  1  0.014841  0.984991  0.176928  1
  O  O17  1  0.480443  0.519322  0.820685  1
  O  O18  1  0.480678  0.519557  0.179315  1
