# generated using pymatgen
data_Nd20Ga3Si12Os
_symmetry_space_group_name_H-M   'P 1'
_cell_length_a   7.68954394
_cell_length_b   8.06981528
_cell_length_c   15.25034323
_cell_angle_alpha   90.02220650
_cell_angle_beta   89.68853130
_cell_angle_gamma   89.84950115
_symmetry_Int_Tables_number   1
_chemical_formula_structural   Nd20Ga3Si12Os
_chemical_formula_sum   'Nd20 Ga3 Si12 Os1'
_cell_volume   946.31526262
_cell_formula_units_Z   1
loop_
 _symmetry_equiv_pos_site_id
 _symmetry_equiv_pos_as_xyz
  1  'x, y, z'
loop_
 _atom_site_type_symbol
 _atom_site_label
 _atom_site_symmetry_multiplicity
 _atom_site_fract_x
 _atom_site_fract_y
 _atom_site_fract_z
 _atom_site_occupancy
  Nd  Nd0  1  0.140139  0.517765  0.749353  1
  Nd  Nd1  1  0.816799  0.322003  0.624252  1
  Nd  Nd2  1  0.458950  0.690233  0.897036  1
  Nd  Nd3  1  0.967922  0.809912  0.900692  1
  Nd  Nd4  1  0.196001  0.676368  0.126985  1
  Nd  Nd5  1  0.678030  0.809342  0.123137  1
  Nd  Nd6  1  0.313112  0.181207  0.877426  1
  Nd  Nd7  1  0.193820  0.672814  0.371309  1
  Nd  Nd8  1  0.030562  0.181310  0.098406  1
  Nd  Nd9  1  0.314475  0.182744  0.624549  1
  Nd  Nd10  1  0.840568  0.485101  0.249240  1
  Nd  Nd11  1  0.362736  0.017432  0.246467  1
  Nd  Nd12  1  0.525475  0.321369  0.401045  1
  Nd  Nd13  1  0.815982  0.325397  0.876556  1
  Nd  Nd14  1  0.970162  0.818466  0.599540  1
  Nd  Nd15  1  0.467145  0.685619  0.602432  1
  Nd  Nd16  1  0.030418  0.185042  0.399220  1
  Nd  Nd17  1  0.676437  0.818691  0.375498  1
  Nd  Nd18  1  0.643788  0.985545  0.748479  1
  Nd  Nd19  1  0.527892  0.325807  0.097034  1
  Ga  Ga20  1  0.857633  0.528593  0.460862  1
  Ga  Ga21  1  0.647135  0.033890  0.961751  1
  Ga  Ga22  1  0.347892  0.969879  0.462776  1
  Si  Si23  1  0.246877  0.370000  0.249218  1
  Si  Si24  1  0.519895  0.403977  0.750577  1
  Si  Si25  1  0.020417  0.096141  0.751552  1
  Si  Si26  1  0.753984  0.622793  0.751186  1
  Si  Si27  1  0.753271  0.116952  0.248877  1
  Si  Si28  1  0.979864  0.902166  0.248961  1
  Si  Si29  1  0.352645  0.974422  0.039712  1
  Si  Si30  1  0.643389  0.030720  0.540813  1
  Si  Si31  1  0.144554  0.471667  0.963245  1
  Si  Si32  1  0.148932  0.474252  0.540271  1
  Si  Si33  1  0.870969  0.523634  0.040487  1
  Si  Si34  1  0.254658  0.878506  0.751571  1
  Os  Os35  1  0.487472  0.590235  0.249484  1
