# generated using pymatgen
data_TbZrTa4(B2Ru5)2
_symmetry_space_group_name_H-M   'P 1'
_cell_length_a   9.52905768
_cell_length_b   9.52905822
_cell_length_c   3.07614100
_cell_angle_alpha   90.00000000
_cell_angle_beta   90.00000000
_cell_angle_gamma   90.59514121
_symmetry_Int_Tables_number   1
_chemical_formula_structural   TbZrTa4(B2Ru5)2
_chemical_formula_sum   'Tb1 Zr1 Ta4 B4 Ru10'
_cell_volume   279.30759488
_cell_formula_units_Z   1
loop_
 _symmetry_equiv_pos_site_id
 _symmetry_equiv_pos_as_xyz
  1  'x, y, z'
loop_
 _atom_site_type_symbol
 _atom_site_label
 _atom_site_symmetry_multiplicity
 _atom_site_fract_x
 _atom_site_fract_y
 _atom_site_fract_z
 _atom_site_occupancy
  Tb  Tb0  1  0.175845  0.324155  0.000000  1
  Zr  Zr1  1  0.823032  0.676968  0.000000  1
  Ta  Ta2  1  0.324307  0.825208  0.000000  1
  Ta  Ta3  1  0.674792  0.175693  0.000000  1
  Ta  Ta4  1  0.499889  0.500090  0.000000  1
  Ta  Ta5  1  0.999910  0.000111  0.000000  1
  B  B6  1  0.621337  0.878663  0.000000  1
  B  B7  1  0.380927  0.119073  0.000000  1
  B  B8  1  0.120777  0.623243  0.000000  1
  B  B9  1  0.876757  0.379223  0.000000  1
  Ru  Ru10  1  0.567642  0.719266  0.500000  1
  Ru  Ru11  1  0.441732  0.276181  0.500000  1
  Ru  Ru12  1  0.074934  0.784949  0.500000  1
  Ru  Ru13  1  0.917506  0.215731  0.500000  1
  Ru  Ru14  1  0.284269  0.582494  0.500000  1
  Ru  Ru15  1  0.715051  0.425066  0.500000  1
  Ru  Ru16  1  0.223819  0.058268  0.500000  1
  Ru  Ru17  1  0.780734  0.932358  0.500000  1
  Ru  Ru18  1  0.502299  0.997701  0.500000  1
  Ru  Ru19  1  0.994443  0.505557  0.500000  1
