# generated using pymatgen
data_LaMn(FeSb4)3
_symmetry_space_group_name_H-M   'P 1'
_cell_length_a   8.02950111
_cell_length_b   8.02950198
_cell_length_c   8.02950207
_cell_angle_alpha   109.55234212
_cell_angle_beta   109.55233712
_cell_angle_gamma   109.55233993
_symmetry_Int_Tables_number   1
_chemical_formula_structural   LaMn(FeSb4)3
_chemical_formula_sum   'La1 Mn1 Fe3 Sb12'
_cell_volume   397.31290061
_cell_formula_units_Z   1
loop_
 _symmetry_equiv_pos_site_id
 _symmetry_equiv_pos_as_xyz
  1  'x, y, z'
loop_
 _atom_site_type_symbol
 _atom_site_label
 _atom_site_symmetry_multiplicity
 _atom_site_fract_x
 _atom_site_fract_y
 _atom_site_fract_z
 _atom_site_occupancy
  La  La0  1  0.000000  0.000000  0.000000  1
  Mn  Mn1  1  0.500000  0.500000  0.500000  1
  Fe  Fe2  1  0.500000  0.000000  0.000000  1
  Fe  Fe3  1  0.000000  0.500000  0.000000  1
  Fe  Fe4  1  0.000000  0.000000  0.500000  1
  Sb  Sb5  1  0.170870  0.836910  0.334060  1
  Sb  Sb6  1  0.154751  0.330788  0.497404  1
  Sb  Sb7  1  0.665940  0.829130  0.163090  1
  Sb  Sb8  1  0.669212  0.502596  0.845249  1
  Sb  Sb9  1  0.502596  0.845249  0.669212  1
  Sb  Sb10  1  0.829130  0.163090  0.665940  1
  Sb  Sb11  1  0.334060  0.170870  0.836910  1
  Sb  Sb12  1  0.836910  0.334060  0.170870  1
  Sb  Sb13  1  0.497404  0.154751  0.330788  1
  Sb  Sb14  1  0.330788  0.497404  0.154751  1
  Sb  Sb15  1  0.163090  0.665940  0.829130  1
  Sb  Sb16  1  0.845249  0.669212  0.502596  1
