# generated using pymatgen
data_PaZnCo20B6Mo
_symmetry_space_group_name_H-M   'P 1'
_cell_length_a   7.48273286
_cell_length_b   7.48273365
_cell_length_c   7.48273400
_cell_angle_alpha   60.00000730
_cell_angle_beta   60.00000382
_cell_angle_gamma   60.00000603
_symmetry_Int_Tables_number   1
_chemical_formula_structural   PaZnCo20B6Mo
_chemical_formula_sum   'Pa1 Zn1 Co20 B6 Mo1'
_cell_volume   296.25513951
_cell_formula_units_Z   1
loop_
 _symmetry_equiv_pos_site_id
 _symmetry_equiv_pos_as_xyz
  1  'x, y, z'
loop_
 _atom_site_type_symbol
 _atom_site_label
 _atom_site_symmetry_multiplicity
 _atom_site_fract_x
 _atom_site_fract_y
 _atom_site_fract_z
 _atom_site_occupancy
  Pa  Pa0  1  0.750000  0.750000  0.750000  1
  Zn  Zn1  1  0.000000  0.000000  0.000000  1
  Co  Co2  1  0.612905  0.612905  0.161283  1
  Co  Co3  1  0.612905  0.161283  0.612905  1
  Co  Co4  1  0.161283  0.612905  0.612905  1
  Co  Co5  1  0.612905  0.612905  0.612905  1
  Co  Co6  1  0.380235  0.380235  0.859298  1
  Co  Co7  1  0.380235  0.859298  0.380235  1
  Co  Co8  1  0.859298  0.380235  0.380235  1
  Co  Co9  1  0.380235  0.380235  0.380235  1
  Co  Co10  1  0.002514  0.002514  0.338479  1
  Co  Co11  1  0.656492  0.002514  0.338479  1
  Co  Co12  1  0.002514  0.656492  0.338479  1
  Co  Co13  1  0.656492  0.338479  0.002514  1
  Co  Co14  1  0.002514  0.338479  0.002514  1
  Co  Co15  1  0.002514  0.338479  0.656492  1
  Co  Co16  1  0.338479  0.656492  0.002514  1
  Co  Co17  1  0.338479  0.002514  0.656492  1
  Co  Co18  1  0.338479  0.002514  0.002514  1
  Co  Co19  1  0.002514  0.002514  0.656492  1
  Co  Co20  1  0.002514  0.656492  0.002514  1
  Co  Co21  1  0.656492  0.002514  0.002514  1
  B  B22  1  0.724695  0.724695  0.275305  1
  B  B23  1  0.275305  0.724695  0.275305  1
  B  B24  1  0.724695  0.275305  0.275305  1
  B  B25  1  0.275305  0.275305  0.724695  1
  B  B26  1  0.724695  0.275305  0.724695  1
  B  B27  1  0.275305  0.724695  0.724695  1
  Mo  Mo28  1  0.250000  0.250000  0.250000  1
