# generated using pymatgen
data_LiTb16Tl2InRh4
_symmetry_space_group_name_H-M   'P 1'
_cell_length_a   9.70770455
_cell_length_b   9.70813128
_cell_length_c   9.70813164
_cell_angle_alpha   59.98995841
_cell_angle_beta   59.94031520
_cell_angle_gamma   59.94030552
_symmetry_Int_Tables_number   1
_chemical_formula_structural   LiTb16Tl2InRh4
_chemical_formula_sum   'Li1 Tb16 Tl2 In1 Rh4'
_cell_volume   646.31989799
_cell_formula_units_Z   1
loop_
 _symmetry_equiv_pos_site_id
 _symmetry_equiv_pos_as_xyz
  1  'x, y, z'
loop_
 _atom_site_type_symbol
 _atom_site_label
 _atom_site_symmetry_multiplicity
 _atom_site_fract_x
 _atom_site_fract_y
 _atom_site_fract_z
 _atom_site_occupancy
  Li  Li0  1  0.428311  0.428650  0.428650  1
  Tb  Tb1  1  0.809390  0.808223  0.190993  1
  Tb  Tb2  1  0.809390  0.190993  0.808223  1
  Tb  Tb3  1  0.186855  0.186606  0.813582  1
  Tb  Tb4  1  0.650546  0.046876  0.649914  1
  Tb  Tb5  1  0.060812  0.061601  0.438364  1
  Tb  Tb6  1  0.436950  0.436785  0.063722  1
  Tb  Tb7  1  0.650962  0.650223  0.650223  1
  Tb  Tb8  1  0.813700  0.187342  0.187342  1
  Tb  Tb9  1  0.190803  0.808999  0.808999  1
  Tb  Tb10  1  0.046469  0.650327  0.650327  1
  Tb  Tb11  1  0.438896  0.060826  0.060826  1
  Tb  Tb12  1  0.436950  0.063722  0.436785  1
  Tb  Tb13  1  0.060812  0.438364  0.061601  1
  Tb  Tb14  1  0.650546  0.649914  0.046876  1
  Tb  Tb15  1  0.186855  0.813582  0.186606  1
  Tb  Tb16  1  0.063327  0.436386  0.436386  1
  Tl  Tl17  1  0.415686  0.414074  0.751531  1
  Tl  Tl18  1  0.415686  0.751531  0.414074  1
  In  In19  1  0.748836  0.416721  0.416721  1
  Rh  Rh20  1  0.857485  0.426169  0.857679  1
  Rh  Rh21  1  0.856830  0.856915  0.856915  1
  Rh  Rh22  1  0.857485  0.857679  0.426169  1
  Rh  Rh23  1  0.426415  0.857492  0.857492  1
