# generated using pymatgen
data_Er5Tm3Re(TcB8)3
_symmetry_space_group_name_H-M   'P 1'
_cell_length_a   3.65179700
_cell_length_b   9.11071705
_cell_length_c   11.48111500
_cell_angle_alpha   90.02657264
_cell_angle_beta   90.00000000
_cell_angle_gamma   90.00000000
_symmetry_Int_Tables_number   1
_chemical_formula_structural   Er5Tm3Re(TcB8)3
_chemical_formula_sum   'Er5 Tm3 Re1 Tc3 B24'
_cell_volume   381.98227137
_cell_formula_units_Z   1
loop_
 _symmetry_equiv_pos_site_id
 _symmetry_equiv_pos_as_xyz
  1  'x, y, z'
loop_
 _atom_site_type_symbol
 _atom_site_label
 _atom_site_symmetry_multiplicity
 _atom_site_fract_x
 _atom_site_fract_y
 _atom_site_fract_z
 _atom_site_occupancy
  Er  Er0  1  0.000000  0.323654  0.414205  1
  Er  Er1  1  0.000000  0.676565  0.585845  1
  Er  Er2  1  0.000000  0.823337  0.085837  1
  Er  Er3  1  0.000000  0.176973  0.914284  1
  Er  Er4  1  0.000000  0.942586  0.369454  1
  Tm  Tm5  1  0.000000  0.058091  0.629944  1
  Tm  Tm6  1  0.000000  0.442504  0.130602  1
  Tm  Tm7  1  0.000000  0.556476  0.869828  1
  Re  Re8  1  0.000000  0.861616  0.820363  1
  Tc  Tc9  1  0.000000  0.638391  0.320336  1
  Tc  Tc10  1  0.000000  0.361143  0.679792  1
  Tc  Tc11  1  0.000000  0.138805  0.179653  1
  B  B12  1  0.500000  0.553021  0.433156  1
  B  B13  1  0.500000  0.446929  0.567001  1
  B  B14  1  0.500000  0.053309  0.066831  1
  B  B15  1  0.500000  0.946998  0.933305  1
  B  B16  1  0.500000  0.749221  0.418753  1
  B  B17  1  0.500000  0.250673  0.581256  1
  B  B18  1  0.500000  0.249687  0.081150  1
  B  B19  1  0.500000  0.749936  0.918935  1
  B  B20  1  0.500000  0.791832  0.264673  1
  B  B21  1  0.500000  0.207870  0.735073  1
  B  B22  1  0.500000  0.292306  0.235123  1
  B  B23  1  0.500000  0.707483  0.764949  1
  B  B24  1  0.500000  0.629987  0.184799  1
  B  B25  1  0.500000  0.369680  0.815159  1
  B  B26  1  0.500000  0.130562  0.314978  1
  B  B27  1  0.500000  0.869998  0.684740  1
  B  B28  1  0.500000  0.981428  0.211555  1
  B  B29  1  0.500000  0.019088  0.787950  1
  B  B30  1  0.500000  0.481140  0.288114  1
  B  B31  1  0.500000  0.518654  0.711997  1
  B  B32  1  0.500000  0.598911  0.027682  1
  B  B33  1  0.500000  0.400531  0.972471  1
  B  B34  1  0.500000  0.099855  0.472307  1
  B  B35  1  0.500000  0.900762  0.527904  1
