# generated using pymatgen
data_CaNb2(SbRh)3
_symmetry_space_group_name_H-M   'P 1'
_cell_length_a   7.62781534
_cell_length_b   7.62784619
_cell_length_c   7.63404400
_cell_angle_alpha   99.65735874
_cell_angle_beta   99.65791628
_cell_angle_gamma   119.92853937
_symmetry_Int_Tables_number   1
_chemical_formula_structural   CaNb2(SbRh)3
_chemical_formula_sum   'Ca2 Nb4 Sb6 Rh6'
_cell_volume   362.68119392
_cell_formula_units_Z   2
loop_
 _symmetry_equiv_pos_site_id
 _symmetry_equiv_pos_as_xyz
  1  'x, y, z'
loop_
 _atom_site_type_symbol
 _atom_site_label
 _atom_site_symmetry_multiplicity
 _atom_site_fract_x
 _atom_site_fract_y
 _atom_site_fract_z
 _atom_site_occupancy
  Ca  Ca0  1  0.835221  0.667486  0.003219  1
  Ca  Ca1  1  0.667483  0.835219  0.503213  1
  Nb  Nb2  1  0.330855  0.164183  0.498666  1
  Nb  Nb3  1  0.001158  0.499403  0.498733  1
  Nb  Nb4  1  0.164188  0.330856  0.998666  1
  Nb  Nb5  1  0.499401  0.001157  0.998731  1
  Sb  Sb6  1  0.256350  0.748415  0.244588  1
  Sb  Sb7  1  0.581370  0.422533  0.246843  1
  Sb  Sb8  1  0.911535  0.077438  0.257060  1
  Sb  Sb9  1  0.748421  0.256352  0.744590  1
  Sb  Sb10  1  0.422535  0.581376  0.746851  1
  Sb  Sb11  1  0.077438  0.911540  0.757062  1
  Rh  Rh12  1  0.620492  0.141054  0.366622  1
  Rh  Rh13  1  0.270945  0.438260  0.366508  1
  Rh  Rh14  1  0.987786  0.795512  0.392763  1
  Rh  Rh15  1  0.141050  0.620490  0.866623  1
  Rh  Rh16  1  0.438264  0.270946  0.866502  1
  Rh  Rh17  1  0.795509  0.987781  0.892761  1
