# generated using pymatgen
data_TlFeI4
_symmetry_space_group_name_H-M   'P 1'
_cell_length_a   8.38188200
_cell_length_b   11.47465900
_cell_length_c   11.54345200
_cell_angle_alpha   90.00000000
_cell_angle_beta   90.00000000
_cell_angle_gamma   90.00000000
_symmetry_Int_Tables_number   1
_chemical_formula_structural   TlFeI4
_chemical_formula_sum   'Tl4 Fe4 I16'
_cell_volume   1110.24041411
_cell_formula_units_Z   4
loop_
 _symmetry_equiv_pos_site_id
 _symmetry_equiv_pos_as_xyz
  1  'x, y, z'
loop_
 _atom_site_type_symbol
 _atom_site_label
 _atom_site_symmetry_multiplicity
 _atom_site_fract_x
 _atom_site_fract_y
 _atom_site_fract_z
 _atom_site_occupancy
  Tl  Tl0  1  0.838816  0.250000  0.250000  1
  Tl  Tl1  1  0.661184  0.250000  0.750000  1
  Tl  Tl2  1  0.161184  0.750000  0.750000  1
  Tl  Tl3  1  0.338816  0.750000  0.250000  1
  Fe  Fe4  1  0.750000  0.818658  0.000000  1
  Fe  Fe5  1  0.250000  0.318658  0.500000  1
  Fe  Fe6  1  0.250000  0.181342  0.000000  1
  Fe  Fe7  1  0.750000  0.681342  0.500000  1
  I  I8  1  0.494120  0.189123  0.459867  1
  I  I9  1  0.005880  0.310877  0.959867  1
  I  I10  1  0.005880  0.189123  0.540133  1
  I  I11  1  0.494120  0.310877  0.040133  1
  I  I12  1  0.674206  0.942818  0.175603  1
  I  I13  1  0.674206  0.557182  0.324397  1
  I  I14  1  0.825794  0.942818  0.824397  1
  I  I15  1  0.825794  0.557182  0.675603  1
  I  I16  1  0.325794  0.057182  0.824397  1
  I  I17  1  0.325794  0.442818  0.675603  1
  I  I18  1  0.174206  0.057182  0.175603  1
  I  I19  1  0.174206  0.442818  0.324397  1
  I  I20  1  0.994120  0.689123  0.040133  1
  I  I21  1  0.994120  0.810877  0.459867  1
  I  I22  1  0.505880  0.689123  0.959867  1
  I  I23  1  0.505880  0.810877  0.540133  1
