# generated using pymatgen
data_Tm3Lu2Co19(GeP5)2
_symmetry_space_group_name_H-M   'P 1'
_cell_length_a   12.01512120
_cell_length_b   12.01141785
_cell_length_c   3.66986000
_cell_angle_alpha   90.00000000
_cell_angle_beta   90.00000000
_cell_angle_gamma   119.89379563
_symmetry_Int_Tables_number   1
_chemical_formula_structural   Tm3Lu2Co19(GeP5)2
_chemical_formula_sum   'Tm3 Lu2 Co19 Ge2 P10'
_cell_volume   459.16242568
_cell_formula_units_Z   1
loop_
 _symmetry_equiv_pos_site_id
 _symmetry_equiv_pos_as_xyz
  1  'x, y, z'
loop_
 _atom_site_type_symbol
 _atom_site_label
 _atom_site_symmetry_multiplicity
 _atom_site_fract_x
 _atom_site_fract_y
 _atom_site_fract_z
 _atom_site_occupancy
  Tm  Tm0  1  0.334069  0.667749  0.500000  1
  Tm  Tm1  1  0.667539  0.333924  0.500000  1
  Tm  Tm2  1  0.181130  0.000095  0.000000  1
  Lu  Lu3  1  0.999974  0.180957  0.000000  1
  Lu  Lu4  1  0.812388  0.812419  0.000000  1
  Co  Co5  1  0.207674  0.379796  0.500000  1
  Co  Co6  1  0.624658  0.820490  0.500000  1
  Co  Co7  1  0.170300  0.793648  0.500000  1
  Co  Co8  1  0.820245  0.624325  0.500000  1
  Co  Co9  1  0.794173  0.170424  0.500000  1
  Co  Co10  1  0.379733  0.208027  0.500000  1
  Co  Co11  1  0.556926  0.994443  0.500000  1
  Co  Co12  1  0.994205  0.556315  0.500000  1
  Co  Co13  1  0.450114  0.450340  0.500000  1
  Co  Co14  1  0.132061  0.488807  0.000000  1
  Co  Co15  1  0.518146  0.643269  0.000000  1
  Co  Co16  1  0.356046  0.866837  0.000000  1
  Co  Co17  1  0.643096  0.517996  0.000000  1
  Co  Co18  1  0.866967  0.355827  0.000000  1
  Co  Co19  1  0.488991  0.132204  0.000000  1
  Co  Co20  1  0.716239  0.997253  0.000000  1
  Co  Co21  1  0.996933  0.715766  0.000000  1
  Co  Co22  1  0.286124  0.286476  0.000000  1
  Co  Co23  1  0.001133  0.001534  0.500000  1
  Ge  Ge24  1  0.365570  0.000189  0.500000  1
  Ge  Ge25  1  0.000231  0.364935  0.500000  1
  P  P26  1  0.634051  0.634044  0.500000  1
  P  P27  1  0.316963  0.482931  0.000000  1
  P  P28  1  0.520059  0.833461  0.000000  1
  P  P29  1  0.163940  0.684582  0.000000  1
  P  P30  1  0.833299  0.519697  0.000000  1
  P  P31  1  0.684695  0.163975  0.000000  1
  P  P32  1  0.482610  0.316874  0.000000  1
  P  P33  1  0.819809  0.998356  0.500000  1
  P  P34  1  0.997852  0.819416  0.500000  1
  P  P35  1  0.182056  0.182621  0.500000  1
