# generated using pymatgen
data_Dy2Lu4Al24Os7Pt
_symmetry_space_group_name_H-M   'P 1'
_cell_length_a   8.80416571
_cell_length_b   8.81190390
_cell_length_c   9.54787000
_cell_angle_alpha   90.03754956
_cell_angle_beta   89.61992197
_cell_angle_gamma   119.82783318
_symmetry_Int_Tables_number   1
_chemical_formula_structural   Dy2Lu4Al24Os7Pt
_chemical_formula_sum   'Dy2 Lu4 Al24 Os7 Pt1'
_cell_volume   642.59057070
_cell_formula_units_Z   1
loop_
 _symmetry_equiv_pos_site_id
 _symmetry_equiv_pos_as_xyz
  1  'x, y, z'
loop_
 _atom_site_type_symbol
 _atom_site_label
 _atom_site_symmetry_multiplicity
 _atom_site_fract_x
 _atom_site_fract_y
 _atom_site_fract_z
 _atom_site_occupancy
  Dy  Dy0  1  0.194705  0.809857  0.250943  1
  Dy  Dy1  1  0.805295  0.190143  0.749057  1
  Lu  Lu2  1  0.197877  0.389921  0.251977  1
  Lu  Lu3  1  0.802123  0.610079  0.748023  1
  Lu  Lu4  1  0.606580  0.803779  0.252091  1
  Lu  Lu5  1  0.393420  0.196221  0.747909  1
  Al  Al6  1  0.336776  0.668404  0.023041  1
  Al  Al7  1  0.663224  0.331596  0.976959  1
  Al  Al8  1  0.667571  0.333599  0.519798  1
  Al  Al9  1  0.332429  0.666401  0.480202  1
  Al  Al10  1  0.162732  0.325750  0.576992  1
  Al  Al11  1  0.837268  0.674250  0.423008  1
  Al  Al12  1  0.673175  0.835797  0.575606  1
  Al  Al13  1  0.832747  0.675334  0.077515  1
  Al  Al14  1  0.326825  0.164203  0.424394  1
  Al  Al15  1  0.167253  0.324666  0.922485  1
  Al  Al16  1  0.161792  0.835707  0.577529  1
  Al  Al17  1  0.326237  0.163941  0.075378  1
  Al  Al18  1  0.838208  0.164293  0.422471  1
  Al  Al19  1  0.673763  0.836059  0.924622  1
  Al  Al20  1  0.833058  0.157935  0.078403  1
  Al  Al21  1  0.166942  0.842065  0.921597  1
  Al  Al22  1  0.562068  0.122250  0.249144  1
  Al  Al23  1  0.437932  0.877750  0.750856  1
  Al  Al24  1  0.875880  0.437487  0.252084  1
  Al  Al25  1  0.124120  0.562513  0.747916  1
  Al  Al26  1  0.561228  0.440086  0.248987  1
  Al  Al27  1  0.438772  0.559914  0.751013  1
  Al  Al28  1  0.998030  0.002030  0.250129  1
  Al  Al29  1  0.001970  0.997970  0.749871  1
  Os  Os30  1  0.500000  0.000000  0.000000  1
  Os  Os31  1  0.500000  0.000000  0.500000  1
  Os  Os32  1  0.500000  0.500000  0.000000  1
  Os  Os33  1  0.000000  0.500000  0.500000  1
  Os  Os34  1  0.500000  0.500000  0.500000  1
  Os  Os35  1  0.000000  0.000000  0.000000  1
  Os  Os36  1  0.000000  0.000000  0.500000  1
  Pt  Pt37  1  0.000000  0.500000  0.000000  1
