# generated using pymatgen
data_Pr9Nd3(Si7Br3)2
_symmetry_space_group_name_H-M   'P 1'
_cell_length_a   4.10247900
_cell_length_b   11.77810785
_cell_length_c   16.63738495
_cell_angle_alpha   90.01054938
_cell_angle_beta   90.00000000
_cell_angle_gamma   90.00000000
_symmetry_Int_Tables_number   1
_chemical_formula_structural   Pr9Nd3(Si7Br3)2
_chemical_formula_sum   'Pr9 Nd3 Si14 Br6'
_cell_volume   803.90911198
_cell_formula_units_Z   1
loop_
 _symmetry_equiv_pos_site_id
 _symmetry_equiv_pos_as_xyz
  1  'x, y, z'
loop_
 _atom_site_type_symbol
 _atom_site_label
 _atom_site_symmetry_multiplicity
 _atom_site_fract_x
 _atom_site_fract_y
 _atom_site_fract_z
 _atom_site_occupancy
  Pr  Pr0  1  0.500000  0.341183  0.499913  1
  Pr  Pr1  1  0.000000  0.658772  0.000136  1
  Pr  Pr2  1  0.500000  0.358426  0.756527  1
  Pr  Pr3  1  0.000000  0.641906  0.743458  1
  Pr  Pr4  1  0.500000  0.358086  0.243146  1
  Pr  Pr5  1  0.000000  0.641781  0.256675  1
  Pr  Pr6  1  0.500000  0.065152  0.880080  1
  Pr  Pr7  1  0.500000  0.355666  0.000005  1
  Pr  Pr8  1  0.000000  0.644657  0.500134  1
  Nd  Nd9  1  0.000000  0.934366  0.619590  1
  Nd  Nd10  1  0.500000  0.065518  0.119371  1
  Nd  Nd11  1  0.000000  0.934461  0.380787  1
  Si  Si12  1  0.000000  0.150368  0.000225  1
  Si  Si13  1  0.500000  0.850345  0.500241  1
  Si  Si14  1  0.500000  0.567198  0.876545  1
  Si  Si15  1  0.000000  0.433188  0.623467  1
  Si  Si16  1  0.500000  0.567203  0.123555  1
  Si  Si17  1  0.000000  0.432655  0.376252  1
  Si  Si18  1  0.000000  0.253429  0.874341  1
  Si  Si19  1  0.500000  0.747671  0.625945  1
  Si  Si20  1  0.000000  0.252356  0.125794  1
  Si  Si21  1  0.500000  0.747544  0.374552  1
  Si  Si22  1  0.000000  0.458286  0.876716  1
  Si  Si23  1  0.500000  0.542287  0.623349  1
  Si  Si24  1  0.500000  0.541981  0.376820  1
  Si  Si25  1  0.000000  0.458032  0.122900  1
  Br  Br26  1  0.500000  0.107695  0.692453  1
  Br  Br27  1  0.000000  0.891038  0.806436  1
  Br  Br28  1  0.000000  0.137076  0.500500  1
  Br  Br29  1  0.500000  0.862142  0.000106  1
  Br  Br30  1  0.500000  0.107596  0.306980  1
  Br  Br31  1  0.000000  0.891932  0.193001  1
