# generated using pymatgen
data_Ti12As7
_symmetry_space_group_name_H-M   'P 1'
_cell_length_a   3.52959000
_cell_length_b   10.05060936
_cell_length_c   10.05061000
_cell_angle_alpha   119.99998894
_cell_angle_beta   90.00000000
_cell_angle_gamma   90.00000000
_symmetry_Int_Tables_number   1
_chemical_formula_structural   Ti12As7
_chemical_formula_sum   'Ti12 As7'
_cell_volume   308.77331118
_cell_formula_units_Z   1
loop_
 _symmetry_equiv_pos_site_id
 _symmetry_equiv_pos_as_xyz
  1  'x, y, z'
loop_
 _atom_site_type_symbol
 _atom_site_label
 _atom_site_symmetry_multiplicity
 _atom_site_fract_x
 _atom_site_fract_y
 _atom_site_fract_z
 _atom_site_occupancy
  Ti  Ti0  1  0.744019  0.987893  0.736593  1
  Ti  Ti1  1  0.744019  0.263407  0.251301  1
  Ti  Ti2  1  0.744019  0.748699  0.012107  1
  Ti  Ti3  1  0.242212  0.009039  0.211266  1
  Ti  Ti4  1  0.242212  0.788734  0.797772  1
  Ti  Ti5  1  0.242212  0.202228  0.990961  1
  Ti  Ti6  1  0.744500  0.505327  0.127365  1
  Ti  Ti7  1  0.744500  0.872635  0.377962  1
  Ti  Ti8  1  0.744500  0.622038  0.494673  1
  Ti  Ti9  1  0.244342  0.487643  0.872542  1
  Ti  Ti10  1  0.244342  0.127458  0.615102  1
  Ti  Ti11  1  0.244342  0.384898  0.512357  1
  As  As12  1  0.742583  0.000000  0.000000  1
  As  As13  1  0.743958  0.280609  0.837846  1
  As  As14  1  0.743958  0.162154  0.442763  1
  As  As15  1  0.743958  0.557237  0.719391  1
  As  As16  1  0.244442  0.715360  0.172253  1
  As  As17  1  0.244442  0.827747  0.543106  1
  As  As18  1  0.244442  0.456894  0.284640  1
