# generated using pymatgen
data_Zn2In(Ni10B3)2
_symmetry_space_group_name_H-M   'P 1'
_cell_length_a   7.45270351
_cell_length_b   7.45270313
_cell_length_c   7.45270400
_cell_angle_alpha   60.00000502
_cell_angle_beta   60.00000669
_cell_angle_gamma   60.00000535
_symmetry_Int_Tables_number   1
_chemical_formula_structural   Zn2In(Ni10B3)2
_chemical_formula_sum   'Zn2 In1 Ni20 B6'
_cell_volume   292.70261122
_cell_formula_units_Z   1
loop_
 _symmetry_equiv_pos_site_id
 _symmetry_equiv_pos_as_xyz
  1  'x, y, z'
loop_
 _atom_site_type_symbol
 _atom_site_label
 _atom_site_symmetry_multiplicity
 _atom_site_fract_x
 _atom_site_fract_y
 _atom_site_fract_z
 _atom_site_occupancy
  Zn  Zn0  1  0.750000  0.750000  0.750000  1
  Zn  Zn1  1  0.000000  0.000000  0.000000  1
  In  In2  1  0.250000  0.250000  0.250000  1
  Ni  Ni3  1  0.998896  0.998896  0.663404  1
  Ni  Ni4  1  0.388048  0.835855  0.388048  1
  Ni  Ni5  1  0.663404  0.338804  0.998896  1
  Ni  Ni6  1  0.998896  0.338804  0.663404  1
  Ni  Ni7  1  0.663404  0.998896  0.998896  1
  Ni  Ni8  1  0.998896  0.998896  0.338804  1
  Ni  Ni9  1  0.663404  0.998896  0.338804  1
  Ni  Ni10  1  0.998896  0.338804  0.998896  1
  Ni  Ni11  1  0.998896  0.663404  0.338804  1
  Ni  Ni12  1  0.338804  0.998896  0.998896  1
  Ni  Ni13  1  0.998896  0.663404  0.998896  1
  Ni  Ni14  1  0.338804  0.998896  0.663404  1
  Ni  Ni15  1  0.388048  0.388048  0.388048  1
  Ni  Ni16  1  0.338804  0.663404  0.998896  1
  Ni  Ni17  1  0.618390  0.144831  0.618390  1
  Ni  Ni18  1  0.388048  0.388048  0.835855  1
  Ni  Ni19  1  0.835855  0.388048  0.388048  1
  Ni  Ni20  1  0.618390  0.618390  0.618390  1
  Ni  Ni21  1  0.144831  0.618390  0.618390  1
  Ni  Ni22  1  0.618390  0.618390  0.144831  1
  B  B23  1  0.726027  0.726027  0.273973  1
  B  B24  1  0.726027  0.273973  0.726027  1
  B  B25  1  0.273973  0.726027  0.273973  1
  B  B26  1  0.726027  0.273973  0.273973  1
  B  B27  1  0.273973  0.726027  0.726027  1
  B  B28  1  0.273973  0.273973  0.726027  1
