# generated using pymatgen
data_PrYHoGa9Pd2
_symmetry_space_group_name_H-M   'P 1'
_cell_length_a   8.23095598
_cell_length_b   8.23095652
_cell_length_c   8.23095589
_cell_angle_alpha   149.48783221
_cell_angle_beta   109.33220085
_cell_angle_gamma   78.89742584
_symmetry_Int_Tables_number   1
_chemical_formula_structural   PrYHoGa9Pd2
_chemical_formula_sum   'Pr1 Y1 Ho1 Ga9 Pd2'
_cell_volume   262.11809864
_cell_formula_units_Z   1
loop_
 _symmetry_equiv_pos_site_id
 _symmetry_equiv_pos_as_xyz
  1  'x, y, z'
loop_
 _atom_site_type_symbol
 _atom_site_label
 _atom_site_symmetry_multiplicity
 _atom_site_fract_x
 _atom_site_fract_y
 _atom_site_fract_z
 _atom_site_occupancy
  Pr  Pr0  1  0.500085  0.500085  0.000000  1
  Y  Y1  1  0.198499  0.198499  0.000000  1
  Ho  Ho2  1  0.801735  0.801735  0.000000  1
  Ga  Ga3  1  0.644593  0.360141  0.284452  1
  Ga  Ga4  1  0.355640  0.639778  0.715862  1
  Ga  Ga5  1  0.075688  0.360141  0.715548  1
  Ga  Ga6  1  0.923917  0.639778  0.284138  1
  Ga  Ga7  1  0.523465  0.158497  0.364968  1
  Ga  Ga8  1  0.476891  0.841685  0.635205  1
  Ga  Ga9  1  0.793529  0.158497  0.635032  1
  Ga  Ga10  1  0.206480  0.841685  0.364795  1
  Ga  Ga11  1  0.999913  0.499913  0.500000  1
  Pd  Pd12  1  0.184233  0.999783  0.184450  1
  Pd  Pd13  1  0.815333  0.999783  0.815550  1
