# generated using pymatgen
data_Sc3CuAsPIr3
_symmetry_space_group_name_H-M   'P 1'
_cell_length_a   6.47858500
_cell_length_b   6.47858508
_cell_length_c   3.94602700
_cell_angle_alpha   90.00000000
_cell_angle_beta   90.00000000
_cell_angle_gamma   120.00000467
_symmetry_Int_Tables_number   1
_chemical_formula_structural   Sc3CuAsPIr3
_chemical_formula_sum   'Sc3 Cu1 As1 P1 Ir3'
_cell_volume   143.43363070
_cell_formula_units_Z   1
loop_
 _symmetry_equiv_pos_site_id
 _symmetry_equiv_pos_as_xyz
  1  'x, y, z'
loop_
 _atom_site_type_symbol
 _atom_site_label
 _atom_site_symmetry_multiplicity
 _atom_site_fract_x
 _atom_site_fract_y
 _atom_site_fract_z
 _atom_site_occupancy
  Sc  Sc0  1  0.007635  0.411982  0.500000  1
  Sc  Sc1  1  0.588018  0.595653  0.500000  1
  Sc  Sc2  1  0.404347  0.992365  0.500000  1
  Cu  Cu3  1  0.000000  0.000000  0.500000  1
  As  As4  1  0.666667  0.333333  0.000000  1
  P  P5  1  0.333333  0.666667  0.000000  1
  Ir  Ir6  1  0.011460  0.760708  0.000000  1
  Ir  Ir7  1  0.239292  0.250752  0.000000  1
  Ir  Ir8  1  0.749248  0.988540  0.000000  1
