# generated using pymatgen
data_YbCe3(WN3)4
_symmetry_space_group_name_H-M   'P 1'
_cell_length_a   5.52446801
_cell_length_b   5.62822810
_cell_length_c   7.87716600
_cell_angle_alpha   90.00000000
_cell_angle_beta   90.00000000
_cell_angle_gamma   89.77043936
_symmetry_Int_Tables_number   1
_chemical_formula_structural   YbCe3(WN3)4
_chemical_formula_sum   'Yb1 Ce3 W4 N12'
_cell_volume   244.92248919
_cell_formula_units_Z   1
loop_
 _symmetry_equiv_pos_site_id
 _symmetry_equiv_pos_as_xyz
  1  'x, y, z'
loop_
 _atom_site_type_symbol
 _atom_site_label
 _atom_site_symmetry_multiplicity
 _atom_site_fract_x
 _atom_site_fract_y
 _atom_site_fract_z
 _atom_site_occupancy
  Yb  Yb0  1  0.993383  0.048385  0.750000  1
  Ce  Ce1  1  0.493895  0.450385  0.250000  1
  Ce  Ce2  1  0.008024  0.954007  0.250000  1
  Ce  Ce3  1  0.498779  0.548972  0.750000  1
  W  W4  1  0.505030  0.000620  0.504073  1
  W  W5  1  0.998651  0.499021  0.997546  1
  W  W6  1  0.998651  0.499021  0.502454  1
  W  W7  1  0.505030  0.000620  0.995927  1
  N  N8  1  0.698497  0.300847  0.538110  1
  N  N9  1  0.300080  0.699169  0.038745  1
  N  N10  1  0.202057  0.202366  0.046468  1
  N  N11  1  0.425504  0.986705  0.750000  1
  N  N12  1  0.920760  0.519155  0.250000  1
  N  N13  1  0.300080  0.699169  0.461255  1
  N  N14  1  0.796228  0.795350  0.960982  1
  N  N15  1  0.698497  0.300847  0.961890  1
  N  N16  1  0.796228  0.795350  0.539018  1
  N  N17  1  0.076754  0.478545  0.750000  1
  N  N18  1  0.202057  0.202366  0.453532  1
  N  N19  1  0.581814  0.019100  0.250000  1
