# generated using pymatgen
data_CaDy(Si7Ir3)2
_symmetry_space_group_name_H-M   'P 1'
_cell_length_a   8.03507893
_cell_length_b   8.03507973
_cell_length_c   8.03507981
_cell_angle_alpha   56.75693306
_cell_angle_beta   56.75692817
_cell_angle_gamma   56.75692885
_symmetry_Int_Tables_number   1
_chemical_formula_structural   CaDy(Si7Ir3)2
_chemical_formula_sum   'Ca1 Dy1 Si14 Ir6'
_cell_volume   339.35934309
_cell_formula_units_Z   1
loop_
 _symmetry_equiv_pos_site_id
 _symmetry_equiv_pos_as_xyz
  1  'x, y, z'
loop_
 _atom_site_type_symbol
 _atom_site_label
 _atom_site_symmetry_multiplicity
 _atom_site_fract_x
 _atom_site_fract_y
 _atom_site_fract_z
 _atom_site_occupancy
  Ca  Ca0  1  0.500000  0.500000  0.500000  1
  Dy  Dy1  1  0.000000  0.000000  0.000000  1
  Si  Si2  1  0.065952  0.849559  0.672313  1
  Si  Si3  1  0.672313  0.065952  0.849559  1
  Si  Si4  1  0.849559  0.672313  0.065952  1
  Si  Si5  1  0.173373  0.351180  0.565069  1
  Si  Si6  1  0.565069  0.173373  0.351180  1
  Si  Si7  1  0.351180  0.565069  0.173373  1
  Si  Si8  1  0.934048  0.150441  0.327687  1
  Si  Si9  1  0.327687  0.934048  0.150441  1
  Si  Si10  1  0.150441  0.327687  0.934048  1
  Si  Si11  1  0.826627  0.648820  0.434931  1
  Si  Si12  1  0.434931  0.826627  0.648820  1
  Si  Si13  1  0.648820  0.434931  0.826627  1
  Si  Si14  1  0.750127  0.750127  0.750127  1
  Si  Si15  1  0.249873  0.249873  0.249873  1
  Ir  Ir16  1  0.068796  0.751703  0.427923  1
  Ir  Ir17  1  0.427923  0.068796  0.751703  1
  Ir  Ir18  1  0.751703  0.427923  0.068796  1
  Ir  Ir19  1  0.931204  0.248297  0.572077  1
  Ir  Ir20  1  0.572077  0.931204  0.248297  1
  Ir  Ir21  1  0.248297  0.572077  0.931204  1
