# generated using pymatgen
data_Si4IrPt2Rh
_symmetry_space_group_name_H-M   'P 1'
_cell_length_a   3.54853200
_cell_length_b   5.48028879
_cell_length_c   6.10887158
_cell_angle_alpha   89.52741545
_cell_angle_beta   90.00000000
_cell_angle_gamma   90.00000000
_symmetry_Int_Tables_number   1
_chemical_formula_structural   Si4IrPt2Rh
_chemical_formula_sum   'Si4 Ir1 Pt2 Rh1'
_cell_volume   118.79506326
_cell_formula_units_Z   1
loop_
 _symmetry_equiv_pos_site_id
 _symmetry_equiv_pos_as_xyz
  1  'x, y, z'
loop_
 _atom_site_type_symbol
 _atom_site_label
 _atom_site_symmetry_multiplicity
 _atom_site_fract_x
 _atom_site_fract_y
 _atom_site_fract_z
 _atom_site_occupancy
  Si  Si0  1  0.250000  0.667564  0.075477  1
  Si  Si1  1  0.750000  0.330128  0.922183  1
  Si  Si2  1  0.250000  0.193290  0.420984  1
  Si  Si3  1  0.750000  0.807720  0.581130  1
  Ir  Ir4  1  0.750000  0.501307  0.300060  1
  Pt  Pt5  1  0.250000  0.998856  0.799731  1
  Pt  Pt6  1  0.750000  0.001843  0.201541  1
  Rh  Rh7  1  0.250000  0.499289  0.698894  1
