# generated using pymatgen
data_Tb4Dy9Y3(In3Co)2
_symmetry_space_group_name_H-M   'P 1'
_cell_length_a   10.39291800
_cell_length_b   10.39291925
_cell_length_c   7.04525000
_cell_angle_alpha   89.99939979
_cell_angle_beta   90.00059833
_cell_angle_gamma   120.00100439
_symmetry_Int_Tables_number   1
_chemical_formula_structural   Tb4Dy9Y3(In3Co)2
_chemical_formula_sum   'Tb4 Dy9 Y3 In6 Co2'
_cell_volume   659.01864011
_cell_formula_units_Z   1
loop_
 _symmetry_equiv_pos_site_id
 _symmetry_equiv_pos_as_xyz
  1  'x, y, z'
loop_
 _atom_site_type_symbol
 _atom_site_label
 _atom_site_symmetry_multiplicity
 _atom_site_fract_x
 _atom_site_fract_y
 _atom_site_fract_z
 _atom_site_occupancy
  Tb  Tb0  1  0.463991  0.536019  0.482873  1
  Tb  Tb1  1  0.072015  0.536015  0.482863  1
  Tb  Tb2  1  0.463987  0.927985  0.482862  1
  Tb  Tb3  1  0.535729  0.464269  0.983445  1
  Dy  Dy4  1  0.928528  0.464256  0.983426  1
  Dy  Dy5  1  0.535743  0.071475  0.983418  1
  Dy  Dy6  1  0.821822  0.178178  0.276009  1
  Dy  Dy7  1  0.356339  0.178162  0.276023  1
  Dy  Dy8  1  0.821844  0.643669  0.276040  1
  Dy  Dy9  1  0.178203  0.821787  0.775922  1
  Dy  Dy10  1  0.643591  0.821804  0.775910  1
  Dy  Dy11  1  0.178191  0.356413  0.775907  1
  Dy  Dy12  1  0.333325  0.666673  0.091138  1
  Y  Y13  1  0.666676  0.333323  0.592759  1
  Y  Y14  1  0.000000  0.999995  0.495111  1
  Y  Y15  1  0.999997  0.999999  0.995435  1
  In  In16  1  0.163031  0.836961  0.234068  1
  In  In17  1  0.673937  0.836970  0.234077  1
  In  In18  1  0.163028  0.326067  0.234073  1
  In  In19  1  0.837002  0.162996  0.734031  1
  In  In20  1  0.325974  0.162971  0.734012  1
  In  In21  1  0.837029  0.674031  0.734008  1
  Co  Co22  1  0.333333  0.666669  0.707098  1
  Co  Co23  1  0.666684  0.333316  0.204046  1
