# generated using pymatgen
data_Lu6Al24Ir5Os3
_symmetry_space_group_name_H-M   'P 1'
_cell_length_a   8.77833482
_cell_length_b   8.77924062
_cell_length_c   9.50110711
_cell_angle_alpha   89.99999950
_cell_angle_beta   89.81186347
_cell_angle_gamma   120.00342001
_symmetry_Int_Tables_number   1
_chemical_formula_structural   Lu6Al24Ir5Os3
_chemical_formula_sum   'Lu6 Al24 Ir5 Os3'
_cell_volume   634.09722089
_cell_formula_units_Z   1
loop_
 _symmetry_equiv_pos_site_id
 _symmetry_equiv_pos_as_xyz
  1  'x, y, z'
loop_
 _atom_site_type_symbol
 _atom_site_label
 _atom_site_symmetry_multiplicity
 _atom_site_fract_x
 _atom_site_fract_y
 _atom_site_fract_z
 _atom_site_occupancy
  Lu  Lu0  1  0.194431  0.391359  0.250558  1
  Lu  Lu1  1  0.805569  0.608641  0.749442  1
  Lu  Lu2  1  0.609594  0.804797  0.249536  1
  Lu  Lu3  1  0.390406  0.195203  0.750464  1
  Lu  Lu4  1  0.194431  0.803073  0.250558  1
  Lu  Lu5  1  0.805569  0.196927  0.749442  1
  Al  Al6  1  0.333332  0.666666  0.028503  1
  Al  Al7  1  0.666668  0.333334  0.971497  1
  Al  Al8  1  0.668446  0.334223  0.527045  1
  Al  Al9  1  0.331554  0.665777  0.472955  1
  Al  Al10  1  0.161887  0.326995  0.577612  1
  Al  Al11  1  0.838113  0.673005  0.422388  1
  Al  Al12  1  0.674314  0.837157  0.577656  1
  Al  Al13  1  0.836888  0.673357  0.077510  1
  Al  Al14  1  0.325686  0.162843  0.422344  1
  Al  Al15  1  0.163112  0.326643  0.922490  1
  Al  Al16  1  0.161887  0.834892  0.577612  1
  Al  Al17  1  0.325970  0.162985  0.077819  1
  Al  Al18  1  0.838113  0.165108  0.422388  1
  Al  Al19  1  0.674030  0.837015  0.922181  1
  Al  Al20  1  0.836888  0.163531  0.077510  1
  Al  Al21  1  0.163112  0.836469  0.922490  1
  Al  Al22  1  0.562146  0.123984  0.249486  1
  Al  Al23  1  0.437854  0.876016  0.750514  1
  Al  Al24  1  0.875261  0.437630  0.250399  1
  Al  Al25  1  0.124739  0.562370  0.749601  1
  Al  Al26  1  0.562146  0.438162  0.249486  1
  Al  Al27  1  0.437854  0.561838  0.750514  1
  Al  Al28  1  0.999518  0.999759  0.250052  1
  Al  Al29  1  0.000482  0.000241  0.749948  1
  Ir  Ir30  1  0.500000  0.000000  0.000000  1
  Ir  Ir31  1  0.000000  0.500000  0.000000  1
  Ir  Ir32  1  0.500000  0.000000  0.500000  1
  Ir  Ir33  1  0.500000  0.500000  0.000000  1
  Ir  Ir34  1  0.500000  0.500000  0.500000  1
  Os  Os35  1  0.000000  0.500000  0.500000  1
  Os  Os36  1  0.000000  0.000000  0.000000  1
  Os  Os37  1  0.000000  0.000000  0.500000  1
