# generated using pymatgen
data_Ba4ErMoO8
_symmetry_space_group_name_H-M   'P 1'
_cell_length_a   7.45615553
_cell_length_b   7.45615553
_cell_length_c   5.99728100
_cell_angle_alpha   90.00000000
_cell_angle_beta   90.00000000
_cell_angle_gamma   133.19379826
_symmetry_Int_Tables_number   1
_chemical_formula_structural   Ba4ErMoO8
_chemical_formula_sum   'Ba4 Er1 Mo1 O8'
_cell_volume   243.07331960
_cell_formula_units_Z   1
loop_
 _symmetry_equiv_pos_site_id
 _symmetry_equiv_pos_as_xyz
  1  'x, y, z'
loop_
 _atom_site_type_symbol
 _atom_site_label
 _atom_site_symmetry_multiplicity
 _atom_site_fract_x
 _atom_site_fract_y
 _atom_site_fract_z
 _atom_site_occupancy
  Ba  Ba0  1  0.352671  0.647329  0.000000  1
  Ba  Ba1  1  0.852184  0.147816  0.500000  1
  Ba  Ba2  1  0.147816  0.852184  0.500000  1
  Ba  Ba3  1  0.647329  0.352671  0.000000  1
  Er  Er4  1  0.000000  0.000000  0.000000  1
  Mo  Mo5  1  0.500000  0.500000  0.500000  1
  O  O6  1  0.163814  0.836186  0.000000  1
  O  O7  1  0.652044  0.347956  0.500000  1
  O  O8  1  0.347956  0.652044  0.500000  1
  O  O9  1  0.836186  0.163814  0.000000  1
  O  O10  1  0.264831  0.264831  0.263533  1
  O  O11  1  0.735169  0.735169  0.736467  1
  O  O12  1  0.264831  0.264831  0.736467  1
  O  O13  1  0.735169  0.735169  0.263533  1
