# generated using pymatgen
data_Ca11La9Pb16
_symmetry_space_group_name_H-M   'P 1'
_cell_length_a   8.16760669
_cell_length_b   8.76976405
_cell_length_c   16.51729305
_cell_angle_alpha   90.05808183
_cell_angle_beta   90.07656459
_cell_angle_gamma   90.11285676
_symmetry_Int_Tables_number   1
_chemical_formula_structural   Ca11La9Pb16
_chemical_formula_sum   'Ca11 La9 Pb16'
_cell_volume   1183.09643211
_cell_formula_units_Z   1
loop_
 _symmetry_equiv_pos_site_id
 _symmetry_equiv_pos_as_xyz
  1  'x, y, z'
loop_
 _atom_site_type_symbol
 _atom_site_label
 _atom_site_symmetry_multiplicity
 _atom_site_fract_x
 _atom_site_fract_y
 _atom_site_fract_z
 _atom_site_occupancy
  Ca  Ca0  1  0.841959  0.670435  0.121972  1
  Ca  Ca1  1  0.344238  0.830757  0.377758  1
  Ca  Ca2  1  0.658625  0.169426  0.876875  1
  Ca  Ca3  1  0.158919  0.330903  0.623939  1
  Ca  Ca4  1  0.158305  0.330175  0.877137  1
  Ca  Ca5  1  0.654921  0.169863  0.624477  1
  Ca  Ca6  1  0.340615  0.829894  0.122004  1
  Ca  Ca7  1  0.675470  0.000350  0.247745  1
  Ca  Ca8  1  0.176898  0.499565  0.248328  1
  Ca  Ca9  1  0.823610  0.497650  0.750408  1
  Ca  Ca10  1  0.322815  0.003102  0.750399  1
  La  La11  1  0.845207  0.672993  0.375914  1
  La  La12  1  0.004393  0.185313  0.094545  1
  La  La13  1  0.504427  0.310063  0.406809  1
  La  La14  1  0.494891  0.686244  0.903861  1
  La  La15  1  0.996436  0.815226  0.598247  1
  La  La16  1  0.994594  0.813271  0.903808  1
  La  La17  1  0.494337  0.685911  0.596856  1
  La  La18  1  0.502958  0.313293  0.092466  1
  La  La19  1  0.007165  0.183357  0.404407  1
  Pb  Pb20  1  0.045829  0.892223  0.250118  1
  Pb  Pb21  1  0.542540  0.608218  0.248858  1
  Pb  Pb22  1  0.455885  0.392239  0.751250  1
  Pb  Pb23  1  0.955716  0.109477  0.750329  1
  Pb  Pb24  1  0.804931  0.356041  0.250855  1
  Pb  Pb25  1  0.306942  0.145767  0.249181  1
  Pb  Pb26  1  0.692941  0.855585  0.750089  1
  Pb  Pb27  1  0.194063  0.645131  0.750047  1
  Pb  Pb28  1  0.819887  0.465581  0.960895  1
  Pb  Pb29  1  0.316329  0.036026  0.539266  1
  Pb  Pb30  1  0.680396  0.965625  0.038508  1
  Pb  Pb31  1  0.184092  0.532423  0.460665  1
  Pb  Pb32  1  0.178735  0.533805  0.038722  1
  Pb  Pb33  1  0.682788  0.965758  0.462386  1
  Pb  Pb34  1  0.319410  0.034065  0.960754  1
  Pb  Pb35  1  0.818734  0.464243  0.540124  1
