# generated using pymatgen
data_Ho5Tl2Ru
_symmetry_space_group_name_H-M   'P 1'
_cell_length_a   7.86471100
_cell_length_b   9.06259900
_cell_length_c   12.23966800
_cell_angle_alpha   90.00000000
_cell_angle_beta   90.00000000
_cell_angle_gamma   90.00000000
_symmetry_Int_Tables_number   1
_chemical_formula_structural   Ho5Tl2Ru
_chemical_formula_sum   'Ho20 Tl8 Ru4'
_cell_volume   872.37893461
_cell_formula_units_Z   4
loop_
 _symmetry_equiv_pos_site_id
 _symmetry_equiv_pos_as_xyz
  1  'x, y, z'
loop_
 _atom_site_type_symbol
 _atom_site_label
 _atom_site_symmetry_multiplicity
 _atom_site_fract_x
 _atom_site_fract_y
 _atom_site_fract_z
 _atom_site_occupancy
  Ho  Ho0  1  0.844894  0.750000  0.787147  1
  Ho  Ho1  1  0.155106  0.250000  0.212853  1
  Ho  Ho2  1  0.344894  0.250000  0.712853  1
  Ho  Ho3  1  0.655106  0.750000  0.287147  1
  Ho  Ho4  1  0.379321  0.750000  0.693633  1
  Ho  Ho5  1  0.620679  0.250000  0.306367  1
  Ho  Ho6  1  0.879321  0.250000  0.806367  1
  Ho  Ho7  1  0.120679  0.750000  0.193633  1
  Ho  Ho8  1  0.955317  0.750000  0.503228  1
  Ho  Ho9  1  0.044683  0.250000  0.496772  1
  Ho  Ho10  1  0.455317  0.250000  0.996772  1
  Ho  Ho11  1  0.544683  0.750000  0.003228  1
  Ho  Ho12  1  0.675555  0.036828  0.569404  1
  Ho  Ho13  1  0.324445  0.963172  0.430596  1
  Ho  Ho14  1  0.175555  0.963172  0.930596  1
  Ho  Ho15  1  0.324445  0.536828  0.430596  1
  Ho  Ho16  1  0.824445  0.036828  0.069404  1
  Ho  Ho17  1  0.675555  0.463172  0.569404  1
  Ho  Ho18  1  0.824445  0.463172  0.069404  1
  Ho  Ho19  1  0.175555  0.536828  0.930596  1
  Tl  Tl20  1  0.576718  0.493509  0.831523  1
  Tl  Tl21  1  0.423282  0.506491  0.168477  1
  Tl  Tl22  1  0.076718  0.506491  0.668477  1
  Tl  Tl23  1  0.423282  0.993509  0.168477  1
  Tl  Tl24  1  0.923282  0.493509  0.331523  1
  Tl  Tl25  1  0.576718  0.006491  0.831523  1
  Tl  Tl26  1  0.923282  0.006491  0.331523  1
  Tl  Tl27  1  0.076718  0.993509  0.668477  1
  Ru  Ru28  1  0.572743  0.750000  0.506585  1
  Ru  Ru29  1  0.427257  0.250000  0.493415  1
  Ru  Ru30  1  0.072743  0.250000  0.993415  1
  Ru  Ru31  1  0.927257  0.750000  0.006585  1
