# generated using pymatgen
data_Dy11Er5Cd2(Co2Hg)2
_symmetry_space_group_name_H-M   'P 1'
_cell_length_a   9.45164611
_cell_length_b   9.44806418
_cell_length_c   9.45366300
_cell_angle_alpha   60.00180934
_cell_angle_beta   60.06399763
_cell_angle_gamma   59.97950022
_symmetry_Int_Tables_number   1
_chemical_formula_structural   Dy11Er5Cd2(Co2Hg)2
_chemical_formula_sum   'Dy11 Er5 Cd2 Co4 Hg2'
_cell_volume   597.15017728
_cell_formula_units_Z   1
loop_
 _symmetry_equiv_pos_site_id
 _symmetry_equiv_pos_as_xyz
  1  'x, y, z'
loop_
 _atom_site_type_symbol
 _atom_site_label
 _atom_site_symmetry_multiplicity
 _atom_site_fract_x
 _atom_site_fract_y
 _atom_site_fract_z
 _atom_site_occupancy
  Dy  Dy0  1  0.151020  0.153962  0.541699  1
  Dy  Dy1  1  0.938415  0.938096  0.562058  1
  Dy  Dy2  1  0.312100  0.687300  0.312134  1
  Dy  Dy3  1  0.562009  0.938343  0.938802  1
  Dy  Dy4  1  0.561780  0.938583  0.561117  1
  Dy  Dy5  1  0.689851  0.687176  0.313012  1
  Dy  Dy6  1  0.562232  0.560584  0.938803  1
  Dy  Dy7  1  0.938448  0.561244  0.938562  1
  Dy  Dy8  1  0.313003  0.687274  0.689768  1
  Dy  Dy9  1  0.152990  0.155236  0.153401  1
  Dy  Dy10  1  0.313317  0.310254  0.688870  1
  Er  Er11  1  0.153511  0.537847  0.153766  1
  Er  Er12  1  0.689673  0.310587  0.689217  1
  Er  Er13  1  0.689449  0.310059  0.312937  1
  Er  Er14  1  0.938646  0.560778  0.562076  1
  Er  Er15  1  0.541394  0.154087  0.151370  1
  Cd  Cd16  1  0.919774  0.919205  0.241394  1
  Cd  Cd17  1  0.241059  0.919181  0.920176  1
  Co  Co18  1  0.358583  0.359938  0.922317  1
  Co  Co19  1  0.359010  0.923061  0.358308  1
  Co  Co20  1  0.921932  0.360260  0.358408  1
  Co  Co21  1  0.358486  0.360179  0.357998  1
  Hg  Hg22  1  0.916542  0.251384  0.916666  1
  Hg  Hg23  1  0.916773  0.915383  0.917139  1
