# generated using pymatgen
data_Tb3Y(SbRh)4
_symmetry_space_group_name_H-M   'P 1'
_cell_length_a   4.57292200
_cell_length_b   7.20563707
_cell_length_c   7.86264908
_cell_angle_alpha   89.98353048
_cell_angle_beta   90.00000000
_cell_angle_gamma   90.00000000
_symmetry_Int_Tables_number   1
_chemical_formula_structural   Tb3Y(SbRh)4
_chemical_formula_sum   'Tb3 Y1 Sb4 Rh4'
_cell_volume   259.08069482
_cell_formula_units_Z   1
loop_
 _symmetry_equiv_pos_site_id
 _symmetry_equiv_pos_as_xyz
  1  'x, y, z'
loop_
 _atom_site_type_symbol
 _atom_site_label
 _atom_site_symmetry_multiplicity
 _atom_site_fract_x
 _atom_site_fract_y
 _atom_site_fract_z
 _atom_site_occupancy
  Tb  Tb0  1  0.750000  0.491087  0.798572  1
  Tb  Tb1  1  0.250000  0.008884  0.298485  1
  Tb  Tb2  1  0.750000  0.991058  0.701529  1
  Y  Y3  1  0.250000  0.508552  0.201469  1
  Sb  Sb4  1  0.250000  0.193913  0.908067  1
  Sb  Sb5  1  0.750000  0.306377  0.407744  1
  Sb  Sb6  1  0.250000  0.693969  0.591949  1
  Sb  Sb7  1  0.750000  0.805864  0.092130  1
  Rh  Rh8  1  0.750000  0.195593  0.082141  1
  Rh  Rh9  1  0.250000  0.304531  0.581934  1
  Rh  Rh10  1  0.750000  0.695518  0.418037  1
  Rh  Rh11  1  0.250000  0.804654  0.917944  1
