# generated using pymatgen
data_CsK5AlGaSe6
_symmetry_space_group_name_H-M   'P 1'
_cell_length_a   13.84064684
_cell_length_b   8.25083629
_cell_length_c   10.52311159
_cell_angle_alpha   52.90219069
_cell_angle_beta   89.13433691
_cell_angle_gamma   89.85612279
_symmetry_Int_Tables_number   1
_chemical_formula_structural   CsK5AlGaSe6
_chemical_formula_sum   'Cs2 K10 Al2 Ga2 Se12'
_cell_volume   958.34754601
_cell_formula_units_Z   2
loop_
 _symmetry_equiv_pos_site_id
 _symmetry_equiv_pos_as_xyz
  1  'x, y, z'
loop_
 _atom_site_type_symbol
 _atom_site_label
 _atom_site_symmetry_multiplicity
 _atom_site_fract_x
 _atom_site_fract_y
 _atom_site_fract_z
 _atom_site_occupancy
  Cs  Cs0  1  0.312392  0.180500  0.056731  1
  Cs  Cs1  1  0.686343  0.820730  0.941877  1
  K  K2  1  0.817841  0.833184  0.444278  1
  K  K3  1  0.897705  0.315958  0.404669  1
  K  K4  1  0.617519  0.368986  0.470455  1
  K  K5  1  0.111719  0.643636  0.019353  1
  K  K6  1  0.383991  0.627582  0.531061  1
  K  K7  1  0.890562  0.359790  0.978561  1
  K  K8  1  0.615695  0.297891  0.909900  1
  K  K9  1  0.102095  0.686102  0.596015  1
  K  K10  1  0.383919  0.700796  0.088509  1
  K  K11  1  0.181149  0.164045  0.557486  1
  Al  Al12  1  0.431994  0.962474  0.650045  1
  Al  Al13  1  0.935979  0.054961  0.842679  1
  Ga  Ga14  1  0.064707  0.944719  0.158608  1
  Ga  Ga15  1  0.567794  0.037728  0.349002  1
  Se  Se16  1  0.418298  0.202989  0.358308  1
  Se  Se17  1  0.905133  0.824806  0.136193  1
  Se  Se18  1  0.579266  0.795682  0.645903  1
  Se  Se19  1  0.093308  0.177975  0.859668  1
  Se  Se20  1  0.702994  0.274508  0.225164  1
  Se  Se21  1  0.184375  0.678205  0.297919  1
  Se  Se22  1  0.298257  0.727581  0.774365  1
  Se  Se23  1  0.817195  0.318865  0.703187  1
  Se  Se24  1  0.543888  0.857889  0.238379  1
  Se  Se25  1  0.052272  0.136479  0.262193  1
  Se  Se26  1  0.455635  0.139560  0.760742  1
  Se  Se27  1  0.947974  0.866379  0.738750  1
