# generated using pymatgen
data_YPa2(GaCo4)3
_symmetry_space_group_name_H-M   'P 1'
_cell_length_a   8.42576500
_cell_length_b   8.42576565
_cell_length_c   4.08441400
_cell_angle_alpha   90.00000000
_cell_angle_beta   90.00000000
_cell_angle_gamma   120.00000137
_symmetry_Int_Tables_number   1
_chemical_formula_structural   YPa2(GaCo4)3
_chemical_formula_sum   'Y1 Pa2 Ga3 Co12'
_cell_volume   251.11872626
_cell_formula_units_Z   1
loop_
 _symmetry_equiv_pos_site_id
 _symmetry_equiv_pos_as_xyz
  1  'x, y, z'
loop_
 _atom_site_type_symbol
 _atom_site_label
 _atom_site_symmetry_multiplicity
 _atom_site_fract_x
 _atom_site_fract_y
 _atom_site_fract_z
 _atom_site_occupancy
  Y  Y0  1  0.333333  0.666667  0.000000  1
  Pa  Pa1  1  0.666667  0.333333  0.000000  1
  Pa  Pa2  1  0.000000  0.000000  0.000000  1
  Ga  Ga3  1  0.496452  0.992903  0.500000  1
  Ga  Ga4  1  0.007097  0.503548  0.500000  1
  Ga  Ga5  1  0.496452  0.503548  0.500000  1
  Co  Co6  1  0.328143  0.011524  0.000000  1
  Co  Co7  1  0.683380  0.011524  0.000000  1
  Co  Co8  1  0.988476  0.316620  0.000000  1
  Co  Co9  1  0.988476  0.671857  0.000000  1
  Co  Co10  1  0.683380  0.671857  0.000000  1
  Co  Co11  1  0.328143  0.316620  0.000000  1
  Co  Co12  1  0.160171  0.320343  0.500000  1
  Co  Co13  1  0.836640  0.673279  0.500000  1
  Co  Co14  1  0.679657  0.839829  0.500000  1
  Co  Co15  1  0.326721  0.163360  0.500000  1
  Co  Co16  1  0.160171  0.839829  0.500000  1
  Co  Co17  1  0.836640  0.163360  0.500000  1
