# generated using pymatgen
data_Zr6Al16Ni6Ru
_symmetry_space_group_name_H-M   'P 1'
_cell_length_a   8.55232550
_cell_length_b   8.55232609
_cell_length_c   8.55232700
_cell_angle_alpha   60.00000035
_cell_angle_beta   59.99999807
_cell_angle_gamma   59.99999876
_symmetry_Int_Tables_number   1
_chemical_formula_structural   Zr6Al16Ni6Ru
_chemical_formula_sum   'Zr6 Al16 Ni6 Ru1'
_cell_volume   442.32120919
_cell_formula_units_Z   1
loop_
 _symmetry_equiv_pos_site_id
 _symmetry_equiv_pos_as_xyz
  1  'x, y, z'
loop_
 _atom_site_type_symbol
 _atom_site_label
 _atom_site_symmetry_multiplicity
 _atom_site_fract_x
 _atom_site_fract_y
 _atom_site_fract_z
 _atom_site_occupancy
  Zr  Zr0  1  0.692461  0.692461  0.307539  1
  Zr  Zr1  1  0.307539  0.692461  0.307539  1
  Zr  Zr2  1  0.692461  0.307539  0.307539  1
  Zr  Zr3  1  0.307539  0.307539  0.692461  1
  Zr  Zr4  1  0.692461  0.307539  0.692461  1
  Zr  Zr5  1  0.307539  0.692461  0.692461  1
  Al  Al6  1  0.880213  0.880213  0.359360  1
  Al  Al7  1  0.880213  0.359360  0.880213  1
  Al  Al8  1  0.359360  0.880213  0.880213  1
  Al  Al9  1  0.880213  0.880213  0.880213  1
  Al  Al10  1  0.119787  0.119787  0.640640  1
  Al  Al11  1  0.119787  0.640640  0.119787  1
  Al  Al12  1  0.640640  0.119787  0.119787  1
  Al  Al13  1  0.119787  0.119787  0.119787  1
  Al  Al14  1  0.665895  0.665895  0.002317  1
  Al  Al15  1  0.665895  0.002317  0.665895  1
  Al  Al16  1  0.002317  0.665895  0.665895  1
  Al  Al17  1  0.665895  0.665895  0.665895  1
  Al  Al18  1  0.334105  0.334105  0.997683  1
  Al  Al19  1  0.334105  0.997683  0.334105  1
  Al  Al20  1  0.997683  0.334105  0.334105  1
  Al  Al21  1  0.334105  0.334105  0.334105  1
  Ni  Ni22  1  0.000000  0.000000  0.500000  1
  Ni  Ni23  1  0.500000  0.000000  0.500000  1
  Ni  Ni24  1  0.000000  0.500000  0.500000  1
  Ni  Ni25  1  0.500000  0.500000  0.000000  1
  Ni  Ni26  1  0.000000  0.500000  0.000000  1
  Ni  Ni27  1  0.500000  0.000000  0.000000  1
  Ru  Ru28  1  0.000000  0.000000  0.000000  1
