# generated using pymatgen
data_Ta9Nb7(Co2N)4
_symmetry_space_group_name_H-M   'P 1'
_cell_length_a   8.22578948
_cell_length_b   8.22579037
_cell_length_c   8.22169400
_cell_angle_alpha   60.01647203
_cell_angle_beta   60.01646846
_cell_angle_gamma   60.10404829
_symmetry_Int_Tables_number   1
_chemical_formula_structural   Ta9Nb7(Co2N)4
_chemical_formula_sum   'Ta9 Nb7 Co8 N4'
_cell_volume   393.77679761
_cell_formula_units_Z   1
loop_
 _symmetry_equiv_pos_site_id
 _symmetry_equiv_pos_as_xyz
  1  'x, y, z'
loop_
 _atom_site_type_symbol
 _atom_site_label
 _atom_site_symmetry_multiplicity
 _atom_site_fract_x
 _atom_site_fract_y
 _atom_site_fract_z
 _atom_site_occupancy
  Ta  Ta0  1  0.125823  0.625372  0.624402  1
  Ta  Ta1  1  0.625372  0.125823  0.624402  1
  Ta  Ta2  1  0.624617  0.624617  0.125546  1
  Ta  Ta3  1  0.624617  0.624617  0.625220  1
  Ta  Ta4  1  0.063807  0.063807  0.436193  1
  Ta  Ta5  1  0.436683  0.063581  0.436408  1
  Ta  Ta6  1  0.063581  0.436683  0.063328  1
  Ta  Ta7  1  0.063581  0.436683  0.436408  1
  Ta  Ta8  1  0.436683  0.063581  0.063328  1
  Nb  Nb9  1  0.812706  0.812706  0.187294  1
  Nb  Nb10  1  0.186130  0.186130  0.813870  1
  Nb  Nb11  1  0.813918  0.185853  0.814482  1
  Nb  Nb12  1  0.185853  0.813918  0.185747  1
  Nb  Nb13  1  0.185853  0.813918  0.814482  1
  Nb  Nb14  1  0.813918  0.185853  0.185747  1
  Nb  Nb15  1  0.436475  0.436475  0.063525  1
  Co  Co16  1  0.752807  0.415929  0.415633  1
  Co  Co17  1  0.415929  0.752807  0.415633  1
  Co  Co18  1  0.415557  0.415557  0.750840  1
  Co  Co19  1  0.415557  0.415557  0.418046  1
  Co  Co20  1  0.503691  0.833561  0.831374  1
  Co  Co21  1  0.833561  0.503691  0.831374  1
  Co  Co22  1  0.832251  0.832251  0.503198  1
  Co  Co23  1  0.832251  0.832251  0.832298  1
  N  N24  1  0.621404  0.124133  0.127231  1
  N  N25  1  0.124133  0.621404  0.127231  1
  N  N26  1  0.126620  0.126620  0.620009  1
  N  N27  1  0.126620  0.126620  0.126750  1
