# generated using pymatgen
data_TbNd4Mg(P2Ru3)6
_symmetry_space_group_name_H-M   'P 1'
_cell_length_a   4.01363200
_cell_length_b   12.71485926
_cell_length_c   12.56623309
_cell_angle_alpha   119.57006057
_cell_angle_beta   90.00000000
_cell_angle_gamma   90.00000000
_symmetry_Int_Tables_number   1
_chemical_formula_structural   TbNd4Mg(P2Ru3)6
_chemical_formula_sum   'Tb1 Nd4 Mg1 P12 Ru18'
_cell_volume   557.76352835
_cell_formula_units_Z   1
loop_
 _symmetry_equiv_pos_site_id
 _symmetry_equiv_pos_as_xyz
  1  'x, y, z'
loop_
 _atom_site_type_symbol
 _atom_site_label
 _atom_site_symmetry_multiplicity
 _atom_site_fract_x
 _atom_site_fract_y
 _atom_site_fract_z
 _atom_site_occupancy
  Tb  Tb0  1  0.000000  0.660124  0.328696  1
  Nd  Nd1  1  0.500000  0.000448  0.181337  1
  Nd  Nd2  1  0.500000  0.184211  0.000325  1
  Nd  Nd3  1  0.500000  0.816113  0.816061  1
  Nd  Nd4  1  0.000000  0.339416  0.668835  1
  Mg  Mg5  1  0.000000  0.999747  0.561606  1
  P  P6  1  0.000000  0.998827  0.807979  1
  P  P7  1  0.000000  0.814150  0.001021  1
  P  P8  1  0.000000  0.186155  0.186104  1
  P  P9  1  0.500000  0.308204  0.478934  1
  P  P10  1  0.500000  0.180835  0.701666  1
  P  P11  1  0.500000  0.526948  0.833023  1
  P  P12  1  0.500000  0.816975  0.517856  1
  P  P13  1  0.500000  0.475339  0.306139  1
  P  P14  1  0.500000  0.692234  0.173328  1
  P  P15  1  0.000000  0.000173  0.362304  1
  P  P16  1  0.000000  0.376362  0.000571  1
  P  P17  1  0.000000  0.623264  0.623989  1
  Ru  Ru18  1  0.000000  0.555733  0.000847  1
  Ru  Ru19  1  0.000000  0.444316  0.444910  1
  Ru  Ru20  1  0.500000  0.999010  0.712517  1
  Ru  Ru21  1  0.500000  0.716692  0.002838  1
  Ru  Ru22  1  0.500000  0.284442  0.285393  1
  Ru  Ru23  1  0.000000  0.196066  0.380106  1
  Ru  Ru24  1  0.000000  0.186038  0.805197  1
  Ru  Ru25  1  0.000000  0.625204  0.816987  1
  Ru  Ru26  1  0.000000  0.812323  0.616783  1
  Ru  Ru27  1  0.000000  0.376638  0.192031  1
  Ru  Ru28  1  0.000000  0.803521  0.185600  1
  Ru  Ru29  1  0.500000  0.123266  0.489882  1
  Ru  Ru30  1  0.500000  0.369691  0.880446  1
  Ru  Ru31  1  0.500000  0.509253  0.635646  1
  Ru  Ru32  1  0.500000  0.629796  0.508079  1
  Ru  Ru33  1  0.500000  0.493747  0.129043  1
  Ru  Ru34  1  0.500000  0.874631  0.366547  1
  Ru  Ru35  1  0.000000  0.000009  0.997373  1
