# generated using pymatgen
data_Ta6BeGa2P
_symmetry_space_group_name_H-M   'P 1'
_cell_length_a   6.76680651
_cell_length_b   6.76680725
_cell_length_c   3.43295600
_cell_angle_alpha   90.00000000
_cell_angle_beta   90.00000000
_cell_angle_gamma   89.66090521
_symmetry_Int_Tables_number   1
_chemical_formula_structural   Ta6BeGa2P
_chemical_formula_sum   'Ta6 Be1 Ga2 P1'
_cell_volume   157.19118764
_cell_formula_units_Z   1
loop_
 _symmetry_equiv_pos_site_id
 _symmetry_equiv_pos_as_xyz
  1  'x, y, z'
loop_
 _atom_site_type_symbol
 _atom_site_label
 _atom_site_symmetry_multiplicity
 _atom_site_fract_x
 _atom_site_fract_y
 _atom_site_fract_z
 _atom_site_occupancy
  Ta  Ta0  1  0.840329  0.666291  0.500000  1
  Ta  Ta1  1  0.306844  0.806844  0.500000  1
  Ta  Ta2  1  0.166291  0.340329  0.500000  1
  Ta  Ta3  1  0.688949  0.188949  0.500000  1
  Ta  Ta4  1  0.495828  0.499993  0.000000  1
  Ta  Ta5  1  0.999993  0.995828  0.000000  1
  Be  Be6  1  0.121456  0.621456  0.000000  1
  Ga  Ga7  1  0.623893  0.871331  0.000000  1
  Ga  Ga8  1  0.371331  0.123893  0.000000  1
  P  P9  1  0.885084  0.385084  0.000000  1
