# generated using pymatgen
data_Ag3GeTe4
_symmetry_space_group_name_H-M   'P 1'
_cell_length_a   7.85902215
_cell_length_b   7.85902214
_cell_length_c   7.85902163
_cell_angle_alpha   132.86284383
_cell_angle_beta   132.86284061
_cell_angle_gamma   68.86962856
_symmetry_Int_Tables_number   1
_chemical_formula_structural   Ag3GeTe4
_chemical_formula_sum   'Ag3 Ge1 Te4'
_cell_volume   256.02645851
_cell_formula_units_Z   1
loop_
 _symmetry_equiv_pos_site_id
 _symmetry_equiv_pos_as_xyz
  1  'x, y, z'
loop_
 _atom_site_type_symbol
 _atom_site_label
 _atom_site_symmetry_multiplicity
 _atom_site_fract_x
 _atom_site_fract_y
 _atom_site_fract_z
 _atom_site_occupancy
  Ag  Ag0  1  0.000000  0.000000  0.000000  1
  Ag  Ag1  1  0.250000  0.750000  0.500000  1
  Ag  Ag2  1  0.750000  0.250000  0.500000  1
  Ge  Ge3  1  0.500000  0.500000  0.000000  1
  Te  Te4  1  0.380231  0.862831  0.000000  1
  Te  Te5  1  0.862831  0.380231  0.000000  1
  Te  Te6  1  0.137169  0.137169  0.517401  1
  Te  Te7  1  0.619769  0.619769  0.482599  1
