# generated using pymatgen
data_SrPr6CoBr12
_symmetry_space_group_name_H-M   'P 1'
_cell_length_a   9.60081289
_cell_length_b   9.60081360
_cell_length_c   9.60081300
_cell_angle_alpha   106.39134417
_cell_angle_beta   106.39135014
_cell_angle_gamma   106.39133852
_symmetry_Int_Tables_number   1
_chemical_formula_structural   SrPr6CoBr12
_chemical_formula_sum   'Sr1 Pr6 Co1 Br12'
_cell_volume   748.90382373
_cell_formula_units_Z   1
loop_
 _symmetry_equiv_pos_site_id
 _symmetry_equiv_pos_as_xyz
  1  'x, y, z'
loop_
 _atom_site_type_symbol
 _atom_site_label
 _atom_site_symmetry_multiplicity
 _atom_site_fract_x
 _atom_site_fract_y
 _atom_site_fract_z
 _atom_site_occupancy
  Sr  Sr0  1  0.500000  0.500000  0.500000  1
  Pr  Pr1  1  0.984331  0.899238  0.693692  1
  Pr  Pr2  1  0.015669  0.100762  0.306308  1
  Pr  Pr3  1  0.100762  0.306308  0.015669  1
  Pr  Pr4  1  0.306308  0.015669  0.100762  1
  Pr  Pr5  1  0.899238  0.693692  0.984331  1
  Pr  Pr6  1  0.693692  0.984331  0.899238  1
  Co  Co7  1  0.000000  0.000000  0.000000  1
  Br  Br8  1  0.551870  0.636065  0.849575  1
  Br  Br9  1  0.448130  0.363935  0.150425  1
  Br  Br10  1  0.322710  0.928816  0.780683  1
  Br  Br11  1  0.363935  0.150425  0.448130  1
  Br  Br12  1  0.928816  0.780683  0.322710  1
  Br  Br13  1  0.677290  0.071184  0.219317  1
  Br  Br14  1  0.071184  0.219317  0.677290  1
  Br  Br15  1  0.780683  0.322710  0.928816  1
  Br  Br16  1  0.219317  0.677290  0.071184  1
  Br  Br17  1  0.849575  0.551870  0.636065  1
  Br  Br18  1  0.150425  0.448130  0.363935  1
  Br  Br19  1  0.636065  0.849575  0.551870  1
