# generated using pymatgen
data_Ca4HfIr7
_symmetry_space_group_name_H-M   'P 1'
_cell_length_a   5.54637900
_cell_length_b   5.54638002
_cell_length_c   8.48824200
_cell_angle_alpha   90.00000000
_cell_angle_beta   90.00000000
_cell_angle_gamma   119.99999989
_symmetry_Int_Tables_number   1
_chemical_formula_structural   Ca4HfIr7
_chemical_formula_sum   'Ca4 Hf1 Ir7'
_cell_volume   226.13487764
_cell_formula_units_Z   1
loop_
 _symmetry_equiv_pos_site_id
 _symmetry_equiv_pos_as_xyz
  1  'x, y, z'
loop_
 _atom_site_type_symbol
 _atom_site_label
 _atom_site_symmetry_multiplicity
 _atom_site_fract_x
 _atom_site_fract_y
 _atom_site_fract_z
 _atom_site_occupancy
  Ca  Ca0  1  0.333334  0.666667  0.076775  1
  Ca  Ca1  1  0.333334  0.666667  0.435509  1
  Ca  Ca2  1  0.666666  0.333334  0.564492  1
  Ca  Ca3  1  0.666666  0.333334  0.923226  1
  Hf  Hf4  1  0.000000  0.000000  0.000000  1
  Ir  Ir5  1  0.347215  0.173607  0.252068  1
  Ir  Ir6  1  0.826393  0.173607  0.252068  1
  Ir  Ir7  1  0.826393  0.652784  0.252068  1
  Ir  Ir8  1  0.000000  0.000000  0.500000  1
  Ir  Ir9  1  0.173606  0.347214  0.747932  1
  Ir  Ir10  1  0.173607  0.826393  0.747932  1
  Ir  Ir11  1  0.652784  0.826393  0.747932  1
