# generated using pymatgen
data_La2BeB3Ir5
_symmetry_space_group_name_H-M   'P 1'
_cell_length_a   7.72429827
_cell_length_b   6.46370276
_cell_length_c   5.75166708
_cell_angle_alpha   77.16620651
_cell_angle_beta   54.99859768
_cell_angle_gamma   46.79447635
_symmetry_Int_Tables_number   1
_chemical_formula_structural   La2BeB3Ir5
_chemical_formula_sum   'La2 Be1 B3 Ir5'
_cell_volume   164.31371509
_cell_formula_units_Z   1
loop_
 _symmetry_equiv_pos_site_id
 _symmetry_equiv_pos_as_xyz
  1  'x, y, z'
loop_
 _atom_site_type_symbol
 _atom_site_label
 _atom_site_symmetry_multiplicity
 _atom_site_fract_x
 _atom_site_fract_y
 _atom_site_fract_z
 _atom_site_occupancy
  La  La0  1  0.864700  0.862729  0.137271  1
  La  La1  1  0.142502  0.142398  0.857602  1
  Be  Be2  1  0.784814  0.479346  0.520654  1
  B  B3  1  0.204094  0.534467  0.465533  1
  B  B4  1  0.538017  0.207723  0.792277  1
  B  B5  1  0.467320  0.788738  0.211262  1
  Ir  Ir6  1  0.751073  0.752529  0.756605  1
  Ir  Ir7  1  0.497941  0.499641  0.004448  1
  Ir  Ir8  1  0.487301  0.493482  0.506518  1
  Ir  Ir9  1  0.002030  0.995552  0.500359  1
  Ir  Ir10  1  0.260207  0.243395  0.247471  1
