# generated using pymatgen
data_Pr12Os2PdAu
_symmetry_space_group_name_H-M   'P 1'
_cell_length_a   6.62466034
_cell_length_b   7.54825439
_cell_length_c   9.97846000
_cell_angle_alpha   90.00000000
_cell_angle_beta   90.00000000
_cell_angle_gamma   90.38320726
_symmetry_Int_Tables_number   1
_chemical_formula_structural   Pr12Os2PdAu
_chemical_formula_sum   'Pr12 Os2 Pd1 Au1'
_cell_volume   498.95795549
_cell_formula_units_Z   1
loop_
 _symmetry_equiv_pos_site_id
 _symmetry_equiv_pos_as_xyz
  1  'x, y, z'
loop_
 _atom_site_type_symbol
 _atom_site_label
 _atom_site_symmetry_multiplicity
 _atom_site_fract_x
 _atom_site_fract_y
 _atom_site_fract_z
 _atom_site_occupancy
  Pr  Pr0  1  0.339298  0.670170  0.061252  1
  Pr  Pr1  1  0.172206  0.188570  0.438530  1
  Pr  Pr2  1  0.665137  0.326728  0.563769  1
  Pr  Pr3  1  0.829438  0.817149  0.933593  1
  Pr  Pr4  1  0.665137  0.326728  0.936231  1
  Pr  Pr5  1  0.829438  0.817149  0.566407  1
  Pr  Pr6  1  0.339298  0.670170  0.438748  1
  Pr  Pr7  1  0.172206  0.188570  0.061470  1
  Pr  Pr8  1  0.853126  0.518257  0.250000  1
  Pr  Pr9  1  0.623357  0.043100  0.250000  1
  Pr  Pr10  1  0.144330  0.475874  0.750000  1
  Pr  Pr11  1  0.367946  0.955209  0.750000  1
  Os  Os12  1  0.432160  0.381972  0.250000  1
  Os  Os13  1  0.566606  0.617718  0.750000  1
  Pd  Pd14  1  0.937696  0.117910  0.750000  1
  Au  Au15  1  0.062624  0.884726  0.250000  1
