# generated using pymatgen
data_Tm14Sc6Bi11Pt
_symmetry_space_group_name_H-M   'P 1'
_cell_length_a   7.95486833
_cell_length_b   9.25456930
_cell_length_c   11.78853200
_cell_angle_alpha   89.93982973
_cell_angle_beta   89.66608566
_cell_angle_gamma   89.94606265
_symmetry_Int_Tables_number   1
_chemical_formula_structural   Tm14Sc6Bi11Pt
_chemical_formula_sum   'Tm14 Sc6 Bi11 Pt1'
_cell_volume   867.84292911
_cell_formula_units_Z   1
loop_
 _symmetry_equiv_pos_site_id
 _symmetry_equiv_pos_as_xyz
  1  'x, y, z'
loop_
 _atom_site_type_symbol
 _atom_site_label
 _atom_site_symmetry_multiplicity
 _atom_site_fract_x
 _atom_site_fract_y
 _atom_site_fract_z
 _atom_site_occupancy
  Tm  Tm0  1  0.353688  0.248900  0.299150  1
  Tm  Tm1  1  0.656286  0.751808  0.717741  1
  Tm  Tm2  1  0.145861  0.750191  0.782158  1
  Tm  Tm3  1  0.849389  0.249876  0.213522  1
  Tm  Tm4  1  0.199418  0.249602  0.774923  1
  Tm  Tm5  1  0.810852  0.750686  0.217523  1
  Tm  Tm6  1  0.315487  0.751070  0.278983  1
  Tm  Tm7  1  0.656840  0.249240  0.707782  1
  Tm  Tm8  1  0.309620  0.960573  0.559493  1
  Tm  Tm9  1  0.806572  0.564967  0.942366  1
  Tm  Tm10  1  0.684853  0.072415  0.446413  1
  Tm  Tm11  1  0.192674  0.433834  0.061453  1
  Tm  Tm12  1  0.684460  0.427098  0.446490  1
  Tm  Tm13  1  0.309680  0.539701  0.559215  1
  Sc  Sc14  1  0.046044  0.249936  0.507526  1
  Sc  Sc15  1  0.983132  0.750262  0.491184  1
  Sc  Sc16  1  0.479072  0.752380  0.011954  1
  Sc  Sc17  1  0.523758  0.247385  0.990038  1
  Sc  Sc18  1  0.194433  0.068228  0.062256  1
  Sc  Sc19  1  0.804216  0.931528  0.942212  1
  Bi  Bi20  1  0.598028  0.749794  0.457946  1
  Bi  Bi21  1  0.099615  0.758477  0.041724  1
  Bi  Bi22  1  0.904957  0.240893  0.952215  1
  Bi  Bi23  1  0.058864  0.001706  0.325887  1
  Bi  Bi24  1  0.933874  0.000393  0.672089  1
  Bi  Bi25  1  0.436723  0.993246  0.833942  1
  Bi  Bi26  1  0.933972  0.499613  0.671285  1
  Bi  Bi27  1  0.561746  0.005419  0.169167  1
  Bi  Bi28  1  0.058538  0.499067  0.327154  1
  Bi  Bi29  1  0.563354  0.494652  0.170405  1
  Bi  Bi30  1  0.435726  0.506965  0.832623  1
  Pt  Pt31  1  0.408269  0.250092  0.533182  1
