# generated using pymatgen
data_Ca3Tc4(NiP3)2
_symmetry_space_group_name_H-M   'P 1'
_cell_length_a   7.99951964
_cell_length_b   7.99951881
_cell_length_c   7.99951900
_cell_angle_alpha   150.84274254
_cell_angle_beta   102.62952606
_cell_angle_gamma   84.72524691
_symmetry_Int_Tables_number   1
_chemical_formula_structural   Ca3Tc4(NiP3)2
_chemical_formula_sum   'Ca3 Tc4 Ni2 P6'
_cell_volume   238.03508452
_cell_formula_units_Z   1
loop_
 _symmetry_equiv_pos_site_id
 _symmetry_equiv_pos_as_xyz
  1  'x, y, z'
loop_
 _atom_site_type_symbol
 _atom_site_label
 _atom_site_symmetry_multiplicity
 _atom_site_fract_x
 _atom_site_fract_y
 _atom_site_fract_z
 _atom_site_occupancy
  Ca  Ca0  1  0.338570  0.338570  0.000000  1
  Ca  Ca1  1  0.666393  0.666393  0.000000  1
  Ca  Ca2  1  0.995108  0.995108  0.000000  1
  Tc  Tc3  1  0.574058  0.828062  0.745995  1
  Tc  Tc4  1  0.250608  0.505175  0.745435  1
  Tc  Tc5  1  0.759740  0.505175  0.254565  1
  Tc  Tc6  1  0.082069  0.828062  0.254005  1
  Ni  Ni7  1  0.406494  0.166725  0.239771  1
  Ni  Ni8  1  0.926953  0.166725  0.760229  1
  P  P9  1  0.284049  0.666796  0.617253  1
  P  P10  1  0.694815  0.330522  0.364293  1
  P  P11  1  0.966229  0.330522  0.635707  1
  P  P12  1  0.366302  0.002685  0.363616  1
  P  P13  1  0.049543  0.666796  0.382747  1
  P  P14  1  0.639069  0.002685  0.636384  1
