# generated using pymatgen
data_La5OsRh2
_symmetry_space_group_name_H-M   'P 1'
_cell_length_a   11.45026000
_cell_length_b   11.45026000
_cell_length_c   6.63494600
_cell_angle_alpha   90.00000000
_cell_angle_beta   90.00000000
_cell_angle_gamma   90.00000000
_symmetry_Int_Tables_number   1
_chemical_formula_structural   La5OsRh2
_chemical_formula_sum   'La20 Os4 Rh8'
_cell_volume   869.89751288
_cell_formula_units_Z   4
loop_
 _symmetry_equiv_pos_site_id
 _symmetry_equiv_pos_as_xyz
  1  'x, y, z'
loop_
 _atom_site_type_symbol
 _atom_site_label
 _atom_site_symmetry_multiplicity
 _atom_site_fract_x
 _atom_site_fract_y
 _atom_site_fract_z
 _atom_site_occupancy
  La  La0  1  0.295683  0.089423  0.386062  1
  La  La1  1  0.295683  0.910577  0.886062  1
  La  La2  1  0.704317  0.089423  0.886062  1
  La  La3  1  0.704317  0.910577  0.386062  1
  La  La4  1  0.589423  0.795683  0.886062  1
  La  La5  1  0.589423  0.204317  0.386062  1
  La  La6  1  0.410577  0.795683  0.386062  1
  La  La7  1  0.410577  0.204317  0.886062  1
  La  La8  1  0.204317  0.410577  0.613938  1
  La  La9  1  0.204317  0.589423  0.113938  1
  La  La10  1  0.795683  0.410577  0.113938  1
  La  La11  1  0.795683  0.589423  0.613938  1
  La  La12  1  0.910577  0.704317  0.113938  1
  La  La13  1  0.910577  0.295683  0.613938  1
  La  La14  1  0.089423  0.704317  0.613938  1
  La  La15  1  0.089423  0.295683  0.113938  1
  La  La16  1  0.000000  0.000000  0.500000  1
  La  La17  1  0.000000  0.000000  0.000000  1
  La  La18  1  0.500000  0.500000  0.000000  1
  La  La19  1  0.500000  0.500000  0.500000  1
  Os  Os20  1  0.500000  0.000000  0.123689  1
  Os  Os21  1  0.500000  0.000000  0.623689  1
  Os  Os22  1  0.000000  0.500000  0.876311  1
  Os  Os23  1  0.000000  0.500000  0.376311  1
  Rh  Rh24  1  0.848632  0.151368  0.250000  1
  Rh  Rh25  1  0.848632  0.848632  0.750000  1
  Rh  Rh26  1  0.151368  0.151368  0.750000  1
  Rh  Rh27  1  0.151368  0.848632  0.250000  1
  Rh  Rh28  1  0.651368  0.348632  0.750000  1
  Rh  Rh29  1  0.651368  0.651368  0.250000  1
  Rh  Rh30  1  0.348632  0.348632  0.250000  1
  Rh  Rh31  1  0.348632  0.651368  0.750000  1
