# generated using pymatgen
data_Cs2Yb(NbBr3)6
_symmetry_space_group_name_H-M   'P 1'
_cell_length_a   10.87681091
_cell_length_b   10.87681100
_cell_length_c   10.87681100
_cell_angle_alpha   55.06338136
_cell_angle_beta   55.06338310
_cell_angle_gamma   55.06338329
_symmetry_Int_Tables_number   1
_chemical_formula_structural   Cs2Yb(NbBr3)6
_chemical_formula_sum   'Cs2 Yb1 Nb6 Br18'
_cell_volume   805.40860091
_cell_formula_units_Z   1
loop_
 _symmetry_equiv_pos_site_id
 _symmetry_equiv_pos_as_xyz
  1  'x, y, z'
loop_
 _atom_site_type_symbol
 _atom_site_label
 _atom_site_symmetry_multiplicity
 _atom_site_fract_x
 _atom_site_fract_y
 _atom_site_fract_z
 _atom_site_occupancy
  Cs  Cs0  1  0.722759  0.722759  0.722759  1
  Cs  Cs1  1  0.277241  0.277241  0.277241  1
  Yb  Yb2  1  0.000000  0.000000  0.000000  1
  Nb  Nb3  1  0.580387  0.357569  0.693826  1
  Nb  Nb4  1  0.357569  0.693826  0.580387  1
  Nb  Nb5  1  0.693826  0.580387  0.357569  1
  Nb  Nb6  1  0.642431  0.306174  0.419613  1
  Nb  Nb7  1  0.419613  0.642431  0.306174  1
  Nb  Nb8  1  0.306174  0.419613  0.642431  1
  Br  Br9  1  0.910271  0.361680  0.227089  1
  Br  Br10  1  0.836044  0.423284  0.563404  1
  Br  Br11  1  0.772911  0.089729  0.638320  1
  Br  Br12  1  0.089729  0.638320  0.772911  1
  Br  Br13  1  0.689114  0.165974  0.962238  1
  Br  Br14  1  0.227089  0.910271  0.361680  1
  Br  Br15  1  0.436596  0.163956  0.576716  1
  Br  Br16  1  0.638320  0.772911  0.089729  1
  Br  Br17  1  0.576716  0.436596  0.163956  1
  Br  Br18  1  0.037762  0.310886  0.834026  1
  Br  Br19  1  0.563404  0.836044  0.423284  1
  Br  Br20  1  0.361680  0.227089  0.910271  1
  Br  Br21  1  0.962238  0.689114  0.165974  1
  Br  Br22  1  0.163956  0.576716  0.436596  1
  Br  Br23  1  0.834026  0.037762  0.310886  1
  Br  Br24  1  0.423284  0.563404  0.836044  1
  Br  Br25  1  0.165974  0.962238  0.689114  1
  Br  Br26  1  0.310886  0.834026  0.037762  1
