# generated using pymatgen
data_Ho12InGaNi3Ru
_symmetry_space_group_name_H-M   'P 1'
_cell_length_a   8.34179041
_cell_length_b   8.34273669
_cell_length_c   8.34179094
_cell_angle_alpha   112.96149501
_cell_angle_beta   109.79253344
_cell_angle_gamma   105.73551886
_symmetry_Int_Tables_number   1
_chemical_formula_structural   Ho12InGaNi3Ru
_chemical_formula_sum   'Ho12 In1 Ga1 Ni3 Ru1'
_cell_volume   445.14253095
_cell_formula_units_Z   1
loop_
 _symmetry_equiv_pos_site_id
 _symmetry_equiv_pos_as_xyz
  1  'x, y, z'
loop_
 _atom_site_type_symbol
 _atom_site_label
 _atom_site_symmetry_multiplicity
 _atom_site_fract_x
 _atom_site_fract_y
 _atom_site_fract_z
 _atom_site_occupancy
  Ho  Ho0  1  0.437634  0.241577  0.196119  1
  Ho  Ho1  1  0.575955  0.771443  0.804456  1
  Ho  Ho2  1  0.033013  0.228557  0.804512  1
  Ho  Ho3  1  0.954542  0.758423  0.196057  1
  Ho  Ho4  1  0.184264  0.280297  0.464644  1
  Ho  Ho5  1  0.824235  0.719936  0.544061  1
  Ho  Ho6  1  0.184348  0.719703  0.903968  1
  Ho  Ho7  1  0.824125  0.280064  0.104299  1
  Ho  Ho8  1  0.324456  0.636866  0.309663  1
  Ho  Ho9  1  0.672797  0.363134  0.687589  1
  Ho  Ho10  1  0.324318  0.014411  0.687335  1
  Ho  Ho11  1  0.672924  0.985589  0.309907  1
  In  In12  1  0.497162  0.500000  0.997162  1
  Ga  Ga13  1  0.012650  0.000000  0.012650  1
  Ni  Ni14  1  0.649912  0.000000  0.649912  1
  Ni  Ni15  1  0.115813  0.617219  0.497659  1
  Ni  Ni16  1  0.880441  0.382781  0.498594  1
  Ru  Ru17  1  0.331413  0.000000  0.331413  1
