# generated using pymatgen
data_Li3Zn3(SnPt)4
_symmetry_space_group_name_H-M   'P 1'
_cell_length_a   4.38955400
_cell_length_b   4.38955413
_cell_length_c   15.60127500
_cell_angle_alpha   90.00000000
_cell_angle_beta   90.00000000
_cell_angle_gamma   119.99998397
_symmetry_Int_Tables_number   1
_chemical_formula_structural   Li3Zn3(SnPt)4
_chemical_formula_sum   'Li3 Zn3 Sn4 Pt4'
_cell_volume   260.33442406
_cell_formula_units_Z   1
loop_
 _symmetry_equiv_pos_site_id
 _symmetry_equiv_pos_as_xyz
  1  'x, y, z'
loop_
 _atom_site_type_symbol
 _atom_site_label
 _atom_site_symmetry_multiplicity
 _atom_site_fract_x
 _atom_site_fract_y
 _atom_site_fract_z
 _atom_site_occupancy
  Li  Li0  1  0.000000  0.000000  0.166346  1
  Li  Li1  1  0.000000  0.000000  0.833334  1
  Li  Li2  1  0.000000  0.000000  0.667387  1
  Zn  Zn3  1  0.000000  0.000000  0.326976  1
  Zn  Zn4  1  0.333333  0.666667  0.750513  1
  Zn  Zn5  1  0.666667  0.333333  0.248146  1
  Sn  Sn6  1  0.333333  0.666667  0.070290  1
  Sn  Sn7  1  0.666667  0.333333  0.930097  1
  Sn  Sn8  1  0.666667  0.333333  0.572549  1
  Sn  Sn9  1  0.333333  0.666667  0.431740  1
  Pt  Pt10  1  0.000000  0.000000  0.999940  1
  Pt  Pt11  1  0.000000  0.000000  0.498446  1
  Pt  Pt12  1  0.333333  0.666667  0.253562  1
  Pt  Pt13  1  0.666667  0.333333  0.750674  1
