# generated using pymatgen
data_UPa3Tc7Ge5As
_symmetry_space_group_name_H-M   'P 1'
_cell_length_a   7.31397834
_cell_length_b   7.26950344
_cell_length_c   7.27049935
_cell_angle_alpha   109.34633222
_cell_angle_beta   109.59452193
_cell_angle_gamma   109.59095670
_symmetry_Int_Tables_number   1
_chemical_formula_structural   UPa3Tc7Ge5As
_chemical_formula_sum   'U1 Pa3 Tc7 Ge5 As1'
_cell_volume   297.14189430
_cell_formula_units_Z   1
loop_
 _symmetry_equiv_pos_site_id
 _symmetry_equiv_pos_as_xyz
  1  'x, y, z'
loop_
 _atom_site_type_symbol
 _atom_site_label
 _atom_site_symmetry_multiplicity
 _atom_site_fract_x
 _atom_site_fract_y
 _atom_site_fract_z
 _atom_site_occupancy
  U  U0  1  0.498481  0.998297  0.000000  1
  Pa  Pa1  1  0.498614  0.498712  0.499744  1
  Pa  Pa2  1  0.998870  0.998968  0.500256  1
  Pa  Pa3  1  0.998636  0.498616  0.000000  1
  Tc  Tc4  1  0.747308  0.247208  0.495304  1
  Tc  Tc5  1  0.500121  0.248188  0.752362  1
  Tc  Tc6  1  0.500251  0.752310  0.247416  1
  Tc  Tc7  1  0.252835  0.504895  0.752584  1
  Tc  Tc8  1  0.747759  0.495825  0.247638  1
  Tc  Tc9  1  0.252003  0.751903  0.504696  1
  Tc  Tc10  1  0.003941  0.003914  0.000000  1
  Ge  Ge11  1  0.997776  0.308914  0.309576  1
  Ge  Ge12  1  0.000464  0.689353  0.690257  1
  Ge  Ge13  1  0.688200  0.999338  0.690424  1
  Ge  Ge14  1  0.310207  0.999096  0.309743  1
  Ge  Ge15  1  0.692406  0.693639  0.000000  1
  As  As16  1  0.312127  0.310824  0.000000  1
