# generated using pymatgen
data_Nb3Mo3W10
_symmetry_space_group_name_H-M   'P 1'
_cell_length_a   6.41109821
_cell_length_b   6.41109821
_cell_length_c   6.41214822
_cell_angle_alpha   89.97862642
_cell_angle_beta   89.97862642
_cell_angle_gamma   90.02032067
_symmetry_Int_Tables_number   1
_chemical_formula_structural   Nb3Mo3W10
_chemical_formula_sum   'Nb3 Mo3 W10'
_cell_volume   263.55321904
_cell_formula_units_Z   1
loop_
 _symmetry_equiv_pos_site_id
 _symmetry_equiv_pos_as_xyz
  1  'x, y, z'
loop_
 _atom_site_type_symbol
 _atom_site_label
 _atom_site_symmetry_multiplicity
 _atom_site_fract_x
 _atom_site_fract_y
 _atom_site_fract_z
 _atom_site_occupancy
  Nb  Nb0  1  0.500634  0.999417  0.998255  1
  Nb  Nb1  1  0.999417  0.500634  0.998255  1
  Nb  Nb2  1  0.999428  0.999428  0.501902  1
  Mo  Mo3  1  0.749192  0.250814  0.749130  1
  Mo  Mo4  1  0.250814  0.749192  0.749130  1
  Mo  Mo5  1  0.749116  0.749116  0.749128  1
  W  W6  1  0.999933  0.999933  0.999797  1
  W  W7  1  0.500065  0.500065  0.000008  1
  W  W8  1  0.251183  0.251183  0.251159  1
  W  W9  1  0.748728  0.251235  0.251179  1
  W  W10  1  0.251235  0.748728  0.251179  1
  W  W11  1  0.748864  0.748864  0.251030  1
  W  W12  1  0.500039  0.000012  0.500196  1
  W  W13  1  0.000012  0.500039  0.500196  1
  W  W14  1  0.500224  0.500224  0.500672  1
  W  W15  1  0.251110  0.251110  0.748781  1
