# generated using pymatgen
data_Ta12Ni8Ge4CN3
_symmetry_space_group_name_H-M   'P 1'
_cell_length_a   8.09099528
_cell_length_b   8.06230887
_cell_length_c   8.06217206
_cell_angle_alpha   60.00059839
_cell_angle_beta   60.11758299
_cell_angle_gamma   60.11785429
_symmetry_Int_Tables_number   1
_chemical_formula_structural   Ta12Ni8Ge4CN3
_chemical_formula_sum   'Ta12 Ni8 Ge4 C1 N3'
_cell_volume   372.53825514
_cell_formula_units_Z   1
loop_
 _symmetry_equiv_pos_site_id
 _symmetry_equiv_pos_as_xyz
  1  'x, y, z'
loop_
 _atom_site_type_symbol
 _atom_site_label
 _atom_site_symmetry_multiplicity
 _atom_site_fract_x
 _atom_site_fract_y
 _atom_site_fract_z
 _atom_site_occupancy
  Ta  Ta0  1  0.439632  0.060504  0.060520  1
  Ta  Ta1  1  0.063563  0.437375  0.437367  1
  Ta  Ta2  1  0.063602  0.437341  0.061722  1
  Ta  Ta3  1  0.063602  0.061714  0.437339  1
  Ta  Ta4  1  0.439667  0.060474  0.439359  1
  Ta  Ta5  1  0.439656  0.439353  0.060487  1
  Ta  Ta6  1  0.186398  0.812659  0.188278  1
  Ta  Ta7  1  0.810333  0.189526  0.810641  1
  Ta  Ta8  1  0.810368  0.189496  0.189480  1
  Ta  Ta9  1  0.186398  0.188286  0.812661  1
  Ta  Ta10  1  0.186437  0.812625  0.812633  1
  Ta  Ta11  1  0.810344  0.810647  0.189513  1
  Ni  Ni12  1  0.834827  0.832762  0.832810  1
  Ni  Ni13  1  0.834840  0.832747  0.499665  1
  Ni  Ni14  1  0.500173  0.833260  0.833297  1
  Ni  Ni15  1  0.834825  0.499734  0.832740  1
  Ni  Ni16  1  0.415173  0.417238  0.417190  1
  Ni  Ni17  1  0.415160  0.417253  0.750335  1
  Ni  Ni18  1  0.415175  0.750266  0.417260  1
  Ni  Ni19  1  0.749827  0.416740  0.416703  1
  Ge  Ge20  1  0.625000  0.625000  0.625000  1
  Ge  Ge21  1  0.625000  0.625000  0.125000  1
  Ge  Ge22  1  0.125000  0.625000  0.625000  1
  Ge  Ge23  1  0.625000  0.125000  0.625000  1
  C  C24  1  0.625000  0.125000  0.125000  1
  N  N25  1  0.125000  0.125000  0.125000  1
  N  N26  1  0.125000  0.125000  0.625000  1
  N  N27  1  0.125000  0.625000  0.125000  1
