# generated using pymatgen
data_Ho4Al11Si7(IrOs2)2
_symmetry_space_group_name_H-M   'P 1'
_cell_length_a   7.48676567
_cell_length_b   7.43859736
_cell_length_c   9.29153997
_cell_angle_alpha   90.12276099
_cell_angle_beta   90.09135726
_cell_angle_gamma   119.93885101
_symmetry_Int_Tables_number   1
_chemical_formula_structural   Ho4Al11Si7(IrOs2)2
_chemical_formula_sum   'Ho4 Al11 Si7 Ir2 Os4'
_cell_volume   448.40231620
_cell_formula_units_Z   1
loop_
 _symmetry_equiv_pos_site_id
 _symmetry_equiv_pos_as_xyz
  1  'x, y, z'
loop_
 _atom_site_type_symbol
 _atom_site_label
 _atom_site_symmetry_multiplicity
 _atom_site_fract_x
 _atom_site_fract_y
 _atom_site_fract_z
 _atom_site_occupancy
  Ho  Ho0  1  0.998469  0.668611  0.252391  1
  Ho  Ho1  1  0.006956  0.335378  0.749657  1
  Ho  Ho2  1  0.677939  0.004551  0.250763  1
  Ho  Ho3  1  0.315341  0.993919  0.747576  1
  Al  Al4  1  0.664756  0.994955  0.578687  1
  Al  Al5  1  0.660031  0.995486  0.923804  1
  Al  Al6  1  0.340666  0.005065  0.072454  1
  Al  Al7  1  0.338539  0.336706  0.561762  1
  Al  Al8  1  0.663622  0.667531  0.436316  1
  Al  Al9  1  0.661912  0.666106  0.059098  1
  Al  Al10  1  0.339436  0.334779  0.941445  1
  Al  Al11  1  0.332232  0.544907  0.248792  1
  Al  Al12  1  0.666484  0.451961  0.752093  1
  Al  Al13  1  0.547235  0.339611  0.248965  1
  Al  Al14  1  0.451598  0.660899  0.750800  1
  Si  Si15  1  0.130778  0.126456  0.249350  1
  Si  Si16  1  0.867870  0.876643  0.750167  1
  Si  Si17  1  0.002788  0.330628  0.065589  1
  Si  Si18  1  0.997216  0.668053  0.934710  1
  Si  Si19  1  0.990685  0.665125  0.573934  1
  Si  Si20  1  0.339658  0.006541  0.424001  1
  Si  Si21  1  0.003098  0.327675  0.428445  1
  Ir  Ir22  1  0.312062  0.671236  0.499775  1
  Ir  Ir23  1  0.681065  0.329309  0.498496  1
  Os  Os24  1  0.689428  0.336296  0.002929  1
  Os  Os25  1  0.310887  0.663302  0.999018  1
  Os  Os26  1  0.000997  0.999524  0.000418  1
  Os  Os27  1  0.008252  0.998748  0.498568  1
