# generated using pymatgen
data_Ho13Th7Sn16
_symmetry_space_group_name_H-M   'P 1'
_cell_length_a   8.10989117
_cell_length_b   8.20844755
_cell_length_c   15.51748852
_cell_angle_alpha   90.06336069
_cell_angle_beta   90.21941611
_cell_angle_gamma   89.82748602
_symmetry_Int_Tables_number   1
_chemical_formula_structural   Ho13Th7Sn16
_chemical_formula_sum   'Ho13 Th7 Sn16'
_cell_volume   1032.98038277
_cell_formula_units_Z   1
loop_
 _symmetry_equiv_pos_site_id
 _symmetry_equiv_pos_as_xyz
  1  'x, y, z'
loop_
 _atom_site_type_symbol
 _atom_site_label
 _atom_site_symmetry_multiplicity
 _atom_site_fract_x
 _atom_site_fract_y
 _atom_site_fract_z
 _atom_site_occupancy
  Ho  Ho0  1  0.364866  0.835476  0.876347  1
  Ho  Ho1  1  0.863402  0.662786  0.623792  1
  Ho  Ho2  1  0.635662  0.163918  0.376717  1
  Ho  Ho3  1  0.133043  0.336293  0.122799  1
  Ho  Ho4  1  0.634246  0.164152  0.122831  1
  Ho  Ho5  1  0.136219  0.336508  0.376690  1
  Ho  Ho6  1  0.364112  0.837252  0.624429  1
  Ho  Ho7  1  0.866092  0.663166  0.876717  1
  Ho  Ho8  1  0.525047  0.322958  0.900318  1
  Ho  Ho9  1  0.193308  0.498854  0.750452  1
  Ho  Ho10  1  0.694032  0.001074  0.750378  1
  Ho  Ho11  1  0.806616  0.501393  0.249985  1
  Ho  Ho12  1  0.306403  0.998346  0.250082  1
  Th  Th13  1  0.020856  0.180386  0.597685  1
  Th  Th14  1  0.479867  0.680372  0.403055  1
  Th  Th15  1  0.978195  0.820249  0.096617  1
  Th  Th16  1  0.479436  0.680083  0.097305  1
  Th  Th17  1  0.980318  0.819947  0.403652  1
  Th  Th18  1  0.519079  0.319303  0.595921  1
  Th  Th19  1  0.019610  0.179058  0.903330  1
  Sn  Sn20  1  0.295027  0.036598  0.042634  1
  Sn  Sn21  1  0.796412  0.461064  0.458053  1
  Sn  Sn22  1  0.703702  0.961363  0.542187  1
  Sn  Sn23  1  0.209301  0.534561  0.957110  1
  Sn  Sn24  1  0.702230  0.962751  0.957328  1
  Sn  Sn25  1  0.202953  0.540222  0.541871  1
  Sn  Sn26  1  0.296352  0.038837  0.458443  1
  Sn  Sn27  1  0.792739  0.459926  0.040904  1
  Sn  Sn28  1  0.560672  0.621253  0.749659  1
  Sn  Sn29  1  0.060533  0.878500  0.750228  1
  Sn  Sn30  1  0.438915  0.377512  0.249721  1
  Sn  Sn31  1  0.939046  0.122261  0.249862  1
  Sn  Sn32  1  0.329605  0.145109  0.752384  1
  Sn  Sn33  1  0.825044  0.357911  0.750391  1
  Sn  Sn34  1  0.674179  0.858658  0.250149  1
  Sn  Sn35  1  0.172879  0.641900  0.249975  1
