# generated using pymatgen
data_Th2Mg3Ni9As7
_symmetry_space_group_name_H-M   'P 1'
_cell_length_a   9.67131200
_cell_length_b   9.67131297
_cell_length_c   3.99249500
_cell_angle_alpha   90.00000000
_cell_angle_beta   90.00000000
_cell_angle_gamma   119.99999668
_symmetry_Int_Tables_number   1
_chemical_formula_structural   Th2Mg3Ni9As7
_chemical_formula_sum   'Th2 Mg3 Ni9 As7'
_cell_volume   323.40435117
_cell_formula_units_Z   1
loop_
 _symmetry_equiv_pos_site_id
 _symmetry_equiv_pos_as_xyz
  1  'x, y, z'
loop_
 _atom_site_type_symbol
 _atom_site_label
 _atom_site_symmetry_multiplicity
 _atom_site_fract_x
 _atom_site_fract_y
 _atom_site_fract_z
 _atom_site_occupancy
  Th  Th0  1  0.333333  0.666667  0.000000  1
  Th  Th1  1  0.000000  0.000000  0.500000  1
  Mg  Mg2  1  0.771641  0.217422  0.500000  1
  Mg  Mg3  1  0.782578  0.554218  0.500000  1
  Mg  Mg4  1  0.445782  0.228359  0.500000  1
  Ni  Ni5  1  0.020558  0.262822  0.000000  1
  Ni  Ni6  1  0.737178  0.757735  0.000000  1
  Ni  Ni7  1  0.242265  0.979442  0.000000  1
  Ni  Ni8  1  0.531908  0.042685  0.000000  1
  Ni  Ni9  1  0.957315  0.489223  0.000000  1
  Ni  Ni10  1  0.510777  0.468092  0.000000  1
  Ni  Ni11  1  0.615139  0.896713  0.500000  1
  Ni  Ni12  1  0.103287  0.718424  0.500000  1
  Ni  Ni13  1  0.281576  0.384861  0.500000  1
  As  As14  1  0.764763  0.014952  0.000000  1
  As  As15  1  0.985048  0.749813  0.000000  1
  As  As16  1  0.250187  0.235237  0.000000  1
  As  As17  1  0.373057  0.924748  0.500000  1
  As  As18  1  0.075252  0.448309  0.500000  1
  As  As19  1  0.551691  0.626943  0.500000  1
  As  As20  1  0.666667  0.333333  0.000000  1
