# generated using pymatgen
data_Nd2Cu2I
_symmetry_space_group_name_H-M   'P 1'
_cell_length_a   4.21342500
_cell_length_b   4.21345808
_cell_length_c   17.07071800
_cell_angle_alpha   90.00000000
_cell_angle_beta   90.00000000
_cell_angle_gamma   119.99974811
_symmetry_Int_Tables_number   1
_chemical_formula_structural   Nd2Cu2I
_chemical_formula_sum   'Nd4 Cu4 I2'
_cell_volume   262.45658141
_cell_formula_units_Z   2
loop_
 _symmetry_equiv_pos_site_id
 _symmetry_equiv_pos_as_xyz
  1  'x, y, z'
loop_
 _atom_site_type_symbol
 _atom_site_label
 _atom_site_symmetry_multiplicity
 _atom_site_fract_x
 _atom_site_fract_y
 _atom_site_fract_z
 _atom_site_occupancy
  Nd  Nd0  1  0.000007  0.000015  0.106697  1
  Nd  Nd1  1  0.000007  0.000015  0.393303  1
  Nd  Nd2  1  0.999992  0.999984  0.606697  1
  Nd  Nd3  1  0.999992  0.999984  0.893303  1
  Cu  Cu4  1  0.666663  0.333326  0.999614  1
  Cu  Cu5  1  0.333337  0.666673  0.000386  1
  Cu  Cu6  1  0.333337  0.666673  0.499614  1
  Cu  Cu7  1  0.666663  0.333326  0.500386  1
  I  I8  1  0.666677  0.333353  0.250000  1
  I  I9  1  0.333325  0.666649  0.750000  1
