# generated using pymatgen
data_Cs3Tc6(SCl)7
_symmetry_space_group_name_H-M   'P 1'
_cell_length_a   12.95541200
_cell_length_b   9.22760444
_cell_length_c   11.09957700
_cell_angle_alpha   73.37804879
_cell_angle_beta   90.00000000
_cell_angle_gamma   90.00000000
_symmetry_Int_Tables_number   1
_chemical_formula_structural   Cs3Tc6(SCl)7
_chemical_formula_sum   'Cs6 Tc12 S14 Cl14'
_cell_volume   1271.47758364
_cell_formula_units_Z   2
loop_
 _symmetry_equiv_pos_site_id
 _symmetry_equiv_pos_as_xyz
  1  'x, y, z'
loop_
 _atom_site_type_symbol
 _atom_site_label
 _atom_site_symmetry_multiplicity
 _atom_site_fract_x
 _atom_site_fract_y
 _atom_site_fract_z
 _atom_site_occupancy
  Cs  Cs0  1  0.259577  0.975793  0.886031  1
  Cs  Cs1  1  0.759577  0.024207  0.113969  1
  Cs  Cs2  1  0.740278  0.027260  0.612023  1
  Cs  Cs3  1  0.240278  0.972740  0.387977  1
  Cs  Cs4  1  0.997861  0.499542  0.250516  1
  Cs  Cs5  1  0.497861  0.500458  0.749484  1
  Tc  Tc6  1  0.124462  0.601197  0.724911  1
  Tc  Tc7  1  0.624462  0.398803  0.275089  1
  Tc  Tc8  1  0.877721  0.396218  0.775290  1
  Tc  Tc9  1  0.377721  0.603782  0.224710  1
  Tc  Tc10  1  0.043979  0.382661  0.649988  1
  Tc  Tc11  1  0.543979  0.617339  0.350012  1
  Tc  Tc12  1  0.958929  0.616286  0.850959  1
  Tc  Tc13  1  0.458929  0.383714  0.149041  1
  Tc  Tc14  1  0.054194  0.359590  0.889269  1
  Tc  Tc15  1  0.554194  0.640410  0.110731  1
  Tc  Tc16  1  0.948563  0.639639  0.609476  1
  Tc  Tc17  1  0.448563  0.360361  0.390524  1
  S  S18  1  0.974346  0.172070  0.808407  1
  S  S19  1  0.474346  0.827930  0.191593  1
  S  S20  1  0.025189  0.829056  0.691293  1
  S  S21  1  0.525189  0.170944  0.308707  1
  S  S22  1  0.123033  0.572250  0.945813  1
  S  S23  1  0.623033  0.427750  0.054187  1
  S  S24  1  0.876295  0.428345  0.553506  1
  S  S25  1  0.376295  0.571655  0.446494  1
  S  S26  1  0.895540  0.385255  0.992549  1
  S  S27  1  0.395540  0.614745  0.007451  1
  S  S28  1  0.103899  0.614856  0.507797  1
  S  S29  1  0.603899  0.385144  0.492203  1
  S  S30  1  0.204752  0.358594  0.762020  1
  S  S31  1  0.704752  0.641406  0.237980  1
  Cl  Cl32  1  0.286809  0.743175  0.689203  1
  Cl  Cl33  1  0.786809  0.256825  0.310797  1
  Cl  Cl34  1  0.714653  0.258601  0.810126  1
  Cl  Cl35  1  0.214653  0.741399  0.189874  1
  Cl  Cl36  1  0.117620  0.171699  0.076314  1
  Cl  Cl37  1  0.617620  0.828301  0.923686  1
  Cl  Cl38  1  0.883720  0.826360  0.425995  1
  Cl  Cl39  1  0.383720  0.173640  0.574005  1
  Cl  Cl40  1  0.096331  0.227445  0.516596  1
  Cl  Cl41  1  0.596331  0.772555  0.483404  1
  Cl  Cl42  1  0.904811  0.771390  0.981216  1
  Cl  Cl43  1  0.404811  0.228610  0.018784  1
  Cl  Cl44  1  0.787439  0.644874  0.738077  1
  Cl  Cl45  1  0.287439  0.355126  0.261923  1
