# generated using pymatgen
data_PrSm5FeCl10
_symmetry_space_group_name_H-M   'P 1'
_cell_length_a   7.30288040
_cell_length_b   8.81333500
_cell_length_c   9.18728409
_cell_angle_alpha   109.21684724
_cell_angle_beta   96.90496708
_cell_angle_gamma   106.07844680
_symmetry_Int_Tables_number   1
_chemical_formula_structural   PrSm5FeCl10
_chemical_formula_sum   'Pr1 Sm5 Fe1 Cl10'
_cell_volume   521.76593958
_cell_formula_units_Z   1
loop_
 _symmetry_equiv_pos_site_id
 _symmetry_equiv_pos_as_xyz
  1  'x, y, z'
loop_
 _atom_site_type_symbol
 _atom_site_label
 _atom_site_symmetry_multiplicity
 _atom_site_fract_x
 _atom_site_fract_y
 _atom_site_fract_z
 _atom_site_occupancy
  Pr  Pr0  1  0.970814  0.288679  0.089745  1
  Sm  Sm1  1  0.134733  0.054251  0.748018  1
  Sm  Sm2  1  0.624617  0.850496  0.806048  1
  Sm  Sm3  1  0.863505  0.945697  0.251534  1
  Sm  Sm4  1  0.030008  0.715262  0.911482  1
  Sm  Sm5  1  0.374865  0.147013  0.193400  1
  Fe  Fe6  1  0.998912  0.002301  0.000598  1
  Cl  Cl7  1  0.200330  0.745186  0.655927  1
  Cl  Cl8  1  0.651802  0.540533  0.728323  1
  Cl  Cl9  1  0.243288  0.080404  0.448578  1
  Cl  Cl10  1  0.793935  0.251836  0.349063  1
  Cl  Cl11  1  0.546718  0.170087  0.920706  1
  Cl  Cl12  1  0.754810  0.917471  0.550821  1
  Cl  Cl13  1  0.910722  0.632657  0.164610  1
  Cl  Cl14  1  0.361245  0.461400  0.276018  1
  Cl  Cl15  1  0.092829  0.370961  0.829397  1
  Cl  Cl16  1  0.446864  0.825768  0.075732  1
