# generated using pymatgen
data_La10Sb6SeCl
_symmetry_space_group_name_H-M   'P 1'
_cell_length_a   9.64166500
_cell_length_b   9.64166540
_cell_length_c   6.76737600
_cell_angle_alpha   90.00000000
_cell_angle_beta   90.00000000
_cell_angle_gamma   120.00000205
_symmetry_Int_Tables_number   1
_chemical_formula_structural   La10Sb6SeCl
_chemical_formula_sum   'La10 Sb6 Se1 Cl1'
_cell_volume   544.82248572
_cell_formula_units_Z   1
loop_
 _symmetry_equiv_pos_site_id
 _symmetry_equiv_pos_as_xyz
  1  'x, y, z'
loop_
 _atom_site_type_symbol
 _atom_site_label
 _atom_site_symmetry_multiplicity
 _atom_site_fract_x
 _atom_site_fract_y
 _atom_site_fract_z
 _atom_site_occupancy
  La  La0  1  0.264369  0.000000  0.254429  1
  La  La1  1  0.000000  0.735631  0.745571  1
  La  La2  1  0.735631  0.735631  0.254429  1
  La  La3  1  0.264369  0.264369  0.745571  1
  La  La4  1  0.735631  0.000000  0.745571  1
  La  La5  1  0.000000  0.264369  0.254429  1
  La  La6  1  0.666667  0.333333  0.500000  1
  La  La7  1  0.333333  0.666667  0.000000  1
  La  La8  1  0.333333  0.666667  0.500000  1
  La  La9  1  0.666667  0.333333  0.000000  1
  Sb  Sb10  1  0.614767  0.614767  0.750641  1
  Sb  Sb11  1  0.000000  0.614767  0.249359  1
  Sb  Sb12  1  0.614767  0.000000  0.249359  1
  Sb  Sb13  1  0.385233  0.000000  0.750641  1
  Sb  Sb14  1  0.000000  0.385233  0.750641  1
  Sb  Sb15  1  0.385233  0.385233  0.249359  1
  Se  Se16  1  0.000000  0.000000  0.500000  1
  Cl  Cl17  1  0.000000  0.000000  0.000000  1
