# generated using pymatgen
data_Pr10Cd3Si15Au2
_symmetry_space_group_name_H-M   'P 1'
_cell_length_a   4.20180406
_cell_length_b   4.36703974
_cell_length_c   36.46754173
_cell_angle_alpha   86.55419116
_cell_angle_beta   86.78693528
_cell_angle_gamma   89.99592134
_symmetry_Int_Tables_number   1
_chemical_formula_structural   Pr10Cd3Si15Au2
_chemical_formula_sum   'Pr10 Cd3 Si15 Au2'
_cell_volume   666.89572375
_cell_formula_units_Z   1
loop_
 _symmetry_equiv_pos_site_id
 _symmetry_equiv_pos_as_xyz
  1  'x, y, z'
loop_
 _atom_site_type_symbol
 _atom_site_label
 _atom_site_symmetry_multiplicity
 _atom_site_fract_x
 _atom_site_fract_y
 _atom_site_fract_z
 _atom_site_occupancy
  Pr  Pr0  1  0.948960  0.448649  0.102327  1
  Pr  Pr1  1  0.348268  0.848178  0.303386  1
  Pr  Pr2  1  0.747638  0.247402  0.504324  1
  Pr  Pr3  1  0.148283  0.648071  0.703559  1
  Pr  Pr4  1  0.549274  0.048832  0.901813  1
  Pr  Pr5  1  0.003343  0.003472  0.993250  1
  Pr  Pr6  1  0.402064  0.402772  0.195242  1
  Pr  Pr7  1  0.801728  0.801743  0.396479  1
  Pr  Pr8  1  0.199541  0.200059  0.600568  1
  Pr  Pr9  1  0.601414  0.601596  0.797656  1
  Cd  Cd10  1  0.468180  0.968216  0.063531  1
  Cd  Cd11  1  0.867705  0.367637  0.264796  1
  Cd  Cd12  1  0.267091  0.766684  0.466145  1
  Si  Si13  1  0.666034  0.165719  0.668573  1
  Si  Si14  1  0.067070  0.566609  0.866301  1
  Si  Si15  1  0.917473  0.917408  0.165151  1
  Si  Si16  1  0.317135  0.316512  0.366078  1
  Si  Si17  1  0.715795  0.715108  0.568757  1
  Si  Si18  1  0.116897  0.116250  0.766889  1
  Si  Si19  1  0.518049  0.517673  0.964051  1
  Si  Si20  1  0.432813  0.934118  0.133284  1
  Si  Si21  1  0.832474  0.333373  0.334359  1
  Si  Si22  1  0.231557  0.732341  0.536498  1
  Si  Si23  1  0.633122  0.133301  0.733502  1
  Si  Si24  1  0.034175  0.534400  0.930993  1
  Si  Si25  1  0.486146  0.486058  0.027916  1
  Si  Si26  1  0.885904  0.885543  0.229236  1
  Si  Si27  1  0.285115  0.284768  0.430259  1
  Au  Au28  1  0.681364  0.681971  0.636300  1
  Au  Au29  1  0.082587  0.082737  0.834376  1
