# generated using pymatgen
data_Tm3Al3ZnNiGe
_symmetry_space_group_name_H-M   'P 1'
_cell_length_a   6.85981100
_cell_length_b   6.85980937
_cell_length_c   4.14075500
_cell_angle_alpha   90.00000000
_cell_angle_beta   90.00000000
_cell_angle_gamma   120.00000303
_symmetry_Int_Tables_number   1
_chemical_formula_structural   Tm3Al3ZnNiGe
_chemical_formula_sum   'Tm3 Al3 Zn1 Ni1 Ge1'
_cell_volume   168.74633567
_cell_formula_units_Z   1
loop_
 _symmetry_equiv_pos_site_id
 _symmetry_equiv_pos_as_xyz
  1  'x, y, z'
loop_
 _atom_site_type_symbol
 _atom_site_label
 _atom_site_symmetry_multiplicity
 _atom_site_fract_x
 _atom_site_fract_y
 _atom_site_fract_z
 _atom_site_occupancy
  Tm  Tm0  1  0.409057  0.999974  0.000000  1
  Tm  Tm1  1  0.000026  0.409083  0.000000  1
  Tm  Tm2  1  0.590918  0.590943  0.000000  1
  Al  Al3  1  0.772449  0.006740  0.500000  1
  Al  Al4  1  0.234290  0.227551  0.500000  1
  Al  Al5  1  0.993260  0.765710  0.500000  1
  Zn  Zn6  1  0.666667  0.333333  0.500000  1
  Ni  Ni7  1  0.000000  0.000000  0.000000  1
  Ge  Ge8  1  0.333334  0.666667  0.500000  1
