# generated using pymatgen
data_Ba4HoReO8
_symmetry_space_group_name_H-M   'P 1'
_cell_length_a   7.44522899
_cell_length_b   7.44522603
_cell_length_c   5.96191700
_cell_angle_alpha   90.00000000
_cell_angle_beta   90.00000000
_cell_angle_gamma   132.96547486
_symmetry_Int_Tables_number   1
_chemical_formula_structural   Ba4HoReO8
_chemical_formula_sum   'Ba4 Ho1 Re1 O8'
_cell_volume   241.83169763
_cell_formula_units_Z   1
loop_
 _symmetry_equiv_pos_site_id
 _symmetry_equiv_pos_as_xyz
  1  'x, y, z'
loop_
 _atom_site_type_symbol
 _atom_site_label
 _atom_site_symmetry_multiplicity
 _atom_site_fract_x
 _atom_site_fract_y
 _atom_site_fract_z
 _atom_site_occupancy
  Ba  Ba0  1  0.353561  0.646439  0.000000  1
  Ba  Ba1  1  0.852236  0.147764  0.500000  1
  Ba  Ba2  1  0.147764  0.852236  0.500000  1
  Ba  Ba3  1  0.646439  0.353561  0.000000  1
  Ho  Ho4  1  0.000000  0.000000  0.000000  1
  Re  Re5  1  0.500000  0.500000  0.500000  1
  O  O6  1  0.262602  0.262602  0.732344  1
  O  O7  1  0.737398  0.737398  0.267656  1
  O  O8  1  0.737398  0.737398  0.732344  1
  O  O9  1  0.262602  0.262602  0.267656  1
  O  O10  1  0.164906  0.835094  0.000000  1
  O  O11  1  0.649915  0.350085  0.500000  1
  O  O12  1  0.350085  0.649915  0.500000  1
  O  O13  1  0.835094  0.164906  0.000000  1
