# generated using pymatgen
data_Tm2(AlCu)5
_symmetry_space_group_name_H-M   'P 1'
_cell_length_a   4.09036800
_cell_length_b   5.26921700
_cell_length_c   8.98159700
_cell_angle_alpha   90.00000000
_cell_angle_beta   90.00000000
_cell_angle_gamma   90.00000000
_symmetry_Int_Tables_number   1
_chemical_formula_structural   Tm2(AlCu)5
_chemical_formula_sum   'Tm2 Al5 Cu5'
_cell_volume   193.58068888
_cell_formula_units_Z   1
loop_
 _symmetry_equiv_pos_site_id
 _symmetry_equiv_pos_as_xyz
  1  'x, y, z'
loop_
 _atom_site_type_symbol
 _atom_site_label
 _atom_site_symmetry_multiplicity
 _atom_site_fract_x
 _atom_site_fract_y
 _atom_site_fract_z
 _atom_site_occupancy
  Tm  Tm0  1  0.000000  0.500000  0.000000  1
  Tm  Tm1  1  0.000000  0.000000  0.500000  1
  Al  Al2  1  0.500000  0.000000  0.000000  1
  Al  Al3  1  0.500000  0.750103  0.261192  1
  Al  Al4  1  0.500000  0.249897  0.738808  1
  Al  Al5  1  0.500000  0.249897  0.261192  1
  Al  Al6  1  0.500000  0.750103  0.738808  1
  Cu  Cu7  1  0.000000  0.500000  0.335811  1
  Cu  Cu8  1  0.000000  0.000000  0.833925  1
  Cu  Cu9  1  0.000000  0.000000  0.166075  1
  Cu  Cu10  1  0.000000  0.500000  0.664189  1
  Cu  Cu11  1  0.500000  0.500000  0.500000  1
