# generated using pymatgen
data_Tm3ThZnCo
_symmetry_space_group_name_H-M   'P 1'
_cell_length_a   9.37090940
_cell_length_b   9.37090908
_cell_length_c   9.37090900
_cell_angle_alpha   60.00000380
_cell_angle_beta   60.00000494
_cell_angle_gamma   59.99999400
_symmetry_Int_Tables_number   1
_chemical_formula_structural   Tm3ThZnCo
_chemical_formula_sum   'Tm12 Th4 Zn4 Co4'
_cell_volume   581.87566517
_cell_formula_units_Z   4
loop_
 _symmetry_equiv_pos_site_id
 _symmetry_equiv_pos_as_xyz
  1  'x, y, z'
loop_
 _atom_site_type_symbol
 _atom_site_label
 _atom_site_symmetry_multiplicity
 _atom_site_fract_x
 _atom_site_fract_y
 _atom_site_fract_z
 _atom_site_occupancy
  Tm  Tm0  1  0.811010  0.188990  0.188990  1
  Tm  Tm1  1  0.188990  0.811010  0.811010  1
  Tm  Tm2  1  0.188990  0.811010  0.188990  1
  Tm  Tm3  1  0.811010  0.188990  0.811010  1
  Tm  Tm4  1  0.188990  0.188990  0.811010  1
  Tm  Tm5  1  0.811010  0.811010  0.188990  1
  Tm  Tm6  1  0.934888  0.565112  0.565112  1
  Tm  Tm7  1  0.565112  0.934888  0.934888  1
  Tm  Tm8  1  0.565112  0.934888  0.565112  1
  Tm  Tm9  1  0.934888  0.565112  0.934888  1
  Tm  Tm10  1  0.565112  0.565112  0.934888  1
  Tm  Tm11  1  0.934888  0.934888  0.565112  1
  Th  Th12  1  0.350351  0.350351  0.350351  1
  Th  Th13  1  0.350351  0.350351  0.948949  1
  Th  Th14  1  0.350351  0.948949  0.350351  1
  Th  Th15  1  0.948949  0.350351  0.350351  1
  Zn  Zn16  1  0.580770  0.580770  0.580770  1
  Zn  Zn17  1  0.580770  0.580770  0.257689  1
  Zn  Zn18  1  0.580770  0.257689  0.580770  1
  Zn  Zn19  1  0.257689  0.580770  0.580770  1
  Co  Co20  1  0.143888  0.143888  0.143888  1
  Co  Co21  1  0.143888  0.143888  0.568338  1
  Co  Co22  1  0.143888  0.568338  0.143888  1
  Co  Co23  1  0.568338  0.143888  0.143888  1
