# generated using pymatgen
data_U2Cr3Co9As7
_symmetry_space_group_name_H-M   'P 1'
_cell_length_a   9.46413400
_cell_length_b   9.46413309
_cell_length_c   3.79355900
_cell_angle_alpha   90.00000000
_cell_angle_beta   90.00000000
_cell_angle_gamma   119.99999618
_symmetry_Int_Tables_number   1
_chemical_formula_structural   U2Cr3Co9As7
_chemical_formula_sum   'U2 Cr3 Co9 As7'
_cell_volume   294.26540734
_cell_formula_units_Z   1
loop_
 _symmetry_equiv_pos_site_id
 _symmetry_equiv_pos_as_xyz
  1  'x, y, z'
loop_
 _atom_site_type_symbol
 _atom_site_label
 _atom_site_symmetry_multiplicity
 _atom_site_fract_x
 _atom_site_fract_y
 _atom_site_fract_z
 _atom_site_occupancy
  U  U0  1  0.666667  0.333333  0.000000  1
  U  U1  1  0.333333  0.666667  0.500000  1
  Cr  Cr2  1  0.106963  0.886629  0.500000  1
  Cr  Cr3  1  0.779666  0.893037  0.500000  1
  Cr  Cr4  1  0.113371  0.220334  0.500000  1
  Co  Co5  1  0.065413  0.629659  0.000000  1
  Co  Co6  1  0.564246  0.934587  0.000000  1
  Co  Co7  1  0.370341  0.435754  0.000000  1
  Co  Co8  1  0.282252  0.123445  0.000000  1
  Co  Co9  1  0.841193  0.717748  0.000000  1
  Co  Co10  1  0.876555  0.158807  0.000000  1
  Co  Co11  1  0.435674  0.051088  0.500000  1
  Co  Co12  1  0.615414  0.564326  0.500000  1
  Co  Co13  1  0.948912  0.384586  0.500000  1
  As  As14  1  0.298384  0.888047  0.000000  1
  As  As15  1  0.589663  0.701616  0.000000  1
  As  As16  1  0.111953  0.410337  0.000000  1
  As  As17  1  0.405581  0.290637  0.500000  1
  As  As18  1  0.885056  0.594419  0.500000  1
  As  As19  1  0.709363  0.114944  0.500000  1
  As  As20  1  0.000000  0.000000  0.000000  1
