# generated using pymatgen
data_Er7Se8
_symmetry_space_group_name_H-M   'P 1'
_cell_length_a   8.04605700
_cell_length_b   8.04605617
_cell_length_c   8.04605700
_cell_angle_alpha   119.99999930
_cell_angle_beta   90.00000000
_cell_angle_gamma   119.99999930
_symmetry_Int_Tables_number   1
_chemical_formula_structural   Er7Se8
_chemical_formula_sum   'Er7 Se8'
_cell_volume   368.32761528
_cell_formula_units_Z   1
loop_
 _symmetry_equiv_pos_site_id
 _symmetry_equiv_pos_as_xyz
  1  'x, y, z'
loop_
 _atom_site_type_symbol
 _atom_site_label
 _atom_site_symmetry_multiplicity
 _atom_site_fract_x
 _atom_site_fract_y
 _atom_site_fract_z
 _atom_site_occupancy
  Er  Er0  1  0.249987  0.000000  0.249987  1
  Er  Er1  1  0.249987  0.499973  0.249987  1
  Er  Er2  1  0.750013  0.000000  0.249988  1
  Er  Er3  1  0.250001  0.500001  0.750002  1
  Er  Er4  1  0.249988  0.000000  0.750013  1
  Er  Er5  1  0.750013  0.000000  0.750013  1
  Er  Er6  1  0.750013  0.500026  0.750013  1
  Se  Se7  1  0.000000  0.000000  0.000000  1
  Se  Se8  1  0.500000  0.000000  0.500000  1
  Se  Se9  1  0.996828  0.993657  0.496830  1
  Se  Se10  1  0.996828  0.500001  0.496830  1
  Se  Se11  1  0.503173  0.500001  0.496830  1
  Se  Se12  1  0.996830  0.500001  0.003172  1
  Se  Se13  1  0.503171  0.500001  0.003172  1
  Se  Se14  1  0.503171  0.006342  0.003172  1
