# generated using pymatgen
data_Ho8Al(Pd5Pt7)2
_symmetry_space_group_name_H-M   'P 1'
_cell_length_a   8.31862300
_cell_length_b   8.33332303
_cell_length_c   8.35048303
_cell_angle_alpha   89.99074135
_cell_angle_beta   90.00000000
_cell_angle_gamma   90.00000000
_symmetry_Int_Tables_number   1
_chemical_formula_structural   Ho8Al(Pd5Pt7)2
_chemical_formula_sum   'Ho8 Al1 Pd10 Pt14'
_cell_volume   578.87027796
_cell_formula_units_Z   1
loop_
 _symmetry_equiv_pos_site_id
 _symmetry_equiv_pos_as_xyz
  1  'x, y, z'
loop_
 _atom_site_type_symbol
 _atom_site_label
 _atom_site_symmetry_multiplicity
 _atom_site_fract_x
 _atom_site_fract_y
 _atom_site_fract_z
 _atom_site_occupancy
  Ho  Ho0  1  0.251195  0.251654  0.251882  1
  Ho  Ho1  1  0.748196  0.748219  0.747795  1
  Ho  Ho2  1  0.748303  0.748306  0.252235  1
  Ho  Ho3  1  0.748722  0.251727  0.748135  1
  Ho  Ho4  1  0.251278  0.251727  0.748135  1
  Ho  Ho5  1  0.251697  0.748306  0.252235  1
  Ho  Ho6  1  0.251804  0.748219  0.747795  1
  Ho  Ho7  1  0.748805  0.251654  0.251882  1
  Al  Al8  1  0.000000  0.000439  0.999936  1
  Pd  Pd9  1  0.500000  0.999962  0.260890  1
  Pd  Pd10  1  0.259969  0.999968  0.500104  1
  Pd  Pd11  1  0.500000  0.999972  0.739003  1
  Pd  Pd12  1  0.740031  0.999968  0.500104  1
  Pd  Pd13  1  0.000000  0.500139  0.259892  1
  Pd  Pd14  1  0.000000  0.500144  0.740001  1
  Pd  Pd15  1  0.500000  0.500049  0.746875  1
  Pd  Pd16  1  0.000000  0.710925  0.999893  1
  Pd  Pd17  1  0.000000  0.999689  0.290748  1
  Pd  Pd18  1  0.000000  0.999683  0.709483  1
  Pt  Pt19  1  0.259274  0.499847  0.000199  1
  Pt  Pt20  1  0.740726  0.499847  0.000199  1
  Pt  Pt21  1  0.000000  0.259806  0.500113  1
  Pt  Pt22  1  0.500000  0.259327  0.000175  1
  Pt  Pt23  1  0.000000  0.740066  0.500115  1
  Pt  Pt24  1  0.500000  0.740350  0.000213  1
  Pt  Pt25  1  0.252423  0.500077  0.499778  1
  Pt  Pt26  1  0.747577  0.500077  0.499778  1
  Pt  Pt27  1  0.500000  0.252837  0.499794  1
  Pt  Pt28  1  0.500000  0.747262  0.499830  1
  Pt  Pt29  1  0.500000  0.500057  0.253147  1
  Pt  Pt30  1  0.289240  0.999591  0.999882  1
  Pt  Pt31  1  0.710760  0.999591  0.999882  1
  Pt  Pt32  1  0.000000  0.290514  0.999871  1
