# generated using pymatgen
data_Zr7Ti3(Sn3O)2
_symmetry_space_group_name_H-M   'P 1'
_cell_length_a   8.37004200
_cell_length_b   8.37004063
_cell_length_c   5.62349800
_cell_angle_alpha   90.00000000
_cell_angle_beta   90.00000000
_cell_angle_gamma   119.99999750
_symmetry_Int_Tables_number   1
_chemical_formula_structural   Zr7Ti3(Sn3O)2
_chemical_formula_sum   'Zr7 Ti3 Sn6 O2'
_cell_volume   341.18693395
_cell_formula_units_Z   1
loop_
 _symmetry_equiv_pos_site_id
 _symmetry_equiv_pos_as_xyz
  1  'x, y, z'
loop_
 _atom_site_type_symbol
 _atom_site_label
 _atom_site_symmetry_multiplicity
 _atom_site_fract_x
 _atom_site_fract_y
 _atom_site_fract_z
 _atom_site_occupancy
  Zr  Zr0  1  0.998656  0.768479  0.749218  1
  Zr  Zr1  1  0.998656  0.230177  0.250782  1
  Zr  Zr2  1  0.231521  0.230177  0.749218  1
  Zr  Zr3  1  0.231521  0.001344  0.250782  1
  Zr  Zr4  1  0.769823  0.768479  0.250782  1
  Zr  Zr5  1  0.666667  0.333333  0.500000  1
  Zr  Zr6  1  0.769823  0.001344  0.749218  1
  Ti  Ti7  1  0.333333  0.666667  0.000000  1
  Ti  Ti8  1  0.333333  0.666667  0.500000  1
  Ti  Ti9  1  0.666667  0.333333  0.000000  1
  Sn  Sn10  1  0.005464  0.595503  0.245241  1
  Sn  Sn11  1  0.005464  0.409961  0.754759  1
  Sn  Sn12  1  0.404497  0.409961  0.245241  1
  Sn  Sn13  1  0.590039  0.595503  0.754759  1
  Sn  Sn14  1  0.404497  0.994536  0.754759  1
  Sn  Sn15  1  0.590039  0.994536  0.245241  1
  O  O16  1  0.000000  0.000000  0.000000  1
  O  O17  1  0.000000  0.000000  0.500000  1
