# generated using pymatgen
data_Nd2ScAlPt2
_symmetry_space_group_name_H-M   'P 1'
_cell_length_a   4.49826400
_cell_length_b   7.45068000
_cell_length_c   8.09087900
_cell_angle_alpha   90.00000000
_cell_angle_beta   90.00000000
_cell_angle_gamma   90.00000000
_symmetry_Int_Tables_number   1
_chemical_formula_structural   Nd2ScAlPt2
_chemical_formula_sum   'Nd4 Sc2 Al2 Pt4'
_cell_volume   271.16682606
_cell_formula_units_Z   2
loop_
 _symmetry_equiv_pos_site_id
 _symmetry_equiv_pos_as_xyz
  1  'x, y, z'
loop_
 _atom_site_type_symbol
 _atom_site_label
 _atom_site_symmetry_multiplicity
 _atom_site_fract_x
 _atom_site_fract_y
 _atom_site_fract_z
 _atom_site_occupancy
  Nd  Nd0  1  0.750000  0.446593  0.177179  1
  Nd  Nd1  1  0.250000  0.053407  0.677179  1
  Nd  Nd2  1  0.750000  0.978159  0.326982  1
  Nd  Nd3  1  0.250000  0.521841  0.826982  1
  Sc  Sc4  1  0.750000  0.874709  0.933974  1
  Sc  Sc5  1  0.250000  0.625291  0.433974  1
  Al  Al6  1  0.750000  0.359435  0.566544  1
  Al  Al7  1  0.250000  0.140565  0.066544  1
  Pt  Pt8  1  0.750000  0.716851  0.613984  1
  Pt  Pt9  1  0.750000  0.230765  0.881338  1
  Pt  Pt10  1  0.250000  0.269235  0.381338  1
  Pt  Pt11  1  0.250000  0.783149  0.113984  1
