# generated using pymatgen
data_Er12Ni4SnRu
_symmetry_space_group_name_H-M   'P 1'
_cell_length_a   8.24679943
_cell_length_b   8.24679872
_cell_length_c   8.24679954
_cell_angle_alpha   111.51830677
_cell_angle_beta   110.03133978
_cell_angle_gamma   106.89791982
_symmetry_Int_Tables_number   1
_chemical_formula_structural   Er12Ni4SnRu
_chemical_formula_sum   'Er12 Ni4 Sn1 Ru1'
_cell_volume   431.02632703
_cell_formula_units_Z   1
loop_
 _symmetry_equiv_pos_site_id
 _symmetry_equiv_pos_as_xyz
  1  'x, y, z'
loop_
 _atom_site_type_symbol
 _atom_site_label
 _atom_site_symmetry_multiplicity
 _atom_site_fract_x
 _atom_site_fract_y
 _atom_site_fract_z
 _atom_site_occupancy
  Er  Er0  1  0.320778  0.127935  0.807156  1
  Er  Er1  1  0.679222  0.486379  0.807156  1
  Er  Er2  1  0.408154  0.718145  0.690009  1
  Er  Er3  1  0.591846  0.281855  0.309991  1
  Er  Er4  1  0.971863  0.281855  0.690009  1
  Er  Er5  1  0.028137  0.718145  0.309991  1
  Er  Er6  1  0.320778  0.513621  0.192844  1
  Er  Er7  1  0.679222  0.872065  0.192844  1
  Er  Er8  1  0.181097  0.786880  0.967977  1
  Er  Er9  1  0.818903  0.786880  0.605784  1
  Er  Er10  1  0.181097  0.213120  0.394216  1
  Er  Er11  1  0.818903  0.213120  0.032023  1
  Ni  Ni12  1  0.877857  0.877857  0.000000  1
  Ni  Ni13  1  0.122143  0.122143  0.000000  1
  Ni  Ni14  1  0.641674  0.500000  0.141674  1
  Ni  Ni15  1  0.358326  0.500000  0.858326  1
  Sn  Sn16  1  0.500000  0.000000  0.500000  1
  Ru  Ru17  1  0.000000  0.500000  0.500000  1
