# generated using pymatgen
data_Hf2Ga2IrRh
_symmetry_space_group_name_H-M   'P 1'
_cell_length_a   7.18411900
_cell_length_b   7.18411963
_cell_length_c   6.87954600
_cell_angle_alpha   90.00000000
_cell_angle_beta   90.00000000
_cell_angle_gamma   120.00000169
_symmetry_Int_Tables_number   1
_chemical_formula_structural   Hf2Ga2IrRh
_chemical_formula_sum   'Hf6 Ga6 Ir3 Rh3'
_cell_volume   307.49458802
_cell_formula_units_Z   3
loop_
 _symmetry_equiv_pos_site_id
 _symmetry_equiv_pos_as_xyz
  1  'x, y, z'
loop_
 _atom_site_type_symbol
 _atom_site_label
 _atom_site_symmetry_multiplicity
 _atom_site_fract_x
 _atom_site_fract_y
 _atom_site_fract_z
 _atom_site_occupancy
  Hf  Hf0  1  0.013519  0.406821  0.748915  1
  Hf  Hf1  1  0.593179  0.606698  0.748915  1
  Hf  Hf2  1  0.393302  0.986481  0.748915  1
  Hf  Hf3  1  0.987709  0.393220  0.251544  1
  Hf  Hf4  1  0.606780  0.594489  0.251544  1
  Hf  Hf5  1  0.405511  0.012291  0.251544  1
  Ga  Ga6  1  0.265257  0.264975  0.500189  1
  Ga  Ga7  1  0.999717  0.734743  0.500189  1
  Ga  Ga8  1  0.998310  0.729783  0.000463  1
  Ga  Ga9  1  0.735025  0.000283  0.500189  1
  Ga  Ga10  1  0.731474  0.001690  0.000463  1
  Ga  Ga11  1  0.270217  0.268526  0.000463  1
  Ir  Ir12  1  0.333333  0.666667  0.484699  1
  Ir  Ir13  1  0.666667  0.333333  0.515162  1
  Ir  Ir14  1  0.333333  0.666667  0.015426  1
  Rh  Rh15  1  0.000000  0.000000  0.754930  1
  Rh  Rh16  1  0.000000  0.000000  0.245615  1
  Rh  Rh17  1  0.666667  0.333333  0.980833  1
