# generated using pymatgen
data_Be6GaSi5Rh12
_symmetry_space_group_name_H-M   'P 1'
_cell_length_a   4.07311300
_cell_length_b   5.76554000
_cell_length_c   12.22308100
_cell_angle_alpha   90.00000000
_cell_angle_beta   90.00264416
_cell_angle_gamma   90.00000000
_symmetry_Int_Tables_number   1
_chemical_formula_structural   Be6GaSi5Rh12
_chemical_formula_sum   'Be6 Ga1 Si5 Rh12'
_cell_volume   287.04311733
_cell_formula_units_Z   1
loop_
 _symmetry_equiv_pos_site_id
 _symmetry_equiv_pos_as_xyz
  1  'x, y, z'
loop_
 _atom_site_type_symbol
 _atom_site_label
 _atom_site_symmetry_multiplicity
 _atom_site_fract_x
 _atom_site_fract_y
 _atom_site_fract_z
 _atom_site_occupancy
  Be  Be0  1  0.000027  0.000000  0.998454  1
  Be  Be1  1  0.499105  0.499999  0.166235  1
  Be  Be2  1  0.999151  0.000000  0.333333  1
  Be  Be3  1  0.500001  0.499999  0.500445  1
  Be  Be4  1  0.000951  0.000000  0.668211  1
  Be  Be5  1  0.500807  0.499999  0.833335  1
  Ga  Ga6  1  0.500587  0.000000  0.833334  1
  Si  Si7  1  0.999954  0.499999  0.999894  1
  Si  Si8  1  0.499432  0.000000  0.166981  1
  Si  Si9  1  0.999434  0.499999  0.333331  1
  Si  Si10  1  0.500009  0.000000  0.499690  1
  Si  Si11  1  0.000557  0.499999  0.666771  1
  Rh  Rh12  1  0.499936  0.253285  0.005458  1
  Rh  Rh13  1  0.499936  0.746715  0.005458  1
  Rh  Rh14  1  0.999568  0.249850  0.168806  1
  Rh  Rh15  1  0.999568  0.750150  0.168806  1
  Rh  Rh16  1  0.499554  0.249804  0.333329  1
  Rh  Rh17  1  0.499554  0.750196  0.333329  1
  Rh  Rh18  1  0.000011  0.249854  0.497858  1
  Rh  Rh19  1  0.000011  0.750146  0.497858  1
  Rh  Rh20  1  0.500432  0.253285  0.661210  1
  Rh  Rh21  1  0.500432  0.746715  0.661210  1
  Rh  Rh22  1  0.000492  0.257454  0.833331  1
  Rh  Rh23  1  0.000492  0.742546  0.833331  1
