# generated using pymatgen
data_GaCu11(SiNi)4
_symmetry_space_group_name_H-M   'P 1'
_cell_length_a   6.17251595
_cell_length_b   6.20372687
_cell_length_c   6.16660400
_cell_angle_alpha   90.02104817
_cell_angle_beta   90.35270569
_cell_angle_gamma   90.36856449
_symmetry_Int_Tables_number   1
_chemical_formula_structural   GaCu11(SiNi)4
_chemical_formula_sum   'Ga1 Cu11 Si4 Ni4'
_cell_volume   236.12593999
_cell_formula_units_Z   1
loop_
 _symmetry_equiv_pos_site_id
 _symmetry_equiv_pos_as_xyz
  1  'x, y, z'
loop_
 _atom_site_type_symbol
 _atom_site_label
 _atom_site_symmetry_multiplicity
 _atom_site_fract_x
 _atom_site_fract_y
 _atom_site_fract_z
 _atom_site_occupancy
  Ga  Ga0  1  0.117571  0.202637  0.462962  1
  Cu  Cu1  1  0.379248  0.792792  0.954403  1
  Cu  Cu2  1  0.879488  0.706340  0.047304  1
  Cu  Cu3  1  0.454423  0.123685  0.205734  1
  Cu  Cu4  1  0.620722  0.293751  0.545982  1
  Cu  Cu5  1  0.954167  0.384129  0.796663  1
  Cu  Cu6  1  0.044310  0.872472  0.706428  1
  Cu  Cu7  1  0.544678  0.619673  0.292673  1
  Cu  Cu8  1  0.208303  0.454094  0.122539  1
  Cu  Cu9  1  0.705115  0.046047  0.880014  1
  Cu  Cu10  1  0.292234  0.546692  0.616817  1
  Cu  Cu11  1  0.790573  0.955745  0.377764  1
  Si  Si12  1  0.063463  0.060551  0.051988  1
  Si  Si13  1  0.447020  0.927446  0.568015  1
  Si  Si14  1  0.928267  0.580652  0.430754  1
  Si  Si15  1  0.563345  0.432757  0.937607  1
  Ni  Ni16  1  0.684187  0.677693  0.687457  1
  Ni  Ni17  1  0.822605  0.315683  0.186838  1
  Ni  Ni18  1  0.315341  0.182004  0.810211  1
  Ni  Ni19  1  0.184941  0.825160  0.317846  1
