# generated using pymatgen
data_DyHoTh2(Al8Pt3)3
_symmetry_space_group_name_H-M   'P 1'
_cell_length_a   7.58856882
_cell_length_b   7.60259870
_cell_length_c   13.20481631
_cell_angle_alpha   84.50545248
_cell_angle_beta   78.95250570
_cell_angle_gamma   59.95362655
_symmetry_Int_Tables_number   1
_chemical_formula_structural   DyHoTh2(Al8Pt3)3
_chemical_formula_sum   'Dy1 Ho1 Th2 Al24 Pt9'
_cell_volume   647.22940869
_cell_formula_units_Z   1
loop_
 _symmetry_equiv_pos_site_id
 _symmetry_equiv_pos_as_xyz
  1  'x, y, z'
loop_
 _atom_site_type_symbol
 _atom_site_label
 _atom_site_symmetry_multiplicity
 _atom_site_fract_x
 _atom_site_fract_y
 _atom_site_fract_z
 _atom_site_occupancy
  Dy  Dy0  1  0.266474  0.501488  0.193099  1
  Ho  Ho1  1  0.733558  0.498517  0.806823  1
  Th  Th2  1  0.395044  0.168006  0.806609  1
  Th  Th3  1  0.604961  0.831987  0.193396  1
  Al  Al4  1  0.687824  0.830539  0.943980  1
  Al  Al5  1  0.312181  0.169414  0.055999  1
  Al  Al6  1  0.145719  0.832933  0.561432  1
  Al  Al7  1  0.854280  0.167069  0.438565  1
  Al  Al8  1  0.480950  0.167248  0.557495  1
  Al  Al9  1  0.519054  0.832751  0.442504  1
  Al  Al10  1  0.212519  0.168921  0.333549  1
  Al  Al11  1  0.787466  0.831043  0.666474  1
  Al  Al12  1  0.438512  0.510337  0.666920  1
  Al  Al13  1  0.561533  0.489655  0.333100  1
  Al  Al14  1  0.107808  0.160052  0.665230  1
  Al  Al15  1  0.892137  0.839997  0.334795  1
  Al  Al16  1  0.352058  0.502244  0.946002  1
  Al  Al17  1  0.647999  0.497757  0.053957  1
  Al  Al18  1  0.012599  0.167576  0.954505  1
  Al  Al19  1  0.987373  0.832459  0.045477  1
  Al  Al20  1  0.186162  0.500108  0.441029  1
  Al  Al21  1  0.813832  0.499890  0.558986  1
  Al  Al22  1  0.734638  0.167452  0.183642  1
  Al  Al23  1  0.265409  0.832517  0.816361  1
  Al  Al24  1  0.059282  0.634064  0.814811  1
  Al  Al25  1  0.940681  0.365920  0.185192  1
  Al  Al26  1  0.859858  0.041080  0.815774  1
  Al  Al27  1  0.140121  0.958981  0.184226  1
  Pt  Pt28  1  0.120756  0.491512  0.638547  1
  Pt  Pt29  1  0.879175  0.508492  0.361482  1
  Pt  Pt30  1  0.656663  0.170991  0.999839  1
  Pt  Pt31  1  0.343374  0.828996  0.000142  1
  Pt  Pt32  1  0.537725  0.165985  0.361326  1
  Pt  Pt33  1  0.462311  0.833961  0.638709  1
  Pt  Pt34  1  0.778399  0.175144  0.637556  1
  Pt  Pt35  1  0.221588  0.824913  0.362478  1
  Pt  Pt36  1  0.999979  0.500000  0.999989  1
