# generated using pymatgen
data_Ho3Lu8ThCo4
_symmetry_space_group_name_H-M   'P 1'
_cell_length_a   6.13725496
_cell_length_b   6.84983715
_cell_length_c   9.24421700
_cell_angle_alpha   90.00000000
_cell_angle_beta   90.00000000
_cell_angle_gamma   90.97107919
_symmetry_Int_Tables_number   1
_chemical_formula_structural   Ho3Lu8ThCo4
_chemical_formula_sum   'Ho3 Lu8 Th1 Co4'
_cell_volume   388.56364509
_cell_formula_units_Z   1
loop_
 _symmetry_equiv_pos_site_id
 _symmetry_equiv_pos_as_xyz
  1  'x, y, z'
loop_
 _atom_site_type_symbol
 _atom_site_label
 _atom_site_symmetry_multiplicity
 _atom_site_fract_x
 _atom_site_fract_y
 _atom_site_fract_z
 _atom_site_occupancy
  Ho  Ho0  1  0.635841  0.039779  0.250000  1
  Ho  Ho1  1  0.138707  0.458428  0.750000  1
  Ho  Ho2  1  0.360935  0.958408  0.750000  1
  Lu  Lu3  1  0.328420  0.675185  0.065926  1
  Lu  Lu4  1  0.173362  0.174736  0.432724  1
  Lu  Lu5  1  0.674944  0.323700  0.568569  1
  Lu  Lu6  1  0.824202  0.828010  0.930623  1
  Lu  Lu7  1  0.674944  0.323700  0.931431  1
  Lu  Lu8  1  0.824202  0.828010  0.569377  1
  Lu  Lu9  1  0.328420  0.675185  0.434074  1
  Lu  Lu10  1  0.173362  0.174736  0.067276  1
  Th  Th11  1  0.852163  0.551391  0.250000  1
  Co  Co12  1  0.046690  0.872727  0.250000  1
  Co  Co13  1  0.463004  0.387674  0.250000  1
  Co  Co14  1  0.951798  0.115297  0.750000  1
  Co  Co15  1  0.549009  0.613033  0.750000  1
