# generated using pymatgen
data_TbPa2(ZnPd)3
_symmetry_space_group_name_H-M   'P 1'
_cell_length_a   7.43154100
_cell_length_b   7.34001336
_cell_length_c   3.80742000
_cell_angle_alpha   90.00000000
_cell_angle_beta   90.00000000
_cell_angle_gamma   120.41335375
_symmetry_Int_Tables_number   1
_chemical_formula_structural   TbPa2(ZnPd)3
_chemical_formula_sum   'Tb1 Pa2 Zn3 Pd3'
_cell_volume   179.10722311
_cell_formula_units_Z   1
loop_
 _symmetry_equiv_pos_site_id
 _symmetry_equiv_pos_as_xyz
  1  'x, y, z'
loop_
 _atom_site_type_symbol
 _atom_site_label
 _atom_site_symmetry_multiplicity
 _atom_site_fract_x
 _atom_site_fract_y
 _atom_site_fract_z
 _atom_site_occupancy
  Tb  Tb0  1  0.402534  0.000000  0.000000  1
  Pa  Pa1  1  0.003798  0.410351  0.000000  1
  Pa  Pa2  1  0.593447  0.589649  0.000000  1
  Zn  Zn3  1  0.010790  0.757935  0.500000  1
  Zn  Zn4  1  0.252854  0.242065  0.500000  1
  Zn  Zn5  1  0.736157  0.000000  0.500000  1
  Pd  Pd6  1  0.985832  0.000000  0.000000  1
  Pd  Pd7  1  0.331676  0.648766  0.500000  1
  Pd  Pd8  1  0.682911  0.351234  0.500000  1
