# generated using pymatgen
data_NaDy2Ho4Co6Sn23
_symmetry_space_group_name_H-M   'P 1'
_cell_length_a   9.69507524
_cell_length_b   9.69711791
_cell_length_c   9.93432922
_cell_angle_alpha   90.00000091
_cell_angle_beta   90.02108536
_cell_angle_gamma   120.00696648
_symmetry_Int_Tables_number   1
_chemical_formula_structural   NaDy2Ho4Co6Sn23
_chemical_formula_sum   'Na1 Dy2 Ho4 Co6 Sn23'
_cell_volume   808.78392243
_cell_formula_units_Z   1
loop_
 _symmetry_equiv_pos_site_id
 _symmetry_equiv_pos_as_xyz
  1  'x, y, z'
loop_
 _atom_site_type_symbol
 _atom_site_label
 _atom_site_symmetry_multiplicity
 _atom_site_fract_x
 _atom_site_fract_y
 _atom_site_fract_z
 _atom_site_occupancy
  Na  Na0  1  0.000030  0.000015  0.000081  1
  Dy  Dy1  1  0.520086  0.479812  0.694400  1
  Dy  Dy2  1  0.520086  0.040273  0.694400  1
  Ho  Ho3  1  0.960268  0.480134  0.694543  1
  Ho  Ho4  1  0.039724  0.519862  0.305423  1
  Ho  Ho5  1  0.480108  0.960251  0.305428  1
  Ho  Ho6  1  0.480108  0.519857  0.305428  1
  Co  Co7  1  0.170450  0.829105  0.798938  1
  Co  Co8  1  0.170450  0.341345  0.798938  1
  Co  Co9  1  0.658844  0.829422  0.798975  1
  Co  Co10  1  0.341333  0.170666  0.201095  1
  Co  Co11  1  0.829357  0.658626  0.201195  1
  Co  Co12  1  0.829357  0.170730  0.201195  1
  Sn  Sn13  1  0.666670  0.333334  0.185114  1
  Sn  Sn14  1  0.667032  0.333516  0.882767  1
  Sn  Sn15  1  0.333329  0.666665  0.117671  1
  Sn  Sn16  1  0.344209  0.344268  0.999835  1
  Sn  Sn17  1  0.000128  0.655782  0.999974  1
  Sn  Sn18  1  0.655748  0.000123  0.000166  1
  Sn  Sn19  1  0.655748  0.655625  0.000166  1
  Sn  Sn20  1  0.333219  0.666610  0.814960  1
  Sn  Sn21  1  0.436452  0.218227  0.453947  1
  Sn  Sn22  1  0.218163  0.781503  0.545680  1
  Sn  Sn23  1  0.218163  0.436658  0.545680  1
  Sn  Sn24  1  0.563409  0.781703  0.545551  1
  Sn  Sn25  1  0.116457  0.883514  0.271653  1
  Sn  Sn26  1  0.781762  0.563377  0.454129  1
  Sn  Sn27  1  0.781762  0.218388  0.454129  1
  Sn  Sn28  1  0.344209  0.999941  0.999835  1
  Sn  Sn29  1  0.116457  0.232943  0.271653  1
  Sn  Sn30  1  0.767053  0.883526  0.271650  1
  Sn  Sn31  1  0.232444  0.116222  0.728446  1
  Sn  Sn32  1  0.883805  0.767158  0.728487  1
  Sn  Sn33  1  0.883805  0.116647  0.728487  1
  Sn  Sn34  1  0.999649  0.999825  0.500006  1
  Sn  Sn35  1  0.000128  0.344346  0.999974  1
