# generated using pymatgen
data_Sc2ReH6
_symmetry_space_group_name_H-M   'P 1'
_cell_length_a   4.80360838
_cell_length_b   4.80360835
_cell_length_c   4.80360900
_cell_angle_alpha   119.99999760
_cell_angle_beta   119.99999736
_cell_angle_gamma   89.99999960
_symmetry_Int_Tables_number   1
_chemical_formula_structural   Sc2ReH6
_chemical_formula_sum   'Sc2 Re1 H6'
_cell_volume   78.37686200
_cell_formula_units_Z   1
loop_
 _symmetry_equiv_pos_site_id
 _symmetry_equiv_pos_as_xyz
  1  'x, y, z'
loop_
 _atom_site_type_symbol
 _atom_site_label
 _atom_site_symmetry_multiplicity
 _atom_site_fract_x
 _atom_site_fract_y
 _atom_site_fract_z
 _atom_site_occupancy
  Sc  Sc0  1  0.749998  0.249999  0.499999  1
  Sc  Sc1  1  0.249999  0.749998  0.499999  1
  Re  Re2  1  0.000000  0.000000  0.000000  1
  H  H3  1  0.259668  0.259668  0.000000  1
  H  H4  1  0.740330  0.259670  0.000000  1
  H  H5  1  0.259670  0.740330  0.000000  1
  H  H6  1  0.740330  0.740330  0.000000  1
  H  H7  1  0.740332  0.740332  0.480661  1
  H  H8  1  0.259668  0.259668  0.519336  1
