# generated using pymatgen
data_Pr2TaFe5Ge4
_symmetry_space_group_name_H-M   'P 1'
_cell_length_a   4.12274400
_cell_length_b   4.12274397
_cell_length_c   14.01457900
_cell_angle_alpha   90.00000000
_cell_angle_beta   90.00000000
_cell_angle_gamma   120.00000026
_symmetry_Int_Tables_number   1
_chemical_formula_structural   Pr2TaFe5Ge4
_chemical_formula_sum   'Pr2 Ta1 Fe5 Ge4'
_cell_volume   206.29249089
_cell_formula_units_Z   1
loop_
 _symmetry_equiv_pos_site_id
 _symmetry_equiv_pos_as_xyz
  1  'x, y, z'
loop_
 _atom_site_type_symbol
 _atom_site_label
 _atom_site_symmetry_multiplicity
 _atom_site_fract_x
 _atom_site_fract_y
 _atom_site_fract_z
 _atom_site_occupancy
  Pr  Pr0  1  0.000000  0.000000  0.252536  1
  Pr  Pr1  1  0.000000  0.000000  0.747464  1
  Ta  Ta2  1  0.000000  0.000000  0.000000  1
  Fe  Fe3  1  0.666667  0.333334  0.062031  1
  Fe  Fe4  1  0.666667  0.333334  0.435403  1
  Fe  Fe5  1  0.000000  0.000000  0.500000  1
  Fe  Fe6  1  0.333334  0.666667  0.564598  1
  Fe  Fe7  1  0.333334  0.666667  0.937969  1
  Ge  Ge8  1  0.333334  0.666667  0.114557  1
  Ge  Ge9  1  0.333334  0.666667  0.392419  1
  Ge  Ge10  1  0.666667  0.333334  0.607581  1
  Ge  Ge11  1  0.666667  0.333334  0.885443  1
