# generated using pymatgen
data_La3PdAu3
_symmetry_space_group_name_H-M   'P 1'
_cell_length_a   8.47353478
_cell_length_b   8.37639319
_cell_length_c   8.41744453
_cell_angle_alpha   113.95295583
_cell_angle_beta   114.45343252
_cell_angle_gamma   114.06373801
_symmetry_Int_Tables_number   1
_chemical_formula_structural   La3PdAu3
_chemical_formula_sum   'La6 Pd2 Au6'
_cell_volume   358.72007967
_cell_formula_units_Z   2
loop_
 _symmetry_equiv_pos_site_id
 _symmetry_equiv_pos_as_xyz
  1  'x, y, z'
loop_
 _atom_site_type_symbol
 _atom_site_label
 _atom_site_symmetry_multiplicity
 _atom_site_fract_x
 _atom_site_fract_y
 _atom_site_fract_z
 _atom_site_occupancy
  La  La0  1  0.988806  0.605118  0.732451  1
  La  La1  1  0.717900  0.974452  0.595457  1
  La  La2  1  0.610897  0.732901  0.987205  1
  La  La3  1  0.028733  0.393628  0.269485  1
  La  La4  1  0.266171  0.018076  0.389418  1
  La  La5  1  0.384072  0.270684  0.019711  1
  Pd  Pd6  1  0.988359  0.988496  0.987553  1
  Pd  Pd7  1  0.227673  0.569247  0.064166  1
  Au  Au8  1  0.510132  0.505728  0.508426  1
  Au  Au9  1  0.930195  0.765753  0.432807  1
  Au  Au10  1  0.436791  0.937498  0.772904  1
  Au  Au11  1  0.772341  0.433830  0.931542  1
  Au  Au12  1  0.074640  0.238965  0.577449  1
  Au  Au13  1  0.563290  0.065624  0.231426  1
