# generated using pymatgen
data_ZrCo5As3
_symmetry_space_group_name_H-M   'P 1'
_cell_length_a   3.71714400
_cell_length_b   12.07333700
_cell_length_c   10.55863600
_cell_angle_alpha   90.00000000
_cell_angle_beta   90.00000000
_cell_angle_gamma   90.00000000
_symmetry_Int_Tables_number   1
_chemical_formula_structural   ZrCo5As3
_chemical_formula_sum   'Zr4 Co20 As12'
_cell_volume   473.85397388
_cell_formula_units_Z   4
loop_
 _symmetry_equiv_pos_site_id
 _symmetry_equiv_pos_as_xyz
  1  'x, y, z'
loop_
 _atom_site_type_symbol
 _atom_site_label
 _atom_site_symmetry_multiplicity
 _atom_site_fract_x
 _atom_site_fract_y
 _atom_site_fract_z
 _atom_site_occupancy
  Zr  Zr0  1  0.750000  0.702185  0.078936  1
  Zr  Zr1  1  0.250000  0.297815  0.921064  1
  Zr  Zr2  1  0.250000  0.797815  0.578936  1
  Zr  Zr3  1  0.750000  0.202185  0.421064  1
  Co  Co4  1  0.750000  0.697938  0.385588  1
  Co  Co5  1  0.250000  0.302062  0.614412  1
  Co  Co6  1  0.250000  0.802062  0.885588  1
  Co  Co7  1  0.750000  0.197938  0.114412  1
  Co  Co8  1  0.750000  0.993422  0.216359  1
  Co  Co9  1  0.250000  0.006578  0.783641  1
  Co  Co10  1  0.250000  0.506578  0.716359  1
  Co  Co11  1  0.750000  0.493422  0.283641  1
  Co  Co12  1  0.750000  0.679961  0.783228  1
  Co  Co13  1  0.250000  0.320039  0.216772  1
  Co  Co14  1  0.250000  0.820039  0.283228  1
  Co  Co15  1  0.750000  0.179961  0.716772  1
  Co  Co16  1  0.750000  0.930280  0.969552  1
  Co  Co17  1  0.250000  0.069720  0.030448  1
  Co  Co18  1  0.250000  0.569720  0.469552  1
  Co  Co19  1  0.750000  0.430280  0.530448  1
  Co  Co20  1  0.750000  0.986580  0.590455  1
  Co  Co21  1  0.250000  0.013420  0.409545  1
  Co  Co22  1  0.250000  0.513420  0.090455  1
  Co  Co23  1  0.750000  0.486579  0.909545  1
  As  As24  1  0.750000  0.615253  0.585861  1
  As  As25  1  0.250000  0.384747  0.414139  1
  As  As26  1  0.250000  0.884747  0.085861  1
  As  As27  1  0.750000  0.115253  0.914139  1
  As  As28  1  0.750000  0.888847  0.400531  1
  As  As29  1  0.250000  0.111153  0.599469  1
  As  As30  1  0.250000  0.611153  0.900531  1
  As  As31  1  0.750000  0.388847  0.099469  1
  As  As32  1  0.750000  0.870932  0.765705  1
  As  As33  1  0.250000  0.129068  0.234295  1
  As  As34  1  0.250000  0.629068  0.265705  1
  As  As35  1  0.750000  0.370932  0.734295  1
