# generated using pymatgen
data_Zr3Ti2Sn2BSb
_symmetry_space_group_name_H-M   'P 1'
_cell_length_a   8.40464514
_cell_length_b   8.40651836
_cell_length_c   5.62657900
_cell_angle_alpha   90.00000000
_cell_angle_beta   90.00000000
_cell_angle_gamma   120.00737300
_symmetry_Int_Tables_number   1
_chemical_formula_structural   Zr3Ti2Sn2BSb
_chemical_formula_sum   'Zr6 Ti4 Sn4 B2 Sb2'
_cell_volume   344.25347210
_cell_formula_units_Z   2
loop_
 _symmetry_equiv_pos_site_id
 _symmetry_equiv_pos_as_xyz
  1  'x, y, z'
loop_
 _atom_site_type_symbol
 _atom_site_label
 _atom_site_symmetry_multiplicity
 _atom_site_fract_x
 _atom_site_fract_y
 _atom_site_fract_z
 _atom_site_occupancy
  Zr  Zr0  1  0.765525  0.766352  0.750000  1
  Zr  Zr1  1  0.234475  0.000827  0.750000  1
  Zr  Zr2  1  0.000000  0.233385  0.750000  1
  Zr  Zr3  1  0.235349  0.235082  0.250000  1
  Zr  Zr4  1  0.764651  0.999734  0.250000  1
  Zr  Zr5  1  0.000000  0.766563  0.250000  1
  Ti  Ti6  1  0.664846  0.331814  0.999263  1
  Ti  Ti7  1  0.335154  0.666969  0.999263  1
  Ti  Ti8  1  0.335154  0.666969  0.500737  1
  Ti  Ti9  1  0.664846  0.331814  0.500737  1
  Sn  Sn10  1  0.000000  0.595539  0.750000  1
  Sn  Sn11  1  0.597033  0.596348  0.250000  1
  Sn  Sn12  1  0.402967  0.999316  0.250000  1
  Sn  Sn13  1  0.000000  0.404653  0.250000  1
  B  B14  1  0.000000  0.999942  0.001104  1
  B  B15  1  0.000000  0.999942  0.498896  1
  Sb  Sb16  1  0.404722  0.404734  0.750000  1
  Sb  Sb17  1  0.595278  0.000012  0.750000  1
