# generated using pymatgen
data_Tm8Re9Si16Mo3
_symmetry_space_group_name_H-M   'P 1'
_cell_length_a   6.75658076
_cell_length_b   6.75657989
_cell_length_c   12.79733630
_cell_angle_alpha   90.05920375
_cell_angle_beta   90.05920358
_cell_angle_gamma   90.00463659
_symmetry_Int_Tables_number   1
_chemical_formula_structural   Tm8Re9Si16Mo3
_chemical_formula_sum   'Tm8 Re9 Si16 Mo3'
_cell_volume   584.21540732
_cell_formula_units_Z   1
loop_
 _symmetry_equiv_pos_site_id
 _symmetry_equiv_pos_as_xyz
  1  'x, y, z'
loop_
 _atom_site_type_symbol
 _atom_site_label
 _atom_site_symmetry_multiplicity
 _atom_site_fract_x
 _atom_site_fract_y
 _atom_site_fract_z
 _atom_site_occupancy
  Tm  Tm0  1  0.009488  0.664164  0.030247  1
  Tm  Tm1  1  0.990030  0.336140  0.531012  1
  Tm  Tm2  1  0.335836  0.990512  0.469753  1
  Tm  Tm3  1  0.162095  0.490286  0.779962  1
  Tm  Tm4  1  0.836635  0.507791  0.280144  1
  Tm  Tm5  1  0.492209  0.163365  0.219856  1
  Tm  Tm6  1  0.509714  0.837905  0.720038  1
  Tm  Tm7  1  0.663860  0.009970  0.968988  1
  Re  Re8  1  0.011638  0.809676  0.632231  1
  Re  Re9  1  0.987966  0.186383  0.130922  1
  Re  Re10  1  0.813617  0.012034  0.369078  1
  Re  Re11  1  0.311922  0.487087  0.381996  1
  Re  Re12  1  0.689088  0.518225  0.882394  1
  Re  Re13  1  0.481775  0.310912  0.617606  1
  Re  Re14  1  0.512913  0.688078  0.118004  1
  Re  Re15  1  0.190324  0.988362  0.867769  1
  Re  Re16  1  0.837012  0.162988  0.750000  1
  Si  Si17  1  0.020200  0.720929  0.439162  1
  Si  Si18  1  0.615560  0.301081  0.431931  1
  Si  Si19  1  0.384616  0.698784  0.931218  1
  Si  Si20  1  0.195542  0.112305  0.681704  1
  Si  Si21  1  0.301216  0.615384  0.568782  1
  Si  Si22  1  0.698919  0.384440  0.068069  1
  Si  Si23  1  0.801976  0.883921  0.181737  1
  Si  Si24  1  0.116079  0.198024  0.318263  1
  Si  Si25  1  0.979485  0.277920  0.938032  1
  Si  Si26  1  0.722080  0.020515  0.561968  1
  Si  Si27  1  0.223065  0.479033  0.188841  1
  Si  Si28  1  0.772418  0.516850  0.690162  1
  Si  Si29  1  0.483150  0.227582  0.809838  1
  Si  Si30  1  0.520967  0.776935  0.311159  1
  Si  Si31  1  0.279071  0.979800  0.060838  1
  Si  Si32  1  0.887695  0.804458  0.818296  1
  Mo  Mo33  1  0.661727  0.662637  0.500054  1
  Mo  Mo34  1  0.162753  0.837247  0.250000  1
  Mo  Mo35  1  0.337363  0.338273  0.999946  1
