# generated using pymatgen
data_Dy6Al24ZnRu6Rh
_symmetry_space_group_name_H-M   'P 1'
_cell_length_a   8.84636243
_cell_length_b   8.84636271
_cell_length_c   9.53845985
_cell_angle_alpha   89.89994875
_cell_angle_beta   90.10004844
_cell_angle_gamma   119.69773850
_symmetry_Int_Tables_number   1
_chemical_formula_structural   Dy6Al24ZnRu6Rh
_chemical_formula_sum   'Dy6 Al24 Zn1 Ru6 Rh1'
_cell_volume   648.41372593
_cell_formula_units_Z   1
loop_
 _symmetry_equiv_pos_site_id
 _symmetry_equiv_pos_as_xyz
  1  'x, y, z'
loop_
 _atom_site_type_symbol
 _atom_site_label
 _atom_site_symmetry_multiplicity
 _atom_site_fract_x
 _atom_site_fract_y
 _atom_site_fract_z
 _atom_site_occupancy
  Dy  Dy0  1  0.193871  0.806129  0.247848  1
  Dy  Dy1  1  0.190408  0.385237  0.253021  1
  Dy  Dy2  1  0.614763  0.809592  0.253021  1
  Dy  Dy3  1  0.806129  0.193871  0.752152  1
  Dy  Dy4  1  0.809592  0.614763  0.746979  1
  Dy  Dy5  1  0.385237  0.190408  0.746979  1
  Al  Al6  1  0.563330  0.436670  0.245999  1
  Al  Al7  1  0.560978  0.121881  0.250556  1
  Al  Al8  1  0.878119  0.439022  0.250556  1
  Al  Al9  1  0.436670  0.563330  0.754001  1
  Al  Al10  1  0.439022  0.878119  0.749444  1
  Al  Al11  1  0.121881  0.560978  0.749444  1
  Al  Al12  1  0.322081  0.151179  0.418910  1
  Al  Al13  1  0.836740  0.163260  0.422051  1
  Al  Al14  1  0.848821  0.677919  0.418910  1
  Al  Al15  1  0.677919  0.848821  0.581090  1
  Al  Al16  1  0.163260  0.836740  0.577949  1
  Al  Al17  1  0.151179  0.322081  0.581090  1
  Al  Al18  1  0.676242  0.839863  0.923700  1
  Al  Al19  1  0.162933  0.837067  0.922481  1
  Al  Al20  1  0.160137  0.323758  0.923700  1
  Al  Al21  1  0.323758  0.160137  0.076300  1
  Al  Al22  1  0.837067  0.162933  0.077519  1
  Al  Al23  1  0.839863  0.676242  0.076300  1
  Al  Al24  1  0.670705  0.329295  0.521233  1
  Al  Al25  1  0.329295  0.670705  0.478767  1
  Al  Al26  1  0.332219  0.667781  0.018403  1
  Al  Al27  1  0.667781  0.332219  0.981597  1
  Al  Al28  1  0.998632  0.001368  0.249636  1
  Al  Al29  1  0.001368  0.998632  0.750364  1
  Zn  Zn30  1  0.500000  0.500000  0.500000  1
  Ru  Ru31  1  0.000000  0.000000  0.500000  1
  Ru  Ru32  1  0.000000  0.000000  0.000000  1
  Ru  Ru33  1  0.500000  0.000000  0.500000  1
  Ru  Ru34  1  0.000000  0.500000  0.500000  1
  Ru  Ru35  1  0.500000  0.000000  0.000000  1
  Ru  Ru36  1  0.000000  0.500000  0.000000  1
  Rh  Rh37  1  0.500000  0.500000  0.000000  1
