# generated using pymatgen
data_PrHo5C2Cl7
_symmetry_space_group_name_H-M   'P 1'
_cell_length_a   10.17932566
_cell_length_b   10.17932506
_cell_length_c   11.58352887
_cell_angle_alpha   56.41881606
_cell_angle_beta   56.41881711
_cell_angle_gamma   21.05788272
_symmetry_Int_Tables_number   1
_chemical_formula_structural   PrHo5C2Cl7
_chemical_formula_sum   'Pr1 Ho5 C2 Cl7'
_cell_volume   356.54634577
_cell_formula_units_Z   1
loop_
 _symmetry_equiv_pos_site_id
 _symmetry_equiv_pos_as_xyz
  1  'x, y, z'
loop_
 _atom_site_type_symbol
 _atom_site_label
 _atom_site_symmetry_multiplicity
 _atom_site_fract_x
 _atom_site_fract_y
 _atom_site_fract_z
 _atom_site_occupancy
  Pr  Pr0  1  0.223613  0.223613  0.857996  1
  Ho  Ho1  1  0.317573  0.317573  0.358627  1
  Ho  Ho2  1  0.128196  0.128196  0.442611  1
  Ho  Ho3  1  0.871134  0.871134  0.558639  1
  Ho  Ho4  1  0.683692  0.683692  0.640717  1
  Ho  Ho5  1  0.774445  0.774445  0.151162  1
  C  C6  1  0.280722  0.280722  0.602199  1
  C  C7  1  0.721137  0.721137  0.388590  1
  Cl  Cl8  1  0.168299  0.168299  0.168715  1
  Cl  Cl9  1  0.841522  0.841522  0.833386  1
  Cl  Cl10  1  0.060540  0.060540  0.712840  1
  Cl  Cl11  1  0.940215  0.940215  0.284438  1
  Cl  Cl12  1  0.500834  0.500834  0.498642  1
  Cl  Cl13  1  0.387660  0.387660  0.068575  1
  Cl  Cl14  1  0.600418  0.600418  0.932863  1
