# generated using pymatgen
data_Yb2Pa(GaIr)3
_symmetry_space_group_name_H-M   'P 1'
_cell_length_a   7.12469962
_cell_length_b   7.26915763
_cell_length_c   3.91311000
_cell_angle_alpha   90.00000000
_cell_angle_beta   90.00000000
_cell_angle_gamma   120.67301325
_symmetry_Int_Tables_number   1
_chemical_formula_structural   Yb2Pa(GaIr)3
_chemical_formula_sum   'Yb2 Pa1 Ga3 Ir3'
_cell_volume   174.30824732
_cell_formula_units_Z   1
loop_
 _symmetry_equiv_pos_site_id
 _symmetry_equiv_pos_as_xyz
  1  'x, y, z'
loop_
 _atom_site_type_symbol
 _atom_site_label
 _atom_site_symmetry_multiplicity
 _atom_site_fract_x
 _atom_site_fract_y
 _atom_site_fract_z
 _atom_site_occupancy
  Yb  Yb0  1  0.594023  0.589703  0.500000  1
  Yb  Yb1  1  0.405977  0.995679  0.500000  1
  Pa  Pa2  1  0.000000  0.419009  0.500000  1
  Ga  Ga3  1  0.000000  0.766939  0.000000  1
  Ga  Ga4  1  0.260671  0.250840  0.000000  1
  Ga  Ga5  1  0.739329  0.990169  0.000000  1
  Ir  Ir6  1  0.304748  0.638047  0.000000  1
  Ir  Ir7  1  0.695252  0.333298  0.000000  1
  Ir  Ir8  1  0.000000  0.016314  0.500000  1
