# generated using pymatgen
data_LiNd3Ag3Sn4
_symmetry_space_group_name_H-M   'P 1'
_cell_length_a   8.90555674
_cell_length_b   8.89933775
_cell_length_c   8.89933822
_cell_angle_alpha   149.38167335
_cell_angle_beta   131.08846305
_cell_angle_gamma   58.80850497
_symmetry_Int_Tables_number   1
_chemical_formula_structural   LiNd3Ag3Sn4
_chemical_formula_sum   'Li1 Nd3 Ag3 Sn4'
_cell_volume   268.64725944
_cell_formula_units_Z   1
loop_
 _symmetry_equiv_pos_site_id
 _symmetry_equiv_pos_as_xyz
  1  'x, y, z'
loop_
 _atom_site_type_symbol
 _atom_site_label
 _atom_site_symmetry_multiplicity
 _atom_site_fract_x
 _atom_site_fract_y
 _atom_site_fract_z
 _atom_site_occupancy
  Li  Li0  1  0.483272  0.670755  0.812518  1
  Nd  Nd1  1  0.498506  0.998152  0.500354  1
  Nd  Nd2  1  0.875453  0.871537  0.003915  1
  Nd  Nd3  1  0.129444  0.130123  0.999321  1
  Ag  Ag4  1  0.855392  0.670806  0.184586  1
  Ag  Ag5  1  0.134341  0.331254  0.803086  1
  Ag  Ag6  1  0.524997  0.327581  0.197415  1
  Sn  Sn7  1  0.283568  0.783334  0.500234  1
  Sn  Sn8  1  0.707647  0.212271  0.495376  1
  Sn  Sn9  1  0.806873  0.500358  0.306515  1
  Sn  Sn10  1  0.200508  0.503830  0.696678  1
