# generated using pymatgen
data_LiLa16Cd3(IrRu)2
_symmetry_space_group_name_H-M   'P 1'
_cell_length_a   10.09059389
_cell_length_b   10.09059366
_cell_length_c   10.11498661
_cell_angle_alpha   60.23636442
_cell_angle_beta   60.23636426
_cell_angle_gamma   60.19083324
_symmetry_Int_Tables_number   1
_chemical_formula_structural   LiLa16Cd3(IrRu)2
_chemical_formula_sum   'Li1 La16 Cd3 Ir2 Ru2'
_cell_volume   731.90215088
_cell_formula_units_Z   1
loop_
 _symmetry_equiv_pos_site_id
 _symmetry_equiv_pos_as_xyz
  1  'x, y, z'
loop_
 _atom_site_type_symbol
 _atom_site_label
 _atom_site_symmetry_multiplicity
 _atom_site_fract_x
 _atom_site_fract_y
 _atom_site_fract_z
 _atom_site_occupancy
  Li  Li0  1  0.678788  0.678788  0.963353  1
  La  La1  1  0.904055  0.904055  0.905358  1
  La  La2  1  0.435888  0.435888  0.063306  1
  La  La3  1  0.059433  0.059433  0.440733  1
  La  La4  1  0.440263  0.064527  0.062067  1
  La  La5  1  0.308467  0.688835  0.312415  1
  La  La6  1  0.688831  0.688831  0.313027  1
  La  La7  1  0.688835  0.308467  0.312415  1
  La  La8  1  0.288229  0.902712  0.905040  1
  La  La9  1  0.902712  0.288229  0.905040  1
  La  La10  1  0.309893  0.689874  0.690080  1
  La  La11  1  0.903059  0.903059  0.289748  1
  La  La12  1  0.064527  0.440263  0.062067  1
  La  La13  1  0.309192  0.309192  0.690347  1
  La  La14  1  0.061036  0.442331  0.436617  1
  La  La15  1  0.442331  0.061036  0.436617  1
  La  La16  1  0.689874  0.309893  0.690080  1
  Cd  Cd17  1  0.989315  0.669511  0.671710  1
  Cd  Cd18  1  0.669511  0.989315  0.671710  1
  Cd  Cd19  1  0.669632  0.669632  0.672254  1
  Ir  Ir20  1  0.109997  0.109997  0.672197  1
  Ir  Ir21  1  0.110145  0.110145  0.108717  1
  Ru  Ru22  1  0.112507  0.663474  0.112551  1
  Ru  Ru23  1  0.663474  0.112507  0.112551  1
