# generated using pymatgen
data_LiTb16Tl(InIr2)2
_symmetry_space_group_name_H-M   'P 1'
_cell_length_a   9.70325192
_cell_length_b   9.70449294
_cell_length_c   9.70449254
_cell_angle_alpha   59.93025591
_cell_angle_beta   59.96792278
_cell_angle_gamma   59.96792474
_symmetry_Int_Tables_number   1
_chemical_formula_structural   LiTb16Tl(InIr2)2
_chemical_formula_sum   'Li1 Tb16 Tl1 In2 Ir4'
_cell_volume   645.51753501
_cell_formula_units_Z   1
loop_
 _symmetry_equiv_pos_site_id
 _symmetry_equiv_pos_as_xyz
  1  'x, y, z'
loop_
 _atom_site_type_symbol
 _atom_site_label
 _atom_site_symmetry_multiplicity
 _atom_site_fract_x
 _atom_site_fract_y
 _atom_site_fract_z
 _atom_site_occupancy
  Li  Li0  1  0.321064  0.321218  0.321218  1
  Tb  Tb1  1  0.099095  0.705121  0.098552  1
  Tb  Tb2  1  0.942230  0.941154  0.558551  1
  Tb  Tb3  1  0.942230  0.558551  0.941154  1
  Tb  Tb4  1  0.311310  0.690182  0.311200  1
  Tb  Tb5  1  0.936713  0.562199  0.562199  1
  Tb  Tb6  1  0.311310  0.311200  0.690182  1
  Tb  Tb7  1  0.099864  0.099055  0.099055  1
  Tb  Tb8  1  0.561732  0.561512  0.936658  1
  Tb  Tb9  1  0.099095  0.098552  0.705121  1
  Tb  Tb10  1  0.690395  0.309146  0.691123  1
  Tb  Tb11  1  0.690395  0.691123  0.309146  1
  Tb  Tb12  1  0.689859  0.310753  0.310753  1
  Tb  Tb13  1  0.309672  0.690432  0.690432  1
  Tb  Tb14  1  0.561732  0.936658  0.561512  1
  Tb  Tb15  1  0.704714  0.098908  0.098908  1
  Tb  Tb16  1  0.558315  0.941942  0.941942  1
  Tl  Tl17  1  0.999780  0.334726  0.334726  1
  In  In18  1  0.333821  0.002748  0.332084  1
  In  In19  1  0.333821  0.332084  0.002748  1
  Ir  Ir20  1  0.892329  0.892390  0.892390  1
  Ir  Ir21  1  0.892224  0.892336  0.325894  1
  Ir  Ir22  1  0.326077  0.892115  0.892115  1
  Ir  Ir23  1  0.892224  0.325894  0.892336  1
