# generated using pymatgen
data_NdSm3(Tm3Si4)2
_symmetry_space_group_name_H-M   'P 1'
_cell_length_a   7.67997602
_cell_length_b   7.68015542
_cell_length_c   14.14407064
_cell_angle_alpha   90.03779779
_cell_angle_beta   89.94107709
_cell_angle_gamma   89.99866686
_symmetry_Int_Tables_number   1
_chemical_formula_structural   NdSm3(Tm3Si4)2
_chemical_formula_sum   'Nd2 Sm6 Tm12 Si16'
_cell_volume   834.26488632
_cell_formula_units_Z   2
loop_
 _symmetry_equiv_pos_site_id
 _symmetry_equiv_pos_as_xyz
  1  'x, y, z'
loop_
 _atom_site_type_symbol
 _atom_site_label
 _atom_site_symmetry_multiplicity
 _atom_site_fract_x
 _atom_site_fract_y
 _atom_site_fract_z
 _atom_site_occupancy
  Nd  Nd0  1  0.143277  0.507573  0.290895  1
  Nd  Nd1  1  0.007443  0.356767  0.040395  1
  Sm  Sm2  1  0.642075  0.993166  0.459121  1
  Sm  Sm3  1  0.358188  0.006645  0.958672  1
  Sm  Sm4  1  0.992974  0.642227  0.541344  1
  Sm  Sm5  1  0.493286  0.858153  0.208949  1
  Sm  Sm6  1  0.506772  0.142039  0.708834  1
  Sm  Sm7  1  0.857798  0.493121  0.790837  1
  Tm  Tm8  1  0.493060  0.359775  0.124181  1
  Tm  Tm9  1  0.992603  0.139836  0.625800  1
  Tm  Tm10  1  0.859596  0.007438  0.873919  1
  Tm  Tm11  1  0.139992  0.992685  0.374457  1
  Tm  Tm12  1  0.507806  0.640166  0.624194  1
  Tm  Tm13  1  0.360135  0.492925  0.875564  1
  Tm  Tm14  1  0.640192  0.507565  0.376020  1
  Tm  Tm15  1  0.007258  0.859789  0.125794  1
  Tm  Tm16  1  0.318473  0.317898  0.500172  1
  Tm  Tm17  1  0.181907  0.818163  0.749945  1
  Tm  Tm18  1  0.817476  0.180941  0.250159  1
  Tm  Tm19  1  0.681272  0.682322  0.999927  1
  Si  Si20  1  0.290824  0.938369  0.561896  1
  Si  Si21  1  0.708494  0.060967  0.061809  1
  Si  Si22  1  0.937296  0.289885  0.438665  1
  Si  Si23  1  0.439111  0.208450  0.311853  1
  Si  Si24  1  0.561721  0.790785  0.811850  1
  Si  Si25  1  0.209327  0.438209  0.688151  1
  Si  Si26  1  0.788644  0.563235  0.188278  1
  Si  Si27  1  0.062321  0.710563  0.937771  1
  Si  Si28  1  0.796311  0.848060  0.687095  1
  Si  Si29  1  0.205226  0.149890  0.187556  1
  Si  Si30  1  0.846894  0.797027  0.312822  1
  Si  Si31  1  0.348940  0.704827  0.437924  1
  Si  Si32  1  0.650747  0.295905  0.936703  1
  Si  Si33  1  0.703629  0.347994  0.562862  1
  Si  Si34  1  0.297026  0.652999  0.062775  1
  Si  Si35  1  0.151902  0.203643  0.812812  1
