# generated using pymatgen
data_TbHf7Ta8(TiSi4)4
_symmetry_space_group_name_H-M   'P 1'
_cell_length_a   6.85794462
_cell_length_b   6.86459694
_cell_length_c   12.63153412
_cell_angle_alpha   89.90166895
_cell_angle_beta   89.98713632
_cell_angle_gamma   89.98930374
_symmetry_Int_Tables_number   1
_chemical_formula_structural   TbHf7Ta8(TiSi4)4
_chemical_formula_sum   'Tb1 Hf7 Ta8 Ti4 Si16'
_cell_volume   594.65415496
_cell_formula_units_Z   1
loop_
 _symmetry_equiv_pos_site_id
 _symmetry_equiv_pos_as_xyz
  1  'x, y, z'
loop_
 _atom_site_type_symbol
 _atom_site_label
 _atom_site_symmetry_multiplicity
 _atom_site_fract_x
 _atom_site_fract_y
 _atom_site_fract_z
 _atom_site_occupancy
  Tb  Tb0  1  0.995261  0.661035  0.031075  1
  Hf  Hf1  1  0.342410  0.999279  0.470563  1
  Hf  Hf2  1  0.500678  0.842734  0.718440  1
  Hf  Hf3  1  0.497112  0.157822  0.221853  1
  Hf  Hf4  1  0.842360  0.502750  0.281787  1
  Hf  Hf5  1  0.159895  0.498503  0.779460  1
  Hf  Hf6  1  0.654818  0.002003  0.968810  1
  Hf  Hf7  1  0.998965  0.341673  0.529498  1
  Ta  Ta8  1  0.332234  0.327857  0.999821  1
  Ta  Ta9  1  0.170348  0.831706  0.251992  1
  Ta  Ta10  1  0.830094  0.169915  0.747864  1
  Ta  Ta11  1  0.670196  0.669623  0.499654  1
  Ta  Ta12  1  0.155153  0.004016  0.871224  1
  Ta  Ta13  1  0.496906  0.651631  0.125058  1
  Ta  Ta14  1  0.503928  0.348421  0.622752  1
  Ta  Ta15  1  0.651408  0.492792  0.873905  1
  Ti  Ti16  1  0.348191  0.503331  0.378234  1
  Ti  Ti17  1  0.847590  0.996644  0.374582  1
  Ti  Ti18  1  0.005690  0.152652  0.128262  1
  Ti  Ti19  1  0.995413  0.848124  0.625493  1
  Si  Si20  1  0.205996  0.133494  0.673931  1
  Si  Si21  1  0.366776  0.706890  0.926060  1
  Si  Si22  1  0.635351  0.292131  0.424701  1
  Si  Si23  1  0.706021  0.356630  0.074622  1
  Si  Si24  1  0.291212  0.638482  0.572661  1
  Si  Si25  1  0.791045  0.872189  0.181604  1
  Si  Si26  1  0.134955  0.206909  0.325219  1
  Si  Si27  1  0.861825  0.795608  0.818527  1
  Si  Si28  1  0.298271  0.958466  0.065616  1
  Si  Si29  1  0.543700  0.798190  0.316211  1
  Si  Si30  1  0.454874  0.200163  0.811978  1
  Si  Si31  1  0.802346  0.546762  0.683862  1
  Si  Si32  1  0.203211  0.451480  0.189735  1
  Si  Si33  1  0.705746  0.043703  0.561550  1
  Si  Si34  1  0.954796  0.292225  0.937059  1
  Si  Si35  1  0.045222  0.704170  0.436340  1
