# generated using pymatgen
data_Lu2Si13GeIr6
_symmetry_space_group_name_H-M   'P 1'
_cell_length_a   8.04563059
_cell_length_b   8.04563118
_cell_length_c   8.04563133
_cell_angle_alpha   56.56379500
_cell_angle_beta   56.56379578
_cell_angle_gamma   56.56379622
_symmetry_Int_Tables_number   1
_chemical_formula_structural   Lu2Si13GeIr6
_chemical_formula_sum   'Lu2 Si13 Ge1 Ir6'
_cell_volume   339.02898428
_cell_formula_units_Z   1
loop_
 _symmetry_equiv_pos_site_id
 _symmetry_equiv_pos_as_xyz
  1  'x, y, z'
loop_
 _atom_site_type_symbol
 _atom_site_label
 _atom_site_symmetry_multiplicity
 _atom_site_fract_x
 _atom_site_fract_y
 _atom_site_fract_z
 _atom_site_occupancy
  Lu  Lu0  1  0.000033  0.000033  0.000033  1
  Lu  Lu1  1  0.499967  0.499967  0.499967  1
  Si  Si2  1  0.250000  0.250000  0.250000  1
  Si  Si3  1  0.851121  0.066674  0.671343  1
  Si  Si4  1  0.671343  0.851121  0.066674  1
  Si  Si5  1  0.066674  0.671343  0.851121  1
  Si  Si6  1  0.648879  0.828657  0.433326  1
  Si  Si7  1  0.433326  0.648879  0.828657  1
  Si  Si8  1  0.828657  0.433326  0.648879  1
  Si  Si9  1  0.172580  0.562227  0.351232  1
  Si  Si10  1  0.562227  0.351232  0.172580  1
  Si  Si11  1  0.351232  0.172580  0.562227  1
  Si  Si12  1  0.937773  0.327420  0.148768  1
  Si  Si13  1  0.327420  0.148768  0.937773  1
  Si  Si14  1  0.148768  0.937773  0.327420  1
  Ge  Ge15  1  0.750000  0.750000  0.750000  1
  Ir  Ir16  1  0.077525  0.422475  0.750000  1
  Ir  Ir17  1  0.250000  0.928383  0.571617  1
  Ir  Ir18  1  0.571617  0.250000  0.928383  1
  Ir  Ir19  1  0.928383  0.571617  0.250000  1
  Ir  Ir20  1  0.422475  0.750000  0.077525  1
  Ir  Ir21  1  0.750000  0.077525  0.422475  1
