# generated using pymatgen
data_U4Cr5(ReP3)2
_symmetry_space_group_name_H-M   'P 1'
_cell_length_a   6.89924509
_cell_length_b   6.89924402
_cell_length_c   6.89924511
_cell_angle_alpha   109.53380102
_cell_angle_beta   109.34613871
_cell_angle_gamma   109.53379258
_symmetry_Int_Tables_number   1
_chemical_formula_structural   U4Cr5(ReP3)2
_chemical_formula_sum   'U4 Cr5 Re2 P6'
_cell_volume   252.80241647
_cell_formula_units_Z   1
loop_
 _symmetry_equiv_pos_site_id
 _symmetry_equiv_pos_as_xyz
  1  'x, y, z'
loop_
 _atom_site_type_symbol
 _atom_site_label
 _atom_site_symmetry_multiplicity
 _atom_site_fract_x
 _atom_site_fract_y
 _atom_site_fract_z
 _atom_site_occupancy
  U  U0  1  0.997332  0.994663  0.497332  1
  U  U1  1  0.502668  0.005337  0.002668  1
  U  U2  1  0.997332  0.500000  0.002668  1
  U  U3  1  0.502668  0.500000  0.497332  1
  Cr  Cr4  1  0.750000  0.500000  0.250000  1
  Cr  Cr5  1  0.500647  0.750349  0.250997  1
  Cr  Cr6  1  0.500647  0.249651  0.750298  1
  Cr  Cr7  1  0.749003  0.249651  0.499353  1
  Cr  Cr8  1  0.249702  0.750349  0.499353  1
  Re  Re9  1  0.250000  0.500000  0.750000  1
  Re  Re10  1  0.000000  0.000000  0.000000  1
  P  P11  1  0.323060  0.000000  0.323060  1
  P  P12  1  0.995914  0.319095  0.315008  1
  P  P13  1  0.995914  0.680905  0.676819  1
  P  P14  1  0.323181  0.319095  0.004086  1
  P  P15  1  0.684992  0.680905  0.004086  1
  P  P16  1  0.676940  0.000000  0.676940  1
