# generated using pymatgen
data_NdTh(Ni4Pt)2
_symmetry_space_group_name_H-M   'P 1'
_cell_length_a   4.04104800
_cell_length_b   5.14475050
_cell_length_c   8.59937408
_cell_angle_alpha   93.35903135
_cell_angle_beta   90.00000000
_cell_angle_gamma   90.00000000
_symmetry_Int_Tables_number   1
_chemical_formula_structural   NdTh(Ni4Pt)2
_chemical_formula_sum   'Nd1 Th1 Ni8 Pt2'
_cell_volume   178.47541471
_cell_formula_units_Z   1
loop_
 _symmetry_equiv_pos_site_id
 _symmetry_equiv_pos_as_xyz
  1  'x, y, z'
loop_
 _atom_site_type_symbol
 _atom_site_label
 _atom_site_symmetry_multiplicity
 _atom_site_fract_x
 _atom_site_fract_y
 _atom_site_fract_z
 _atom_site_occupancy
  Nd  Nd0  1  0.000000  0.500000  0.500000  1
  Th  Th1  1  0.000000  0.000000  0.000000  1
  Ni  Ni2  1  0.000000  0.977208  0.340579  1
  Ni  Ni3  1  0.000000  0.475104  0.842467  1
  Ni  Ni4  1  0.000000  0.524896  0.157533  1
  Ni  Ni5  1  0.000000  0.022792  0.659421  1
  Ni  Ni6  1  0.500000  0.500000  0.000000  1
  Ni  Ni7  1  0.500000  0.000000  0.500000  1
  Ni  Ni8  1  0.500000  0.750864  0.249559  1
  Ni  Ni9  1  0.500000  0.249136  0.750441  1
  Pt  Pt10  1  0.500000  0.249073  0.248295  1
  Pt  Pt11  1  0.500000  0.750927  0.751705  1
