# generated using pymatgen
data_Sm5Y3(GeBr6)2
_symmetry_space_group_name_H-M   'P 1'
_cell_length_a   4.14558900
_cell_length_b   13.45800167
_cell_length_c   14.23675709
_cell_angle_alpha   90.21938784
_cell_angle_beta   90.00000000
_cell_angle_gamma   90.00000000
_symmetry_Int_Tables_number   1
_chemical_formula_structural   Sm5Y3(GeBr6)2
_chemical_formula_sum   'Sm5 Y3 Ge2 Br12'
_cell_volume   794.28198479
_cell_formula_units_Z   1
loop_
 _symmetry_equiv_pos_site_id
 _symmetry_equiv_pos_as_xyz
  1  'x, y, z'
loop_
 _atom_site_type_symbol
 _atom_site_label
 _atom_site_symmetry_multiplicity
 _atom_site_fract_x
 _atom_site_fract_y
 _atom_site_fract_z
 _atom_site_occupancy
  Sm  Sm0  1  0.500000  0.118609  0.340373  1
  Sm  Sm1  1  0.000000  0.120433  0.580185  1
  Sm  Sm2  1  0.000000  0.879530  0.419814  1
  Sm  Sm3  1  0.000000  0.620392  0.919980  1
  Sm  Sm4  1  0.000000  0.380139  0.079599  1
  Y  Y5  1  0.500000  0.881090  0.660150  1
  Y  Y6  1  0.500000  0.618362  0.159251  1
  Y  Y7  1  0.500000  0.381740  0.840616  1
  Ge  Ge8  1  0.500000  0.998677  0.501777  1
  Ge  Ge9  1  0.500000  0.500232  0.999823  1
  Br  Br10  1  0.500000  0.243464  0.162549  1
  Br  Br11  1  0.500000  0.758222  0.834657  1
  Br  Br12  1  0.500000  0.741320  0.334434  1
  Br  Br13  1  0.500000  0.258496  0.665831  1
  Br  Br14  1  0.000000  0.256445  0.411833  1
  Br  Br15  1  0.000000  0.747277  0.591512  1
  Br  Br16  1  0.000000  0.752500  0.091591  1
  Br  Br17  1  0.000000  0.247472  0.908234  1
  Br  Br18  1  0.000000  0.000984  0.242196  1
  Br  Br19  1  0.000000  0.994590  0.755702  1
  Br  Br20  1  0.000000  0.505588  0.255423  1
  Br  Br21  1  0.000000  0.494441  0.744472  1
