# generated using pymatgen
data_Pr5U5O19
_symmetry_space_group_name_H-M   'P 1'
_cell_length_a   6.86510348
_cell_length_b   7.74641191
_cell_length_c   8.69294370
_cell_angle_alpha   101.16807757
_cell_angle_beta   97.67613817
_cell_angle_gamma   107.17804624
_symmetry_Int_Tables_number   1
_chemical_formula_structural   Pr5U5O19
_chemical_formula_sum   'Pr5 U5 O19'
_cell_volume   424.23377135
_cell_formula_units_Z   1
loop_
 _symmetry_equiv_pos_site_id
 _symmetry_equiv_pos_as_xyz
  1  'x, y, z'
loop_
 _atom_site_type_symbol
 _atom_site_label
 _atom_site_symmetry_multiplicity
 _atom_site_fract_x
 _atom_site_fract_y
 _atom_site_fract_z
 _atom_site_occupancy
  Pr  Pr0  1  0.800340  0.099852  0.603372  1
  Pr  Pr1  1  0.387652  0.296590  0.799656  1
  Pr  Pr2  1  0.605920  0.702044  0.203009  1
  Pr  Pr3  1  0.999326  0.499694  0.997918  1
  Pr  Pr4  1  0.208148  0.912423  0.387727  1
  U  U5  1  0.777765  0.597294  0.600631  1
  U  U6  1  0.605857  0.204370  0.196797  1
  U  U7  1  0.999146  0.003269  0.997598  1
  U  U8  1  0.409868  0.809478  0.815434  1
  U  U9  1  0.199484  0.387995  0.389971  1
  O  O10  1  0.342986  0.058042  0.954083  1
  O  O11  1  0.429182  0.988193  0.652484  1
  O  O12  1  0.040975  0.214391  0.858479  1
  O  O13  1  0.727216  0.386240  0.734471  1
  O  O14  1  0.148402  0.183405  0.533570  1
  O  O15  1  0.358522  0.595235  0.952006  1
  O  O16  1  0.952702  0.267578  0.161233  1
  O  O17  1  0.903152  0.395299  0.463959  1
  O  O18  1  0.747915  0.861024  0.762202  1
  O  O19  1  0.546760  0.455936  0.362789  1
  O  O20  1  0.407066  0.554296  0.632446  1
  O  O21  1  0.255793  0.134254  0.235288  1
  O  O22  1  0.062354  0.716032  0.794335  1
  O  O23  1  0.645503  0.409483  0.059250  1
  O  O24  1  0.865187  0.800601  0.465242  1
  O  O25  1  0.247867  0.616201  0.274941  1
  O  O26  1  0.955745  0.787696  0.127333  1
  O  O27  1  0.572902  0.005265  0.345503  1
  O  O28  1  0.660183  0.945460  0.046511  1
