# generated using pymatgen
data_Dy3TmMoOs7
_symmetry_space_group_name_H-M   'P 1'
_cell_length_a   5.45993538
_cell_length_b   5.27234709
_cell_length_c   8.87834908
_cell_angle_alpha   90.01255153
_cell_angle_beta   90.00128188
_cell_angle_gamma   121.04580317
_symmetry_Int_Tables_number   1
_chemical_formula_structural   Dy3TmMoOs7
_chemical_formula_sum   'Dy3 Tm1 Mo1 Os7'
_cell_volume   218.96792083
_cell_formula_units_Z   1
loop_
 _symmetry_equiv_pos_site_id
 _symmetry_equiv_pos_as_xyz
  1  'x, y, z'
loop_
 _atom_site_type_symbol
 _atom_site_label
 _atom_site_symmetry_multiplicity
 _atom_site_fract_x
 _atom_site_fract_y
 _atom_site_fract_z
 _atom_site_occupancy
  Dy  Dy0  1  0.669920  0.339375  0.563307  1
  Dy  Dy1  1  0.332798  0.666584  0.433904  1
  Dy  Dy2  1  0.332801  0.666626  0.065901  1
  Tm  Tm3  1  0.670530  0.340532  0.936747  1
  Mo  Mo4  1  0.167017  0.332658  0.750904  1
  Os  Os5  1  0.003122  0.008811  0.497371  1
  Os  Os6  1  0.002711  0.007986  0.002290  1
  Os  Os7  1  0.173428  0.826136  0.751392  1
  Os  Os8  1  0.653917  0.826895  0.751366  1
  Os  Os9  1  0.824451  0.649207  0.248721  1
  Os  Os10  1  0.827299  0.167242  0.249108  1
  Os  Os11  1  0.342005  0.167947  0.248990  1
