# generated using pymatgen
data_Li4Ac2CeSn4
_symmetry_space_group_name_H-M   'P 1'
_cell_length_a   9.07636278
_cell_length_b   9.07636278
_cell_length_c   9.07636300
_cell_angle_alpha   148.66756820
_cell_angle_beta   133.26858104
_cell_angle_gamma   57.34469385
_symmetry_Int_Tables_number   1
_chemical_formula_structural   Li4Ac2CeSn4
_chemical_formula_sum   'Li4 Ac2 Ce1 Sn4'
_cell_volume   281.02811943
_cell_formula_units_Z   1
loop_
 _symmetry_equiv_pos_site_id
 _symmetry_equiv_pos_as_xyz
  1  'x, y, z'
loop_
 _atom_site_type_symbol
 _atom_site_label
 _atom_site_symmetry_multiplicity
 _atom_site_fract_x
 _atom_site_fract_y
 _atom_site_fract_z
 _atom_site_occupancy
  Li  Li0  1  0.482498  0.670441  0.812059  1
  Li  Li1  1  0.858383  0.670441  0.187941  1
  Li  Li2  1  0.141617  0.329559  0.812059  1
  Li  Li3  1  0.517502  0.329559  0.187941  1
  Ac  Ac4  1  0.868183  0.868183  0.000000  1
  Ac  Ac5  1  0.131817  0.131817  0.000000  1
  Ce  Ce6  1  0.500000  0.000000  0.500000  1
  Sn  Sn7  1  0.292837  0.792837  0.500000  1
  Sn  Sn8  1  0.707163  0.207163  0.500000  1
  Sn  Sn9  1  0.794700  0.500000  0.294700  1
  Sn  Sn10  1  0.205300  0.500000  0.705300  1
