# generated using pymatgen
data_Ho2TmSn3Ir2Rh
_symmetry_space_group_name_H-M   'P 1'
_cell_length_a   7.67023700
_cell_length_b   7.66146774
_cell_length_c   3.69984500
_cell_angle_alpha   90.00000000
_cell_angle_beta   90.00000000
_cell_angle_gamma   120.03787439
_symmetry_Int_Tables_number   1
_chemical_formula_structural   Ho2TmSn3Ir2Rh
_chemical_formula_sum   'Ho2 Tm1 Sn3 Ir2 Rh1'
_cell_volume   188.22142122
_cell_formula_units_Z   1
loop_
 _symmetry_equiv_pos_site_id
 _symmetry_equiv_pos_as_xyz
  1  'x, y, z'
loop_
 _atom_site_type_symbol
 _atom_site_label
 _atom_site_symmetry_multiplicity
 _atom_site_fract_x
 _atom_site_fract_y
 _atom_site_fract_z
 _atom_site_occupancy
  Ho  Ho0  1  0.000012  0.403530  0.000000  1
  Ho  Ho1  1  0.596482  0.596470  0.000000  1
  Tm  Tm2  1  0.403441  0.000000  0.000000  1
  Sn  Sn3  1  0.266194  0.265611  0.500000  1
  Sn  Sn4  1  0.000583  0.734389  0.500000  1
  Sn  Sn5  1  0.733517  0.000000  0.500000  1
  Ir  Ir6  1  0.665950  0.332427  0.500000  1
  Ir  Ir7  1  0.333522  0.667573  0.500000  1
  Rh  Rh8  1  0.000298  0.000000  0.000000  1
