# generated using pymatgen
data_La3AlAg2Pd3
_symmetry_space_group_name_H-M   'P 1'
_cell_length_a   7.66074700
_cell_length_b   7.46892167
_cell_length_c   4.04219300
_cell_angle_alpha   90.00000000
_cell_angle_beta   90.00000000
_cell_angle_gamma   119.17509280
_symmetry_Int_Tables_number   1
_chemical_formula_structural   La3AlAg2Pd3
_chemical_formula_sum   'La3 Al1 Ag2 Pd3'
_cell_volume   201.94216441
_cell_formula_units_Z   1
loop_
 _symmetry_equiv_pos_site_id
 _symmetry_equiv_pos_as_xyz
  1  'x, y, z'
loop_
 _atom_site_type_symbol
 _atom_site_label
 _atom_site_symmetry_multiplicity
 _atom_site_fract_x
 _atom_site_fract_y
 _atom_site_fract_z
 _atom_site_occupancy
  La  La0  1  0.406476  0.401812  0.500000  1
  La  La1  1  0.593524  0.995335  0.500000  1
  La  La2  1  0.000000  0.597020  0.500000  1
  Al  Al3  1  0.000000  0.247495  0.000000  1
  Ag  Ag4  1  0.755776  0.752612  0.000000  1
  Ag  Ag5  1  0.244224  0.996836  0.000000  1
  Pd  Pd6  1  0.680850  0.324436  0.000000  1
  Pd  Pd7  1  0.319150  0.643587  0.000000  1
  Pd  Pd8  1  0.000000  0.040866  0.500000  1
