# generated using pymatgen
data_BaLaHo2(AsPt)4
_symmetry_space_group_name_H-M   'P 1'
_cell_length_a   4.33465100
_cell_length_b   4.33465085
_cell_length_c   16.64812900
_cell_angle_alpha   90.00000000
_cell_angle_beta   90.00000000
_cell_angle_gamma   119.99999350
_symmetry_Int_Tables_number   1
_chemical_formula_structural   BaLaHo2(AsPt)4
_chemical_formula_sum   'Ba1 La1 Ho2 As4 Pt4'
_cell_volume   270.89709670
_cell_formula_units_Z   1
loop_
 _symmetry_equiv_pos_site_id
 _symmetry_equiv_pos_as_xyz
  1  'x, y, z'
loop_
 _atom_site_type_symbol
 _atom_site_label
 _atom_site_symmetry_multiplicity
 _atom_site_fract_x
 _atom_site_fract_y
 _atom_site_fract_z
 _atom_site_occupancy
  Ba  Ba0  1  0.000000  0.000000  0.500000  1
  La  La1  1  0.000000  0.000000  0.000000  1
  Ho  Ho2  1  0.000000  0.000000  0.240953  1
  Ho  Ho3  1  0.000000  0.000000  0.759047  1
  As  As4  1  0.333333  0.666667  0.883668  1
  As  As5  1  0.666667  0.333333  0.116332  1
  As  As6  1  0.666667  0.333333  0.361113  1
  As  As7  1  0.333333  0.666667  0.638887  1
  Pt  Pt8  1  0.333333  0.666667  0.341021  1
  Pt  Pt9  1  0.666667  0.333333  0.658979  1
  Pt  Pt10  1  0.666667  0.333333  0.863667  1
  Pt  Pt11  1  0.333333  0.666667  0.136333  1
