# generated using pymatgen
data_Ca9Pr(TaN5)2
_symmetry_space_group_name_H-M   'P 1'
_cell_length_a   6.98185415
_cell_length_b   6.96684148
_cell_length_c   8.94544312
_cell_angle_alpha   80.78859114
_cell_angle_beta   80.49527294
_cell_angle_gamma   59.87931930
_symmetry_Int_Tables_number   1
_chemical_formula_structural   Ca9Pr(TaN5)2
_chemical_formula_sum   'Ca9 Pr1 Ta2 N10'
_cell_volume   369.67521424
_cell_formula_units_Z   1
loop_
 _symmetry_equiv_pos_site_id
 _symmetry_equiv_pos_as_xyz
  1  'x, y, z'
loop_
 _atom_site_type_symbol
 _atom_site_label
 _atom_site_symmetry_multiplicity
 _atom_site_fract_x
 _atom_site_fract_y
 _atom_site_fract_z
 _atom_site_occupancy
  Ca  Ca0  1  0.871470  0.870473  0.826783  1
  Ca  Ca1  1  0.740293  0.743670  0.520077  1
  Ca  Ca2  1  0.754241  0.248409  0.502351  1
  Ca  Ca3  1  0.622690  0.135266  0.156255  1
  Ca  Ca4  1  0.362976  0.872339  0.837489  1
  Ca  Ca5  1  0.250354  0.755077  0.507251  1
  Ca  Ca6  1  0.244115  0.243352  0.489546  1
  Ca  Ca7  1  0.144710  0.136695  0.168020  1
  Ca  Ca8  1  0.137043  0.626273  0.153771  1
  Pr  Pr9  1  0.878914  0.350218  0.837905  1
  Ta  Ta10  1  0.630830  0.630824  0.222117  1
  Ta  Ta11  1  0.372556  0.367209  0.772679  1
  N  N12  1  0.914174  0.466402  0.320086  1
  N  N13  1  0.991256  0.006286  0.016560  1
  N  N14  1  0.676630  0.686057  0.001351  1
  N  N15  1  0.538821  0.533879  0.694759  1
  N  N16  1  0.466177  0.912876  0.324612  1
  N  N17  1  0.539404  0.085328  0.675328  1
  N  N18  1  0.464790  0.466921  0.299455  1
  N  N19  1  0.317044  0.318257  0.991991  1
  N  N20  1  0.055335  0.070990  0.650088  1
  N  N21  1  0.088464  0.535487  0.677333  1
