# generated using pymatgen
data_Y3Er9In20
_symmetry_space_group_name_H-M   'P 1'
_cell_length_a   6.49903424
_cell_length_b   10.40440237
_cell_length_c   12.23639287
_cell_angle_alpha   90.03005956
_cell_angle_beta   89.96916218
_cell_angle_gamma   89.99535710
_symmetry_Int_Tables_number   1
_chemical_formula_structural   Y3Er9In20
_chemical_formula_sum   'Y3 Er9 In20'
_cell_volume   827.40711714
_cell_formula_units_Z   1
loop_
 _symmetry_equiv_pos_site_id
 _symmetry_equiv_pos_as_xyz
  1  'x, y, z'
loop_
 _atom_site_type_symbol
 _atom_site_label
 _atom_site_symmetry_multiplicity
 _atom_site_fract_x
 _atom_site_fract_y
 _atom_site_fract_z
 _atom_site_occupancy
  Y  Y0  1  0.390018  0.992502  0.358274  1
  Y  Y1  1  0.890278  0.007922  0.141645  1
  Y  Y2  1  0.609753  0.492165  0.641559  1
  Er  Er3  1  0.350773  0.750654  0.054320  1
  Er  Er4  1  0.149194  0.749536  0.554453  1
  Er  Er5  1  0.649955  0.250714  0.945509  1
  Er  Er6  1  0.851165  0.249041  0.445452  1
  Er  Er7  1  0.890710  0.492305  0.140197  1
  Er  Er8  1  0.609361  0.007631  0.641246  1
  Er  Er9  1  0.109822  0.992090  0.858724  1
  Er  Er10  1  0.390527  0.507669  0.359049  1
  Er  Er11  1  0.109177  0.507876  0.859359  1
  In  In12  1  0.614789  0.750268  0.505497  1
  In  In13  1  0.885450  0.749577  0.005233  1
  In  In14  1  0.385088  0.250541  0.494898  1
  In  In15  1  0.115738  0.250317  0.993514  1
  In  In16  1  0.650678  0.748592  0.244482  1
  In  In17  1  0.849090  0.750696  0.744768  1
  In  In18  1  0.348819  0.249457  0.755896  1
  In  In19  1  0.150930  0.251394  0.255128  1
  In  In20  1  0.125874  0.748677  0.282945  1
  In  In21  1  0.372283  0.749827  0.783326  1
  In  In22  1  0.874189  0.248942  0.717101  1
  In  In23  1  0.625826  0.251512  0.217063  1
  In  In24  1  0.875304  0.543043  0.399802  1
  In  In25  1  0.625095  0.956453  0.899884  1
  In  In26  1  0.125244  0.043379  0.600121  1
  In  In27  1  0.374917  0.456932  0.099751  1
  In  In28  1  0.123917  0.456412  0.599896  1
  In  In29  1  0.375519  0.044266  0.098563  1
  In  In30  1  0.875577  0.955820  0.401382  1
  In  In31  1  0.624942  0.543791  0.900961  1
