# generated using pymatgen
data_La2Bi4RuPtO14
_symmetry_space_group_name_H-M   'P 1'
_cell_length_a   6.64815795
_cell_length_b   6.64815713
_cell_length_c   7.65408594
_cell_angle_alpha   89.87451712
_cell_angle_beta   89.87451754
_cell_angle_gamma   109.78622086
_symmetry_Int_Tables_number   1
_chemical_formula_structural   La2Bi4RuPtO14
_chemical_formula_sum   'La2 Bi4 Ru1 Pt1 O14'
_cell_volume   318.32076467
_cell_formula_units_Z   1
loop_
 _symmetry_equiv_pos_site_id
 _symmetry_equiv_pos_as_xyz
  1  'x, y, z'
loop_
 _atom_site_type_symbol
 _atom_site_label
 _atom_site_symmetry_multiplicity
 _atom_site_fract_x
 _atom_site_fract_y
 _atom_site_fract_z
 _atom_site_occupancy
  La  La0  1  0.000000  0.000000  0.500000  1
  La  La1  1  0.000000  0.000000  0.000000  1
  Bi  Bi2  1  0.490662  0.951736  0.747959  1
  Bi  Bi3  1  0.509338  0.048264  0.252041  1
  Bi  Bi4  1  0.951736  0.490662  0.747959  1
  Bi  Bi5  1  0.048264  0.509338  0.252041  1
  Ru  Ru6  1  0.500000  0.500000  0.000000  1
  Pt  Pt7  1  0.500000  0.500000  0.500000  1
  O  O8  1  0.577192  0.577192  0.752352  1
  O  O9  1  0.422808  0.422808  0.247648  1
  O  O10  1  0.846891  0.114706  0.751042  1
  O  O11  1  0.153109  0.885294  0.248958  1
  O  O12  1  0.114706  0.846891  0.751042  1
  O  O13  1  0.885294  0.153109  0.248958  1
  O  O14  1  0.439341  0.188055  0.966803  1
  O  O15  1  0.565374  0.822895  0.469490  1
  O  O16  1  0.188055  0.439341  0.966803  1
  O  O17  1  0.822895  0.565374  0.469490  1
  O  O18  1  0.434626  0.177105  0.530510  1
  O  O19  1  0.560659  0.811945  0.033197  1
  O  O20  1  0.811945  0.560659  0.033197  1
  O  O21  1  0.177105  0.434626  0.530510  1
