# generated using pymatgen
data_TaPdPt7
_symmetry_space_group_name_H-M   'P 1'
_cell_length_a   6.32538901
_cell_length_b   6.32538801
_cell_length_c   6.30633261
_cell_angle_alpha   95.59136797
_cell_angle_beta   95.59137305
_cell_angle_gamma   143.67994954
_symmetry_Int_Tables_number   1
_chemical_formula_structural   TaPdPt7
_chemical_formula_sum   'Ta1 Pd1 Pt7'
_cell_volume   141.95750439
_cell_formula_units_Z   1
loop_
 _symmetry_equiv_pos_site_id
 _symmetry_equiv_pos_as_xyz
  1  'x, y, z'
loop_
 _atom_site_type_symbol
 _atom_site_label
 _atom_site_symmetry_multiplicity
 _atom_site_fract_x
 _atom_site_fract_y
 _atom_site_fract_z
 _atom_site_occupancy
  Ta  Ta0  1  0.001173  0.001173  0.002347  1
  Pd  Pd1  1  0.336058  0.336058  0.672115  1
  Pt  Pt2  1  0.660749  0.337984  0.998734  1
  Pt  Pt3  1  0.337984  0.660749  0.998734  1
  Pt  Pt4  1  0.662816  0.662816  0.325635  1
  Pt  Pt5  1  0.329951  0.999751  0.329702  1
  Pt  Pt6  1  0.999751  0.329951  0.329702  1
  Pt  Pt7  1  0.671367  0.000149  0.671516  1
  Pt  Pt8  1  0.000149  0.671367  0.671516  1
