# generated using pymatgen
data_NaEr(ReN3)2
_symmetry_space_group_name_H-M   'P 1'
_cell_length_a   7.39437116
_cell_length_b   7.39437027
_cell_length_c   6.22912320
_cell_angle_alpha   74.06582467
_cell_angle_beta   74.06581599
_cell_angle_gamma   83.54783547
_symmetry_Int_Tables_number   1
_chemical_formula_structural   NaEr(ReN3)2
_chemical_formula_sum   'Na2 Er2 Re4 N12'
_cell_volume   314.66616204
_cell_formula_units_Z   2
loop_
 _symmetry_equiv_pos_site_id
 _symmetry_equiv_pos_as_xyz
  1  'x, y, z'
loop_
 _atom_site_type_symbol
 _atom_site_label
 _atom_site_symmetry_multiplicity
 _atom_site_fract_x
 _atom_site_fract_y
 _atom_site_fract_z
 _atom_site_occupancy
  Na  Na0  1  0.709946  0.290054  0.250000  1
  Na  Na1  1  0.290054  0.709946  0.750000  1
  Er  Er2  1  0.906844  0.093156  0.750000  1
  Er  Er3  1  0.093156  0.906844  0.250000  1
  Re  Re4  1  0.624644  0.795932  0.272508  1
  Re  Re5  1  0.204068  0.375356  0.227492  1
  Re  Re6  1  0.375356  0.204068  0.727492  1
  Re  Re7  1  0.795932  0.624644  0.772508  1
  N  N8  1  0.666085  0.637900  0.071847  1
  N  N9  1  0.392744  0.890156  0.300441  1
  N  N10  1  0.362100  0.333915  0.428153  1
  N  N11  1  0.109844  0.607256  0.199559  1
  N  N12  1  0.021447  0.205949  0.349574  1
  N  N13  1  0.794051  0.978553  0.150426  1
  N  N14  1  0.205949  0.021447  0.849574  1
  N  N15  1  0.607256  0.109844  0.699559  1
  N  N16  1  0.333915  0.362100  0.928153  1
  N  N17  1  0.890156  0.392744  0.800441  1
  N  N18  1  0.637900  0.666085  0.571847  1
  N  N19  1  0.978553  0.794051  0.650426  1
