# generated using pymatgen
data_Pr5(DyS4)2
_symmetry_space_group_name_H-M   'P 1'
_cell_length_a   8.08687400
_cell_length_b   8.12328364
_cell_length_c   8.15716200
_cell_angle_alpha   120.13805604
_cell_angle_beta   90.00000000
_cell_angle_gamma   119.85184266
_symmetry_Int_Tables_number   1
_chemical_formula_structural   Pr5(DyS4)2
_chemical_formula_sum   'Pr5 Dy2 S8'
_cell_volume   378.96575715
_cell_formula_units_Z   1
loop_
 _symmetry_equiv_pos_site_id
 _symmetry_equiv_pos_as_xyz
  1  'x, y, z'
loop_
 _atom_site_type_symbol
 _atom_site_label
 _atom_site_symmetry_multiplicity
 _atom_site_fract_x
 _atom_site_fract_y
 _atom_site_fract_z
 _atom_site_occupancy
  Pr  Pr0  1  0.249997  0.000000  0.249997  1
  Pr  Pr1  1  0.249997  0.499992  0.249996  1
  Pr  Pr2  1  0.750004  0.000001  0.249998  1
  Pr  Pr3  1  0.250000  0.000002  0.750006  1
  Pr  Pr4  1  0.750004  0.000002  0.750006  1
  Dy  Dy5  1  0.249999  0.499998  0.749999  1
  Dy  Dy6  1  0.750002  0.500004  0.750002  1
  S  S7  1  0.994014  0.988050  0.994036  1
  S  S8  1  0.505984  0.011946  0.505961  1
  S  S9  1  0.008281  0.016559  0.508267  1
  S  S10  1  0.001998  0.499994  0.513392  1
  S  S11  1  0.497968  0.499985  0.513452  1
  S  S12  1  0.002037  0.500020  0.986553  1
  S  S13  1  0.498004  0.500011  0.986612  1
  S  S14  1  0.491716  0.983436  0.991733  1
