# generated using pymatgen
data_Tb5Pr3CdHgPt2
_symmetry_space_group_name_H-M   'P 1'
_cell_length_a   9.83758112
_cell_length_b   9.83758160
_cell_length_c   9.81235400
_cell_angle_alpha   60.08479382
_cell_angle_beta   60.08479221
_cell_angle_gamma   60.15950025
_symmetry_Int_Tables_number   1
_chemical_formula_structural   Tb5Pr3CdHgPt2
_chemical_formula_sum   'Tb10 Pr6 Cd2 Hg2 Pt4'
_cell_volume   673.15089137
_cell_formula_units_Z   2
loop_
 _symmetry_equiv_pos_site_id
 _symmetry_equiv_pos_as_xyz
  1  'x, y, z'
loop_
 _atom_site_type_symbol
 _atom_site_label
 _atom_site_symmetry_multiplicity
 _atom_site_fract_x
 _atom_site_fract_y
 _atom_site_fract_z
 _atom_site_occupancy
  Tb  Tb0  1  0.350906  0.350906  0.349443  1
  Tb  Tb1  1  0.350906  0.350906  0.948745  1
  Tb  Tb2  1  0.352507  0.944685  0.351404  1
  Tb  Tb3  1  0.944685  0.352507  0.351404  1
  Tb  Tb4  1  0.811567  0.188361  0.189800  1
  Tb  Tb5  1  0.188361  0.811567  0.810272  1
  Tb  Tb6  1  0.188361  0.811567  0.189800  1
  Tb  Tb7  1  0.811567  0.188361  0.810272  1
  Tb  Tb8  1  0.188548  0.188548  0.811452  1
  Tb  Tb9  1  0.810181  0.810181  0.189819  1
  Pr  Pr10  1  0.938743  0.560376  0.562141  1
  Pr  Pr11  1  0.560376  0.938743  0.938740  1
  Pr  Pr12  1  0.560376  0.938743  0.562141  1
  Pr  Pr13  1  0.938743  0.560376  0.938740  1
  Pr  Pr14  1  0.560047  0.560047  0.939953  1
  Pr  Pr15  1  0.937748  0.937748  0.562252  1
  Cd  Cd16  1  0.579524  0.261395  0.579541  1
  Cd  Cd17  1  0.261395  0.579524  0.579541  1
  Hg  Hg18  1  0.582479  0.582479  0.583896  1
  Hg  Hg19  1  0.582479  0.582479  0.251146  1
  Pt  Pt20  1  0.143277  0.143277  0.143745  1
  Pt  Pt21  1  0.143277  0.143277  0.569699  1
  Pt  Pt22  1  0.142818  0.571129  0.143026  1
  Pt  Pt23  1  0.571129  0.142818  0.143026  1
