# generated using pymatgen
data_Nd3Sn3HgIrRh
_symmetry_space_group_name_H-M   'P 1'
_cell_length_a   7.74317700
_cell_length_b   7.74317763
_cell_length_c   4.13967400
_cell_angle_alpha   90.00000000
_cell_angle_beta   90.00000000
_cell_angle_gamma   119.99999305
_symmetry_Int_Tables_number   1
_chemical_formula_structural   Nd3Sn3HgIrRh
_chemical_formula_sum   'Nd3 Sn3 Hg1 Ir1 Rh1'
_cell_volume   214.94889291
_cell_formula_units_Z   1
loop_
 _symmetry_equiv_pos_site_id
 _symmetry_equiv_pos_as_xyz
  1  'x, y, z'
loop_
 _atom_site_type_symbol
 _atom_site_label
 _atom_site_symmetry_multiplicity
 _atom_site_fract_x
 _atom_site_fract_y
 _atom_site_fract_z
 _atom_site_occupancy
  Nd  Nd0  1  0.019547  0.601837  0.000000  1
  Nd  Nd1  1  0.398163  0.417710  0.000000  1
  Nd  Nd2  1  0.582290  0.980453  0.000000  1
  Sn  Sn3  1  0.750436  0.760627  0.500000  1
  Sn  Sn4  1  0.010191  0.249564  0.500000  1
  Sn  Sn5  1  0.239373  0.989809  0.500000  1
  Hg  Hg6  1  0.666667  0.333333  0.500000  1
  Ir  Ir7  1  0.333333  0.666667  0.500000  1
  Rh  Rh8  1  0.000000  0.000000  0.000000  1
