# generated using pymatgen
data_Sc9Re3Mo
_symmetry_space_group_name_H-M   'P 1'
_cell_length_a   8.66268700
_cell_length_b   8.66268711
_cell_length_c   8.35387400
_cell_angle_alpha   90.00000000
_cell_angle_beta   90.00000000
_cell_angle_gamma   119.99998812
_symmetry_Int_Tables_number   1
_chemical_formula_structural   Sc9Re3Mo
_chemical_formula_sum   'Sc18 Re6 Mo2'
_cell_volume   542.90501737
_cell_formula_units_Z   2
loop_
 _symmetry_equiv_pos_site_id
 _symmetry_equiv_pos_as_xyz
  1  'x, y, z'
loop_
 _atom_site_type_symbol
 _atom_site_label
 _atom_site_symmetry_multiplicity
 _atom_site_fract_x
 _atom_site_fract_y
 _atom_site_fract_z
 _atom_site_occupancy
  Sc  Sc0  1  0.400434  0.200217  0.055413  1
  Sc  Sc1  1  0.799783  0.200217  0.055413  1
  Sc  Sc2  1  0.799782  0.599565  0.055413  1
  Sc  Sc3  1  0.095666  0.547833  0.250000  1
  Sc  Sc4  1  0.452167  0.547833  0.250000  1
  Sc  Sc5  1  0.452167  0.904335  0.250000  1
  Sc  Sc6  1  0.400434  0.200217  0.444587  1
  Sc  Sc7  1  0.799783  0.200217  0.444587  1
  Sc  Sc8  1  0.799782  0.599565  0.444587  1
  Sc  Sc9  1  0.200217  0.400435  0.555414  1
  Sc  Sc10  1  0.200216  0.799783  0.555414  1
  Sc  Sc11  1  0.599566  0.799783  0.555414  1
  Sc  Sc12  1  0.547832  0.095665  0.750001  1
  Sc  Sc13  1  0.547833  0.452167  0.750001  1
  Sc  Sc14  1  0.904335  0.452167  0.750001  1
  Sc  Sc15  1  0.200217  0.400435  0.944586  1
  Sc  Sc16  1  0.200216  0.799783  0.944586  1
  Sc  Sc17  1  0.599566  0.799783  0.944586  1
  Re  Re18  1  0.109959  0.219918  0.250000  1
  Re  Re19  1  0.109958  0.890041  0.250000  1
  Re  Re20  1  0.780083  0.890041  0.250000  1
  Re  Re21  1  0.219918  0.109959  0.750001  1
  Re  Re22  1  0.890041  0.109959  0.750001  1
  Re  Re23  1  0.890040  0.780082  0.750001  1
  Mo  Mo24  1  0.000000  0.000000  0.000000  1
  Mo  Mo25  1  0.000000  0.000000  0.500000  1
