# generated using pymatgen
data_Cs2LaTb(GeSe4)2
_symmetry_space_group_name_H-M   'P 1'
_cell_length_a   7.20875200
_cell_length_b   6.89044122
_cell_length_c   19.80184853
_cell_angle_alpha   71.50730540
_cell_angle_beta   90.00000000
_cell_angle_gamma   90.00000000
_symmetry_Int_Tables_number   1
_chemical_formula_structural   Cs2LaTb(GeSe4)2
_chemical_formula_sum   'Cs4 La2 Tb2 Ge4 Se16'
_cell_volume   932.79875832
_cell_formula_units_Z   2
loop_
 _symmetry_equiv_pos_site_id
 _symmetry_equiv_pos_as_xyz
  1  'x, y, z'
loop_
 _atom_site_type_symbol
 _atom_site_label
 _atom_site_symmetry_multiplicity
 _atom_site_fract_x
 _atom_site_fract_y
 _atom_site_fract_z
 _atom_site_occupancy
  Cs  Cs0  1  0.751259  0.729560  0.033876  1
  Cs  Cs1  1  0.248022  0.269772  0.968785  1
  Cs  Cs2  1  0.748022  0.730228  0.531215  1
  Cs  Cs3  1  0.251259  0.270440  0.466124  1
  La  La4  1  0.765410  0.771241  0.774006  1
  La  La5  1  0.265410  0.228759  0.725994  1
  Tb  Tb6  1  0.229805  0.229866  0.227075  1
  Tb  Tb7  1  0.729805  0.770134  0.272925  1
  Ge  Ge8  1  0.732431  0.210060  0.836370  1
  Ge  Ge9  1  0.765284  0.214942  0.332617  1
  Ge  Ge10  1  0.232431  0.789940  0.663630  1
  Ge  Ge11  1  0.265284  0.785058  0.167383  1
  Se  Se12  1  0.504410  0.038704  0.147333  1
  Se  Se13  1  0.758769  0.423192  0.407170  1
  Se  Se14  1  0.006829  0.006097  0.850819  1
  Se  Se15  1  0.843070  0.437363  0.217083  1
  Se  Se16  1  0.989514  0.039105  0.641059  1
  Se  Se17  1  0.258769  0.576808  0.092830  1
  Se  Se18  1  0.739123  0.410889  0.912923  1
  Se  Se19  1  0.343070  0.562637  0.282917  1
  Se  Se20  1  0.239123  0.589111  0.587077  1
  Se  Se21  1  0.489514  0.960895  0.858941  1
  Se  Se22  1  0.672622  0.419246  0.716862  1
  Se  Se23  1  0.172622  0.580754  0.783138  1
  Se  Se24  1  0.004410  0.961296  0.352667  1
  Se  Se25  1  0.993451  0.993378  0.156657  1
  Se  Se26  1  0.493451  0.006622  0.343343  1
  Se  Se27  1  0.506829  0.993903  0.649181  1
