# generated using pymatgen
data_YbEu4Au3
_symmetry_space_group_name_H-M   'P 1'
_cell_length_a   9.39364861
_cell_length_b   9.39364923
_cell_length_c   9.39364798
_cell_angle_alpha   129.41631317
_cell_angle_beta   129.41631977
_cell_angle_gamma   74.34162282
_symmetry_Int_Tables_number   1
_chemical_formula_structural   YbEu4Au3
_chemical_formula_sum   'Yb2 Eu8 Au6'
_cell_volume   482.23038481
_cell_formula_units_Z   2
loop_
 _symmetry_equiv_pos_site_id
 _symmetry_equiv_pos_as_xyz
  1  'x, y, z'
loop_
 _atom_site_type_symbol
 _atom_site_label
 _atom_site_symmetry_multiplicity
 _atom_site_fract_x
 _atom_site_fract_y
 _atom_site_fract_z
 _atom_site_occupancy
  Yb  Yb0  1  0.500000  0.500000  0.000000  1
  Yb  Yb1  1  0.000000  0.000000  0.000000  1
  Eu  Eu2  1  0.524522  0.024522  0.835946  1
  Eu  Eu3  1  0.311423  0.475478  0.500000  1
  Eu  Eu4  1  0.475478  0.975478  0.164054  1
  Eu  Eu5  1  0.024522  0.188577  0.500000  1
  Eu  Eu6  1  0.188577  0.688577  0.164054  1
  Eu  Eu7  1  0.688577  0.524522  0.500000  1
  Eu  Eu8  1  0.975478  0.811423  0.500000  1
  Eu  Eu9  1  0.811423  0.311423  0.835946  1
  Au  Au10  1  0.632832  0.867168  0.500000  1
  Au  Au11  1  0.250000  0.250000  0.000000  1
  Au  Au12  1  0.367168  0.132832  0.500000  1
  Au  Au13  1  0.132832  0.632832  0.765663  1
  Au  Au14  1  0.867168  0.367168  0.234337  1
  Au  Au15  1  0.750000  0.750000  0.000000  1
