# generated using pymatgen
data_NdGe4PdRh5
_symmetry_space_group_name_H-M   'P 1'
_cell_length_a   7.21452600
_cell_length_b   7.28009273
_cell_length_c   3.90309800
_cell_angle_alpha   90.00000000
_cell_angle_beta   90.00000000
_cell_angle_gamma   119.70250931
_symmetry_Int_Tables_number   1
_chemical_formula_structural   NdGe4PdRh5
_chemical_formula_sum   'Nd1 Ge4 Pd1 Rh5'
_cell_volume   178.06513870
_cell_formula_units_Z   1
loop_
 _symmetry_equiv_pos_site_id
 _symmetry_equiv_pos_as_xyz
  1  'x, y, z'
loop_
 _atom_site_type_symbol
 _atom_site_label
 _atom_site_symmetry_multiplicity
 _atom_site_fract_x
 _atom_site_fract_y
 _atom_site_fract_z
 _atom_site_occupancy
  Nd  Nd0  1  0.996487  0.992973  0.000000  1
  Ge  Ge1  1  0.337053  0.674106  0.000000  1
  Ge  Ge2  1  0.802355  0.604710  0.500000  1
  Ge  Ge3  1  0.399390  0.196079  0.500000  1
  Ge  Ge4  1  0.796689  0.196079  0.500000  1
  Pd  Pd5  1  0.199615  0.399229  0.500000  1
  Rh  Rh6  1  0.533985  0.067970  0.000000  1
  Rh  Rh7  1  0.933910  0.466456  0.000000  1
  Rh  Rh8  1  0.532546  0.466456  0.000000  1
  Rh  Rh9  1  0.600906  0.801304  0.500000  1
  Rh  Rh10  1  0.200399  0.801304  0.500000  1
