# generated using pymatgen
data_Ca6Pr2Cu3Si12Pd
_symmetry_space_group_name_H-M   'P 1'
_cell_length_a   8.15393200
_cell_length_b   8.15393265
_cell_length_c   8.52742600
_cell_angle_alpha   90.00000000
_cell_angle_beta   90.00000000
_cell_angle_gamma   119.99999737
_symmetry_Int_Tables_number   1
_chemical_formula_structural   Ca6Pr2Cu3Si12Pd
_chemical_formula_sum   'Ca6 Pr2 Cu3 Si12 Pd1'
_cell_volume   491.00148727
_cell_formula_units_Z   1
loop_
 _symmetry_equiv_pos_site_id
 _symmetry_equiv_pos_as_xyz
  1  'x, y, z'
loop_
 _atom_site_type_symbol
 _atom_site_label
 _atom_site_symmetry_multiplicity
 _atom_site_fract_x
 _atom_site_fract_y
 _atom_site_fract_z
 _atom_site_occupancy
  Ca  Ca0  1  0.500333  0.499667  0.748083  1
  Ca  Ca1  1  0.500475  0.499525  0.251913  1
  Ca  Ca2  1  0.999333  0.499667  0.748083  1
  Ca  Ca3  1  0.999050  0.499525  0.251913  1
  Ca  Ca4  1  0.500333  0.000667  0.748083  1
  Ca  Ca5  1  0.500475  0.000950  0.251913  1
  Pr  Pr6  1  0.000000  0.000000  0.749380  1
  Pr  Pr7  1  0.000000  0.000000  0.250630  1
  Cu  Cu8  1  0.666667  0.333333  0.999813  1
  Cu  Cu9  1  0.333333  0.666667  0.000584  1
  Cu  Cu10  1  0.333333  0.666667  0.499389  1
  Si  Si11  1  0.831570  0.168430  0.000080  1
  Si  Si12  1  0.168170  0.831830  0.999952  1
  Si  Si13  1  0.336862  0.168430  0.000080  1
  Si  Si14  1  0.167545  0.832455  0.499993  1
  Si  Si15  1  0.663661  0.831830  0.999952  1
  Si  Si16  1  0.833966  0.166034  0.499984  1
  Si  Si17  1  0.831570  0.663138  0.000080  1
  Si  Si18  1  0.664909  0.832455  0.499993  1
  Si  Si19  1  0.168170  0.336339  0.999952  1
  Si  Si20  1  0.332069  0.166034  0.499984  1
  Si  Si21  1  0.167545  0.335091  0.499993  1
  Si  Si22  1  0.833966  0.667931  0.499984  1
  Pd  Pd23  1  0.666667  0.333333  0.500184  1
