# generated using pymatgen
data_Co6Si2TcW3
_symmetry_space_group_name_H-M   'P 1'
_cell_length_a   4.75718800
_cell_length_b   4.75718643
_cell_length_c   7.39648000
_cell_angle_alpha   90.00000000
_cell_angle_beta   90.00000000
_cell_angle_gamma   119.99998311
_symmetry_Int_Tables_number   1
_chemical_formula_structural   Co6Si2TcW3
_chemical_formula_sum   'Co6 Si2 Tc1 W3'
_cell_volume   144.96270320
_cell_formula_units_Z   1
loop_
 _symmetry_equiv_pos_site_id
 _symmetry_equiv_pos_as_xyz
  1  'x, y, z'
loop_
 _atom_site_type_symbol
 _atom_site_label
 _atom_site_symmetry_multiplicity
 _atom_site_fract_x
 _atom_site_fract_y
 _atom_site_fract_z
 _atom_site_occupancy
  Co  Co0  1  0.829765  0.170235  0.247572  1
  Co  Co1  1  0.829765  0.659531  0.247572  1
  Co  Co2  1  0.340469  0.170235  0.247572  1
  Co  Co3  1  0.171656  0.828344  0.751389  1
  Co  Co4  1  0.171656  0.343311  0.751389  1
  Co  Co5  1  0.656689  0.828344  0.751389  1
  Si  Si6  1  0.000000  0.000000  0.500584  1
  Si  Si7  1  0.000000  0.000000  0.997522  1
  Tc  Tc8  1  0.333333  0.666667  0.437636  1
  W  W9  1  0.666667  0.333333  0.561081  1
  W  W10  1  0.666667  0.333333  0.933214  1
  W  W11  1  0.333333  0.666667  0.073078  1
