# generated using pymatgen
data_Ti4MnAl3Rh8
_symmetry_space_group_name_H-M   'P 1'
_cell_length_a   6.47020900
_cell_length_b   4.21921600
_cell_length_c   8.42824900
_cell_angle_alpha   90.00000000
_cell_angle_beta   89.99879281
_cell_angle_gamma   90.00000000
_symmetry_Int_Tables_number   1
_chemical_formula_structural   Ti4MnAl3Rh8
_chemical_formula_sum   'Ti4 Mn1 Al3 Rh8'
_cell_volume   230.08453376
_cell_formula_units_Z   1
loop_
 _symmetry_equiv_pos_site_id
 _symmetry_equiv_pos_as_xyz
  1  'x, y, z'
loop_
 _atom_site_type_symbol
 _atom_site_label
 _atom_site_symmetry_multiplicity
 _atom_site_fract_x
 _atom_site_fract_y
 _atom_site_fract_z
 _atom_site_occupancy
  Ti  Ti0  1  0.750032  0.249999  0.120531  1
  Ti  Ti1  1  0.249954  0.749999  0.375011  1
  Ti  Ti2  1  0.750024  0.249999  0.629430  1
  Ti  Ti3  1  0.249977  0.749999  0.875033  1
  Mn  Mn4  1  0.749998  0.749999  0.874979  1
  Al  Al5  1  0.249989  0.249999  0.127125  1
  Al  Al6  1  0.750046  0.749999  0.375005  1
  Al  Al7  1  0.249968  0.249999  0.622889  1
  Rh  Rh8  1  0.497604  0.749999  0.127570  1
  Rh  Rh9  1  0.002392  0.749999  0.127532  1
  Rh  Rh10  1  0.501386  0.249999  0.375001  1
  Rh  Rh11  1  0.998634  0.249999  0.374997  1
  Rh  Rh12  1  0.002415  0.749999  0.622478  1
  Rh  Rh13  1  0.497573  0.749999  0.622429  1
  Rh  Rh14  1  0.007765  0.249999  0.875001  1
  Rh  Rh15  1  0.492243  0.249999  0.874989  1
