# generated using pymatgen
data_Li2Co6Ni3Mo3As7
_symmetry_space_group_name_H-M   'P 1'
_cell_length_a   9.36441300
_cell_length_b   9.36441277
_cell_length_c   3.78855900
_cell_angle_alpha   90.00000000
_cell_angle_beta   90.00000000
_cell_angle_gamma   120.00000433
_symmetry_Int_Tables_number   1
_chemical_formula_structural   Li2Co6Ni3Mo3As7
_chemical_formula_sum   'Li2 Co6 Ni3 Mo3 As7'
_cell_volume   287.71716718
_cell_formula_units_Z   1
loop_
 _symmetry_equiv_pos_site_id
 _symmetry_equiv_pos_as_xyz
  1  'x, y, z'
loop_
 _atom_site_type_symbol
 _atom_site_label
 _atom_site_symmetry_multiplicity
 _atom_site_fract_x
 _atom_site_fract_y
 _atom_site_fract_z
 _atom_site_occupancy
  Li  Li0  1  0.333333  0.666667  0.000000  1
  Li  Li1  1  0.000000  0.000000  0.500000  1
  Co  Co2  1  0.276284  0.376020  0.500000  1
  Co  Co3  1  0.623980  0.900262  0.500000  1
  Co  Co4  1  0.099738  0.723716  0.500000  1
  Co  Co5  1  0.502302  0.451545  0.000000  1
  Co  Co6  1  0.548455  0.050757  0.000000  1
  Co  Co7  1  0.949243  0.497698  0.000000  1
  Ni  Ni8  1  0.721707  0.759360  0.000000  1
  Ni  Ni9  1  0.240640  0.962347  0.000000  1
  Ni  Ni10  1  0.037653  0.278293  0.000000  1
  Mo  Mo11  1  0.759664  0.551896  0.500000  1
  Mo  Mo12  1  0.448104  0.207768  0.500000  1
  Mo  Mo13  1  0.792232  0.240336  0.500000  1
  As  As14  1  0.967057  0.754430  0.000000  1
  As  As15  1  0.245570  0.212626  0.000000  1
  As  As16  1  0.787374  0.032943  0.000000  1
  As  As17  1  0.666667  0.333333  0.000000  1
  As  As18  1  0.529553  0.620292  0.500000  1
  As  As19  1  0.379708  0.909262  0.500000  1
  As  As20  1  0.090738  0.470447  0.500000  1
