# generated using pymatgen
data_TmLuSi3Au
_symmetry_space_group_name_H-M   'P 1'
_cell_length_a   8.14987656
_cell_length_b   8.11586637
_cell_length_c   5.70655234
_cell_angle_alpha   69.98715858
_cell_angle_beta   69.14231678
_cell_angle_gamma   41.07582445
_symmetry_Int_Tables_number   1
_chemical_formula_structural   TmLuSi3Au
_chemical_formula_sum   'Tm2 Lu2 Si6 Au2'
_cell_volume   230.07257118
_cell_formula_units_Z   2
loop_
 _symmetry_equiv_pos_site_id
 _symmetry_equiv_pos_as_xyz
  1  'x, y, z'
loop_
 _atom_site_type_symbol
 _atom_site_label
 _atom_site_symmetry_multiplicity
 _atom_site_fract_x
 _atom_site_fract_y
 _atom_site_fract_z
 _atom_site_occupancy
  Tm  Tm0  1  0.750220  0.749779  0.749780  1
  Tm  Tm1  1  0.243017  0.756983  0.756984  1
  Lu  Lu2  1  0.757078  0.242922  0.242923  1
  Lu  Lu3  1  0.249737  0.250262  0.250262  1
  Si  Si4  1  0.837240  0.837143  0.163187  1
  Si  Si5  1  0.327040  0.836265  0.164203  1
  Si  Si6  1  0.164062  0.672395  0.327621  1
  Si  Si7  1  0.835923  0.327620  0.672396  1
  Si  Si8  1  0.672494  0.164202  0.836266  1
  Si  Si9  1  0.162430  0.163186  0.837144  1
  Au  Au10  1  0.667248  0.666302  0.332941  1
  Au  Au11  1  0.333509  0.332940  0.666303  1
