# generated using pymatgen
data_Dy3Ni2Ir7
_symmetry_space_group_name_H-M   'P 1'
_cell_length_a   5.28375038
_cell_length_b   5.28375029
_cell_length_c   8.98456125
_cell_angle_alpha   72.89965302
_cell_angle_beta   72.89965389
_cell_angle_gamma   60.00001426
_symmetry_Int_Tables_number   1
_chemical_formula_structural   Dy3Ni2Ir7
_chemical_formula_sum   'Dy3 Ni2 Ir7'
_cell_volume   204.32148885
_cell_formula_units_Z   1
loop_
 _symmetry_equiv_pos_site_id
 _symmetry_equiv_pos_as_xyz
  1  'x, y, z'
loop_
 _atom_site_type_symbol
 _atom_site_label
 _atom_site_symmetry_multiplicity
 _atom_site_fract_x
 _atom_site_fract_y
 _atom_site_fract_z
 _atom_site_occupancy
  Dy  Dy0  1  0.140113  0.140113  0.579662  1
  Dy  Dy1  1  0.859887  0.859887  0.420338  1
  Dy  Dy2  1  0.000000  0.000000  0.000000  1
  Ni  Ni3  1  0.333391  0.333391  0.999827  1
  Ni  Ni4  1  0.666609  0.666609  0.000173  1
  Ir  Ir5  1  0.077958  0.580783  0.760476  1
  Ir  Ir6  1  0.580783  0.580783  0.760476  1
  Ir  Ir7  1  0.580783  0.077958  0.760476  1
  Ir  Ir8  1  0.922042  0.419217  0.239524  1
  Ir  Ir9  1  0.419217  0.419217  0.239524  1
  Ir  Ir10  1  0.419217  0.922042  0.239524  1
  Ir  Ir11  1  0.500000  0.500000  0.500000  1
