# generated using pymatgen
data_ScGa3(Fe2Sn)3
_symmetry_space_group_name_H-M   'P 1'
_cell_length_a   5.17288600
_cell_length_b   5.17288677
_cell_length_c   8.65699200
_cell_angle_alpha   90.00000000
_cell_angle_beta   90.00000000
_cell_angle_gamma   120.00000786
_symmetry_Int_Tables_number   1
_chemical_formula_structural   ScGa3(Fe2Sn)3
_chemical_formula_sum   'Sc1 Ga3 Fe6 Sn3'
_cell_volume   200.61504212
_cell_formula_units_Z   1
loop_
 _symmetry_equiv_pos_site_id
 _symmetry_equiv_pos_as_xyz
  1  'x, y, z'
loop_
 _atom_site_type_symbol
 _atom_site_label
 _atom_site_symmetry_multiplicity
 _atom_site_fract_x
 _atom_site_fract_y
 _atom_site_fract_z
 _atom_site_occupancy
  Sc  Sc0  1  0.000000  0.000000  0.000000  1
  Ga  Ga1  1  0.666667  0.333333  0.000000  1
  Ga  Ga2  1  0.333333  0.666667  0.000000  1
  Ga  Ga3  1  0.666667  0.333333  0.500000  1
  Fe  Fe4  1  0.501967  0.498033  0.761820  1
  Fe  Fe5  1  0.501967  0.003933  0.761820  1
  Fe  Fe6  1  0.996067  0.498033  0.761820  1
  Fe  Fe7  1  0.501967  0.498033  0.238180  1
  Fe  Fe8  1  0.501967  0.003933  0.238180  1
  Fe  Fe9  1  0.996067  0.498033  0.238180  1
  Sn  Sn10  1  0.333333  0.666667  0.500000  1
  Sn  Sn11  1  0.000000  0.000000  0.665835  1
  Sn  Sn12  1  0.000000  0.000000  0.334165  1
