# generated using pymatgen
data_YTm3AlRh
_symmetry_space_group_name_H-M   'P 1'
_cell_length_a   9.44710816
_cell_length_b   9.44021476
_cell_length_c   9.44021178
_cell_angle_alpha   60.16544701
_cell_angle_beta   60.08579060
_cell_angle_gamma   60.08566880
_symmetry_Int_Tables_number   1
_chemical_formula_structural   YTm3AlRh
_chemical_formula_sum   'Y4 Tm12 Al4 Rh4'
_cell_volume   596.82985738
_cell_formula_units_Z   4
loop_
 _symmetry_equiv_pos_site_id
 _symmetry_equiv_pos_as_xyz
  1  'x, y, z'
loop_
 _atom_site_type_symbol
 _atom_site_label
 _atom_site_symmetry_multiplicity
 _atom_site_fract_x
 _atom_site_fract_y
 _atom_site_fract_z
 _atom_site_occupancy
  Y  Y0  1  0.814068  0.186315  0.814135  1
  Y  Y1  1  0.188024  0.813520  0.187776  1
  Y  Y2  1  0.814071  0.814137  0.186318  1
  Y  Y3  1  0.188025  0.187772  0.813525  1
  Tm  Tm4  1  0.599615  0.599528  0.599531  1
  Tm  Tm5  1  0.604809  0.604686  0.190517  1
  Tm  Tm6  1  0.604806  0.190516  0.604687  1
  Tm  Tm7  1  0.190452  0.604942  0.604945  1
  Tm  Tm8  1  0.056569  0.442256  0.442263  1
  Tm  Tm9  1  0.441395  0.058528  0.058529  1
  Tm  Tm10  1  0.442585  0.056250  0.442746  1
  Tm  Tm11  1  0.058264  0.441691  0.058251  1
  Tm  Tm12  1  0.442592  0.442741  0.056248  1
  Tm  Tm13  1  0.058268  0.058249  0.441688  1
  Tm  Tm14  1  0.189034  0.811771  0.811763  1
  Tm  Tm15  1  0.811262  0.190413  0.190412  1
  Al  Al16  1  0.828404  0.828030  0.828031  1
  Al  Al17  1  0.826431  0.826909  0.517745  1
  Al  Al18  1  0.826432  0.517746  0.826913  1
  Al  Al19  1  0.517239  0.826585  0.826586  1
  Rh  Rh20  1  0.394509  0.392819  0.392812  1
  Rh  Rh21  1  0.390371  0.391925  0.822480  1
  Rh  Rh22  1  0.390372  0.822483  0.391910  1
  Rh  Rh23  1  0.822405  0.390190  0.390192  1
