# generated using pymatgen
data_Ba4Re(BrN2)2
_symmetry_space_group_name_H-M   'P 1'
_cell_length_a   6.28725600
_cell_length_b   8.63401918
_cell_length_c   11.22305216
_cell_angle_alpha   80.87445998
_cell_angle_beta   90.00000000
_cell_angle_gamma   90.00000000
_symmetry_Int_Tables_number   1
_chemical_formula_structural   Ba4Re(BrN2)2
_chemical_formula_sum   'Ba8 Re2 Br4 N8'
_cell_volume   601.52443988
_cell_formula_units_Z   2
loop_
 _symmetry_equiv_pos_site_id
 _symmetry_equiv_pos_as_xyz
  1  'x, y, z'
loop_
 _atom_site_type_symbol
 _atom_site_label
 _atom_site_symmetry_multiplicity
 _atom_site_fract_x
 _atom_site_fract_y
 _atom_site_fract_z
 _atom_site_occupancy
  Ba  Ba0  1  0.750000  0.285246  0.290990  1
  Ba  Ba1  1  0.750000  0.003543  0.626182  1
  Ba  Ba2  1  0.750000  0.444103  0.608477  1
  Ba  Ba3  1  0.750000  0.793553  0.108588  1
  Ba  Ba4  1  0.250000  0.996457  0.373818  1
  Ba  Ba5  1  0.250000  0.555897  0.391523  1
  Ba  Ba6  1  0.250000  0.206447  0.891412  1
  Ba  Ba7  1  0.250000  0.714754  0.709010  1
  Re  Re8  1  0.750000  0.773349  0.408716  1
  Re  Re9  1  0.250000  0.226651  0.591284  1
  Br  Br10  1  0.250000  0.332640  0.165113  1
  Br  Br11  1  0.750000  0.667360  0.834887  1
  Br  Br12  1  0.250000  0.846692  0.102261  1
  Br  Br13  1  0.750000  0.153308  0.897739  1
  N  N14  1  0.250000  0.044728  0.701661  1
  N  N15  1  0.008111  0.236414  0.494491  1
  N  N16  1  0.508111  0.763586  0.505509  1
  N  N17  1  0.991889  0.763586  0.505509  1
  N  N18  1  0.750000  0.597369  0.330229  1
  N  N19  1  0.750000  0.955272  0.298339  1
  N  N20  1  0.491889  0.236414  0.494491  1
  N  N21  1  0.250000  0.402631  0.669771  1
