# generated using pymatgen
data_YbEr3(SnPd2)2
_symmetry_space_group_name_H-M   'P 1'
_cell_length_a   7.74206309
_cell_length_b   7.74206309
_cell_length_c   3.62937300
_cell_angle_alpha   90.00000000
_cell_angle_beta   90.00000000
_cell_angle_gamma   90.08424824
_symmetry_Int_Tables_number   1
_chemical_formula_structural   YbEr3(SnPd2)2
_chemical_formula_sum   'Yb1 Er3 Sn2 Pd4'
_cell_volume   217.54271630
_cell_formula_units_Z   1
loop_
 _symmetry_equiv_pos_site_id
 _symmetry_equiv_pos_as_xyz
  1  'x, y, z'
loop_
 _atom_site_type_symbol
 _atom_site_label
 _atom_site_symmetry_multiplicity
 _atom_site_fract_x
 _atom_site_fract_y
 _atom_site_fract_z
 _atom_site_occupancy
  Yb  Yb0  1  0.828903  0.671097  0.500000  1
  Er  Er1  1  0.671737  0.170987  0.500000  1
  Er  Er2  1  0.329013  0.828263  0.500000  1
  Er  Er3  1  0.171503  0.328497  0.500000  1
  Sn  Sn4  1  0.999810  0.999803  0.000000  1
  Sn  Sn5  1  0.500197  0.500190  0.000000  1
  Pd  Pd6  1  0.128573  0.629562  0.000000  1
  Pd  Pd7  1  0.870438  0.371427  0.000000  1
  Pd  Pd8  1  0.627399  0.872601  0.000000  1
  Pd  Pd9  1  0.372427  0.127573  0.000000  1
