# generated using pymatgen
data_Gd4NbTc5Ge8
_symmetry_space_group_name_H-M   'P 1'
_cell_length_a   7.02212994
_cell_length_b   7.07040842
_cell_length_c   6.95702900
_cell_angle_alpha   70.03341405
_cell_angle_beta   90.40903000
_cell_angle_gamma   89.24617704
_symmetry_Int_Tables_number   1
_chemical_formula_structural   Gd4NbTc5Ge8
_chemical_formula_sum   'Gd4 Nb1 Tc5 Ge8'
_cell_volume   324.59680506
_cell_formula_units_Z   1
loop_
 _symmetry_equiv_pos_site_id
 _symmetry_equiv_pos_as_xyz
  1  'x, y, z'
loop_
 _atom_site_type_symbol
 _atom_site_label
 _atom_site_symmetry_multiplicity
 _atom_site_fract_x
 _atom_site_fract_y
 _atom_site_fract_z
 _atom_site_occupancy
  Gd  Gd0  1  0.326664  0.550783  0.810222  1
  Gd  Gd1  1  0.832108  0.940216  0.187178  1
  Gd  Gd2  1  0.673336  0.449217  0.189778  1
  Gd  Gd3  1  0.167892  0.059784  0.812822  1
  Nb  Nb4  1  0.500000  0.000000  0.500000  1
  Tc  Tc5  1  0.000000  0.500000  0.500000  1
  Tc  Tc6  1  0.852993  0.764923  0.767536  1
  Tc  Tc7  1  0.357982  0.765582  0.269280  1
  Tc  Tc8  1  0.147007  0.235077  0.232464  1
  Tc  Tc9  1  0.642018  0.234418  0.730720  1
  Ge  Ge10  1  0.543081  0.853965  0.913073  1
  Ge  Ge11  1  0.067274  0.624592  0.111286  1
  Ge  Ge12  1  0.456919  0.146035  0.086927  1
  Ge  Ge13  1  0.932726  0.375408  0.888714  1
  Ge  Ge14  1  0.132390  0.863968  0.502848  1
  Ge  Ge15  1  0.654193  0.620705  0.529863  1
  Ge  Ge16  1  0.867610  0.136032  0.497152  1
  Ge  Ge17  1  0.345807  0.379295  0.470137  1
