# generated using pymatgen
data_CeTmTiCo16
_symmetry_space_group_name_H-M   'P 1'
_cell_length_a   6.28957752
_cell_length_b   6.28957765
_cell_length_c   6.28957660
_cell_angle_alpha   82.82037439
_cell_angle_beta   82.82036195
_cell_angle_gamma   82.82038402
_symmetry_Int_Tables_number   1
_chemical_formula_structural   CeTmTiCo16
_chemical_formula_sum   'Ce1 Tm1 Ti1 Co16'
_cell_volume   243.40547312
_cell_formula_units_Z   1
loop_
 _symmetry_equiv_pos_site_id
 _symmetry_equiv_pos_as_xyz
  1  'x, y, z'
loop_
 _atom_site_type_symbol
 _atom_site_label
 _atom_site_symmetry_multiplicity
 _atom_site_fract_x
 _atom_site_fract_y
 _atom_site_fract_z
 _atom_site_occupancy
  Ce  Ce0  1  0.654156  0.654156  0.654156  1
  Tm  Tm1  1  0.350085  0.350085  0.350085  1
  Ti  Ti2  1  0.092202  0.092202  0.092202  1
  Co  Co3  1  0.293405  0.707371  0.998130  1
  Co  Co4  1  0.707371  0.998130  0.293405  1
  Co  Co5  1  0.998130  0.293405  0.707371  1
  Co  Co6  1  0.293405  0.998130  0.707371  1
  Co  Co7  1  0.998130  0.707371  0.293405  1
  Co  Co8  1  0.707371  0.293405  0.998130  1
  Co  Co9  1  0.002104  0.002104  0.503607  1
  Co  Co10  1  0.002104  0.503607  0.002104  1
  Co  Co11  1  0.503607  0.002104  0.002104  1
  Co  Co12  1  0.348259  0.348259  0.846216  1
  Co  Co13  1  0.348259  0.846216  0.348259  1
  Co  Co14  1  0.846216  0.348259  0.348259  1
  Co  Co15  1  0.654233  0.654233  0.147165  1
  Co  Co16  1  0.654233  0.147165  0.654233  1
  Co  Co17  1  0.147165  0.654233  0.654233  1
  Co  Co18  1  0.899561  0.899561  0.899561  1
