# generated using pymatgen
data_La4PrGa2Ir3
_symmetry_space_group_name_H-M   'P 1'
_cell_length_a   8.66831028
_cell_length_b   8.66872356
_cell_length_c   8.68611784
_cell_angle_alpha   109.46131220
_cell_angle_beta   109.53086509
_cell_angle_gamma   109.34160880
_symmetry_Int_Tables_number   1
_chemical_formula_structural   La4PrGa2Ir3
_chemical_formula_sum   'La8 Pr2 Ga4 Ir6'
_cell_volume   502.94430827
_cell_formula_units_Z   2
loop_
 _symmetry_equiv_pos_site_id
 _symmetry_equiv_pos_as_xyz
  1  'x, y, z'
loop_
 _atom_site_type_symbol
 _atom_site_label
 _atom_site_symmetry_multiplicity
 _atom_site_fract_x
 _atom_site_fract_y
 _atom_site_fract_z
 _atom_site_occupancy
  La  La0  1  0.249472  0.687586  0.438265  1
  La  La1  1  0.749304  0.811157  0.061717  1
  La  La2  1  0.438816  0.253141  0.690789  1
  La  La3  1  0.687425  0.437437  0.249889  1
  La  La4  1  0.062380  0.748042  0.809125  1
  La  La5  1  0.811407  0.061360  0.750052  1
  La  La6  1  0.215874  0.217317  0.215750  1
  La  La7  1  0.501512  0.000236  0.284299  1
  Pr  Pr8  1  0.275766  0.500326  0.998812  1
  Pr  Pr9  1  0.001602  0.277068  0.501376  1
  Ga  Ga10  1  0.600689  0.601856  0.600909  1
  Ga  Ga11  1  0.500936  0.999784  0.899148  1
  Ga  Ga12  1  0.898984  0.499649  0.998967  1
  Ga  Ga13  1  0.000722  0.900093  0.501034  1
  Ir  Ir14  1  0.252812  0.125524  0.874685  1
  Ir  Ir15  1  0.750821  0.378070  0.625255  1
  Ir  Ir16  1  0.873595  0.251831  0.123815  1
  Ir  Ir17  1  0.123174  0.873073  0.249952  1
  Ir  Ir18  1  0.628114  0.749908  0.376214  1
  Ir  Ir19  1  0.376596  0.626539  0.749946  1
