# generated using pymatgen
data_TbDyAlHgPt2
_symmetry_space_group_name_H-M   'P 1'
_cell_length_a   4.20133800
_cell_length_b   7.17208536
_cell_length_c   8.41200255
_cell_angle_alpha   94.32638254
_cell_angle_beta   90.00000000
_cell_angle_gamma   90.00000000
_symmetry_Int_Tables_number   1
_chemical_formula_structural   TbDyAlHgPt2
_chemical_formula_sum   'Tb2 Dy2 Al2 Hg2 Pt4'
_cell_volume   252.75117341
_cell_formula_units_Z   2
loop_
 _symmetry_equiv_pos_site_id
 _symmetry_equiv_pos_as_xyz
  1  'x, y, z'
loop_
 _atom_site_type_symbol
 _atom_site_label
 _atom_site_symmetry_multiplicity
 _atom_site_fract_x
 _atom_site_fract_y
 _atom_site_fract_z
 _atom_site_occupancy
  Tb  Tb0  1  0.250000  0.458796  0.185984  1
  Tb  Tb1  1  0.750000  0.541204  0.814016  1
  Dy  Dy2  1  0.750000  0.036125  0.684998  1
  Dy  Dy3  1  0.250000  0.963875  0.315002  1
  Al  Al4  1  0.750000  0.638485  0.437672  1
  Al  Al5  1  0.250000  0.361515  0.562328  1
  Hg  Hg6  1  0.250000  0.855971  0.932897  1
  Hg  Hg7  1  0.750000  0.144029  0.067103  1
  Pt  Pt8  1  0.250000  0.731298  0.594062  1
  Pt  Pt9  1  0.750000  0.268702  0.405938  1
  Pt  Pt10  1  0.750000  0.734010  0.149245  1
  Pt  Pt11  1  0.250000  0.265990  0.850755  1
