# generated using pymatgen
data_NdDy4(RhO6)2
_symmetry_space_group_name_H-M   'P 1'
_cell_length_a   6.90681419
_cell_length_b   6.90681313
_cell_length_c   7.36977526
_cell_angle_alpha   74.52147418
_cell_angle_beta   74.52147608
_cell_angle_gamma   50.96741395
_symmetry_Int_Tables_number   1
_chemical_formula_structural   NdDy4(RhO6)2
_chemical_formula_sum   'Nd1 Dy4 Rh2 O12'
_cell_volume   260.88649370
_cell_formula_units_Z   1
loop_
 _symmetry_equiv_pos_site_id
 _symmetry_equiv_pos_as_xyz
  1  'x, y, z'
loop_
 _atom_site_type_symbol
 _atom_site_label
 _atom_site_symmetry_multiplicity
 _atom_site_fract_x
 _atom_site_fract_y
 _atom_site_fract_z
 _atom_site_occupancy
  Nd  Nd0  1  0.000000  0.000000  0.500000  1
  Dy  Dy1  1  0.303242  0.303242  0.359575  1
  Dy  Dy2  1  0.696758  0.696758  0.640425  1
  Dy  Dy3  1  0.307072  0.307072  0.831493  1
  Dy  Dy4  1  0.692928  0.692928  0.168507  1
  Rh  Rh5  1  0.752567  0.247433  0.000000  1
  Rh  Rh6  1  0.247433  0.752567  0.000000  1
  O  O7  1  0.900224  0.430393  0.917156  1
  O  O8  1  0.430393  0.900224  0.917156  1
  O  O9  1  0.099776  0.569607  0.082844  1
  O  O10  1  0.569607  0.099776  0.082844  1
  O  O11  1  0.096216  0.588454  0.578155  1
  O  O12  1  0.588454  0.096216  0.578155  1
  O  O13  1  0.903784  0.411546  0.421845  1
  O  O14  1  0.411546  0.903784  0.421845  1
  O  O15  1  0.000003  0.000003  0.821952  1
  O  O16  1  0.999997  0.999997  0.178048  1
  O  O17  1  0.499804  0.499804  0.810233  1
  O  O18  1  0.500196  0.500196  0.189767  1
