# generated using pymatgen
data_Ba6Sc2UO12
_symmetry_space_group_name_H-M   'P 1'
_cell_length_a   9.34266258
_cell_length_b   9.34266201
_cell_length_c   7.38291900
_cell_angle_alpha   67.68634238
_cell_angle_beta   67.68634381
_cell_angle_gamma   36.87697704
_symmetry_Int_Tables_number   1
_chemical_formula_structural   Ba6Sc2UO12
_chemical_formula_sum   'Ba6 Sc2 U1 O12'
_cell_volume   354.39352917
_cell_formula_units_Z   1
loop_
 _symmetry_equiv_pos_site_id
 _symmetry_equiv_pos_as_xyz
  1  'x, y, z'
loop_
 _atom_site_type_symbol
 _atom_site_label
 _atom_site_symmetry_multiplicity
 _atom_site_fract_x
 _atom_site_fract_y
 _atom_site_fract_z
 _atom_site_occupancy
  Ba  Ba0  1  0.873895  0.873895  0.712079  1
  Ba  Ba1  1  0.222889  0.222889  0.704211  1
  Ba  Ba2  1  0.549918  0.549918  0.697593  1
  Ba  Ba3  1  0.450082  0.450082  0.302407  1
  Ba  Ba4  1  0.777111  0.777111  0.295789  1
  Ba  Ba5  1  0.126105  0.126105  0.287921  1
  Sc  Sc6  1  0.670681  0.670681  0.998571  1
  Sc  Sc7  1  0.329319  0.329319  0.001429  1
  U  U8  1  0.000000  0.000000  0.000000  1
  O  O9  1  0.948017  0.948017  0.313172  1
  O  O10  1  0.281283  0.281283  0.317806  1
  O  O11  1  0.611977  0.611977  0.318964  1
  O  O12  1  0.388023  0.388023  0.681036  1
  O  O13  1  0.718717  0.718717  0.682194  1
  O  O14  1  0.051983  0.051983  0.686828  1
  O  O15  1  0.500000  0.000000  0.000000  1
  O  O16  1  0.834460  0.329107  0.000707  1
  O  O17  1  0.165540  0.670893  0.999293  1
  O  O18  1  0.000000  0.500000  0.000000  1
  O  O19  1  0.329107  0.834460  0.000707  1
  O  O20  1  0.670893  0.165540  0.999293  1
