# generated using pymatgen
data_Pa2Se2S
_symmetry_space_group_name_H-M   'P 1'
_cell_length_a   3.88989600
_cell_length_b   10.68771500
_cell_length_c   11.02662800
_cell_angle_alpha   90.00000000
_cell_angle_beta   90.00000000
_cell_angle_gamma   90.00000000
_symmetry_Int_Tables_number   1
_chemical_formula_structural   Pa2Se2S
_chemical_formula_sum   'Pa8 Se8 S4'
_cell_volume   458.42213323
_cell_formula_units_Z   4
loop_
 _symmetry_equiv_pos_site_id
 _symmetry_equiv_pos_as_xyz
  1  'x, y, z'
loop_
 _atom_site_type_symbol
 _atom_site_label
 _atom_site_symmetry_multiplicity
 _atom_site_fract_x
 _atom_site_fract_y
 _atom_site_fract_z
 _atom_site_occupancy
  Pa  Pa0  1  0.250000  0.170147  0.490736  1
  Pa  Pa1  1  0.250000  0.329853  0.990736  1
  Pa  Pa2  1  0.750000  0.829853  0.509264  1
  Pa  Pa3  1  0.750000  0.670147  0.009264  1
  Pa  Pa4  1  0.750000  0.501581  0.703909  1
  Pa  Pa5  1  0.750000  0.998419  0.203909  1
  Pa  Pa6  1  0.250000  0.498419  0.296091  1
  Pa  Pa7  1  0.250000  0.001581  0.796091  1
  Se  Se8  1  0.250000  0.628956  0.545793  1
  Se  Se9  1  0.250000  0.871044  0.045793  1
  Se  Se10  1  0.750000  0.371044  0.454207  1
  Se  Se11  1  0.750000  0.128956  0.954207  1
  Se  Se12  1  0.250000  0.293474  0.729575  1
  Se  Se13  1  0.250000  0.206526  0.229575  1
  Se  Se14  1  0.750000  0.706526  0.270425  1
  Se  Se15  1  0.750000  0.793474  0.770425  1
  S  S16  1  0.750000  0.059153  0.626555  1
  S  S17  1  0.750000  0.440847  0.126555  1
  S  S18  1  0.250000  0.940847  0.373445  1
  S  S19  1  0.250000  0.559153  0.873445  1
