# generated using pymatgen
data_Li4Ca2YbHoSi8
_symmetry_space_group_name_H-M   'P 1'
_cell_length_a   3.79479500
_cell_length_b   7.84406824
_cell_length_c   10.49199413
_cell_angle_alpha   89.75743386
_cell_angle_beta   90.00000000
_cell_angle_gamma   90.00000000
_symmetry_Int_Tables_number   1
_chemical_formula_structural   Li4Ca2YbHoSi8
_chemical_formula_sum   'Li4 Ca2 Yb1 Ho1 Si8'
_cell_volume   312.30851814
_cell_formula_units_Z   1
loop_
 _symmetry_equiv_pos_site_id
 _symmetry_equiv_pos_as_xyz
  1  'x, y, z'
loop_
 _atom_site_type_symbol
 _atom_site_label
 _atom_site_symmetry_multiplicity
 _atom_site_fract_x
 _atom_site_fract_y
 _atom_site_fract_z
 _atom_site_occupancy
  Li  Li0  1  0.250000  0.997401  0.388297  1
  Li  Li1  1  0.750000  0.000592  0.610360  1
  Li  Li2  1  0.250000  0.497144  0.109252  1
  Li  Li3  1  0.750000  0.508605  0.889104  1
  Ca  Ca4  1  0.250000  0.635758  0.637119  1
  Ca  Ca5  1  0.750000  0.363098  0.364754  1
  Yb  Yb6  1  0.750000  0.866227  0.134617  1
  Ho  Ho7  1  0.250000  0.128450  0.866289  1
  Si  Si8  1  0.750000  0.266501  0.060714  1
  Si  Si9  1  0.250000  0.740834  0.934114  1
  Si  Si10  1  0.750000  0.767365  0.431205  1
  Si  Si11  1  0.250000  0.226446  0.573952  1
  Si  Si12  1  0.750000  0.844680  0.824554  1
  Si  Si13  1  0.250000  0.161274  0.169572  1
  Si  Si14  1  0.750000  0.330558  0.683285  1
  Si  Si15  1  0.250000  0.665069  0.322814  1
