# generated using pymatgen
data_MnV2Si3Rh10
_symmetry_space_group_name_H-M   'P 1'
_cell_length_a   3.94741800
_cell_length_b   5.36839328
_cell_length_c   10.31242100
_cell_angle_alpha   89.30470348
_cell_angle_beta   90.00000000
_cell_angle_gamma   90.00000000
_symmetry_Int_Tables_number   1
_chemical_formula_structural   MnV2Si3Rh10
_chemical_formula_sum   'Mn1 V2 Si3 Rh10'
_cell_volume   218.51743653
_cell_formula_units_Z   1
loop_
 _symmetry_equiv_pos_site_id
 _symmetry_equiv_pos_as_xyz
  1  'x, y, z'
loop_
 _atom_site_type_symbol
 _atom_site_label
 _atom_site_symmetry_multiplicity
 _atom_site_fract_x
 _atom_site_fract_y
 _atom_site_fract_z
 _atom_site_occupancy
  Mn  Mn0  1  0.500000  0.172979  0.640634  1
  V  V1  1  0.500000  0.854248  0.357990  1
  V  V2  1  0.500000  0.657829  0.854378  1
  Si  Si3  1  0.500000  0.355625  0.146354  1
  Si  Si4  1  0.000000  0.490520  0.503357  1
  Si  Si5  1  0.000000  0.953116  0.992459  1
  Rh  Rh6  1  0.500000  0.325002  0.389680  1
  Rh  Rh7  1  0.500000  0.679516  0.603735  1
  Rh  Rh8  1  0.500000  0.803555  0.108253  1
  Rh  Rh9  1  0.500000  0.174869  0.904027  1
  Rh  Rh10  1  0.000000  0.424183  0.746900  1
  Rh  Rh11  1  0.000000  0.614886  0.272431  1
  Rh  Rh12  1  0.000000  0.913868  0.761067  1
  Rh  Rh13  1  0.000000  0.105087  0.218876  1
  Rh  Rh14  1  0.000000  0.475339  0.009807  1
  Rh  Rh15  1  0.000000  0.999378  0.490054  1
