# generated using pymatgen
data_Tb6CuBi2Au3O20
_symmetry_space_group_name_H-M   'P 1'
_cell_length_a   8.46160047
_cell_length_b   8.51862810
_cell_length_c   5.73314938
_cell_angle_alpha   88.84593193
_cell_angle_beta   91.25359397
_cell_angle_gamma   89.85215830
_symmetry_Int_Tables_number   1
_chemical_formula_structural   Tb6CuBi2Au3O20
_chemical_formula_sum   'Tb6 Cu1 Bi2 Au3 O20'
_cell_volume   413.06784159
_cell_formula_units_Z   1
loop_
 _symmetry_equiv_pos_site_id
 _symmetry_equiv_pos_as_xyz
  1  'x, y, z'
loop_
 _atom_site_type_symbol
 _atom_site_label
 _atom_site_symmetry_multiplicity
 _atom_site_fract_x
 _atom_site_fract_y
 _atom_site_fract_z
 _atom_site_occupancy
  Tb  Tb0  1  0.355125  0.660538  0.249604  1
  Tb  Tb1  1  0.844888  0.146701  0.746365  1
  Tb  Tb2  1  0.650733  0.653113  0.748264  1
  Tb  Tb3  1  0.650675  0.347172  0.253683  1
  Tb  Tb4  1  0.841747  0.852264  0.252611  1
  Tb  Tb5  1  0.147681  0.845000  0.752067  1
  Cu  Cu6  1  0.494870  0.999491  0.406741  1
  Bi  Bi7  1  0.359447  0.357172  0.748226  1
  Bi  Bi8  1  0.150215  0.139551  0.249936  1
  Au  Au9  1  0.501110  0.003936  0.904710  1
  Au  Au10  1  0.998224  0.495178  0.095045  1
  Au  Au11  1  0.004343  0.500220  0.592912  1
  O  O12  1  0.111446  0.289630  0.598500  1
  O  O13  1  0.908152  0.277473  0.114815  1
  O  O14  1  0.907509  0.716914  0.608485  1
  O  O15  1  0.718592  0.909800  0.888349  1
  O  O16  1  0.221806  0.591060  0.614158  1
  O  O17  1  0.408207  0.788414  0.892790  1
  O  O18  1  0.403590  0.198366  0.399613  1
  O  O19  1  0.780503  0.593410  0.111731  1
  O  O20  1  0.291686  0.918364  0.387823  1
  O  O21  1  0.588716  0.221137  0.885310  1
  O  O22  1  0.491540  0.498586  0.996276  1
  O  O23  1  0.498036  0.492414  0.499368  1
  O  O24  1  0.787988  0.403763  0.604681  1
  O  O25  1  0.094744  0.711574  0.106306  1
  O  O26  1  0.289455  0.106342  0.897224  1
  O  O27  1  0.580949  0.797131  0.395805  1
  O  O28  1  0.210572  0.388833  0.102227  1
  O  O29  1  0.009204  0.001566  0.003939  1
  O  O30  1  0.002221  0.008932  0.494151  1
  O  O31  1  0.696026  0.085954  0.398285  1
