# generated using pymatgen
data_Ho10InSn5S2
_symmetry_space_group_name_H-M   'P 1'
_cell_length_a   8.93746000
_cell_length_b   8.93745962
_cell_length_c   6.61497200
_cell_angle_alpha   90.00000000
_cell_angle_beta   90.00000000
_cell_angle_gamma   119.97198694
_symmetry_Int_Tables_number   1
_chemical_formula_structural   Ho10InSn5S2
_chemical_formula_sum   'Ho10 In1 Sn5 S2'
_cell_volume   457.72999030
_cell_formula_units_Z   1
loop_
 _symmetry_equiv_pos_site_id
 _symmetry_equiv_pos_as_xyz
  1  'x, y, z'
loop_
 _atom_site_type_symbol
 _atom_site_label
 _atom_site_symmetry_multiplicity
 _atom_site_fract_x
 _atom_site_fract_y
 _atom_site_fract_z
 _atom_site_occupancy
  Ho  Ho0  1  0.666116  0.333459  0.999543  1
  Ho  Ho1  1  0.333459  0.666116  0.999543  1
  Ho  Ho2  1  0.333459  0.666116  0.500457  1
  Ho  Ho3  1  0.666116  0.333459  0.500457  1
  Ho  Ho4  1  0.755075  0.755075  0.750000  1
  Ho  Ho5  1  0.245825  0.000471  0.750000  1
  Ho  Ho6  1  0.000471  0.245825  0.750000  1
  Ho  Ho7  1  0.244985  0.244985  0.250000  1
  Ho  Ho8  1  0.754922  0.000280  0.250000  1
  Ho  Ho9  1  0.000280  0.754922  0.250000  1
  In  In10  1  0.397839  0.397839  0.750000  1
  Sn  Sn11  1  0.603002  0.000072  0.750000  1
  Sn  Sn12  1  0.000072  0.603002  0.750000  1
  Sn  Sn13  1  0.601741  0.601741  0.250000  1
  Sn  Sn14  1  0.397011  0.999845  0.250000  1
  Sn  Sn15  1  0.999845  0.397011  0.250000  1
  S  S16  1  0.999892  0.999892  0.000381  1
  S  S17  1  0.999892  0.999892  0.499619  1
