# generated using pymatgen
data_Ho5Sn3N
_symmetry_space_group_name_H-M   'P 1'
_cell_length_a   8.89217800
_cell_length_b   8.89217883
_cell_length_c   6.38679800
_cell_angle_alpha   90.00000000
_cell_angle_beta   90.00000000
_cell_angle_gamma   119.99999692
_symmetry_Int_Tables_number   1
_chemical_formula_structural   Ho5Sn3N
_chemical_formula_sum   'Ho10 Sn6 N2'
_cell_volume   437.35103797
_cell_formula_units_Z   2
loop_
 _symmetry_equiv_pos_site_id
 _symmetry_equiv_pos_as_xyz
  1  'x, y, z'
loop_
 _atom_site_type_symbol
 _atom_site_label
 _atom_site_symmetry_multiplicity
 _atom_site_fract_x
 _atom_site_fract_y
 _atom_site_fract_z
 _atom_site_occupancy
  Ho  Ho0  1  0.666667  0.333333  0.000000  1
  Ho  Ho1  1  0.333333  0.666667  0.000000  1
  Ho  Ho2  1  0.333333  0.666667  0.500000  1
  Ho  Ho3  1  0.666667  0.333333  0.500000  1
  Ho  Ho4  1  0.786125  0.786125  0.750000  1
  Ho  Ho5  1  0.213875  0.000000  0.750000  1
  Ho  Ho6  1  0.000000  0.213875  0.750000  1
  Ho  Ho7  1  0.213875  0.213875  0.250000  1
  Ho  Ho8  1  0.786125  0.000000  0.250000  1
  Ho  Ho9  1  0.000000  0.786125  0.250000  1
  Sn  Sn10  1  0.403502  0.403502  0.750000  1
  Sn  Sn11  1  0.596498  0.000000  0.750000  1
  Sn  Sn12  1  0.000000  0.596498  0.750000  1
  Sn  Sn13  1  0.596498  0.596498  0.250000  1
  Sn  Sn14  1  0.403502  0.000000  0.250000  1
  Sn  Sn15  1  0.000000  0.403502  0.250000  1
  N  N16  1  0.000000  0.000000  0.000000  1
  N  N17  1  0.000000  0.000000  0.500000  1
