# generated using pymatgen
data_Dy5RuRhO12
_symmetry_space_group_name_H-M   'P 1'
_cell_length_a   6.85092744
_cell_length_b   6.85092654
_cell_length_c   7.35294474
_cell_angle_alpha   74.23391273
_cell_angle_beta   74.23391374
_cell_angle_gamma   50.42825265
_symmetry_Int_Tables_number   1
_chemical_formula_structural   Dy5RuRhO12
_chemical_formula_sum   'Dy5 Ru1 Rh1 O12'
_cell_volume   253.74137693
_cell_formula_units_Z   1
loop_
 _symmetry_equiv_pos_site_id
 _symmetry_equiv_pos_as_xyz
  1  'x, y, z'
loop_
 _atom_site_type_symbol
 _atom_site_label
 _atom_site_symmetry_multiplicity
 _atom_site_fract_x
 _atom_site_fract_y
 _atom_site_fract_z
 _atom_site_occupancy
  Dy  Dy0  1  0.688645  0.692665  0.669128  1
  Dy  Dy1  1  0.693537  0.703618  0.140804  1
  Dy  Dy2  1  0.997641  0.002359  0.000000  1
  Dy  Dy3  1  0.296382  0.306463  0.859196  1
  Dy  Dy4  1  0.307335  0.311355  0.330872  1
  Ru  Ru5  1  0.767334  0.232666  0.500000  1
  Rh  Rh6  1  0.245298  0.754702  0.500000  1
  O  O7  1  0.401373  0.905909  0.925077  1
  O  O8  1  0.576945  0.094985  0.584887  1
  O  O9  1  0.905015  0.423055  0.415113  1
  O  O10  1  0.094091  0.598627  0.074923  1
  O  O11  1  0.996816  0.002326  0.308865  1
  O  O12  1  0.506389  0.492755  0.684446  1
  O  O13  1  0.898754  0.404262  0.927988  1
  O  O14  1  0.092945  0.569160  0.585249  1
  O  O15  1  0.430840  0.907055  0.414751  1
  O  O16  1  0.595738  0.101246  0.072012  1
  O  O17  1  0.507245  0.493611  0.315554  1
  O  O18  1  0.997674  0.003184  0.691135  1
