# generated using pymatgen
data_CeHo(Si7Rh3)2
_symmetry_space_group_name_H-M   'P 1'
_cell_length_a   8.01941532
_cell_length_b   8.01941536
_cell_length_c   8.01941598
_cell_angle_alpha   57.04955426
_cell_angle_beta   57.04955509
_cell_angle_gamma   57.04955310
_symmetry_Int_Tables_number   1
_chemical_formula_structural   CeHo(Si7Rh3)2
_chemical_formula_sum   'Ce1 Ho1 Si14 Rh6'
_cell_volume   339.87767864
_cell_formula_units_Z   1
loop_
 _symmetry_equiv_pos_site_id
 _symmetry_equiv_pos_as_xyz
  1  'x, y, z'
loop_
 _atom_site_type_symbol
 _atom_site_label
 _atom_site_symmetry_multiplicity
 _atom_site_fract_x
 _atom_site_fract_y
 _atom_site_fract_z
 _atom_site_occupancy
  Ce  Ce0  1  0.500000  0.500000  0.500000  1
  Ho  Ho1  1  0.000000  0.000000  0.000000  1
  Si  Si2  1  0.749956  0.749956  0.749956  1
  Si  Si3  1  0.250044  0.250044  0.250044  1
  Si  Si4  1  0.852457  0.065257  0.671981  1
  Si  Si5  1  0.671981  0.852457  0.065257  1
  Si  Si6  1  0.065257  0.671981  0.852457  1
  Si  Si7  1  0.649140  0.828188  0.434946  1
  Si  Si8  1  0.434946  0.649140  0.828188  1
  Si  Si9  1  0.828188  0.434946  0.649140  1
  Si  Si10  1  0.171812  0.565054  0.350860  1
  Si  Si11  1  0.565054  0.350860  0.171812  1
  Si  Si12  1  0.350860  0.171812  0.565054  1
  Si  Si13  1  0.934743  0.328019  0.147543  1
  Si  Si14  1  0.328019  0.147543  0.934743  1
  Si  Si15  1  0.147543  0.934743  0.328019  1
  Rh  Rh16  1  0.068195  0.430043  0.750847  1
  Rh  Rh17  1  0.249153  0.931805  0.569957  1
  Rh  Rh18  1  0.569957  0.249153  0.931805  1
  Rh  Rh19  1  0.931805  0.569957  0.249153  1
  Rh  Rh20  1  0.430043  0.750847  0.068195  1
  Rh  Rh21  1  0.750847  0.068195  0.430043  1
