# generated using pymatgen
data_ErSc7Ti12Si15Ge
_symmetry_space_group_name_H-M   'P 1'
_cell_length_a   6.90175335
_cell_length_b   6.89676547
_cell_length_c   12.63752817
_cell_angle_alpha   89.92624124
_cell_angle_beta   89.95486022
_cell_angle_gamma   89.92135566
_symmetry_Int_Tables_number   1
_chemical_formula_structural   ErSc7Ti12Si15Ge
_chemical_formula_sum   'Er1 Sc7 Ti12 Si15 Ge1'
_cell_volume   601.54223593
_cell_formula_units_Z   1
loop_
 _symmetry_equiv_pos_site_id
 _symmetry_equiv_pos_as_xyz
  1  'x, y, z'
loop_
 _atom_site_type_symbol
 _atom_site_label
 _atom_site_symmetry_multiplicity
 _atom_site_fract_x
 _atom_site_fract_y
 _atom_site_fract_z
 _atom_site_occupancy
  Er  Er0  1  0.995819  0.659695  0.033233  1
  Sc  Sc1  1  0.342686  0.000057  0.465885  1
  Sc  Sc2  1  0.501229  0.840453  0.716448  1
  Sc  Sc3  1  0.499673  0.159188  0.218190  1
  Sc  Sc4  1  0.841695  0.499515  0.283854  1
  Sc  Sc5  1  0.158654  0.501604  0.783527  1
  Sc  Sc6  1  0.657636  0.999726  0.966196  1
  Sc  Sc7  1  0.997629  0.344388  0.531506  1
  Ti  Ti8  1  0.327589  0.325947  0.999995  1
  Ti  Ti9  1  0.173846  0.828078  0.250952  1
  Ti  Ti10  1  0.823727  0.173022  0.749541  1
  Ti  Ti11  1  0.672975  0.672961  0.499947  1
  Ti  Ti12  1  0.151783  0.005195  0.874939  1
  Ti  Ti13  1  0.494328  0.648687  0.125698  1
  Ti  Ti14  1  0.508836  0.352721  0.624973  1
  Ti  Ti15  1  0.650087  0.491049  0.874071  1
  Ti  Ti16  1  0.351377  0.507017  0.375940  1
  Ti  Ti17  1  0.850437  0.994249  0.376209  1
  Ti  Ti18  1  0.007437  0.150015  0.125557  1
  Ti  Ti19  1  0.990668  0.848355  0.623392  1
  Si  Si20  1  0.368177  0.705223  0.929008  1
  Si  Si21  1  0.636169  0.295539  0.429515  1
  Si  Si22  1  0.701394  0.359388  0.070076  1
  Si  Si23  1  0.295326  0.637054  0.570439  1
  Si  Si24  1  0.791398  0.868465  0.182889  1
  Si  Si25  1  0.136471  0.204465  0.321166  1
  Si  Si26  1  0.863128  0.797021  0.818110  1
  Si  Si27  1  0.299021  0.955204  0.065151  1
  Si  Si28  1  0.546036  0.796452  0.315317  1
  Si  Si29  1  0.455589  0.203048  0.815718  1
  Si  Si30  1  0.797191  0.546445  0.685214  1
  Si  Si31  1  0.206774  0.451171  0.187453  1
  Si  Si32  1  0.702968  0.047107  0.564447  1
  Si  Si33  1  0.952553  0.290424  0.934286  1
  Si  Si34  1  0.046889  0.704423  0.435091  1
  Ge  Ge35  1  0.202807  0.136646  0.676067  1
