# generated using pymatgen
data_ScNb3B4(PRu5)2
_symmetry_space_group_name_H-M   'P 1'
_cell_length_a   9.28408650
_cell_length_b   9.28408650
_cell_length_c   2.95013300
_cell_angle_alpha   90.00000000
_cell_angle_beta   90.00000000
_cell_angle_gamma   89.65325338
_symmetry_Int_Tables_number   1
_chemical_formula_structural   ScNb3B4(PRu5)2
_chemical_formula_sum   'Sc1 Nb3 B4 P2 Ru10'
_cell_volume   254.27988077
_cell_formula_units_Z   1
loop_
 _symmetry_equiv_pos_site_id
 _symmetry_equiv_pos_as_xyz
  1  'x, y, z'
loop_
 _atom_site_type_symbol
 _atom_site_label
 _atom_site_symmetry_multiplicity
 _atom_site_fract_x
 _atom_site_fract_y
 _atom_site_fract_z
 _atom_site_occupancy
  Sc  Sc0  1  0.823964  0.676036  0.000000  1
  Nb  Nb1  1  0.175814  0.324186  0.000000  1
  Nb  Nb2  1  0.323142  0.822405  0.000000  1
  Nb  Nb3  1  0.677595  0.176858  0.000000  1
  B  B4  1  0.625075  0.874925  0.000000  1
  B  B5  1  0.374650  0.125350  0.000000  1
  B  B6  1  0.123617  0.624689  0.000000  1
  B  B7  1  0.875311  0.376383  0.000000  1
  P  P8  1  0.502808  0.501942  0.000000  1
  P  P9  1  0.998058  0.997192  0.000000  1
  Ru  Ru10  1  0.561102  0.710334  0.500000  1
  Ru  Ru11  1  0.433830  0.291111  0.500000  1
  Ru  Ru12  1  0.071235  0.793286  0.500000  1
  Ru  Ru13  1  0.936074  0.207901  0.500000  1
  Ru  Ru14  1  0.292099  0.563926  0.500000  1
  Ru  Ru15  1  0.706714  0.428765  0.500000  1
  Ru  Ru16  1  0.208889  0.066170  0.500000  1
  Ru  Ru17  1  0.789666  0.938898  0.500000  1
  Ru  Ru18  1  0.499591  0.000409  0.500000  1
  Ru  Ru19  1  0.000767  0.499233  0.500000  1
