# generated using pymatgen
data_Tb2Y6Cd2OsPt
_symmetry_space_group_name_H-M   'P 1'
_cell_length_a   9.69640044
_cell_length_b   9.69638247
_cell_length_c   9.75962201
_cell_angle_alpha   59.79376584
_cell_angle_beta   59.79397958
_cell_angle_gamma   59.61398341
_symmetry_Int_Tables_number   1
_chemical_formula_structural   Tb2Y6Cd2OsPt
_chemical_formula_sum   'Tb4 Y12 Cd4 Os2 Pt2'
_cell_volume   644.91581050
_cell_formula_units_Z   2
loop_
 _symmetry_equiv_pos_site_id
 _symmetry_equiv_pos_as_xyz
  1  'x, y, z'
loop_
 _atom_site_type_symbol
 _atom_site_label
 _atom_site_symmetry_multiplicity
 _atom_site_fract_x
 _atom_site_fract_y
 _atom_site_fract_z
 _atom_site_occupancy
  Tb  Tb0  1  0.349630  0.349632  0.352367  1
  Tb  Tb1  1  0.349531  0.349532  0.948479  1
  Tb  Tb2  1  0.346663  0.954238  0.349458  1
  Tb  Tb3  1  0.954238  0.346663  0.349459  1
  Y  Y4  1  0.814111  0.188049  0.191228  1
  Y  Y5  1  0.188039  0.814080  0.806668  1
  Y  Y6  1  0.188048  0.814113  0.191227  1
  Y  Y7  1  0.814083  0.188040  0.806669  1
  Y  Y8  1  0.188365  0.188366  0.811657  1
  Y  Y9  1  0.808235  0.808232  0.191771  1
  Y  Y10  1  0.938200  0.556801  0.566385  1
  Y  Y11  1  0.556852  0.938168  0.938613  1
  Y  Y12  1  0.556801  0.938199  0.566386  1
  Y  Y13  1  0.938169  0.556848  0.938615  1
  Y  Y14  1  0.562460  0.562458  0.937555  1
  Y  Y15  1  0.939676  0.939675  0.560359  1
  Cd  Cd16  1  0.580352  0.580352  0.580979  1
  Cd  Cd17  1  0.580366  0.580366  0.258320  1
  Cd  Cd18  1  0.581214  0.255322  0.581762  1
  Cd  Cd19  1  0.255321  0.581214  0.581763  1
  Os  Os20  1  0.144786  0.144787  0.136995  1
  Os  Os21  1  0.144810  0.144810  0.573347  1
  Pt  Pt22  1  0.145697  0.574357  0.139971  1
  Pt  Pt23  1  0.574356  0.145698  0.139970  1
