# generated using pymatgen
data_DyTm19(SiBi2)4
_symmetry_space_group_name_H-M   'P 1'
_cell_length_a   7.94900003
_cell_length_b   9.09274500
_cell_length_c   11.91607654
_cell_angle_alpha   90.00000000
_cell_angle_beta   90.05827980
_cell_angle_gamma   90.00000000
_symmetry_Int_Tables_number   1
_chemical_formula_structural   DyTm19(SiBi2)4
_chemical_formula_sum   'Dy1 Tm19 Si4 Bi8'
_cell_volume   861.27247848
_cell_formula_units_Z   1
loop_
 _symmetry_equiv_pos_site_id
 _symmetry_equiv_pos_as_xyz
  1  'x, y, z'
loop_
 _atom_site_type_symbol
 _atom_site_label
 _atom_site_symmetry_multiplicity
 _atom_site_fract_x
 _atom_site_fract_y
 _atom_site_fract_z
 _atom_site_occupancy
  Dy  Dy0  1  0.340586  0.750000  0.288709  1
  Tm  Tm1  1  0.679106  0.945299  0.438072  1
  Tm  Tm2  1  0.820731  0.553924  0.936886  1
  Tm  Tm3  1  0.318811  0.445153  0.562126  1
  Tm  Tm4  1  0.180731  0.055083  0.062417  1
  Tm  Tm5  1  0.318811  0.054847  0.562126  1
  Tm  Tm6  1  0.180731  0.444917  0.062417  1
  Tm  Tm7  1  0.679106  0.554701  0.438072  1
  Tm  Tm8  1  0.820731  0.946076  0.936886  1
  Tm  Tm9  1  0.160565  0.750000  0.788935  1
  Tm  Tm10  1  0.659642  0.250000  0.710744  1
  Tm  Tm11  1  0.841283  0.250000  0.209925  1
  Tm  Tm12  1  0.040187  0.750000  0.499811  1
  Tm  Tm13  1  0.460167  0.750000  0.999410  1
  Tm  Tm14  1  0.957860  0.250000  0.500883  1
  Tm  Tm15  1  0.540993  0.250000  0.999038  1
  Tm  Tm16  1  0.861779  0.750000  0.206581  1
  Tm  Tm17  1  0.637801  0.750000  0.707945  1
  Tm  Tm18  1  0.136766  0.250000  0.793591  1
  Tm  Tm19  1  0.363644  0.250000  0.293375  1
  Si  Si20  1  0.088762  0.750000  0.023824  1
  Si  Si21  1  0.411464  0.750000  0.525924  1
  Si  Si22  1  0.913089  0.250000  0.976994  1
  Si  Si23  1  0.586552  0.250000  0.477761  1
  Bi  Bi24  1  0.572439  0.991675  0.172414  1
  Bi  Bi25  1  0.929467  0.509892  0.673585  1
  Bi  Bi26  1  0.429142  0.490358  0.825996  1
  Bi  Bi27  1  0.069003  0.010280  0.326779  1
  Bi  Bi28  1  0.429142  0.009642  0.825996  1
  Bi  Bi29  1  0.069003  0.489720  0.326779  1
  Bi  Bi30  1  0.572439  0.508325  0.172414  1
  Bi  Bi31  1  0.929467  0.990108  0.673585  1
