# generated using pymatgen
data_Pr4Al18ZnIr2Rh3
_symmetry_space_group_name_H-M   'P 1'
_cell_length_a   7.66194538
_cell_length_b   7.66194420
_cell_length_c   9.64369305
_cell_angle_alpha   89.93397572
_cell_angle_beta   89.93397465
_cell_angle_gamma   119.47874816
_symmetry_Int_Tables_number   1
_chemical_formula_structural   Pr4Al18ZnIr2Rh3
_chemical_formula_sum   'Pr4 Al18 Zn1 Ir2 Rh3'
_cell_volume   492.84250279
_cell_formula_units_Z   1
loop_
 _symmetry_equiv_pos_site_id
 _symmetry_equiv_pos_as_xyz
  1  'x, y, z'
loop_
 _atom_site_type_symbol
 _atom_site_label
 _atom_site_symmetry_multiplicity
 _atom_site_fract_x
 _atom_site_fract_y
 _atom_site_fract_z
 _atom_site_occupancy
  Pr  Pr0  1  0.995998  0.675918  0.248351  1
  Pr  Pr1  1  0.004002  0.324082  0.751649  1
  Pr  Pr2  1  0.675918  0.995998  0.248351  1
  Pr  Pr3  1  0.324082  0.004002  0.751649  1
  Al  Al4  1  0.138125  0.138125  0.259433  1
  Al  Al5  1  0.861875  0.861875  0.740567  1
  Al  Al6  1  0.005566  0.345601  0.077140  1
  Al  Al7  1  0.994434  0.654399  0.922860  1
  Al  Al8  1  0.999488  0.664269  0.569624  1
  Al  Al9  1  0.335731  0.000512  0.430376  1
  Al  Al10  1  0.000512  0.335731  0.430376  1
  Al  Al11  1  0.664269  0.999488  0.569624  1
  Al  Al12  1  0.654399  0.994434  0.922860  1
  Al  Al13  1  0.345601  0.005566  0.077140  1
  Al  Al14  1  0.334157  0.334157  0.545280  1
  Al  Al15  1  0.665843  0.665843  0.454720  1
  Al  Al16  1  0.655386  0.655386  0.055041  1
  Al  Al17  1  0.344614  0.344614  0.944959  1
  Al  Al18  1  0.339172  0.548581  0.250999  1
  Al  Al19  1  0.660828  0.451419  0.749001  1
  Al  Al20  1  0.548581  0.339172  0.250999  1
  Al  Al21  1  0.451419  0.660828  0.749001  1
  Zn  Zn22  1  0.000000  0.000000  0.000000  1
  Ir  Ir23  1  0.329127  0.670873  0.500000  1
  Ir  Ir24  1  0.670873  0.329127  0.500000  1
  Rh  Rh25  1  0.671146  0.328854  0.000000  1
  Rh  Rh26  1  0.328854  0.671146  0.000000  1
  Rh  Rh27  1  0.000000  0.000000  0.500000  1
