# generated using pymatgen
data_Nd4Os5Br2
_symmetry_space_group_name_H-M   'P 1'
_cell_length_a   11.47505720
_cell_length_b   11.47505768
_cell_length_c   4.26252000
_cell_angle_alpha   90.00000000
_cell_angle_beta   90.00000000
_cell_angle_gamma   92.09874861
_symmetry_Int_Tables_number   1
_chemical_formula_structural   Nd4Os5Br2
_chemical_formula_sum   'Nd8 Os10 Br4'
_cell_volume   560.89909701
_cell_formula_units_Z   2
loop_
 _symmetry_equiv_pos_site_id
 _symmetry_equiv_pos_as_xyz
  1  'x, y, z'
loop_
 _atom_site_type_symbol
 _atom_site_label
 _atom_site_symmetry_multiplicity
 _atom_site_fract_x
 _atom_site_fract_y
 _atom_site_fract_z
 _atom_site_occupancy
  Nd  Nd0  1  0.728607  0.728607  0.000000  1
  Nd  Nd1  1  0.037081  0.667628  0.500000  1
  Nd  Nd2  1  0.377966  0.622034  0.000000  1
  Nd  Nd3  1  0.962919  0.332372  0.500000  1
  Nd  Nd4  1  0.271393  0.271393  0.000000  1
  Nd  Nd5  1  0.622034  0.377966  0.000000  1
  Nd  Nd6  1  0.667628  0.037081  0.500000  1
  Nd  Nd7  1  0.332372  0.962919  0.500000  1
  Os  Os8  1  0.577154  0.577154  0.500000  1
  Os  Os9  1  0.422846  0.422846  0.500000  1
  Os  Os10  1  0.213368  0.473029  0.500000  1
  Os  Os11  1  0.786632  0.526971  0.500000  1
  Os  Os12  1  0.524054  0.894541  0.000000  1
  Os  Os13  1  0.526971  0.786632  0.500000  1
  Os  Os14  1  0.475946  0.105459  0.000000  1
  Os  Os15  1  0.105459  0.475946  0.000000  1
  Os  Os16  1  0.473029  0.213368  0.500000  1
  Os  Os17  1  0.894541  0.524054  0.000000  1
  Br  Br18  1  0.880484  0.880484  0.500000  1
  Br  Br19  1  0.170399  0.829601  0.000000  1
  Br  Br20  1  0.119516  0.119516  0.500000  1
  Br  Br21  1  0.829601  0.170399  0.000000  1
