# generated using pymatgen
data_La2DyCu7(Ni3B)2
_symmetry_space_group_name_H-M   'P 1'
_cell_length_a   5.11638846
_cell_length_b   5.12266933
_cell_length_c   11.04243401
_cell_angle_alpha   89.98926732
_cell_angle_beta   90.02149172
_cell_angle_gamma   119.95943655
_symmetry_Int_Tables_number   1
_chemical_formula_structural   La2DyCu7(Ni3B)2
_chemical_formula_sum   'La2 Dy1 Cu7 Ni6 B2'
_cell_volume   250.74519413
_cell_formula_units_Z   1
loop_
 _symmetry_equiv_pos_site_id
 _symmetry_equiv_pos_as_xyz
  1  'x, y, z'
loop_
 _atom_site_type_symbol
 _atom_site_label
 _atom_site_symmetry_multiplicity
 _atom_site_fract_x
 _atom_site_fract_y
 _atom_site_fract_z
 _atom_site_occupancy
  La  La0  1  0.000091  0.000000  0.313452  1
  La  La1  1  0.999706  0.000000  0.686605  1
  Dy  Dy2  1  0.000101  0.000000  0.000062  1
  Cu  Cu3  1  0.499957  0.000000  0.499901  1
  Cu  Cu4  1  0.499890  0.500006  0.499914  1
  Cu  Cu5  1  0.999884  0.499994  0.499914  1
  Cu  Cu6  1  0.333413  0.666633  0.313097  1
  Cu  Cu7  1  0.666779  0.333367  0.313097  1
  Cu  Cu8  1  0.666389  0.333383  0.686862  1
  Cu  Cu9  1  0.333005  0.666617  0.686862  1
  Ni  Ni10  1  0.500385  0.000000  0.125811  1
  Ni  Ni11  1  0.500284  0.499996  0.125814  1
  Ni  Ni12  1  0.000288  0.500004  0.125814  1
  Ni  Ni13  1  0.499853  0.000000  0.874298  1
  Ni  Ni14  1  0.499847  0.500018  0.874221  1
  Ni  Ni15  1  0.999829  0.499982  0.874221  1
  B  B16  1  0.333480  0.666760  0.000026  1
  B  B17  1  0.666719  0.333240  0.000026  1
