# generated using pymatgen
data_ErLu7Ti9Si16Tc3
_symmetry_space_group_name_H-M   'P 1'
_cell_length_a   6.91634056
_cell_length_b   6.91679238
_cell_length_c   12.69071776
_cell_angle_alpha   90.02129187
_cell_angle_beta   89.95714710
_cell_angle_gamma   90.03164987
_symmetry_Int_Tables_number   1
_chemical_formula_structural   ErLu7Ti9Si16Tc3
_chemical_formula_sum   'Er1 Lu7 Ti9 Si16 Tc3'
_cell_volume   607.10956766
_cell_formula_units_Z   1
loop_
 _symmetry_equiv_pos_site_id
 _symmetry_equiv_pos_as_xyz
  1  'x, y, z'
loop_
 _atom_site_type_symbol
 _atom_site_label
 _atom_site_symmetry_multiplicity
 _atom_site_fract_x
 _atom_site_fract_y
 _atom_site_fract_z
 _atom_site_occupancy
  Er  Er0  1  0.999014  0.658969  0.031469  1
  Lu  Lu1  1  0.340848  0.001292  0.467383  1
  Lu  Lu2  1  0.499153  0.841728  0.719503  1
  Lu  Lu3  1  0.499975  0.158460  0.218060  1
  Lu  Lu4  1  0.841677  0.499120  0.280548  1
  Lu  Lu5  1  0.158581  0.499880  0.781916  1
  Lu  Lu6  1  0.658659  0.999630  0.968468  1
  Lu  Lu7  1  0.001267  0.340823  0.532592  1
  Ti  Ti8  1  0.673715  0.673737  0.499996  1
  Ti  Ti9  1  0.151748  0.004584  0.876516  1
  Ti  Ti10  1  0.495356  0.652992  0.124205  1
  Ti  Ti11  1  0.504102  0.348660  0.627152  1
  Ti  Ti12  1  0.652817  0.495161  0.875690  1
  Ti  Ti13  1  0.348710  0.504109  0.372926  1
  Ti  Ti14  1  0.847813  0.993105  0.375699  1
  Ti  Ti15  1  0.004472  0.151709  0.123390  1
  Ti  Ti16  1  0.993001  0.847800  0.624289  1
  Si  Si17  1  0.201243  0.130991  0.682434  1
  Si  Si18  1  0.369573  0.702105  0.931286  1
  Si  Si19  1  0.633230  0.296547  0.433047  1
  Si  Si20  1  0.701033  0.367985  0.068371  1
  Si  Si21  1  0.296548  0.633232  0.567012  1
  Si  Si22  1  0.797298  0.869170  0.182849  1
  Si  Si23  1  0.131034  0.201170  0.317579  1
  Si  Si24  1  0.868256  0.798281  0.817333  1
  Si  Si25  1  0.292738  0.953348  0.066771  1
  Si  Si26  1  0.546497  0.791956  0.316038  1
  Si  Si27  1  0.452591  0.208826  0.816707  1
  Si  Si28  1  0.791895  0.546771  0.683974  1
  Si  Si29  1  0.209498  0.451953  0.183660  1
  Si  Si30  1  0.706091  0.048696  0.567519  1
  Si  Si31  1  0.952378  0.291156  0.932977  1
  Si  Si32  1  0.048715  0.706160  0.432494  1
  Tc  Tc33  1  0.328390  0.327741  0.999935  1
  Tc  Tc34  1  0.174009  0.828339  0.249021  1
  Tc  Tc35  1  0.828075  0.173814  0.751193  1
