# generated using pymatgen
data_Zr10ZnCu(Sn2Sb)2
_symmetry_space_group_name_H-M   'P 1'
_cell_length_a   8.68042024
_cell_length_b   8.68042057
_cell_length_c   5.88547260
_cell_angle_alpha   90.02591541
_cell_angle_beta   90.02592278
_cell_angle_gamma   119.96684166
_symmetry_Int_Tables_number   1
_chemical_formula_structural   Zr10ZnCu(Sn2Sb)2
_chemical_formula_sum   'Zr10 Zn1 Cu1 Sn4 Sb2'
_cell_volume   384.18316213
_cell_formula_units_Z   1
loop_
 _symmetry_equiv_pos_site_id
 _symmetry_equiv_pos_as_xyz
  1  'x, y, z'
loop_
 _atom_site_type_symbol
 _atom_site_label
 _atom_site_symmetry_multiplicity
 _atom_site_fract_x
 _atom_site_fract_y
 _atom_site_fract_z
 _atom_site_occupancy
  Zr  Zr0  1  0.666929  0.332659  0.999113  1
  Zr  Zr1  1  0.332659  0.666929  0.999113  1
  Zr  Zr2  1  0.332441  0.666929  0.500795  1
  Zr  Zr3  1  0.666929  0.332441  0.500795  1
  Zr  Zr4  1  0.733229  0.733229  0.753578  1
  Zr  Zr5  1  0.267216  0.000477  0.753117  1
  Zr  Zr6  1  0.000477  0.267216  0.753117  1
  Zr  Zr7  1  0.264422  0.264422  0.246552  1
  Zr  Zr8  1  0.734967  0.000893  0.246690  1
  Zr  Zr9  1  0.000893  0.734967  0.246690  1
  Zn  Zn10  1  0.998871  0.998871  0.503094  1
  Cu  Cu11  1  0.998773  0.998773  0.996499  1
  Sn  Sn12  1  0.385681  0.385681  0.749628  1
  Sn  Sn13  1  0.616122  0.999469  0.749439  1
  Sn  Sn14  1  0.999469  0.616122  0.749439  1
  Sn  Sn15  1  0.614553  0.614553  0.250707  1
  Sb  Sb16  1  0.386027  0.000342  0.250817  1
  Sb  Sb17  1  0.000342  0.386027  0.250817  1
