# generated using pymatgen
data_Hf16ZrNi4Pd3
_symmetry_space_group_name_H-M   'P 1'
_cell_length_a   8.72118164
_cell_length_b   8.72118144
_cell_length_c   8.72118100
_cell_angle_alpha   59.64195486
_cell_angle_beta   59.64195565
_cell_angle_gamma   59.64195403
_symmetry_Int_Tables_number   1
_chemical_formula_structural   Hf16ZrNi4Pd3
_chemical_formula_sum   'Hf16 Zr1 Ni4 Pd3'
_cell_volume   465.22510770
_cell_formula_units_Z   1
loop_
 _symmetry_equiv_pos_site_id
 _symmetry_equiv_pos_as_xyz
  1  'x, y, z'
loop_
 _atom_site_type_symbol
 _atom_site_label
 _atom_site_symmetry_multiplicity
 _atom_site_fract_x
 _atom_site_fract_y
 _atom_site_fract_z
 _atom_site_occupancy
  Hf  Hf0  1  0.705204  0.098242  0.098242  1
  Hf  Hf1  1  0.098242  0.705204  0.098242  1
  Hf  Hf2  1  0.098242  0.098242  0.705204  1
  Hf  Hf3  1  0.108847  0.108847  0.108847  1
  Hf  Hf4  1  0.313632  0.313632  0.674763  1
  Hf  Hf5  1  0.684059  0.684059  0.316038  1
  Hf  Hf6  1  0.313632  0.674763  0.313632  1
  Hf  Hf7  1  0.684059  0.316038  0.684059  1
  Hf  Hf8  1  0.674763  0.313632  0.313632  1
  Hf  Hf9  1  0.316038  0.684059  0.684059  1
  Hf  Hf10  1  0.946183  0.946183  0.555025  1
  Hf  Hf11  1  0.557328  0.557328  0.946667  1
  Hf  Hf12  1  0.946183  0.555025  0.946183  1
  Hf  Hf13  1  0.557328  0.946667  0.557328  1
  Hf  Hf14  1  0.555025  0.946183  0.946183  1
  Hf  Hf15  1  0.946667  0.557328  0.557328  1
  Zr  Zr16  1  0.325390  0.325390  0.325390  1
  Ni  Ni17  1  0.322627  0.897801  0.897801  1
  Ni  Ni18  1  0.897801  0.322627  0.897801  1
  Ni  Ni19  1  0.897801  0.897801  0.322627  1
  Ni  Ni20  1  0.890780  0.890780  0.890780  1
  Pd  Pd21  1  0.980287  0.339940  0.339940  1
  Pd  Pd22  1  0.339940  0.980287  0.339940  1
  Pd  Pd23  1  0.339940  0.339940  0.980287  1
