# generated using pymatgen
data_ErTm9CdIn7(PtAu)2
_symmetry_space_group_name_H-M   'P 1'
_cell_length_a   3.61645200
_cell_length_b   8.11700130
_cell_length_c   18.17865200
_cell_angle_alpha   90.05164173
_cell_angle_beta   90.00000000
_cell_angle_gamma   90.00000000
_symmetry_Int_Tables_number   1
_chemical_formula_structural   ErTm9CdIn7(PtAu)2
_chemical_formula_sum   'Er1 Tm9 Cd1 In7 Pt2 Au2'
_cell_volume   533.62948760
_cell_formula_units_Z   1
loop_
 _symmetry_equiv_pos_site_id
 _symmetry_equiv_pos_as_xyz
  1  'x, y, z'
loop_
 _atom_site_type_symbol
 _atom_site_label
 _atom_site_symmetry_multiplicity
 _atom_site_fract_x
 _atom_site_fract_y
 _atom_site_fract_z
 _atom_site_occupancy
  Er  Er0  1  0.000000  0.000278  0.000318  1
  Tm  Tm1  1  0.000000  0.120726  0.418418  1
  Tm  Tm2  1  0.000000  0.880450  0.581141  1
  Tm  Tm3  1  0.000000  0.383944  0.915808  1
  Tm  Tm4  1  0.000000  0.615834  0.084272  1
  Tm  Tm5  1  0.000000  0.256044  0.218423  1
  Tm  Tm6  1  0.000000  0.747772  0.782585  1
  Tm  Tm7  1  0.000000  0.267584  0.721205  1
  Tm  Tm8  1  0.000000  0.728033  0.279493  1
  Tm  Tm9  1  0.000000  0.500567  0.499681  1
  Cd  Cd10  1  0.500000  0.422463  0.353269  1
  In  In11  1  0.500000  0.577645  0.647107  1
  In  In12  1  0.500000  0.078437  0.852700  1
  In  In13  1  0.500000  0.921482  0.147149  1
  In  In14  1  0.500000  0.292135  0.065155  1
  In  In15  1  0.500000  0.707297  0.934972  1
  In  In16  1  0.500000  0.210273  0.565807  1
  In  In17  1  0.500000  0.789296  0.433495  1
  Pt  Pt18  1  0.500000  0.473299  0.803755  1
  Pt  Pt19  1  0.500000  0.526944  0.195522  1
  Au  Au20  1  0.500000  0.027545  0.302114  1
  Au  Au21  1  0.500000  0.971950  0.697611  1
