# generated using pymatgen
data_TbDy3Lu4(WO6)4
_symmetry_space_group_name_H-M   'P 1'
_cell_length_a   5.36952200
_cell_length_b   7.65191124
_cell_length_c   11.34064600
_cell_angle_alpha   75.57773656
_cell_angle_beta   90.00000000
_cell_angle_gamma   90.00000000
_symmetry_Int_Tables_number   1
_chemical_formula_structural   TbDy3Lu4(WO6)4
_chemical_formula_sum   'Tb1 Dy3 Lu4 W4 O24'
_cell_volume   451.27044900
_cell_formula_units_Z   1
loop_
 _symmetry_equiv_pos_site_id
 _symmetry_equiv_pos_as_xyz
  1  'x, y, z'
loop_
 _atom_site_type_symbol
 _atom_site_label
 _atom_site_symmetry_multiplicity
 _atom_site_fract_x
 _atom_site_fract_y
 _atom_site_fract_z
 _atom_site_occupancy
  Tb  Tb0  1  0.315551  0.500000  0.750000  1
  Dy  Dy1  1  0.257012  0.000000  0.750000  1
  Dy  Dy2  1  0.742968  0.000000  0.250000  1
  Dy  Dy3  1  0.684357  0.500000  0.250000  1
  Lu  Lu4  1  0.182582  0.793283  0.079271  1
  Lu  Lu5  1  0.182582  0.206717  0.420729  1
  Lu  Lu6  1  0.817353  0.206533  0.920829  1
  Lu  Lu7  1  0.817353  0.793467  0.579171  1
  W  W8  1  0.743538  0.724180  0.886198  1
  W  W9  1  0.256496  0.724073  0.385982  1
  W  W10  1  0.743538  0.275820  0.613802  1
  W  W11  1  0.256496  0.275927  0.114018  1
  O  O12  1  0.540545  0.157587  0.066855  1
  O  O13  1  0.048464  0.057987  0.102515  1
  O  O14  1  0.018031  0.713387  0.770103  1
  O  O15  1  0.459225  0.157600  0.566818  1
  O  O16  1  0.357497  0.487863  0.386424  1
  O  O17  1  0.951612  0.058042  0.602365  1
  O  O18  1  0.545088  0.792495  0.725227  1
  O  O19  1  0.455153  0.792158  0.225210  1
  O  O20  1  0.145415  0.635443  0.549586  1
  O  O21  1  0.048464  0.942013  0.397485  1
  O  O22  1  0.459225  0.842400  0.933182  1
  O  O23  1  0.455153  0.207842  0.274790  1
  O  O24  1  0.854247  0.364664  0.449976  1
  O  O25  1  0.643539  0.487827  0.886784  1
  O  O26  1  0.357497  0.512137  0.113576  1
  O  O27  1  0.951612  0.941958  0.897635  1
  O  O28  1  0.540545  0.842413  0.433145  1
  O  O29  1  0.981271  0.287291  0.229851  1
  O  O30  1  0.545088  0.207505  0.774773  1
  O  O31  1  0.854247  0.635336  0.050024  1
  O  O32  1  0.018031  0.286613  0.729897  1
  O  O33  1  0.145415  0.364557  0.950414  1
  O  O34  1  0.981271  0.712709  0.270149  1
  O  O35  1  0.643539  0.512173  0.613216  1
