# generated using pymatgen
data_Nd12CoTcI17
_symmetry_space_group_name_H-M   'P 1'
_cell_length_a   10.02612094
_cell_length_b   12.03308261
_cell_length_c   12.06843975
_cell_angle_alpha   93.59043474
_cell_angle_beta   104.72524927
_cell_angle_gamma   114.33973263
_symmetry_Int_Tables_number   1
_chemical_formula_structural   Nd12CoTcI17
_chemical_formula_sum   'Nd12 Co1 Tc1 I17'
_cell_volume   1259.65592289
_cell_formula_units_Z   1
loop_
 _symmetry_equiv_pos_site_id
 _symmetry_equiv_pos_as_xyz
  1  'x, y, z'
loop_
 _atom_site_type_symbol
 _atom_site_label
 _atom_site_symmetry_multiplicity
 _atom_site_fract_x
 _atom_site_fract_y
 _atom_site_fract_z
 _atom_site_occupancy
  Nd  Nd0  1  0.053952  0.506538  0.320723  1
  Nd  Nd1  1  0.988117  0.811509  0.579449  1
  Nd  Nd2  1  0.648386  0.241338  0.283349  1
  Nd  Nd3  1  0.010372  0.191453  0.415050  1
  Nd  Nd4  1  0.224880  0.668620  0.993369  1
  Nd  Nd5  1  0.261894  0.991278  0.892928  1
  Nd  Nd6  1  0.351152  0.759468  0.716658  1
  Nd  Nd7  1  0.938825  0.484070  0.675586  1
  Nd  Nd8  1  0.743227  0.019067  0.109014  1
  Nd  Nd9  1  0.148238  0.287397  0.151016  1
  Nd  Nd10  1  0.778798  0.328726  0.014844  1
  Nd  Nd11  1  0.852081  0.712463  0.848578  1
  Co  Co12  1  0.896541  0.261728  0.214864  1
  Tc  Tc13  1  0.104553  0.737975  0.786475  1
  I  I14  1  0.784127  0.527399  0.416868  1
  I  I15  1  0.642050  0.417590  0.761778  1
  I  I16  1  0.842750  0.897531  0.322814  1
  I  I17  1  0.326048  0.212121  0.367391  1
  I  I18  1  0.155653  0.106468  0.672292  1
  I  I19  1  0.588811  0.053465  0.844633  1
  I  I20  1  0.753374  0.179507  0.534837  1
  I  I21  1  0.549713  0.711645  0.955069  1
  I  I22  1  0.358657  0.579365  0.243575  1
  I  I23  1  0.214262  0.471218  0.580289  1
  I  I24  1  0.053247  0.366164  0.898148  1
  I  I25  1  0.453003  0.296512  0.049250  1
  I  I26  1  0.999146  0.999634  0.000471  1
  I  I27  1  0.242602  0.812785  0.460330  1
  I  I28  1  0.415993  0.949460  0.157094  1
  I  I29  1  0.675884  0.786618  0.630286  1
  I  I30  1  0.943661  0.630889  0.102975  1
