# generated using pymatgen
data_Tb2Al8GaPtRh2
_symmetry_space_group_name_H-M   'P 1'
_cell_length_a   7.57249963
_cell_length_b   7.57249931
_cell_length_c   9.51034166
_cell_angle_alpha   89.96465287
_cell_angle_beta   89.96465192
_cell_angle_gamma   119.41533485
_symmetry_Int_Tables_number   1
_chemical_formula_structural   Tb2Al8GaPtRh2
_chemical_formula_sum   'Tb4 Al16 Ga2 Pt2 Rh4'
_cell_volume   475.04366743
_cell_formula_units_Z   2
loop_
 _symmetry_equiv_pos_site_id
 _symmetry_equiv_pos_as_xyz
  1  'x, y, z'
loop_
 _atom_site_type_symbol
 _atom_site_label
 _atom_site_symmetry_multiplicity
 _atom_site_fract_x
 _atom_site_fract_y
 _atom_site_fract_z
 _atom_site_occupancy
  Tb  Tb0  1  0.994833  0.673067  0.250061  1
  Tb  Tb1  1  0.005167  0.326933  0.749939  1
  Tb  Tb2  1  0.673067  0.994833  0.250061  1
  Tb  Tb3  1  0.326933  0.005167  0.749939  1
  Al  Al4  1  0.001973  0.331829  0.076881  1
  Al  Al5  1  0.998027  0.668171  0.923119  1
  Al  Al6  1  0.999821  0.664382  0.573843  1
  Al  Al7  1  0.335618  0.000179  0.426157  1
  Al  Al8  1  0.000179  0.335618  0.426157  1
  Al  Al9  1  0.664382  0.999821  0.573843  1
  Al  Al10  1  0.668171  0.998027  0.923119  1
  Al  Al11  1  0.331829  0.001973  0.076881  1
  Al  Al12  1  0.332788  0.332788  0.551845  1
  Al  Al13  1  0.667212  0.667212  0.448155  1
  Al  Al14  1  0.668249  0.668249  0.058174  1
  Al  Al15  1  0.331751  0.331751  0.941826  1
  Al  Al16  1  0.338565  0.548032  0.253929  1
  Al  Al17  1  0.661435  0.451968  0.746071  1
  Al  Al18  1  0.548032  0.338565  0.253929  1
  Al  Al19  1  0.451968  0.661435  0.746071  1
  Ga  Ga20  1  0.132234  0.132234  0.250754  1
  Ga  Ga21  1  0.867766  0.867766  0.749246  1
  Pt  Pt22  1  0.671788  0.328212  0.000000  1
  Pt  Pt23  1  0.328212  0.671788  0.000000  1
  Rh  Rh24  1  0.328666  0.671334  0.500000  1
  Rh  Rh25  1  0.671334  0.328666  0.500000  1
  Rh  Rh26  1  0.000000  0.000000  0.000000  1
  Rh  Rh27  1  0.000000  0.000000  0.500000  1
