# generated using pymatgen
data_Nd4Ga23CuPd2
_symmetry_space_group_name_H-M   'P 1'
_cell_length_a   6.14866700
_cell_length_b   6.14866700
_cell_length_c   15.56488200
_cell_angle_alpha   90.00000000
_cell_angle_beta   90.00000000
_cell_angle_gamma   90.00000000
_symmetry_Int_Tables_number   1
_chemical_formula_structural   Nd4Ga23CuPd2
_chemical_formula_sum   'Nd4 Ga23 Cu1 Pd2'
_cell_volume   588.44757685
_cell_formula_units_Z   1
loop_
 _symmetry_equiv_pos_site_id
 _symmetry_equiv_pos_as_xyz
  1  'x, y, z'
loop_
 _atom_site_type_symbol
 _atom_site_label
 _atom_site_symmetry_multiplicity
 _atom_site_fract_x
 _atom_site_fract_y
 _atom_site_fract_z
 _atom_site_occupancy
  Nd  Nd0  1  0.750000  0.250000  0.244243  1
  Nd  Nd1  1  0.250000  0.750000  0.244243  1
  Nd  Nd2  1  0.250000  0.750000  0.756119  1
  Nd  Nd3  1  0.750000  0.250000  0.756119  1
  Ga  Ga4  1  0.750000  0.750000  0.184215  1
  Ga  Ga5  1  0.750000  0.750000  0.812333  1
  Ga  Ga6  1  0.250000  0.250000  0.811754  1
  Ga  Ga7  1  0.250000  0.250000  0.336092  1
  Ga  Ga8  1  0.750000  0.750000  0.345063  1
  Ga  Ga9  1  0.750000  0.750000  0.653733  1
  Ga  Ga10  1  0.250000  0.250000  0.652995  1
  Ga  Ga11  1  0.499293  0.000530  0.912566  1
  Ga  Ga12  1  0.000530  0.000707  0.912566  1
  Ga  Ga13  1  0.499470  0.499293  0.912566  1
  Ga  Ga14  1  0.000707  0.499470  0.912566  1
  Ga  Ga15  1  0.488760  0.011469  0.092677  1
  Ga  Ga16  1  0.011469  0.011240  0.092677  1
  Ga  Ga17  1  0.488531  0.488760  0.092677  1
  Ga  Ga18  1  0.011240  0.488531  0.092677  1
  Ga  Ga19  1  0.572680  0.081836  0.430658  1
  Ga  Ga20  1  0.081836  0.927320  0.430658  1
  Ga  Ga21  1  0.418164  0.572680  0.430658  1
  Ga  Ga22  1  0.927320  0.418164  0.430658  1
  Ga  Ga23  1  0.412929  0.910554  0.568620  1
  Ga  Ga24  1  0.910554  0.087071  0.568620  1
  Ga  Ga25  1  0.589446  0.412929  0.568620  1
  Ga  Ga26  1  0.087071  0.589446  0.568620  1
  Cu  Cu27  1  0.250000  0.250000  0.183893  1
  Pd  Pd28  1  0.750000  0.250000  0.000559  1
  Pd  Pd29  1  0.250000  0.750000  0.000559  1
