# generated using pymatgen
data_Yb3Ho(OsRu3)2
_symmetry_space_group_name_H-M   'P 1'
_cell_length_a   5.28572456
_cell_length_b   5.28572485
_cell_length_c   8.88239403
_cell_angle_alpha   89.99207046
_cell_angle_beta   90.00792908
_cell_angle_gamma   121.39021934
_symmetry_Int_Tables_number   1
_chemical_formula_structural   Yb3Ho(OsRu3)2
_chemical_formula_sum   'Yb3 Ho1 Os2 Ru6'
_cell_volume   211.84280884
_cell_formula_units_Z   1
loop_
 _symmetry_equiv_pos_site_id
 _symmetry_equiv_pos_as_xyz
  1  'x, y, z'
loop_
 _atom_site_type_symbol
 _atom_site_label
 _atom_site_symmetry_multiplicity
 _atom_site_fract_x
 _atom_site_fract_y
 _atom_site_fract_z
 _atom_site_occupancy
  Yb  Yb0  1  0.665085  0.334915  0.567443  1
  Yb  Yb1  1  0.664774  0.335226  0.936266  1
  Yb  Yb2  1  0.331292  0.668708  0.062841  1
  Ho  Ho3  1  0.332419  0.667581  0.432363  1
  Os  Os4  1  0.174520  0.337833  0.750171  1
  Os  Os5  1  0.662167  0.825480  0.750171  1
  Ru  Ru6  1  0.990586  0.009414  0.500176  1
  Ru  Ru7  1  0.989359  0.010641  0.000641  1
  Ru  Ru8  1  0.835524  0.164476  0.248962  1
  Ru  Ru9  1  0.826875  0.649179  0.251218  1
  Ru  Ru10  1  0.350821  0.173125  0.251218  1
  Ru  Ru11  1  0.176579  0.823421  0.748529  1
