# generated using pymatgen
data_CeZnNiPt2Au
_symmetry_space_group_name_H-M   'P 1'
_cell_length_a   5.27719579
_cell_length_b   5.19458146
_cell_length_c   5.27719604
_cell_angle_alpha   121.20041829
_cell_angle_beta   117.48323535
_cell_angle_gamma   91.66421654
_symmetry_Int_Tables_number   1
_chemical_formula_structural   CeZnNiPt2Au
_chemical_formula_sum   'Ce1 Zn1 Ni1 Pt2 Au1'
_cell_volume   102.69432005
_cell_formula_units_Z   1
loop_
 _symmetry_equiv_pos_site_id
 _symmetry_equiv_pos_as_xyz
  1  'x, y, z'
loop_
 _atom_site_type_symbol
 _atom_site_label
 _atom_site_symmetry_multiplicity
 _atom_site_fract_x
 _atom_site_fract_y
 _atom_site_fract_z
 _atom_site_occupancy
  Ce  Ce0  1  0.002083  0.007001  0.004918  1
  Zn  Zn1  1  0.618137  0.868975  0.250840  1
  Ni  Ni2  1  0.622222  0.372908  0.750686  1
  Pt  Pt3  1  0.123850  0.370425  0.747113  1
  Pt  Pt4  1  0.623312  0.370425  0.246576  1
  Au  Au5  1  0.260398  0.760265  0.499867  1
