# generated using pymatgen
data_TbY7(ZrGa5)4
_symmetry_space_group_name_H-M   'P 1'
_cell_length_a   5.99338920
_cell_length_b   9.44155501
_cell_length_c   11.41907403
_cell_angle_alpha   89.99795609
_cell_angle_beta   90.01645020
_cell_angle_gamma   90.00628382
_symmetry_Int_Tables_number   1
_chemical_formula_structural   TbY7(ZrGa5)4
_chemical_formula_sum   'Tb1 Y7 Zr4 Ga20'
_cell_volume   646.17012712
_cell_formula_units_Z   1
loop_
 _symmetry_equiv_pos_site_id
 _symmetry_equiv_pos_as_xyz
  1  'x, y, z'
loop_
 _atom_site_type_symbol
 _atom_site_label
 _atom_site_symmetry_multiplicity
 _atom_site_fract_x
 _atom_site_fract_y
 _atom_site_fract_z
 _atom_site_occupancy
  Tb  Tb0  1  0.614274  0.507609  0.852272  1
  Y  Y1  1  0.885841  0.507804  0.352100  1
  Y  Y2  1  0.614496  0.992480  0.852157  1
  Y  Y3  1  0.114394  0.007846  0.647837  1
  Y  Y4  1  0.385581  0.492281  0.147994  1
  Y  Y5  1  0.114419  0.492260  0.647719  1
  Y  Y6  1  0.385543  0.007635  0.147925  1
  Y  Y7  1  0.885798  0.992100  0.352113  1
  Zr  Zr8  1  0.858433  0.750010  0.076944  1
  Zr  Zr9  1  0.641822  0.749992  0.576862  1
  Zr  Zr10  1  0.141188  0.250029  0.923157  1
  Zr  Zr11  1  0.358223  0.249940  0.422984  1
  Ga  Ga12  1  0.875266  0.053730  0.087645  1
  Ga  Ga13  1  0.624651  0.446118  0.587633  1
  Ga  Ga14  1  0.124452  0.553802  0.912286  1
  Ga  Ga15  1  0.375497  0.946141  0.412405  1
  Ga  Ga16  1  0.124719  0.946362  0.912320  1
  Ga  Ga17  1  0.375572  0.553841  0.412397  1
  Ga  Ga18  1  0.875183  0.446157  0.087570  1
  Ga  Ga19  1  0.624591  0.053814  0.587713  1
  Ga  Ga20  1  0.161954  0.749948  0.254754  1
  Ga  Ga21  1  0.338348  0.750107  0.754686  1
  Ga  Ga22  1  0.838134  0.250026  0.745109  1
  Ga  Ga23  1  0.661958  0.249959  0.245433  1
  Ga  Ga24  1  0.391550  0.749952  0.001973  1
  Ga  Ga25  1  0.108600  0.749989  0.502159  1
  Ga  Ga26  1  0.608249  0.249901  0.998138  1
  Ga  Ga27  1  0.891410  0.249937  0.497696  1
  Ga  Ga28  1  0.601729  0.749975  0.292822  1
  Ga  Ga29  1  0.898192  0.750132  0.792941  1
  Ga  Ga30  1  0.398312  0.250129  0.707264  1
  Ga  Ga31  1  0.101623  0.249993  0.206992  1
