# generated using pymatgen
data_Ca13Y3(LuPb4)4
_symmetry_space_group_name_H-M   'P 1'
_cell_length_a   7.98973874
_cell_length_b   8.59340210
_cell_length_c   16.32238607
_cell_angle_alpha   89.93447863
_cell_angle_beta   89.99799618
_cell_angle_gamma   90.32582383
_symmetry_Int_Tables_number   1
_chemical_formula_structural   Ca13Y3(LuPb4)4
_chemical_formula_sum   'Ca13 Y3 Lu4 Pb16'
_cell_volume   1120.66046462
_cell_formula_units_Z   1
loop_
 _symmetry_equiv_pos_site_id
 _symmetry_equiv_pos_as_xyz
  1  'x, y, z'
loop_
 _atom_site_type_symbol
 _atom_site_label
 _atom_site_symmetry_multiplicity
 _atom_site_fract_x
 _atom_site_fract_y
 _atom_site_fract_z
 _atom_site_occupancy
  Ca  Ca0  1  0.500069  0.810551  0.411285  1
  Ca  Ca1  1  0.000575  0.313032  0.909381  1
  Ca  Ca2  1  0.002313  0.312257  0.589838  1
  Ca  Ca3  1  0.823803  0.842863  0.878271  1
  Ca  Ca4  1  0.499042  0.811166  0.088871  1
  Ca  Ca5  1  0.325481  0.659819  0.878672  1
  Ca  Ca6  1  0.674658  0.343028  0.120197  1
  Ca  Ca7  1  0.675411  0.341090  0.380657  1
  Ca  Ca8  1  0.503107  0.188640  0.590266  1
  Ca  Ca9  1  0.323634  0.656207  0.619657  1
  Ca  Ca10  1  0.501229  0.189532  0.909889  1
  Ca  Ca11  1  0.998087  0.686264  0.409810  1
  Ca  Ca12  1  0.997304  0.687621  0.090275  1
  Y  Y13  1  0.171670  0.159058  0.122868  1
  Y  Y14  1  0.829814  0.839781  0.622726  1
  Y  Y15  1  0.172614  0.158894  0.377817  1
  Lu  Lu16  1  0.834615  0.994946  0.250137  1
  Lu  Lu17  1  0.661422  0.491863  0.750415  1
  Lu  Lu18  1  0.337607  0.508870  0.249697  1
  Lu  Lu19  1  0.165092  0.003996  0.751834  1
  Pb  Pb20  1  0.798436  0.145652  0.747825  1
  Pb  Pb21  1  0.679989  0.534169  0.547744  1
  Pb  Pb22  1  0.979061  0.376118  0.250948  1
  Pb  Pb23  1  0.177557  0.968100  0.956733  1
  Pb  Pb24  1  0.318668  0.466307  0.047515  1
  Pb  Pb25  1  0.524479  0.882316  0.744707  1
  Pb  Pb26  1  0.291706  0.351172  0.749035  1
  Pb  Pb27  1  0.020568  0.619228  0.750535  1
  Pb  Pb28  1  0.827133  0.033345  0.455536  1
  Pb  Pb29  1  0.320666  0.465593  0.451664  1
  Pb  Pb30  1  0.202512  0.855988  0.250690  1
  Pb  Pb31  1  0.176620  0.966272  0.544750  1
  Pb  Pb32  1  0.826930  0.036470  0.046659  1
  Pb  Pb33  1  0.708280  0.647772  0.250365  1
  Pb  Pb34  1  0.675746  0.532620  0.952572  1
  Pb  Pb35  1  0.474103  0.119401  0.250157  1
