# generated using pymatgen
data_Ti8V12Si15B
_symmetry_space_group_name_H-M   'P 1'
_cell_length_a   6.43093670
_cell_length_b   6.46121674
_cell_length_c   11.87979923
_cell_angle_alpha   89.90558002
_cell_angle_beta   89.76883495
_cell_angle_gamma   90.04856226
_symmetry_Int_Tables_number   1
_chemical_formula_structural   Ti8V12Si15B
_chemical_formula_sum   'Ti8 V12 Si15 B1'
_cell_volume   493.62069867
_cell_formula_units_Z   1
loop_
 _symmetry_equiv_pos_site_id
 _symmetry_equiv_pos_as_xyz
  1  'x, y, z'
loop_
 _atom_site_type_symbol
 _atom_site_label
 _atom_site_symmetry_multiplicity
 _atom_site_fract_x
 _atom_site_fract_y
 _atom_site_fract_z
 _atom_site_occupancy
  Ti  Ti0  1  0.003111  0.336877  0.220253  1
  Ti  Ti1  1  0.162648  0.503809  0.472205  1
  Ti  Ti2  1  0.849942  0.485386  0.962142  1
  Ti  Ti3  1  0.500983  0.163746  0.531888  1
  Ti  Ti4  1  0.495364  0.839135  0.029472  1
  Ti  Ti5  1  0.995059  0.650992  0.723516  1
  Ti  Ti6  1  0.330833  0.008029  0.780711  1
  Ti  Ti7  1  0.661746  0.996306  0.279479  1
  V  V8  1  0.991769  0.158602  0.628924  1
  V  V9  1  0.335157  0.487907  0.872163  1
  V  V10  1  0.654646  0.505480  0.372483  1
  V  V11  1  0.494699  0.344114  0.127099  1
  V  V12  1  0.502160  0.653269  0.630151  1
  V  V13  1  0.006017  0.844644  0.121929  1
  V  V14  1  0.155115  0.993145  0.378090  1
  V  V15  1  0.858070  0.024552  0.871024  1
  V  V16  1  0.162843  0.171983  0.991951  1
  V  V17  1  0.334732  0.667607  0.250063  1
  V  V18  1  0.677823  0.333518  0.751691  1
  V  V19  1  0.833504  0.834100  0.500511  1
  Si  Si20  1  0.202081  0.540245  0.064401  1
  Si  Si21  1  0.797174  0.461744  0.564845  1
  Si  Si22  1  0.540976  0.202219  0.934400  1
  Si  Si23  1  0.460170  0.798657  0.437053  1
  Si  Si24  1  0.960572  0.701200  0.314226  1
  Si  Si25  1  0.296513  0.041731  0.183331  1
  Si  Si26  1  0.699222  0.958192  0.686093  1
  Si  Si27  1  0.285256  0.365628  0.680662  1
  Si  Si28  1  0.130179  0.792180  0.923343  1
  Si  Si29  1  0.867541  0.206755  0.425576  1
  Si  Si30  1  0.794021  0.132232  0.074246  1
  Si  Si31  1  0.203308  0.867449  0.578620  1
  Si  Si32  1  0.708713  0.631258  0.171670  1
  Si  Si33  1  0.366883  0.291921  0.326172  1
  Si  Si34  1  0.632051  0.708469  0.829089  1
  B  B35  1  0.049118  0.296920  0.810528  1
