# generated using pymatgen
data_Nb10GaIr4
_symmetry_space_group_name_H-M   'P 1'
_cell_length_a   9.94122800
_cell_length_b   9.94122800
_cell_length_c   5.16679800
_cell_angle_alpha   90.00000000
_cell_angle_beta   90.00000000
_cell_angle_gamma   90.00000000
_symmetry_Int_Tables_number   1
_chemical_formula_structural   Nb10GaIr4
_chemical_formula_sum   'Nb20 Ga2 Ir8'
_cell_volume   510.62438584
_cell_formula_units_Z   2
loop_
 _symmetry_equiv_pos_site_id
 _symmetry_equiv_pos_as_xyz
  1  'x, y, z'
loop_
 _atom_site_type_symbol
 _atom_site_label
 _atom_site_symmetry_multiplicity
 _atom_site_fract_x
 _atom_site_fract_y
 _atom_site_fract_z
 _atom_site_occupancy
  Nb  Nb0  1  0.395980  0.395980  0.000000  1
  Nb  Nb1  1  0.895980  0.104020  0.500000  1
  Nb  Nb2  1  0.104020  0.895980  0.500000  1
  Nb  Nb3  1  0.604020  0.604020  0.000000  1
  Nb  Nb4  1  0.127507  0.464178  0.000000  1
  Nb  Nb5  1  0.964178  0.372493  0.500000  1
  Nb  Nb6  1  0.035822  0.627507  0.500000  1
  Nb  Nb7  1  0.872493  0.535822  0.000000  1
  Nb  Nb8  1  0.372493  0.964178  0.500000  1
  Nb  Nb9  1  0.627507  0.035822  0.500000  1
  Nb  Nb10  1  0.464178  0.127507  0.000000  1
  Nb  Nb11  1  0.535822  0.872493  0.000000  1
  Nb  Nb12  1  0.181610  0.181610  0.252610  1
  Nb  Nb13  1  0.681610  0.318390  0.752610  1
  Nb  Nb14  1  0.318390  0.681610  0.752610  1
  Nb  Nb15  1  0.818390  0.818390  0.252610  1
  Nb  Nb16  1  0.318390  0.681610  0.247390  1
  Nb  Nb17  1  0.681610  0.318390  0.247390  1
  Nb  Nb18  1  0.181610  0.181610  0.747390  1
  Nb  Nb19  1  0.818390  0.818390  0.747390  1
  Ga  Ga20  1  0.000000  0.000000  0.000000  1
  Ga  Ga21  1  0.500000  0.500000  0.500000  1
  Ir  Ir22  1  0.260500  0.935101  0.000000  1
  Ir  Ir23  1  0.435101  0.239500  0.500000  1
  Ir  Ir24  1  0.564899  0.760500  0.500000  1
  Ir  Ir25  1  0.739500  0.064899  0.000000  1
  Ir  Ir26  1  0.239500  0.435101  0.500000  1
  Ir  Ir27  1  0.760500  0.564899  0.500000  1
  Ir  Ir28  1  0.935101  0.260500  0.000000  1
  Ir  Ir29  1  0.064899  0.739500  0.000000  1
