# generated using pymatgen
data_Cr20Co(RuC3)2
_symmetry_space_group_name_H-M   'P 1'
_cell_length_a   7.49781552
_cell_length_b   7.49781638
_cell_length_c   7.49781600
_cell_angle_alpha   59.99999286
_cell_angle_beta   59.99998907
_cell_angle_gamma   59.99999396
_symmetry_Int_Tables_number   1
_chemical_formula_structural   Cr20Co(RuC3)2
_chemical_formula_sum   'Cr20 Co1 Ru2 C6'
_cell_volume   298.05008692
_cell_formula_units_Z   1
loop_
 _symmetry_equiv_pos_site_id
 _symmetry_equiv_pos_as_xyz
  1  'x, y, z'
loop_
 _atom_site_type_symbol
 _atom_site_label
 _atom_site_symmetry_multiplicity
 _atom_site_fract_x
 _atom_site_fract_y
 _atom_site_fract_z
 _atom_site_occupancy
  Cr  Cr0  1  0.616538  0.616538  0.150387  1
  Cr  Cr1  1  0.616538  0.150386  0.616538  1
  Cr  Cr2  1  0.150387  0.616538  0.616538  1
  Cr  Cr3  1  0.616538  0.616538  0.616538  1
  Cr  Cr4  1  0.383462  0.383462  0.849613  1
  Cr  Cr5  1  0.383462  0.849613  0.383462  1
  Cr  Cr6  1  0.849613  0.383462  0.383462  1
  Cr  Cr7  1  0.383462  0.383462  0.383462  1
  Cr  Cr8  1  0.000000  0.000000  0.332341  1
  Cr  Cr9  1  0.667659  0.000000  0.332341  1
  Cr  Cr10  1  0.000000  0.667659  0.332341  1
  Cr  Cr11  1  0.667659  0.332341  0.000000  1
  Cr  Cr12  1  0.000000  0.332341  0.000000  1
  Cr  Cr13  1  0.000000  0.332341  0.667659  1
  Cr  Cr14  1  0.332341  0.667659  0.000000  1
  Cr  Cr15  1  0.332341  0.000000  0.667659  1
  Cr  Cr16  1  0.332341  0.000000  0.000000  1
  Cr  Cr17  1  0.000000  0.000000  0.667659  1
  Cr  Cr18  1  0.000000  0.667659  0.000000  1
  Cr  Cr19  1  0.667659  0.000000  0.000000  1
  Co  Co20  1  0.000000  0.000000  0.000000  1
  Ru  Ru21  1  0.750000  0.750000  0.750000  1
  Ru  Ru22  1  0.250000  0.250000  0.250000  1
  C  C23  1  0.723264  0.723264  0.276736  1
  C  C24  1  0.276736  0.723264  0.276736  1
  C  C25  1  0.723264  0.276736  0.276736  1
  C  C26  1  0.276736  0.276736  0.723264  1
  C  C27  1  0.723264  0.276736  0.723264  1
  C  C28  1  0.276736  0.723264  0.723264  1
