# generated using pymatgen
data_PaHg2F6
_symmetry_space_group_name_H-M   'P 1'
_cell_length_a   12.35077200
_cell_length_b   6.08796434
_cell_length_c   10.94463711
_cell_angle_alpha   88.25909271
_cell_angle_beta   90.00000000
_cell_angle_gamma   90.00000000
_symmetry_Int_Tables_number   1
_chemical_formula_structural   PaHg2F6
_chemical_formula_sum   'Pa4 Hg8 F24'
_cell_volume   822.55901203
_cell_formula_units_Z   4
loop_
 _symmetry_equiv_pos_site_id
 _symmetry_equiv_pos_as_xyz
  1  'x, y, z'
loop_
 _atom_site_type_symbol
 _atom_site_label
 _atom_site_symmetry_multiplicity
 _atom_site_fract_x
 _atom_site_fract_y
 _atom_site_fract_z
 _atom_site_occupancy
  Pa  Pa0  1  0.672034  0.495200  0.850554  1
  Pa  Pa1  1  0.172034  0.504800  0.649446  1
  Pa  Pa2  1  0.327966  0.504800  0.149446  1
  Pa  Pa3  1  0.827966  0.495200  0.350554  1
  Hg  Hg4  1  0.877640  0.988477  0.659839  1
  Hg  Hg5  1  0.377640  0.011523  0.840161  1
  Hg  Hg6  1  0.122360  0.011523  0.340161  1
  Hg  Hg7  1  0.622360  0.988477  0.159839  1
  Hg  Hg8  1  0.968301  0.996798  0.883634  1
  Hg  Hg9  1  0.468301  0.003202  0.616366  1
  Hg  Hg10  1  0.031699  0.003202  0.116366  1
  Hg  Hg11  1  0.531699  0.996798  0.383634  1
  F  F12  1  0.664761  0.781667  0.735238  1
  F  F13  1  0.164761  0.218333  0.764762  1
  F  F14  1  0.335239  0.218333  0.264762  1
  F  F15  1  0.835239  0.781667  0.235238  1
  F  F16  1  0.674086  0.198990  0.962445  1
  F  F17  1  0.174086  0.801010  0.537555  1
  F  F18  1  0.325914  0.801010  0.037555  1
  F  F19  1  0.825914  0.198990  0.462445  1
  F  F20  1  0.690248  0.703662  0.001677  1
  F  F21  1  0.190248  0.296338  0.498323  1
  F  F22  1  0.309752  0.296338  0.998323  1
  F  F23  1  0.809752  0.703662  0.501677  1
  F  F24  1  0.657928  0.300288  0.694924  1
  F  F25  1  0.157928  0.699712  0.805076  1
  F  F26  1  0.342072  0.699712  0.305076  1
  F  F27  1  0.842072  0.300288  0.194924  1
  F  F28  1  0.841639  0.484954  0.840773  1
  F  F29  1  0.341639  0.515046  0.659227  1
  F  F30  1  0.158361  0.515046  0.159227  1
  F  F31  1  0.658361  0.484954  0.340773  1
  F  F32  1  0.503491  0.508046  0.865010  1
  F  F33  1  0.003491  0.491954  0.634990  1
  F  F34  1  0.496509  0.491954  0.134990  1
  F  F35  1  0.996509  0.508046  0.365010  1
