# generated using pymatgen
data_Tb3Y(Lu4Bi3)4
_symmetry_space_group_name_H-M   'P 1'
_cell_length_a   8.18528900
_cell_length_b   9.40013800
_cell_length_c   11.88247300
_cell_angle_alpha   90.00000000
_cell_angle_beta   89.99972499
_cell_angle_gamma   90.00000000
_symmetry_Int_Tables_number   1
_chemical_formula_structural   Tb3Y(Lu4Bi3)4
_chemical_formula_sum   'Tb3 Y1 Lu16 Bi12'
_cell_volume   914.27129215
_cell_formula_units_Z   1
loop_
 _symmetry_equiv_pos_site_id
 _symmetry_equiv_pos_as_xyz
  1  'x, y, z'
loop_
 _atom_site_type_symbol
 _atom_site_label
 _atom_site_symmetry_multiplicity
 _atom_site_fract_x
 _atom_site_fract_y
 _atom_site_fract_z
 _atom_site_occupancy
  Tb  Tb0  1  0.813176  0.250000  0.282131  1
  Tb  Tb1  1  0.686786  0.750000  0.782051  1
  Tb  Tb2  1  0.186725  0.750000  0.717952  1
  Y  Y3  1  0.313277  0.250000  0.217947  1
  Lu  Lu4  1  0.352651  0.750000  0.218525  1
  Lu  Lu5  1  0.852498  0.750000  0.281542  1
  Lu  Lu6  1  0.647406  0.250000  0.781448  1
  Lu  Lu7  1  0.147425  0.250000  0.718502  1
  Lu  Lu8  1  0.692730  0.567367  0.060276  1
  Lu  Lu9  1  0.192740  0.932740  0.439696  1
  Lu  Lu10  1  0.307251  0.067284  0.939630  1
  Lu  Lu11  1  0.807317  0.432717  0.560262  1
  Lu  Lu12  1  0.307251  0.432716  0.939630  1
  Lu  Lu13  1  0.807317  0.067283  0.560262  1
  Lu  Lu14  1  0.692730  0.932633  0.060276  1
  Lu  Lu15  1  0.192740  0.567260  0.439696  1
  Lu  Lu16  1  0.476824  0.250000  0.489395  1
  Lu  Lu17  1  0.976425  0.250000  0.010803  1
  Lu  Lu18  1  0.523428  0.750000  0.510844  1
  Lu  Lu19  1  0.023383  0.750000  0.989142  1
  Bi  Bi20  1  0.403640  0.750000  0.959939  1
  Bi  Bi21  1  0.903602  0.750000  0.540053  1
  Bi  Bi22  1  0.596058  0.250000  0.040169  1
  Bi  Bi23  1  0.096556  0.250000  0.459867  1
  Bi  Bi24  1  0.565556  0.994013  0.326096  1
  Bi  Bi25  1  0.065895  0.505993  0.173845  1
  Bi  Bi26  1  0.434306  0.493889  0.673890  1
  Bi  Bi27  1  0.934275  0.006155  0.826148  1
  Bi  Bi28  1  0.434306  0.006111  0.673890  1
  Bi  Bi29  1  0.934275  0.493845  0.826148  1
  Bi  Bi30  1  0.565556  0.505987  0.326096  1
  Bi  Bi31  1  0.065895  0.994007  0.173845  1
