# generated using pymatgen
data_DyTm(Tc2Ge)4
_symmetry_space_group_name_H-M   'P 1'
_cell_length_a   7.25253149
_cell_length_b   7.64025748
_cell_length_c   4.20055800
_cell_angle_alpha   90.00000000
_cell_angle_beta   90.00000000
_cell_angle_gamma   89.73452989
_symmetry_Int_Tables_number   1
_chemical_formula_structural   DyTm(Tc2Ge)4
_chemical_formula_sum   'Dy1 Tm1 Tc8 Ge4'
_cell_volume   232.75549430
_cell_formula_units_Z   1
loop_
 _symmetry_equiv_pos_site_id
 _symmetry_equiv_pos_as_xyz
  1  'x, y, z'
loop_
 _atom_site_type_symbol
 _atom_site_label
 _atom_site_symmetry_multiplicity
 _atom_site_fract_x
 _atom_site_fract_y
 _atom_site_fract_z
 _atom_site_occupancy
  Dy  Dy0  1  0.500000  0.500000  0.000000  1
  Tm  Tm1  1  0.000000  0.000000  0.500000  1
  Tc  Tc2  1  0.854135  0.393996  0.500000  1
  Tc  Tc3  1  0.145865  0.606004  0.500000  1
  Tc  Tc4  1  0.647671  0.895103  0.000000  1
  Tc  Tc5  1  0.352329  0.104897  0.000000  1
  Tc  Tc6  1  0.586942  0.152471  0.500000  1
  Tc  Tc7  1  0.413058  0.847529  0.500000  1
  Tc  Tc8  1  0.914794  0.654240  0.000000  1
  Tc  Tc9  1  0.085206  0.345760  0.000000  1
  Ge  Ge10  1  0.283580  0.304082  0.500000  1
  Ge  Ge11  1  0.716420  0.695918  0.500000  1
  Ge  Ge12  1  0.214925  0.806189  0.000000  1
  Ge  Ge13  1  0.785075  0.193811  0.000000  1
