# generated using pymatgen
data_Sr4HoTm(MoO6)2
_symmetry_space_group_name_H-M   'P 1'
_cell_length_a   5.82869465
_cell_length_b   8.29992291
_cell_length_c   5.87696954
_cell_angle_alpha   89.91469950
_cell_angle_beta   90.08266930
_cell_angle_gamma   90.66170964
_symmetry_Int_Tables_number   1
_chemical_formula_structural   Sr4HoTm(MoO6)2
_chemical_formula_sum   'Sr4 Ho1 Tm1 Mo2 O12'
_cell_volume   284.29480016
_cell_formula_units_Z   1
loop_
 _symmetry_equiv_pos_site_id
 _symmetry_equiv_pos_as_xyz
  1  'x, y, z'
loop_
 _atom_site_type_symbol
 _atom_site_label
 _atom_site_symmetry_multiplicity
 _atom_site_fract_x
 _atom_site_fract_y
 _atom_site_fract_z
 _atom_site_occupancy
  Sr  Sr0  1  0.493637  0.249925  0.534467  1
  Sr  Sr1  1  0.006077  0.246485  0.033863  1
  Sr  Sr2  1  0.993919  0.753514  0.966131  1
  Sr  Sr3  1  0.506359  0.750073  0.465539  1
  Ho  Ho4  1  0.000000  0.499998  0.500001  1
  Tm  Tm5  1  0.500000  0.000001  0.000002  1
  Mo  Mo6  1  0.999997  0.000000  0.499998  1
  Mo  Mo7  1  0.500004  0.499998  0.000001  1
  O  O8  1  0.769769  0.535908  0.194850  1
  O  O9  1  0.230233  0.464092  0.805146  1
  O  O10  1  0.269859  0.034821  0.300979  1
  O  O11  1  0.730142  0.965181  0.699026  1
  O  O12  1  0.576469  0.261212  0.982747  1
  O  O13  1  0.922872  0.236307  0.483367  1
  O  O14  1  0.077127  0.763693  0.516633  1
  O  O15  1  0.423530  0.738791  0.017252  1
  O  O16  1  0.299861  0.456617  0.277890  1
  O  O17  1  0.796877  0.957388  0.223098  1
  O  O18  1  0.203124  0.042615  0.776903  1
  O  O19  1  0.700140  0.543384  0.722106  1
