# generated using pymatgen
data_Yb6Ge4Pd3Pt
_symmetry_space_group_name_H-M   'P 1'
_cell_length_a   5.57993462
_cell_length_b   8.11351793
_cell_length_c   13.34604800
_cell_angle_alpha   89.88259728
_cell_angle_beta   89.86730937
_cell_angle_gamma   90.16689979
_symmetry_Int_Tables_number   1
_chemical_formula_structural   Yb6Ge4Pd3Pt
_chemical_formula_sum   'Yb12 Ge8 Pd6 Pt2'
_cell_volume   604.20883073
_cell_formula_units_Z   2
loop_
 _symmetry_equiv_pos_site_id
 _symmetry_equiv_pos_as_xyz
  1  'x, y, z'
loop_
 _atom_site_type_symbol
 _atom_site_label
 _atom_site_symmetry_multiplicity
 _atom_site_fract_x
 _atom_site_fract_y
 _atom_site_fract_z
 _atom_site_occupancy
  Yb  Yb0  1  0.647200  0.253082  0.249661  1
  Yb  Yb1  1  0.352800  0.746918  0.750339  1
  Yb  Yb2  1  0.352450  0.754784  0.249585  1
  Yb  Yb3  1  0.647550  0.245216  0.750415  1
  Yb  Yb4  1  0.145013  0.390810  0.101809  1
  Yb  Yb5  1  0.854987  0.609190  0.898191  1
  Yb  Yb6  1  0.855969  0.607828  0.601611  1
  Yb  Yb7  1  0.855822  0.891845  0.398335  1
  Yb  Yb8  1  0.144031  0.392172  0.398389  1
  Yb  Yb9  1  0.144178  0.108155  0.601665  1
  Yb  Yb10  1  0.143167  0.107213  0.898602  1
  Yb  Yb11  1  0.856833  0.892787  0.101398  1
  Ge  Ge12  1  0.144050  0.104048  0.249969  1
  Ge  Ge13  1  0.855950  0.895952  0.750031  1
  Ge  Ge14  1  0.855625  0.603677  0.249778  1
  Ge  Ge15  1  0.144375  0.396323  0.750222  1
  Ge  Ge16  1  0.652510  0.248451  0.000045  1
  Ge  Ge17  1  0.347490  0.751549  0.999955  1
  Ge  Ge18  1  0.346019  0.750109  0.499752  1
  Ge  Ge19  1  0.653981  0.249891  0.500248  1
  Pd  Pd20  1  0.620852  0.961741  0.590912  1
  Pd  Pd21  1  0.621674  0.538378  0.409333  1
  Pd  Pd22  1  0.379148  0.038259  0.409088  1
  Pd  Pd23  1  0.378326  0.461622  0.590667  1
  Pd  Pd24  1  0.377113  0.460672  0.909071  1
  Pd  Pd25  1  0.622887  0.539328  0.090929  1
  Pt  Pt26  1  0.378197  0.039772  0.092077  1
  Pt  Pt27  1  0.621803  0.960228  0.907923  1
