# generated using pymatgen
data_Cs4Hf6FeI18
_symmetry_space_group_name_H-M   'P 1'
_cell_length_a   11.58677766
_cell_length_b   11.89133755
_cell_length_c   12.02298372
_cell_angle_alpha   118.36952693
_cell_angle_beta   100.30306954
_cell_angle_gamma   104.18128127
_symmetry_Int_Tables_number   1
_chemical_formula_structural   Cs4Hf6FeI18
_chemical_formula_sum   'Cs4 Hf6 Fe1 I18'
_cell_volume   1325.83996598
_cell_formula_units_Z   1
loop_
 _symmetry_equiv_pos_site_id
 _symmetry_equiv_pos_as_xyz
  1  'x, y, z'
loop_
 _atom_site_type_symbol
 _atom_site_label
 _atom_site_symmetry_multiplicity
 _atom_site_fract_x
 _atom_site_fract_y
 _atom_site_fract_z
 _atom_site_occupancy
  Cs  Cs0  1  0.657083  0.537102  0.229311  1
  Cs  Cs1  1  0.342917  0.462898  0.770689  1
  Cs  Cs2  1  0.692183  0.226910  0.564356  1
  Cs  Cs3  1  0.307817  0.773090  0.435644  1
  Hf  Hf4  1  0.140498  0.052277  0.212814  1
  Hf  Hf5  1  0.859502  0.947723  0.787186  1
  Hf  Hf6  1  0.870303  0.114976  0.121033  1
  Hf  Hf7  1  0.129697  0.885024  0.878967  1
  Hf  Hf8  1  0.136396  0.221617  0.042629  1
  Hf  Hf9  1  0.863604  0.778383  0.957371  1
  Fe  Fe10  1  0.000000  0.000000  0.000000  1
  I  I11  1  0.007142  0.393593  0.188638  1
  I  I12  1  0.992858  0.606407  0.811362  1
  I  I13  1  0.322531  0.323513  0.301601  1
  I  I14  1  0.677469  0.676487  0.698399  1
  I  I15  1  0.307379  0.502545  0.095607  1
  I  I16  1  0.692621  0.497455  0.904393  1
  I  I17  1  0.003346  0.802902  0.201097  1
  I  I18  1  0.996654  0.197098  0.798903  1
  I  I19  1  0.710728  0.257829  0.270666  1
  I  I20  1  0.289272  0.742171  0.729334  1
  I  I21  1  0.309929  0.125751  0.908561  1
  I  I22  1  0.690071  0.874249  0.091439  1
  I  I23  1  0.014343  0.196576  0.391933  1
  I  I24  1  0.985657  0.803424  0.608067  1
  I  I25  1  0.313667  0.927967  0.108315  1
  I  I26  1  0.686333  0.072033  0.891685  1
  I  I27  1  0.319758  0.117446  0.481976  1
  I  I28  1  0.680242  0.882554  0.518024  1
