# generated using pymatgen
data_Tb3Y(Pd2Pb)2
_symmetry_space_group_name_H-M   'P 1'
_cell_length_a   7.96663488
_cell_length_b   7.96663488
_cell_length_c   3.62599000
_cell_angle_alpha   90.00000000
_cell_angle_beta   90.00000000
_cell_angle_gamma   89.94603147
_symmetry_Int_Tables_number   1
_chemical_formula_structural   Tb3Y(Pd2Pb)2
_chemical_formula_sum   'Tb3 Y1 Pd4 Pb2'
_cell_volume   230.13158922
_cell_formula_units_Z   1
loop_
 _symmetry_equiv_pos_site_id
 _symmetry_equiv_pos_as_xyz
  1  'x, y, z'
loop_
 _atom_site_type_symbol
 _atom_site_label
 _atom_site_symmetry_multiplicity
 _atom_site_fract_x
 _atom_site_fract_y
 _atom_site_fract_z
 _atom_site_occupancy
  Tb  Tb0  1  0.671018  0.171018  0.500000  1
  Tb  Tb1  1  0.171156  0.328874  0.500000  1
  Tb  Tb2  1  0.828874  0.671156  0.500000  1
  Y  Y3  1  0.328780  0.828780  0.500000  1
  Pd  Pd4  1  0.874942  0.374942  0.000000  1
  Pd  Pd5  1  0.375101  0.125270  0.000000  1
  Pd  Pd6  1  0.625270  0.875101  0.000000  1
  Pd  Pd7  1  0.124858  0.624858  0.000000  1
  Pb  Pb8  1  0.000111  0.999889  0.000000  1
  Pb  Pb9  1  0.499889  0.500111  0.000000  1
