# generated using pymatgen
data_Y2(ThOs)3
_symmetry_space_group_name_H-M   'P 1'
_cell_length_a   8.37495100
_cell_length_b   8.37495112
_cell_length_c   6.41366900
_cell_angle_alpha   90.00000000
_cell_angle_beta   90.00000000
_cell_angle_gamma   119.99920533
_symmetry_Int_Tables_number   1
_chemical_formula_structural   Y2(ThOs)3
_chemical_formula_sum   'Y4 Th6 Os6'
_cell_volume   389.58767380
_cell_formula_units_Z   2
loop_
 _symmetry_equiv_pos_site_id
 _symmetry_equiv_pos_as_xyz
  1  'x, y, z'
loop_
 _atom_site_type_symbol
 _atom_site_label
 _atom_site_symmetry_multiplicity
 _atom_site_fract_x
 _atom_site_fract_y
 _atom_site_fract_z
 _atom_site_occupancy
  Y  Y0  1  0.666668  0.333334  0.000000  1
  Y  Y1  1  0.333334  0.666667  0.000000  1
  Y  Y2  1  0.666667  0.333332  0.500000  1
  Y  Y3  1  0.333332  0.666667  0.500000  1
  Th  Th4  1  0.745531  0.745531  0.250001  1
  Th  Th5  1  0.254496  0.999936  0.250000  1
  Th  Th6  1  0.999936  0.254496  0.250000  1
  Th  Th7  1  0.254467  0.254468  0.750001  1
  Th  Th8  1  0.745504  0.000063  0.750000  1
  Th  Th9  1  0.000065  0.745505  0.750000  1
  Os  Os10  1  0.619984  0.000010  0.249998  1
  Os  Os11  1  0.000011  0.619984  0.249998  1
  Os  Os12  1  0.379973  0.379972  0.250003  1
  Os  Os13  1  0.380016  0.999989  0.749998  1
  Os  Os14  1  0.999988  0.380016  0.749998  1
  Os  Os15  1  0.620027  0.620027  0.750003  1
