# generated using pymatgen
data_Al2Pt3Rh
_symmetry_space_group_name_H-M   'P 1'
_cell_length_a   4.11178100
_cell_length_b   5.45704869
_cell_length_c   7.86924354
_cell_angle_alpha   90.84560383
_cell_angle_beta   90.00000000
_cell_angle_gamma   90.00000000
_symmetry_Int_Tables_number   1
_chemical_formula_structural   Al2Pt3Rh
_chemical_formula_sum   'Al4 Pt6 Rh2'
_cell_volume   176.55234509
_cell_formula_units_Z   2
loop_
 _symmetry_equiv_pos_site_id
 _symmetry_equiv_pos_as_xyz
  1  'x, y, z'
loop_
 _atom_site_type_symbol
 _atom_site_label
 _atom_site_symmetry_multiplicity
 _atom_site_fract_x
 _atom_site_fract_y
 _atom_site_fract_z
 _atom_site_occupancy
  Al  Al0  1  0.750000  0.805526  0.894646  1
  Al  Al1  1  0.250000  0.194474  0.105354  1
  Al  Al2  1  0.750000  0.317453  0.600082  1
  Al  Al3  1  0.250000  0.682547  0.399918  1
  Pt  Pt4  1  0.750000  0.959904  0.212509  1
  Pt  Pt5  1  0.250000  0.040096  0.787491  1
  Pt  Pt6  1  0.750000  0.337294  0.931935  1
  Pt  Pt7  1  0.250000  0.662706  0.068065  1
  Pt  Pt8  1  0.750000  0.833246  0.567757  1
  Pt  Pt9  1  0.250000  0.166754  0.432243  1
  Rh  Rh10  1  0.750000  0.462653  0.285181  1
  Rh  Rh11  1  0.250000  0.537347  0.714819  1
