# generated using pymatgen
data_Er20IrRu4Au7
_symmetry_space_group_name_H-M   'P 1'
_cell_length_a   11.12539604
_cell_length_b   11.12539604
_cell_length_c   6.35552824
_cell_angle_alpha   89.79928582
_cell_angle_beta   89.79928582
_cell_angle_gamma   90.50581749
_symmetry_Int_Tables_number   1
_chemical_formula_structural   Er20IrRu4Au7
_chemical_formula_sum   'Er20 Ir1 Ru4 Au7'
_cell_volume   786.61153621
_cell_formula_units_Z   1
loop_
 _symmetry_equiv_pos_site_id
 _symmetry_equiv_pos_as_xyz
  1  'x, y, z'
loop_
 _atom_site_type_symbol
 _atom_site_label
 _atom_site_symmetry_multiplicity
 _atom_site_fract_x
 _atom_site_fract_y
 _atom_site_fract_z
 _atom_site_occupancy
  Er  Er0  1  0.301864  0.080277  0.362522  1
  Er  Er1  1  0.300720  0.906945  0.863693  1
  Er  Er2  1  0.697807  0.082107  0.861762  1
  Er  Er3  1  0.697027  0.915597  0.360861  1
  Er  Er4  1  0.575887  0.795468  0.860516  1
  Er  Er5  1  0.583035  0.200172  0.363732  1
  Er  Er6  1  0.411558  0.794130  0.374117  1
  Er  Er7  1  0.415755  0.196369  0.864159  1
  Er  Er8  1  0.204532  0.424113  0.639484  1
  Er  Er9  1  0.205870  0.588442  0.125883  1
  Er  Er10  1  0.799828  0.416965  0.136268  1
  Er  Er11  1  0.803631  0.584245  0.635841  1
  Er  Er12  1  0.919723  0.698136  0.137478  1
  Er  Er13  1  0.917893  0.302193  0.638238  1
  Er  Er14  1  0.093055  0.699280  0.636307  1
  Er  Er15  1  0.084403  0.302973  0.139139  1
  Er  Er16  1  0.999118  0.000072  0.500490  1
  Er  Er17  1  0.999928  0.000882  0.999510  1
  Er  Er18  1  0.493492  0.503931  0.998248  1
  Er  Er19  1  0.496069  0.506508  0.501752  1
  Ir  Ir20  1  0.347479  0.652521  0.750000  1
  Ru  Ru21  1  0.499699  0.999254  0.118486  1
  Ru  Ru22  1  0.499422  0.999873  0.616496  1
  Ru  Ru23  1  0.000127  0.500578  0.883504  1
  Ru  Ru24  1  0.000746  0.500301  0.381514  1
  Au  Au25  1  0.844965  0.155035  0.250000  1
  Au  Au26  1  0.843711  0.844638  0.751169  1
  Au  Au27  1  0.155362  0.156289  0.748831  1
  Au  Au28  1  0.154193  0.845807  0.250000  1
  Au  Au29  1  0.653196  0.346804  0.750000  1
  Au  Au30  1  0.655765  0.655863  0.248254  1
  Au  Au31  1  0.344137  0.344235  0.251746  1
