# generated using pymatgen
data_Tm2Lu(Sn2Ir)2
_symmetry_space_group_name_H-M   'P 1'
_cell_length_a   7.46659178
_cell_length_b   7.48028940
_cell_length_c   4.17701700
_cell_angle_alpha   90.00000000
_cell_angle_beta   90.00000000
_cell_angle_gamma   119.99165258
_symmetry_Int_Tables_number   1
_chemical_formula_structural   Tm2Lu(Sn2Ir)2
_chemical_formula_sum   'Tm2 Lu1 Sn4 Ir2'
_cell_volume   202.05714238
_cell_formula_units_Z   1
loop_
 _symmetry_equiv_pos_site_id
 _symmetry_equiv_pos_as_xyz
  1  'x, y, z'
loop_
 _atom_site_type_symbol
 _atom_site_label
 _atom_site_symmetry_multiplicity
 _atom_site_fract_x
 _atom_site_fract_y
 _atom_site_fract_z
 _atom_site_occupancy
  Tm  Tm0  1  0.609117  0.583616  0.500000  1
  Tm  Tm1  1  0.416521  0.025348  0.500000  1
  Lu  Lu2  1  0.973005  0.389689  0.500000  1
  Sn  Sn3  1  0.981777  0.742445  0.000000  1
  Sn  Sn4  1  0.257612  0.239198  0.000000  1
  Sn  Sn5  1  0.761176  0.018897  0.000000  1
  Sn  Sn6  1  0.332684  0.666190  0.000000  1
  Ir  Ir7  1  0.668020  0.333691  0.000000  1
  Ir  Ir8  1  0.000087  0.000926  0.500000  1
