# generated using pymatgen
data_Nb2Re23TcMo3
_symmetry_space_group_name_H-M   'P 1'
_cell_length_a   8.38627534
_cell_length_b   8.38627665
_cell_length_c   8.38457415
_cell_angle_alpha   109.49206158
_cell_angle_beta   109.49206484
_cell_angle_gamma   109.53673552
_symmetry_Int_Tables_number   1
_chemical_formula_structural   Nb2Re23TcMo3
_chemical_formula_sum   'Nb2 Re23 Tc1 Mo3'
_cell_volume   453.33730005
_cell_formula_units_Z   1
loop_
 _symmetry_equiv_pos_site_id
 _symmetry_equiv_pos_as_xyz
  1  'x, y, z'
loop_
 _atom_site_type_symbol
 _atom_site_label
 _atom_site_symmetry_multiplicity
 _atom_site_fract_x
 _atom_site_fract_y
 _atom_site_fract_z
 _atom_site_occupancy
  Nb  Nb0  1  0.999774  0.999774  0.003615  1
  Nb  Nb1  1  0.000045  0.000045  0.637590  1
  Re  Re2  1  0.401941  0.685842  0.000580  1
  Re  Re3  1  0.685842  0.401941  0.000580  1
  Re  Re4  1  0.598526  0.282473  0.598417  1
  Re  Re5  1  0.401727  0.001384  0.685682  1
  Re  Re6  1  0.001384  0.401727  0.685682  1
  Re  Re7  1  0.282473  0.598526  0.598417  1
  Re  Re8  1  0.717951  0.314877  0.314969  1
  Re  Re9  1  0.314877  0.717951  0.314969  1
  Re  Re10  1  0.683264  0.000676  0.399438  1
  Re  Re11  1  0.000676  0.683264  0.399438  1
  Re  Re12  1  0.598444  0.598444  0.282369  1
  Re  Re13  1  0.804384  0.804384  0.180741  1
  Re  Re14  1  0.378520  0.194919  0.002095  1
  Re  Re15  1  0.194919  0.378520  0.002095  1
  Re  Re16  1  0.620988  0.815469  0.622373  1
  Re  Re17  1  0.377549  0.000622  0.195080  1
  Re  Re18  1  0.000622  0.377549  0.195080  1
  Re  Re19  1  0.815469  0.620988  0.622373  1
  Re  Re20  1  0.182931  0.805295  0.806569  1
  Re  Re21  1  0.805295  0.182931  0.806569  1
  Re  Re22  1  0.195004  0.000665  0.377163  1
  Re  Re23  1  0.000665  0.195004  0.377163  1
  Re  Re24  1  0.620860  0.620860  0.815648  1
  Tc  Tc25  1  0.316971  0.316971  0.716851  1
  Mo  Mo26  1  0.639235  0.999168  0.998694  1
  Mo  Mo27  1  0.999168  0.639235  0.998694  1
  Mo  Mo28  1  0.360497  0.360497  0.361070  1
