# generated using pymatgen
data_KU(CuSb)2
_symmetry_space_group_name_H-M   'P 1'
_cell_length_a   4.40747300
_cell_length_b   4.40747274
_cell_length_c   9.18170800
_cell_angle_alpha   90.00000000
_cell_angle_beta   90.00000000
_cell_angle_gamma   120.00000943
_symmetry_Int_Tables_number   1
_chemical_formula_structural   KU(CuSb)2
_chemical_formula_sum   'K1 U1 Cu2 Sb2'
_cell_volume   154.46616465
_cell_formula_units_Z   1
loop_
 _symmetry_equiv_pos_site_id
 _symmetry_equiv_pos_as_xyz
  1  'x, y, z'
loop_
 _atom_site_type_symbol
 _atom_site_label
 _atom_site_symmetry_multiplicity
 _atom_site_fract_x
 _atom_site_fract_y
 _atom_site_fract_z
 _atom_site_occupancy
  K  K0  1  0.000000  0.000000  0.000000  1
  U  U1  1  0.000000  0.000000  0.500000  1
  Cu  Cu2  1  0.666667  0.333333  0.319319  1
  Cu  Cu3  1  0.333333  0.666667  0.680681  1
  Sb  Sb4  1  0.333333  0.666667  0.281032  1
  Sb  Sb5  1  0.666667  0.333333  0.718968  1
