# generated using pymatgen
data_Th6Ni20P13
_symmetry_space_group_name_H-M   'P 1'
_cell_length_a   12.81109000
_cell_length_b   12.81109053
_cell_length_c   3.87849900
_cell_angle_alpha   90.00000000
_cell_angle_beta   90.00000000
_cell_angle_gamma   119.99999864
_symmetry_Int_Tables_number   1
_chemical_formula_structural   Th6Ni20P13
_chemical_formula_sum   'Th6 Ni20 P13'
_cell_volume   551.27272256
_cell_formula_units_Z   1
loop_
 _symmetry_equiv_pos_site_id
 _symmetry_equiv_pos_as_xyz
  1  'x, y, z'
loop_
 _atom_site_type_symbol
 _atom_site_label
 _atom_site_symmetry_multiplicity
 _atom_site_fract_x
 _atom_site_fract_y
 _atom_site_fract_z
 _atom_site_occupancy
  Th  Th0  1  0.184592  0.467162  0.000000  1
  Th  Th1  1  0.532838  0.717429  0.000000  1
  Th  Th2  1  0.282571  0.815408  0.000000  1
  Th  Th3  1  0.719737  0.185073  0.500000  1
  Th  Th4  1  0.814927  0.534664  0.500000  1
  Th  Th5  1  0.465336  0.280263  0.500000  1
  Ni  Ni6  1  0.084799  0.193025  0.000000  1
  Ni  Ni7  1  0.806975  0.891775  0.000000  1
  Ni  Ni8  1  0.108225  0.915201  0.000000  1
  Ni  Ni9  1  0.333333  0.666667  0.500000  1
  Ni  Ni10  1  0.920737  0.066104  0.500000  1
  Ni  Ni11  1  0.933896  0.854634  0.500000  1
  Ni  Ni12  1  0.145366  0.079263  0.500000  1
  Ni  Ni13  1  0.666667  0.333333  0.000000  1
  Ni  Ni14  1  0.412010  0.435552  0.000000  1
  Ni  Ni15  1  0.564448  0.976459  0.000000  1
  Ni  Ni16  1  0.023541  0.587990  0.000000  1
  Ni  Ni17  1  0.241189  0.313439  0.500000  1
  Ni  Ni18  1  0.686561  0.927750  0.500000  1
  Ni  Ni19  1  0.072250  0.758811  0.500000  1
  Ni  Ni20  1  0.433377  0.023852  0.500000  1
  Ni  Ni21  1  0.976148  0.409526  0.500000  1
  Ni  Ni22  1  0.590474  0.566623  0.500000  1
  Ni  Ni23  1  0.919593  0.240053  0.000000  1
  Ni  Ni24  1  0.759947  0.679540  0.000000  1
  Ni  Ni25  1  0.320460  0.080407  0.000000  1
  P  P26  1  0.386351  0.517880  0.500000  1
  P  P27  1  0.482120  0.868470  0.500000  1
  P  P28  1  0.131530  0.613649  0.500000  1
  P  P29  1  0.037907  0.268748  0.500000  1
  P  P30  1  0.731252  0.769160  0.500000  1
  P  P31  1  0.230840  0.962093  0.500000  1
  P  P32  1  0.519853  0.131601  0.000000  1
  P  P33  1  0.868399  0.388252  0.000000  1
  P  P34  1  0.611748  0.480147  0.000000  1
  P  P35  1  0.767574  0.040729  0.000000  1
  P  P36  1  0.959271  0.726846  0.000000  1
  P  P37  1  0.273154  0.232426  0.000000  1
  P  P38  1  0.000000  0.000000  0.000000  1
