# generated using pymatgen
data_Zr6Zn17SiNi5Ag
_symmetry_space_group_name_H-M   'P 1'
_cell_length_a   8.67936212
_cell_length_b   8.62347175
_cell_length_c   8.67936264
_cell_angle_alpha   60.21278448
_cell_angle_beta   59.83514352
_cell_angle_gamma   60.21278282
_symmetry_Int_Tables_number   1
_chemical_formula_structural   Zr6Zn17SiNi5Ag
_chemical_formula_sum   'Zr6 Zn17 Si1 Ni5 Ag1'
_cell_volume   460.24032296
_cell_formula_units_Z   1
loop_
 _symmetry_equiv_pos_site_id
 _symmetry_equiv_pos_as_xyz
  1  'x, y, z'
loop_
 _atom_site_type_symbol
 _atom_site_label
 _atom_site_symmetry_multiplicity
 _atom_site_fract_x
 _atom_site_fract_y
 _atom_site_fract_z
 _atom_site_occupancy
  Zr  Zr0  1  0.716653  0.285536  0.283347  1
  Zr  Zr1  1  0.283347  0.714464  0.716653  1
  Zr  Zr2  1  0.287127  0.712873  0.287127  1
  Zr  Zr3  1  0.712873  0.287127  0.712873  1
  Zr  Zr4  1  0.283347  0.285536  0.716653  1
  Zr  Zr5  1  0.716653  0.714464  0.283347  1
  Zn  Zn6  1  0.127503  0.126972  0.127503  1
  Zn  Zn7  1  0.872497  0.873028  0.872497  1
  Zn  Zn8  1  0.117773  0.131906  0.618417  1
  Zn  Zn9  1  0.127503  0.618023  0.127503  1
  Zn  Zn10  1  0.882227  0.868094  0.381583  1
  Zn  Zn11  1  0.872497  0.381977  0.872497  1
  Zn  Zn12  1  0.618417  0.131906  0.117773  1
  Zn  Zn13  1  0.381583  0.868094  0.882227  1
  Zn  Zn14  1  0.500000  0.000000  0.500000  1
  Zn  Zn15  1  0.335566  0.344404  0.335566  1
  Zn  Zn16  1  0.664434  0.655596  0.664434  1
  Zn  Zn17  1  0.337097  0.338941  0.985020  1
  Zn  Zn18  1  0.335566  0.984462  0.335566  1
  Zn  Zn19  1  0.662903  0.661059  0.014980  1
  Zn  Zn20  1  0.664434  0.015538  0.664434  1
  Zn  Zn21  1  0.985020  0.338941  0.337097  1
  Zn  Zn22  1  0.014980  0.661059  0.662903  1
  Si  Si23  1  0.500000  0.500000  0.500000  1
  Ni  Ni24  1  0.500000  0.000000  0.000000  1
  Ni  Ni25  1  0.000000  0.500000  0.500000  1
  Ni  Ni26  1  0.000000  0.500000  0.000000  1
  Ni  Ni27  1  0.000000  0.000000  0.500000  1
  Ni  Ni28  1  0.500000  0.500000  0.000000  1
  Ag  Ag29  1  0.000000  0.000000  0.000000  1
