# generated using pymatgen
data_LaPrTh2(Ga3Ir)6
_symmetry_space_group_name_H-M   'P 1'
_cell_length_a   7.70272590
_cell_length_b   7.70559181
_cell_length_c   9.57071800
_cell_angle_alpha   90.00000000
_cell_angle_beta   90.00000000
_cell_angle_gamma   119.59946062
_symmetry_Int_Tables_number   1
_chemical_formula_structural   LaPrTh2(Ga3Ir)6
_chemical_formula_sum   'La1 Pr1 Th2 Ga18 Ir6'
_cell_volume   493.92878851
_cell_formula_units_Z   1
loop_
 _symmetry_equiv_pos_site_id
 _symmetry_equiv_pos_as_xyz
  1  'x, y, z'
loop_
 _atom_site_type_symbol
 _atom_site_label
 _atom_site_symmetry_multiplicity
 _atom_site_fract_x
 _atom_site_fract_y
 _atom_site_fract_z
 _atom_site_occupancy
  La  La0  1  0.002990  0.330161  0.750000  1
  Pr  Pr1  1  0.329739  0.003702  0.750000  1
  Th  Th2  1  0.996354  0.670481  0.250000  1
  Th  Th3  1  0.671008  0.997059  0.250000  1
  Ga  Ga4  1  0.134983  0.134323  0.250000  1
  Ga  Ga5  1  0.869196  0.869072  0.750000  1
  Ga  Ga6  1  0.004604  0.335618  0.078625  1
  Ga  Ga7  1  0.999158  0.666222  0.919803  1
  Ga  Ga8  1  0.999158  0.666222  0.580197  1
  Ga  Ga9  1  0.335519  0.003772  0.422487  1
  Ga  Ga10  1  0.004604  0.335618  0.421375  1
  Ga  Ga11  1  0.663688  0.997920  0.580205  1
  Ga  Ga12  1  0.663688  0.997920  0.919795  1
  Ga  Ga13  1  0.335519  0.003772  0.077513  1
  Ga  Ga14  1  0.333681  0.332709  0.559888  1
  Ga  Ga15  1  0.663342  0.663326  0.442059  1
  Ga  Ga16  1  0.663342  0.663326  0.057941  1
  Ga  Ga17  1  0.333681  0.332709  0.940112  1
  Ga  Ga18  1  0.341666  0.543462  0.250000  1
  Ga  Ga19  1  0.658122  0.453211  0.750000  1
  Ga  Ga20  1  0.543136  0.340857  0.250000  1
  Ga  Ga21  1  0.454197  0.659947  0.750000  1
  Ir  Ir22  1  0.673251  0.329825  0.003638  1
  Ir  Ir23  1  0.329551  0.672748  0.003536  1
  Ir  Ir24  1  0.329551  0.672748  0.496464  1
  Ir  Ir25  1  0.673251  0.329825  0.496362  1
  Ir  Ir26  1  0.996511  0.996723  0.004509  1
  Ir  Ir27  1  0.996511  0.996723  0.495491  1
