# generated using pymatgen
data_Pr16Cd4OsPd3
_symmetry_space_group_name_H-M   'P 1'
_cell_length_a   10.12256642
_cell_length_b   10.12256704
_cell_length_c   10.12292351
_cell_angle_alpha   59.59429836
_cell_angle_beta   59.59429618
_cell_angle_gamma   59.59101518
_symmetry_Int_Tables_number   1
_chemical_formula_structural   Pr16Cd4OsPd3
_chemical_formula_sum   'Pr16 Cd4 Os1 Pd3'
_cell_volume   726.67113943
_cell_formula_units_Z   1
loop_
 _symmetry_equiv_pos_site_id
 _symmetry_equiv_pos_as_xyz
  1  'x, y, z'
loop_
 _atom_site_type_symbol
 _atom_site_label
 _atom_site_symmetry_multiplicity
 _atom_site_fract_x
 _atom_site_fract_y
 _atom_site_fract_z
 _atom_site_occupancy
  Pr  Pr0  1  0.353242  0.353242  0.353239  1
  Pr  Pr1  1  0.347044  0.347044  0.953341  1
  Pr  Pr2  1  0.347056  0.953349  0.347034  1
  Pr  Pr3  1  0.953349  0.347056  0.347034  1
  Pr  Pr4  1  0.815584  0.189520  0.189586  1
  Pr  Pr5  1  0.191877  0.806677  0.806691  1
  Pr  Pr6  1  0.189520  0.815584  0.189586  1
  Pr  Pr7  1  0.806677  0.191877  0.806691  1
  Pr  Pr8  1  0.189553  0.189553  0.815603  1
  Pr  Pr9  1  0.806690  0.806690  0.191919  1
  Pr  Pr10  1  0.933572  0.564262  0.564240  1
  Pr  Pr11  1  0.556785  0.937528  0.937551  1
  Pr  Pr12  1  0.564262  0.933572  0.564240  1
  Pr  Pr13  1  0.937528  0.556785  0.937551  1
  Pr  Pr14  1  0.564303  0.564303  0.933519  1
  Pr  Pr15  1  0.937520  0.937520  0.556792  1
  Cd  Cd16  1  0.578894  0.578894  0.578897  1
  Cd  Cd17  1  0.579935  0.579935  0.261727  1
  Cd  Cd18  1  0.579941  0.261716  0.579943  1
  Cd  Cd19  1  0.261716  0.579941  0.579943  1
  Os  Os20  1  0.142920  0.142920  0.142877  1
  Pd  Pd21  1  0.145097  0.145097  0.571823  1
  Pd  Pd22  1  0.145102  0.571832  0.145087  1
  Pd  Pd23  1  0.571832  0.145102  0.145087  1
