# generated using pymatgen
data_Ti6Re5Si6Os
_symmetry_space_group_name_H-M   'P 1'
_cell_length_a   7.54861798
_cell_length_b   7.55237192
_cell_length_c   7.54908462
_cell_angle_alpha   126.32964557
_cell_angle_beta   129.04267502
_cell_angle_gamma   77.14548090
_symmetry_Int_Tables_number   1
_chemical_formula_structural   Ti6Re5Si6Os
_chemical_formula_sum   'Ti6 Re5 Si6 Os1'
_cell_volume   261.36141319
_cell_formula_units_Z   1
loop_
 _symmetry_equiv_pos_site_id
 _symmetry_equiv_pos_as_xyz
  1  'x, y, z'
loop_
 _atom_site_type_symbol
 _atom_site_label
 _atom_site_symmetry_multiplicity
 _atom_site_fract_x
 _atom_site_fract_y
 _atom_site_fract_z
 _atom_site_occupancy
  Ti  Ti0  1  0.452299  0.409056  0.458720  1
  Ti  Ti1  1  0.551868  0.003124  0.953989  1
  Ti  Ti2  1  0.048262  0.003339  0.452267  1
  Ti  Ti3  1  0.951164  0.410459  0.957573  1
  Ti  Ti4  1  0.249031  0.595724  0.849003  1
  Ti  Ti5  1  0.747777  0.596809  0.346695  1
  Re  Re6  1  0.000435  0.264961  0.264445  1
  Re  Re7  1  0.499433  0.264478  0.765163  1
  Re  Re8  1  0.369093  0.741519  0.372817  1
  Re  Re9  1  0.630912  0.003357  0.371599  1
  Re  Re10  1  0.869335  0.742336  0.872378  1
  Si  Si11  1  0.250694  0.003011  0.252699  1
  Si  Si12  1  0.750953  0.003438  0.752108  1
  Si  Si13  1  0.167202  0.672121  0.506459  1
  Si  Si14  1  0.832202  0.336176  0.502208  1
  Si  Si15  1  0.665736  0.670562  0.003251  1
  Si  Si16  1  0.332556  0.334295  0.003578  1
  Os  Os17  1  0.131048  0.003236  0.873049  1
