# generated using pymatgen
data_Ce2Be8Co4P7
_symmetry_space_group_name_H-M   'P 1'
_cell_length_a   9.64693678
_cell_length_b   8.93444882
_cell_length_c   3.62264800
_cell_angle_alpha   90.00000000
_cell_angle_beta   90.00000000
_cell_angle_gamma   123.92355366
_symmetry_Int_Tables_number   1
_chemical_formula_structural   Ce2Be8Co4P7
_chemical_formula_sum   'Ce2 Be8 Co4 P7'
_cell_volume   259.08831858
_cell_formula_units_Z   1
loop_
 _symmetry_equiv_pos_site_id
 _symmetry_equiv_pos_as_xyz
  1  'x, y, z'
loop_
 _atom_site_type_symbol
 _atom_site_label
 _atom_site_symmetry_multiplicity
 _atom_site_fract_x
 _atom_site_fract_y
 _atom_site_fract_z
 _atom_site_occupancy
  Ce  Ce0  1  0.318308  0.648802  0.000000  1
  Ce  Ce1  1  0.026150  0.003854  0.500000  1
  Be  Be2  1  0.731337  0.935326  0.000000  1
  Be  Be3  1  0.278047  0.280239  0.000000  1
  Be  Be4  1  0.030625  0.735464  0.000000  1
  Be  Be5  1  0.891872  0.413999  0.000000  1
  Be  Be6  1  0.538112  0.063119  0.000000  1
  Be  Be7  1  0.545558  0.512865  0.000000  1
  Be  Be8  1  0.961347  0.321950  0.500000  1
  Be  Be9  1  0.345646  0.927514  0.500000  1
  Co  Co10  1  0.641500  0.730630  0.500000  1
  Co  Co11  1  0.689390  0.247503  0.500000  1
  Co  Co12  1  0.383279  0.198480  0.500000  1
  Co  Co13  1  0.847798  0.612892  0.500000  1
  P  P14  1  0.004043  0.232177  0.000000  1
  P  P15  1  0.271211  0.014717  0.000000  1
  P  P16  1  0.800081  0.742961  0.000000  1
  P  P17  1  0.079264  0.625487  0.500000  1
  P  P18  1  0.587645  0.945433  0.500000  1
  P  P19  1  0.389247  0.456112  0.500000  1
  P  P20  1  0.639540  0.350476  0.000000  1
