# generated using pymatgen
data_Pr3Ag5Ir
_symmetry_space_group_name_H-M   'P 1'
_cell_length_a   7.89503500
_cell_length_b   7.89503536
_cell_length_c   3.96561200
_cell_angle_alpha   90.00000000
_cell_angle_beta   90.00000000
_cell_angle_gamma   120.00000994
_symmetry_Int_Tables_number   1
_chemical_formula_structural   Pr3Ag5Ir
_chemical_formula_sum   'Pr3 Ag5 Ir1'
_cell_volume   214.06661778
_cell_formula_units_Z   1
loop_
 _symmetry_equiv_pos_site_id
 _symmetry_equiv_pos_as_xyz
  1  'x, y, z'
loop_
 _atom_site_type_symbol
 _atom_site_label
 _atom_site_symmetry_multiplicity
 _atom_site_fract_x
 _atom_site_fract_y
 _atom_site_fract_z
 _atom_site_occupancy
  Pr  Pr0  1  0.419060  0.390232  0.500000  1
  Pr  Pr1  1  0.609768  0.028828  0.500000  1
  Pr  Pr2  1  0.971172  0.580940  0.500000  1
  Ag  Ag3  1  0.736474  0.742643  0.000000  1
  Ag  Ag4  1  0.257357  0.993831  0.000000  1
  Ag  Ag5  1  0.006169  0.263526  0.000000  1
  Ag  Ag6  1  0.333333  0.666667  0.000000  1
  Ag  Ag7  1  0.000000  0.000000  0.500000  1
  Ir  Ir8  1  0.666667  0.333333  0.000000  1
