# generated using pymatgen
data_Sm2V3Co9As7
_symmetry_space_group_name_H-M   'P 1'
_cell_length_a   3.79613600
_cell_length_b   9.43082026
_cell_length_c   9.43082100
_cell_angle_alpha   119.99999908
_cell_angle_beta   90.00000000
_cell_angle_gamma   90.00000000
_symmetry_Int_Tables_number   1
_chemical_formula_structural   Sm2V3Co9As7
_chemical_formula_sum   'Sm2 V3 Co9 As7'
_cell_volume   292.39596050
_cell_formula_units_Z   1
loop_
 _symmetry_equiv_pos_site_id
 _symmetry_equiv_pos_as_xyz
  1  'x, y, z'
loop_
 _atom_site_type_symbol
 _atom_site_label
 _atom_site_symmetry_multiplicity
 _atom_site_fract_x
 _atom_site_fract_y
 _atom_site_fract_z
 _atom_site_occupancy
  Sm  Sm0  1  0.000000  0.666667  0.333333  1
  Sm  Sm1  1  0.500000  0.333333  0.666667  1
  V  V2  1  0.500000  0.783301  0.897911  1
  V  V3  1  0.500000  0.114610  0.216699  1
  V  V4  1  0.500000  0.102089  0.885390  1
  Co  Co5  1  0.000000  0.570770  0.941860  1
  Co  Co6  1  0.000000  0.371090  0.429230  1
  Co  Co7  1  0.000000  0.058140  0.628910  1
  Co  Co8  1  0.000000  0.877730  0.155802  1
  Co  Co9  1  0.000000  0.278072  0.122270  1
  Co  Co10  1  0.000000  0.844198  0.721928  1
  Co  Co11  1  0.500000  0.950533  0.381832  1
  Co  Co12  1  0.500000  0.431298  0.049467  1
  Co  Co13  1  0.500000  0.618168  0.568702  1
  As  As14  1  0.000000  0.000000  0.000000  1
  As  As15  1  0.500000  0.707667  0.114954  1
  As  As16  1  0.500000  0.407286  0.292333  1
  As  As17  1  0.500000  0.885046  0.592714  1
  As  As18  1  0.000000  0.589281  0.701570  1
  As  As19  1  0.000000  0.112289  0.410719  1
  As  As20  1  0.000000  0.298430  0.887711  1
