# generated using pymatgen
data_Yb4Re3Os5
_symmetry_space_group_name_H-M   'P 1'
_cell_length_a   5.35292894
_cell_length_b   5.63969909
_cell_length_c   8.39655200
_cell_angle_alpha   90.00000000
_cell_angle_beta   90.00000000
_cell_angle_gamma   121.78857191
_symmetry_Int_Tables_number   1
_chemical_formula_structural   Yb4Re3Os5
_chemical_formula_sum   'Yb4 Re3 Os5'
_cell_volume   215.45976644
_cell_formula_units_Z   1
loop_
 _symmetry_equiv_pos_site_id
 _symmetry_equiv_pos_as_xyz
  1  'x, y, z'
loop_
 _atom_site_type_symbol
 _atom_site_label
 _atom_site_symmetry_multiplicity
 _atom_site_fract_x
 _atom_site_fract_y
 _atom_site_fract_z
 _atom_site_occupancy
  Yb  Yb0  1  0.325708  0.662855  0.430621  1
  Yb  Yb1  1  0.671020  0.335509  0.566084  1
  Yb  Yb2  1  0.671020  0.335509  0.933916  1
  Yb  Yb3  1  0.325708  0.662855  0.069379  1
  Re  Re4  1  0.998305  0.999152  0.498845  1
  Re  Re5  1  0.998305  0.999152  0.001155  1
  Re  Re6  1  0.642131  0.821065  0.750000  1
  Os  Os7  1  0.824924  0.161159  0.250000  1
  Os  Os8  1  0.824924  0.663766  0.250000  1
  Os  Os9  1  0.365613  0.182807  0.250000  1
  Os  Os10  1  0.176171  0.836208  0.750000  1
  Os  Os11  1  0.176171  0.339962  0.750000  1
