# generated using pymatgen
data_Pr5Y5(Co2Sn5)4
_symmetry_space_group_name_H-M   'P 1'
_cell_length_a   13.90133900
_cell_length_b   13.90133900
_cell_length_c   4.52248900
_cell_angle_alpha   90.00000000
_cell_angle_beta   90.00000000
_cell_angle_gamma   90.00000000
_symmetry_Int_Tables_number   1
_chemical_formula_structural   Pr5Y5(Co2Sn5)4
_chemical_formula_sum   'Pr5 Y5 Co8 Sn20'
_cell_volume   873.95845383
_cell_formula_units_Z   1
loop_
 _symmetry_equiv_pos_site_id
 _symmetry_equiv_pos_as_xyz
  1  'x, y, z'
loop_
 _atom_site_type_symbol
 _atom_site_label
 _atom_site_symmetry_multiplicity
 _atom_site_fract_x
 _atom_site_fract_y
 _atom_site_fract_z
 _atom_site_occupancy
  Pr  Pr0  1  0.000000  0.000000  0.000000  1
  Pr  Pr1  1  0.889706  0.390942  0.500000  1
  Pr  Pr2  1  0.110294  0.609058  0.500000  1
  Pr  Pr3  1  0.390942  0.110294  0.500000  1
  Pr  Pr4  1  0.609058  0.889706  0.500000  1
  Y  Y5  1  0.500000  0.500000  0.000000  1
  Y  Y6  1  0.678797  0.180377  0.500000  1
  Y  Y7  1  0.321203  0.819623  0.500000  1
  Y  Y8  1  0.180377  0.321203  0.500000  1
  Y  Y9  1  0.819623  0.678797  0.500000  1
  Co  Co10  1  0.742652  0.534444  0.000000  1
  Co  Co11  1  0.257348  0.465556  0.000000  1
  Co  Co12  1  0.245203  0.965395  0.000000  1
  Co  Co13  1  0.754797  0.034605  0.000000  1
  Co  Co14  1  0.465556  0.742652  0.000000  1
  Co  Co15  1  0.534444  0.257348  0.000000  1
  Co  Co16  1  0.034605  0.245203  0.000000  1
  Co  Co17  1  0.965395  0.754797  0.000000  1
  Sn  Sn18  1  0.572612  0.073503  0.000000  1
  Sn  Sn19  1  0.427388  0.926497  0.000000  1
  Sn  Sn20  1  0.073503  0.427388  0.000000  1
  Sn  Sn21  1  0.926497  0.572612  0.000000  1
  Sn  Sn22  1  0.648488  0.698857  0.000000  1
  Sn  Sn23  1  0.351512  0.301143  0.000000  1
  Sn  Sn24  1  0.149334  0.800231  0.000000  1
  Sn  Sn25  1  0.850666  0.199769  0.000000  1
  Sn  Sn26  1  0.301143  0.648488  0.000000  1
  Sn  Sn27  1  0.698857  0.351512  0.000000  1
  Sn  Sn28  1  0.199769  0.149334  0.000000  1
  Sn  Sn29  1  0.800231  0.850666  0.000000  1
  Sn  Sn30  1  0.666891  0.510586  0.500000  1
  Sn  Sn31  1  0.333109  0.489414  0.500000  1
  Sn  Sn32  1  0.170689  0.989556  0.500000  1
  Sn  Sn33  1  0.829311  0.010444  0.500000  1
  Sn  Sn34  1  0.489414  0.666891  0.500000  1
  Sn  Sn35  1  0.510586  0.333109  0.500000  1
  Sn  Sn36  1  0.010444  0.170689  0.500000  1
  Sn  Sn37  1  0.989556  0.829311  0.500000  1
