# generated using pymatgen
data_Mg2VP3PbO12
_symmetry_space_group_name_H-M   'P 1'
_cell_length_a   9.16141019
_cell_length_b   9.16141040
_cell_length_c   9.16141045
_cell_angle_alpha   137.41382757
_cell_angle_beta   109.78121991
_cell_angle_gamma   85.71658915
_symmetry_Int_Tables_number   1
_chemical_formula_structural   Mg2VP3PbO12
_chemical_formula_sum   'Mg4 V2 P6 Pb2 O24'
_cell_volume   470.88984953
_cell_formula_units_Z   2
loop_
 _symmetry_equiv_pos_site_id
 _symmetry_equiv_pos_as_xyz
  1  'x, y, z'
loop_
 _atom_site_type_symbol
 _atom_site_label
 _atom_site_symmetry_multiplicity
 _atom_site_fract_x
 _atom_site_fract_y
 _atom_site_fract_z
 _atom_site_occupancy
  Mg  Mg0  1  0.616368  0.616368  0.500000  1
  Mg  Mg1  1  0.883632  0.383632  0.000000  1
  Mg  Mg2  1  0.116368  0.616368  0.000000  1
  Mg  Mg3  1  0.383632  0.383632  0.500000  1
  V  V4  1  0.500000  0.000000  0.500000  1
  V  V5  1  0.000000  0.500000  0.500000  1
  P  P6  1  0.750000  0.345175  0.595175  1
  P  P7  1  0.250000  0.654825  0.404825  1
  P  P8  1  0.822277  0.822277  0.500000  1
  P  P9  1  0.677723  0.177723  0.000000  1
  P  P10  1  0.322277  0.822277  0.000000  1
  P  P11  1  0.177723  0.177723  0.500000  1
  Pb  Pb12  1  0.750000  0.856299  0.106299  1
  Pb  Pb13  1  0.250000  0.143701  0.893701  1
  O  O14  1  0.656776  0.116637  0.459862  1
  O  O15  1  0.343224  0.883363  0.540138  1
  O  O16  1  0.156776  0.696914  0.540138  1
  O  O17  1  0.843224  0.303086  0.459862  1
  O  O18  1  0.631439  0.485839  0.617280  1
  O  O19  1  0.131439  0.514161  0.145600  1
  O  O20  1  0.368561  0.514161  0.382720  1
  O  O21  1  0.868561  0.485839  0.854400  1
  O  O22  1  0.922966  0.068219  0.721793  1
  O  O23  1  0.653573  0.931781  0.854746  1
  O  O24  1  0.422966  0.701173  0.854746  1
  O  O25  1  0.153573  0.298827  0.721793  1
  O  O26  1  0.077034  0.931781  0.278207  1
  O  O27  1  0.346427  0.068219  0.145254  1
  O  O28  1  0.577034  0.298827  0.145254  1
  O  O29  1  0.846427  0.701173  0.278207  1
  O  O30  1  0.634639  0.791253  0.435725  1
  O  O31  1  0.644472  0.208747  0.843386  1
  O  O32  1  0.134639  0.698914  0.843386  1
  O  O33  1  0.144472  0.301086  0.435725  1
  O  O34  1  0.365361  0.208747  0.564275  1
  O  O35  1  0.355528  0.791253  0.156614  1
  O  O36  1  0.865361  0.301086  0.156614  1
  O  O37  1  0.855528  0.698914  0.564275  1
