# generated using pymatgen
data_Y5Si8P4Ir19
_symmetry_space_group_name_H-M   'P 1'
_cell_length_a   12.83538106
_cell_length_b   12.79765107
_cell_length_c   3.95478600
_cell_angle_alpha   90.00000000
_cell_angle_beta   90.00000000
_cell_angle_gamma   119.97043878
_symmetry_Int_Tables_number   1
_chemical_formula_structural   Y5Si8P4Ir19
_chemical_formula_sum   'Y5 Si8 P4 Ir19'
_cell_volume   562.75834173
_cell_formula_units_Z   1
loop_
 _symmetry_equiv_pos_site_id
 _symmetry_equiv_pos_as_xyz
  1  'x, y, z'
loop_
 _atom_site_type_symbol
 _atom_site_label
 _atom_site_symmetry_multiplicity
 _atom_site_fract_x
 _atom_site_fract_y
 _atom_site_fract_z
 _atom_site_occupancy
  Y  Y0  1  0.666907  0.333376  0.000000  1
  Y  Y1  1  0.332595  0.667519  0.000000  1
  Y  Y2  1  0.813948  0.813813  0.500000  1
  Y  Y3  1  0.185769  0.001051  0.500000  1
  Y  Y4  1  0.999375  0.183726  0.500000  1
  Si  Si5  1  0.685321  0.165436  0.500000  1
  Si  Si6  1  0.834395  0.519412  0.500000  1
  Si  Si7  1  0.481266  0.315169  0.500000  1
  Si  Si8  1  0.167742  0.687953  0.500000  1
  Si  Si9  1  0.518163  0.830083  0.500000  1
  Si  Si10  1  0.634715  0.633988  0.000000  1
  Si  Si11  1  0.366056  0.999673  0.000000  1
  Si  Si12  1  0.999379  0.365257  0.000000  1
  P  P13  1  0.307809  0.483866  0.500000  1
  P  P14  1  0.179044  0.180058  0.000000  1
  P  P15  1  0.820102  0.997290  0.000000  1
  P  P16  1  0.000376  0.822598  0.000000  1
  Ir  Ir17  1  0.807525  0.177798  0.000000  1
  Ir  Ir18  1  0.821657  0.628708  0.000000  1
  Ir  Ir19  1  0.370125  0.191825  0.000000  1
  Ir  Ir20  1  0.179335  0.806571  0.000000  1
  Ir  Ir21  1  0.624355  0.817546  0.000000  1
  Ir  Ir22  1  0.199435  0.379494  0.000000  1
  Ir  Ir23  1  0.455979  0.443932  0.000000  1
  Ir  Ir24  1  0.553075  0.002244  0.000000  1
  Ir  Ir25  1  0.998976  0.551231  0.000000  1
  Ir  Ir26  1  0.280335  0.284430  0.500000  1
  Ir  Ir27  1  0.720337  0.997775  0.500000  1
  Ir  Ir28  1  0.000403  0.722166  0.500000  1
  Ir  Ir29  1  0.871994  0.358144  0.500000  1
  Ir  Ir30  1  0.643214  0.514311  0.500000  1
  Ir  Ir31  1  0.486603  0.128526  0.500000  1
  Ir  Ir32  1  0.360881  0.873271  0.500000  1
  Ir  Ir33  1  0.505904  0.632798  0.500000  1
  Ir  Ir34  1  0.125912  0.487134  0.500000  1
  Ir  Ir35  1  0.000990  0.001826  0.000000  1
