# generated using pymatgen
data_Tc2N2F3
_symmetry_space_group_name_H-M   'P 1'
_cell_length_a   4.98618885
_cell_length_b   5.49826735
_cell_length_c   6.81421544
_cell_angle_alpha   104.38378725
_cell_angle_beta   111.46092041
_cell_angle_gamma   89.99999845
_symmetry_Int_Tables_number   1
_chemical_formula_structural   Tc2N2F3
_chemical_formula_sum   'Tc4 N4 F6'
_cell_volume   167.55404244
_cell_formula_units_Z   2
loop_
 _symmetry_equiv_pos_site_id
 _symmetry_equiv_pos_as_xyz
  1  'x, y, z'
loop_
 _atom_site_type_symbol
 _atom_site_label
 _atom_site_symmetry_multiplicity
 _atom_site_fract_x
 _atom_site_fract_y
 _atom_site_fract_z
 _atom_site_occupancy
  Tc  Tc0  1  0.395386  0.821486  0.324414  1
  Tc  Tc1  1  0.070972  0.678514  0.675586  1
  Tc  Tc2  1  0.604614  0.178514  0.675586  1
  Tc  Tc3  1  0.929028  0.321486  0.324414  1
  N  N4  1  0.743627  0.855705  0.589476  1
  N  N5  1  0.154151  0.644295  0.410524  1
  N  N6  1  0.256373  0.144295  0.410524  1
  N  N7  1  0.845849  0.355705  0.589476  1
  F  F8  1  0.533800  0.477881  0.202373  1
  F  F9  1  0.331427  0.022119  0.797627  1
  F  F10  1  0.466200  0.522119  0.797627  1
  F  F11  1  0.668573  0.977881  0.202373  1
  F  F12  1  0.103038  0.750000  0.000000  1
  F  F13  1  0.896962  0.250000  0.000000  1
