# generated using pymatgen
data_NaSr2InPb2
_symmetry_space_group_name_H-M   'P 1'
_cell_length_a   5.11081600
_cell_length_b   8.46430300
_cell_length_c   18.78825800
_cell_angle_alpha   90.00000000
_cell_angle_beta   90.00000000
_cell_angle_gamma   90.00000000
_symmetry_Int_Tables_number   1
_chemical_formula_structural   NaSr2InPb2
_chemical_formula_sum   'Na4 Sr8 In4 Pb8'
_cell_volume   812.77055679
_cell_formula_units_Z   4
loop_
 _symmetry_equiv_pos_site_id
 _symmetry_equiv_pos_as_xyz
  1  'x, y, z'
loop_
 _atom_site_type_symbol
 _atom_site_label
 _atom_site_symmetry_multiplicity
 _atom_site_fract_x
 _atom_site_fract_y
 _atom_site_fract_z
 _atom_site_occupancy
  Na  Na0  1  0.250000  0.992144  0.070423  1
  Na  Na1  1  0.750000  0.507856  0.570423  1
  Na  Na2  1  0.750000  0.007856  0.929577  1
  Na  Na3  1  0.250000  0.492144  0.429577  1
  Sr  Sr4  1  0.250000  0.353507  0.941389  1
  Sr  Sr5  1  0.250000  0.853507  0.558611  1
  Sr  Sr6  1  0.750000  0.146493  0.441389  1
  Sr  Sr7  1  0.750000  0.494806  0.272940  1
  Sr  Sr8  1  0.750000  0.994806  0.227060  1
  Sr  Sr9  1  0.750000  0.646493  0.058611  1
  Sr  Sr10  1  0.250000  0.505194  0.727060  1
  Sr  Sr11  1  0.250000  0.005194  0.772940  1
  In  In12  1  0.750000  0.161432  0.655965  1
  In  In13  1  0.250000  0.838568  0.344035  1
  In  In14  1  0.750000  0.661432  0.844035  1
  In  In15  1  0.250000  0.338568  0.155965  1
  Pb  Pb16  1  0.750000  0.240762  0.071991  1
  Pb  Pb17  1  0.750000  0.792082  0.686306  1
  Pb  Pb18  1  0.250000  0.207918  0.313694  1
  Pb  Pb19  1  0.250000  0.707918  0.186306  1
  Pb  Pb20  1  0.250000  0.259238  0.571991  1
  Pb  Pb21  1  0.750000  0.292082  0.813694  1
  Pb  Pb22  1  0.250000  0.759238  0.928009  1
  Pb  Pb23  1  0.750000  0.740762  0.428009  1
