# generated using pymatgen
data_Tb3Ce(TcB2)6
_symmetry_space_group_name_H-M   'P 1'
_cell_length_a   6.22195758
_cell_length_b   6.22444576
_cell_length_c   7.52132801
_cell_angle_alpha   90.53103649
_cell_angle_beta   90.77296286
_cell_angle_gamma   113.98509584
_symmetry_Int_Tables_number   1
_chemical_formula_structural   Tb3Ce(TcB2)6
_chemical_formula_sum   'Tb3 Ce1 Tc6 B12'
_cell_volume   266.07652174
_cell_formula_units_Z   1
loop_
 _symmetry_equiv_pos_site_id
 _symmetry_equiv_pos_as_xyz
  1  'x, y, z'
loop_
 _atom_site_type_symbol
 _atom_site_label
 _atom_site_symmetry_multiplicity
 _atom_site_fract_x
 _atom_site_fract_y
 _atom_site_fract_z
 _atom_site_occupancy
  Tb  Tb0  1  0.098976  0.441157  0.322693  1
  Tb  Tb1  1  0.559382  0.901830  0.177238  1
  Tb  Tb2  1  0.898442  0.557090  0.676422  1
  Ce  Ce3  1  0.436541  0.092220  0.826897  1
  Tc  Tc4  1  0.588340  0.412776  0.249520  1
  Tc  Tc5  1  0.412254  0.587829  0.749600  1
  Tc  Tc6  1  0.990142  0.804364  0.088695  1
  Tc  Tc7  1  0.195978  0.010184  0.411886  1
  Tc  Tc8  1  0.011491  0.197025  0.911519  1
  Tc  Tc9  1  0.804766  0.989797  0.589273  1
  B  B10  1  0.243979  0.153136  0.133347  1
  B  B11  1  0.848296  0.754081  0.370119  1
  B  B12  1  0.755847  0.847457  0.870076  1
  B  B13  1  0.150582  0.247887  0.628192  1
  B  B14  1  0.585407  0.159504  0.481412  1
  B  B15  1  0.842219  0.416879  0.018124  1
  B  B16  1  0.416189  0.841019  0.515136  1
  B  B17  1  0.158796  0.586091  0.981057  1
  B  B18  1  0.443601  0.350504  0.533619  1
  B  B19  1  0.650318  0.556625  0.965446  1
  B  B20  1  0.557352  0.649233  0.465254  1
  B  B21  1  0.351102  0.443309  0.034475  1
