# generated using pymatgen
data_CeDy9(Sn3N)2
_symmetry_space_group_name_H-M   'P 1'
_cell_length_a   8.93836300
_cell_length_b   8.93836333
_cell_length_c   6.45153800
_cell_angle_alpha   90.00000000
_cell_angle_beta   90.00000000
_cell_angle_gamma   120.24214318
_symmetry_Int_Tables_number   1
_chemical_formula_structural   CeDy9(Sn3N)2
_chemical_formula_sum   'Ce1 Dy9 Sn6 N2'
_cell_volume   445.29213772
_cell_formula_units_Z   1
loop_
 _symmetry_equiv_pos_site_id
 _symmetry_equiv_pos_as_xyz
  1  'x, y, z'
loop_
 _atom_site_type_symbol
 _atom_site_label
 _atom_site_symmetry_multiplicity
 _atom_site_fract_x
 _atom_site_fract_y
 _atom_site_fract_z
 _atom_site_occupancy
  Ce  Ce0  1  0.791246  0.791246  0.750000  1
  Dy  Dy1  1  0.665848  0.333242  0.000522  1
  Dy  Dy2  1  0.333242  0.665848  0.000522  1
  Dy  Dy3  1  0.333242  0.665848  0.499478  1
  Dy  Dy4  1  0.665848  0.333242  0.499478  1
  Dy  Dy5  1  0.220541  0.002057  0.750000  1
  Dy  Dy6  1  0.002057  0.220541  0.750000  1
  Dy  Dy7  1  0.215185  0.215185  0.250000  1
  Dy  Dy8  1  0.784131  0.000142  0.250000  1
  Dy  Dy9  1  0.000142  0.784131  0.250000  1
  Sn  Sn10  1  0.403001  0.403001  0.750000  1
  Sn  Sn11  1  0.595327  0.002096  0.750000  1
  Sn  Sn12  1  0.002096  0.595327  0.750000  1
  Sn  Sn13  1  0.594993  0.594993  0.250000  1
  Sn  Sn14  1  0.402117  0.999672  0.250000  1
  Sn  Sn15  1  0.999672  0.402117  0.250000  1
  N  N16  1  0.995657  0.995657  0.999783  1
  N  N17  1  0.995657  0.995657  0.500217  1
