# generated using pymatgen
data_Dy3Y(Fe5P3)4
_symmetry_space_group_name_H-M   'P 1'
_cell_length_a   3.65368300
_cell_length_b   10.29873217
_cell_length_c   11.81777220
_cell_angle_alpha   90.02092801
_cell_angle_beta   90.00000000
_cell_angle_gamma   90.00000000
_symmetry_Int_Tables_number   1
_chemical_formula_structural   Dy3Y(Fe5P3)4
_chemical_formula_sum   'Dy3 Y1 Fe20 P12'
_cell_volume   444.68267931
_cell_formula_units_Z   1
loop_
 _symmetry_equiv_pos_site_id
 _symmetry_equiv_pos_as_xyz
  1  'x, y, z'
loop_
 _atom_site_type_symbol
 _atom_site_label
 _atom_site_symmetry_multiplicity
 _atom_site_fract_x
 _atom_site_fract_y
 _atom_site_fract_z
 _atom_site_occupancy
  Dy  Dy0  1  0.250000  0.919320  0.204357  1
  Dy  Dy1  1  0.750000  0.419081  0.295574  1
  Dy  Dy2  1  0.750000  0.080677  0.795551  1
  Y  Y3  1  0.250000  0.580968  0.704616  1
  Fe  Fe4  1  0.250000  0.708125  0.988747  1
  Fe  Fe5  1  0.250000  0.792012  0.488642  1
  Fe  Fe6  1  0.750000  0.291833  0.011342  1
  Fe  Fe7  1  0.750000  0.208006  0.511248  1
  Fe  Fe8  1  0.250000  0.405133  0.490396  1
  Fe  Fe9  1  0.250000  0.094824  0.990437  1
  Fe  Fe10  1  0.750000  0.594828  0.509340  1
  Fe  Fe11  1  0.750000  0.905226  0.009529  1
  Fe  Fe12  1  0.250000  0.219017  0.176725  1
  Fe  Fe13  1  0.250000  0.280802  0.676669  1
  Fe  Fe14  1  0.750000  0.780991  0.823420  1
  Fe  Fe15  1  0.750000  0.719075  0.323263  1
  Fe  Fe16  1  0.250000  0.875998  0.701214  1
  Fe  Fe17  1  0.250000  0.624251  0.201224  1
  Fe  Fe18  1  0.750000  0.124326  0.298712  1
  Fe  Fe19  1  0.750000  0.375527  0.798901  1
  Fe  Fe20  1  0.250000  0.463224  0.932571  1
  Fe  Fe21  1  0.250000  0.036766  0.432326  1
  Fe  Fe22  1  0.750000  0.536562  0.067677  1
  Fe  Fe23  1  0.750000  0.963527  0.567496  1
  P  P24  1  0.250000  0.421529  0.112355  1
  P  P25  1  0.250000  0.078344  0.612308  1
  P  P26  1  0.750000  0.578341  0.887999  1
  P  P27  1  0.750000  0.921752  0.387652  1
  P  P28  1  0.250000  0.266172  0.872036  1
  P  P29  1  0.250000  0.233787  0.372075  1
  P  P30  1  0.750000  0.733837  0.127896  1
  P  P31  1  0.750000  0.766483  0.627992  1
  P  P32  1  0.250000  0.600944  0.396552  1
  P  P33  1  0.250000  0.898976  0.896510  1
  P  P34  1  0.750000  0.398749  0.603329  1
  P  P35  1  0.750000  0.100987  0.103319  1
