# generated using pymatgen
data_Dy5Mg2Co16TcP12
_symmetry_space_group_name_H-M   'P 1'
_cell_length_a   12.08017810
_cell_length_b   12.08017708
_cell_length_c   3.71043400
_cell_angle_alpha   90.00000000
_cell_angle_beta   90.00000000
_cell_angle_gamma   119.81752205
_symmetry_Int_Tables_number   1
_chemical_formula_structural   Dy5Mg2Co16TcP12
_chemical_formula_sum   'Dy5 Mg2 Co16 Tc1 P12'
_cell_volume   469.78334318
_cell_formula_units_Z   1
loop_
 _symmetry_equiv_pos_site_id
 _symmetry_equiv_pos_as_xyz
  1  'x, y, z'
loop_
 _atom_site_type_symbol
 _atom_site_label
 _atom_site_symmetry_multiplicity
 _atom_site_fract_x
 _atom_site_fract_y
 _atom_site_fract_z
 _atom_site_occupancy
  Dy  Dy0  1  0.665424  0.335522  0.000000  1
  Dy  Dy1  1  0.335522  0.665424  0.000000  1
  Dy  Dy2  1  0.186753  0.186753  0.500000  1
  Dy  Dy3  1  0.814211  0.999355  0.500000  1
  Dy  Dy4  1  0.999355  0.814211  0.500000  1
  Mg  Mg5  1  0.439651  0.999401  0.000000  1
  Mg  Mg6  1  0.999401  0.439651  0.000000  1
  Co  Co7  1  0.821725  0.196977  0.000000  1
  Co  Co8  1  0.801771  0.627020  0.000000  1
  Co  Co9  1  0.377543  0.181015  0.000000  1
  Co  Co10  1  0.196977  0.821725  0.000000  1
  Co  Co11  1  0.627020  0.801771  0.000000  1
  Co  Co12  1  0.181015  0.377543  0.000000  1
  Co  Co13  1  0.642356  0.122825  0.500000  1
  Co  Co14  1  0.869335  0.516233  0.500000  1
  Co  Co15  1  0.482895  0.359759  0.500000  1
  Co  Co16  1  0.122825  0.642356  0.500000  1
  Co  Co17  1  0.516233  0.869335  0.500000  1
  Co  Co18  1  0.359759  0.482895  0.500000  1
  Co  Co19  1  0.718730  0.718730  0.500000  1
  Co  Co20  1  0.282021  0.001609  0.500000  1
  Co  Co21  1  0.001609  0.282021  0.500000  1
  Co  Co22  1  0.001683  0.001683  0.000000  1
  Tc  Tc23  1  0.554725  0.554725  0.000000  1
  P  P24  1  0.364361  0.364361  0.000000  1
  P  P25  1  0.639162  0.997669  0.000000  1
  P  P26  1  0.997669  0.639162  0.000000  1
  P  P27  1  0.826674  0.306659  0.500000  1
  P  P28  1  0.686245  0.522619  0.500000  1
  P  P29  1  0.481248  0.172249  0.500000  1
  P  P30  1  0.306659  0.826674  0.500000  1
  P  P31  1  0.522619  0.686245  0.500000  1
  P  P32  1  0.172249  0.481248  0.500000  1
  P  P33  1  0.822240  0.822240  0.000000  1
  P  P34  1  0.180916  0.001418  0.000000  1
  P  P35  1  0.001418  0.180916  0.000000  1
