# generated using pymatgen
data_Nb12ZnPt7N4
_symmetry_space_group_name_H-M   'P 1'
_cell_length_a   7.06990125
_cell_length_b   7.06990106
_cell_length_c   7.06990039
_cell_angle_alpha   89.68796260
_cell_angle_beta   89.68796198
_cell_angle_gamma   89.68796461
_symmetry_Int_Tables_number   1
_chemical_formula_structural   Nb12ZnPt7N4
_chemical_formula_sum   'Nb12 Zn1 Pt7 N4'
_cell_volume   353.36271793
_cell_formula_units_Z   1
loop_
 _symmetry_equiv_pos_site_id
 _symmetry_equiv_pos_as_xyz
  1  'x, y, z'
loop_
 _atom_site_type_symbol
 _atom_site_label
 _atom_site_symmetry_multiplicity
 _atom_site_fract_x
 _atom_site_fract_y
 _atom_site_fract_z
 _atom_site_occupancy
  Nb  Nb0  1  0.625399  0.703946  0.954375  1
  Nb  Nb1  1  0.457090  0.872350  0.297588  1
  Nb  Nb2  1  0.703946  0.954375  0.625399  1
  Nb  Nb3  1  0.549314  0.376754  0.205953  1
  Nb  Nb4  1  0.376754  0.205953  0.549314  1
  Nb  Nb5  1  0.205953  0.549314  0.376754  1
  Nb  Nb6  1  0.872350  0.297588  0.457090  1
  Nb  Nb7  1  0.045025  0.121370  0.791233  1
  Nb  Nb8  1  0.297588  0.457090  0.872350  1
  Nb  Nb9  1  0.121370  0.791233  0.045025  1
  Nb  Nb10  1  0.791233  0.045025  0.121370  1
  Nb  Nb11  1  0.954375  0.625399  0.703946  1
  Zn  Zn12  1  0.187035  0.187035  0.187035  1
  Pt  Pt13  1  0.310265  0.815627  0.688210  1
  Pt  Pt14  1  0.427507  0.065065  0.946266  1
  Pt  Pt15  1  0.815627  0.688210  0.310265  1
  Pt  Pt16  1  0.688210  0.310265  0.815627  1
  Pt  Pt17  1  0.562962  0.562962  0.562962  1
  Pt  Pt18  1  0.065065  0.946266  0.427507  1
  Pt  Pt19  1  0.946266  0.427507  0.065065  1
  N  N20  1  0.375413  0.623513  0.124519  1
  N  N21  1  0.873222  0.873222  0.873222  1
  N  N22  1  0.124519  0.375413  0.623513  1
  N  N23  1  0.623513  0.124519  0.375413  1
