# generated using pymatgen
data_TlTeBr8
_symmetry_space_group_name_H-M   'P 1'
_cell_length_a   10.08153107
_cell_length_b   9.19958162
_cell_length_c   12.11584240
_cell_angle_alpha   88.51379609
_cell_angle_beta   60.69020300
_cell_angle_gamma   80.47564527
_symmetry_Int_Tables_number   1
_chemical_formula_structural   TlTeBr8
_chemical_formula_sum   'Tl2 Te2 Br16'
_cell_volume   964.35537301
_cell_formula_units_Z   2
loop_
 _symmetry_equiv_pos_site_id
 _symmetry_equiv_pos_as_xyz
  1  'x, y, z'
loop_
 _atom_site_type_symbol
 _atom_site_label
 _atom_site_symmetry_multiplicity
 _atom_site_fract_x
 _atom_site_fract_y
 _atom_site_fract_z
 _atom_site_occupancy
  Tl  Tl0  1  0.865787  0.078198  0.344898  1
  Tl  Tl1  1  0.134214  0.921802  0.655101  1
  Te  Te2  1  0.356733  0.749522  0.294613  1
  Te  Te3  1  0.643267  0.250478  0.705386  1
  Br  Br4  1  0.560860  0.835528  0.089562  1
  Br  Br5  1  0.928705  0.408881  0.060156  1
  Br  Br6  1  0.122002  0.892290  0.201037  1
  Br  Br7  1  0.352746  0.505486  0.203698  1
  Br  Br8  1  0.727378  0.171841  0.218812  1
  Br  Br9  1  0.306357  0.045303  0.440253  1
  Br  Br10  1  0.540562  0.642032  0.373292  1
  Br  Br11  1  0.915357  0.303128  0.448581  1
  Br  Br12  1  0.084643  0.696872  0.551419  1
  Br  Br13  1  0.459438  0.357968  0.626709  1
  Br  Br14  1  0.693643  0.954697  0.559747  1
  Br  Br15  1  0.272622  0.828159  0.781189  1
  Br  Br16  1  0.647254  0.494515  0.796302  1
  Br  Br17  1  0.877998  0.107709  0.798963  1
  Br  Br18  1  0.071295  0.591120  0.939844  1
  Br  Br19  1  0.439140  0.164472  0.910439  1
