# generated using pymatgen
data_Nb4VB4Mo
_symmetry_space_group_name_H-M   'P 1'
_cell_length_a   6.08610000
_cell_length_b   6.08610000
_cell_length_c   3.27664000
_cell_angle_alpha   90.00000000
_cell_angle_beta   90.00000000
_cell_angle_gamma   90.00000000
_symmetry_Int_Tables_number   1
_chemical_formula_structural   Nb4VB4Mo
_chemical_formula_sum   'Nb4 V1 B4 Mo1'
_cell_volume   121.36875487
_cell_formula_units_Z   1
loop_
 _symmetry_equiv_pos_site_id
 _symmetry_equiv_pos_as_xyz
  1  'x, y, z'
loop_
 _atom_site_type_symbol
 _atom_site_label
 _atom_site_symmetry_multiplicity
 _atom_site_fract_x
 _atom_site_fract_y
 _atom_site_fract_z
 _atom_site_occupancy
  Nb  Nb0  1  0.681602  0.177299  0.500000  1
  Nb  Nb1  1  0.318398  0.822701  0.500000  1
  Nb  Nb2  1  0.177299  0.318398  0.500000  1
  Nb  Nb3  1  0.822701  0.681602  0.500000  1
  V  V4  1  0.000000  0.000000  0.000000  1
  B  B5  1  0.107851  0.609434  0.000000  1
  B  B6  1  0.892149  0.390566  0.000000  1
  B  B7  1  0.609434  0.892149  0.000000  1
  B  B8  1  0.390566  0.107851  0.000000  1
  Mo  Mo9  1  0.500000  0.500000  0.000000  1
