# generated using pymatgen
data_DyY5IrO12
_symmetry_space_group_name_H-M   'P 1'
_cell_length_a   6.49629207
_cell_length_b   6.49294790
_cell_length_c   6.49408028
_cell_angle_alpha   98.63151984
_cell_angle_beta   98.67771591
_cell_angle_gamma   98.65891630
_symmetry_Int_Tables_number   1
_chemical_formula_structural   DyY5IrO12
_chemical_formula_sum   'Dy1 Y5 Ir1 O12'
_cell_volume   263.48120583
_cell_formula_units_Z   1
loop_
 _symmetry_equiv_pos_site_id
 _symmetry_equiv_pos_as_xyz
  1  'x, y, z'
loop_
 _atom_site_type_symbol
 _atom_site_label
 _atom_site_symmetry_multiplicity
 _atom_site_fract_x
 _atom_site_fract_y
 _atom_site_fract_z
 _atom_site_occupancy
  Dy  Dy0  1  0.856260  0.389019  0.685788  1
  Y  Y1  1  0.610557  0.313925  0.143559  1
  Y  Y2  1  0.313944  0.143821  0.610592  1
  Y  Y3  1  0.686130  0.856330  0.389545  1
  Y  Y4  1  0.389353  0.685909  0.856237  1
  Y  Y5  1  0.143618  0.610497  0.313923  1
  Ir  Ir6  1  0.999884  0.999926  0.999789  1
  O  O7  1  0.928582  0.035592  0.702270  1
  O  O8  1  0.965015  0.297699  0.071074  1
  O  O9  1  0.592835  0.177627  0.433613  1
  O  O10  1  0.822863  0.566524  0.408699  1
  O  O11  1  0.297549  0.071285  0.965098  1
  O  O12  1  0.567256  0.407921  0.822663  1
  O  O13  1  0.433110  0.592175  0.177249  1
  O  O14  1  0.702418  0.928745  0.034921  1
  O  O15  1  0.176982  0.433033  0.592200  1
  O  O16  1  0.407846  0.822870  0.566865  1
  O  O17  1  0.034515  0.702095  0.928317  1
  O  O18  1  0.071283  0.965007  0.297599  1
