# generated using pymatgen
data_Li3Pr4AlPt4
_symmetry_space_group_name_H-M   'P 1'
_cell_length_a   4.16301300
_cell_length_b   7.30906307
_cell_length_c   8.57846798
_cell_angle_alpha   88.86488477
_cell_angle_beta   90.00000000
_cell_angle_gamma   90.00000000
_symmetry_Int_Tables_number   1
_chemical_formula_structural   Li3Pr4AlPt4
_chemical_formula_sum   'Li3 Pr4 Al1 Pt4'
_cell_volume   260.97203735
_cell_formula_units_Z   1
loop_
 _symmetry_equiv_pos_site_id
 _symmetry_equiv_pos_as_xyz
  1  'x, y, z'
loop_
 _atom_site_type_symbol
 _atom_site_label
 _atom_site_symmetry_multiplicity
 _atom_site_fract_x
 _atom_site_fract_y
 _atom_site_fract_z
 _atom_site_occupancy
  Li  Li0  1  0.250000  0.130786  0.063405  1
  Li  Li1  1  0.750000  0.373283  0.558106  1
  Li  Li2  1  0.250000  0.635935  0.440629  1
  Pr  Pr3  1  0.250000  0.533797  0.808926  1
  Pr  Pr4  1  0.250000  0.041192  0.687308  1
  Pr  Pr5  1  0.750000  0.960706  0.314406  1
  Pr  Pr6  1  0.750000  0.463472  0.186990  1
  Al  Al7  1  0.750000  0.863568  0.939079  1
  Pt  Pt8  1  0.250000  0.762355  0.097636  1
  Pt  Pt9  1  0.250000  0.255247  0.383719  1
  Pt  Pt10  1  0.750000  0.751265  0.628934  1
  Pt  Pt11  1  0.750000  0.228393  0.890863  1
