# generated using pymatgen
data_Pr2Pt7O18
_symmetry_space_group_name_H-M   'P 1'
_cell_length_a   6.73056466
_cell_length_b   7.08845850
_cell_length_c   7.49524558
_cell_angle_alpha   92.95128420
_cell_angle_beta   96.85056170
_cell_angle_gamma   114.22079676
_symmetry_Int_Tables_number   1
_chemical_formula_structural   Pr2Pt7O18
_chemical_formula_sum   'Pr2 Pt7 O18'
_cell_volume   321.78889711
_cell_formula_units_Z   1
loop_
 _symmetry_equiv_pos_site_id
 _symmetry_equiv_pos_as_xyz
  1  'x, y, z'
loop_
 _atom_site_type_symbol
 _atom_site_label
 _atom_site_symmetry_multiplicity
 _atom_site_fract_x
 _atom_site_fract_y
 _atom_site_fract_z
 _atom_site_occupancy
  Pr  Pr0  1  0.679653  0.296977  0.392380  1
  Pr  Pr1  1  0.320357  0.703030  0.607617  1
  Pt  Pt2  1  0.605712  0.716435  0.118018  1
  Pt  Pt3  1  0.197645  0.879966  0.181900  1
  Pt  Pt4  1  0.178227  0.383280  0.202155  1
  Pt  Pt5  1  0.000004  0.999997  0.499996  1
  Pt  Pt6  1  0.821776  0.616724  0.797867  1
  Pt  Pt7  1  0.802342  0.120023  0.818089  1
  Pt  Pt8  1  0.394302  0.283585  0.881980  1
  O  O9  1  0.693313  0.488551  0.021848  1
  O  O10  1  0.874464  0.226788  0.078834  1
  O  O11  1  0.316002  0.183129  0.128178  1
  O  O12  1  0.514888  0.938496  0.194244  1
  O  O13  1  0.913643  0.905614  0.231700  1
  O  O14  1  0.096796  0.608218  0.289816  1
  O  O15  1  0.492435  0.561379  0.332637  1
  O  O16  1  0.061401  0.292718  0.434528  1
  O  O17  1  0.293076  0.006278  0.443486  1
  O  O18  1  0.706923  0.993720  0.556509  1
  O  O19  1  0.938592  0.707276  0.565475  1
  O  O20  1  0.507568  0.438621  0.667363  1
  O  O21  1  0.903192  0.391781  0.710191  1
  O  O22  1  0.086366  0.094374  0.768294  1
  O  O23  1  0.485103  0.061495  0.805766  1
  O  O24  1  0.683997  0.816866  0.871820  1
  O  O25  1  0.125529  0.773214  0.921163  1
  O  O26  1  0.306692  0.511464  0.978149  1
