# generated using pymatgen
data_Ba2Zn2Hg(PO3)10
_symmetry_space_group_name_H-M   'P 1'
_cell_length_a   5.53629300
_cell_length_b   11.01686307
_cell_length_c   23.25870122
_cell_angle_alpha   69.98942601
_cell_angle_beta   90.00000000
_cell_angle_gamma   90.00000000
_symmetry_Int_Tables_number   1
_chemical_formula_structural   Ba2Zn2Hg(PO3)10
_chemical_formula_sum   'Ba4 Zn4 Hg2 P20 O60'
_cell_volume   1332.96612824
_cell_formula_units_Z   2
loop_
 _symmetry_equiv_pos_site_id
 _symmetry_equiv_pos_as_xyz
  1  'x, y, z'
loop_
 _atom_site_type_symbol
 _atom_site_label
 _atom_site_symmetry_multiplicity
 _atom_site_fract_x
 _atom_site_fract_y
 _atom_site_fract_z
 _atom_site_occupancy
  Ba  Ba0  1  0.519732  0.397797  0.421279  1
  Ba  Ba1  1  0.480268  0.602203  0.578721  1
  Ba  Ba2  1  0.480268  0.397797  0.921279  1
  Ba  Ba3  1  0.519732  0.602203  0.078721  1
  Zn  Zn4  1  0.545661  0.500000  0.750000  1
  Zn  Zn5  1  0.454339  0.500000  0.250000  1
  Zn  Zn6  1  0.455000  0.000000  0.750000  1
  Zn  Zn7  1  0.545000  0.000000  0.250000  1
  Hg  Hg8  1  0.500000  0.000000  0.500000  1
  Hg  Hg9  1  0.500000  0.000000  0.000000  1
  P  P10  1  0.966646  0.684053  0.196312  1
  P  P11  1  0.902974  0.624971  0.922201  1
  P  P12  1  0.762023  0.725476  0.793705  1
  P  P13  1  0.023425  0.178471  0.522676  1
  P  P14  1  0.033354  0.315947  0.803688  1
  P  P15  1  0.976575  0.178471  0.022676  1
  P  P16  1  0.097026  0.624971  0.422201  1
  P  P17  1  0.237977  0.274524  0.206295  1
  P  P18  1  0.023425  0.821529  0.977324  1
  P  P19  1  0.966646  0.315947  0.303688  1
  P  P20  1  0.762023  0.274524  0.706295  1
  P  P21  1  0.976575  0.821529  0.477324  1
  P  P22  1  0.205942  0.956886  0.631371  1
  P  P23  1  0.205942  0.043114  0.868629  1
  P  P24  1  0.033354  0.684053  0.696312  1
  P  P25  1  0.794058  0.043114  0.368629  1
  P  P26  1  0.902974  0.375029  0.577799  1
  P  P27  1  0.097026  0.375029  0.077799  1
  P  P28  1  0.237977  0.725476  0.293705  1
  P  P29  1  0.794058  0.956886  0.131371  1
  O  O30  1  0.336598  0.403281  0.045724  1
  O  O31  1  0.956983  0.485772  0.084305  1
  O  O32  1  0.566356  0.064917  0.399315  1
  O  O33  1  0.979071  0.050789  0.082531  1
  O  O34  1  0.763022  0.179854  0.982200  1
  O  O35  1  0.768201  0.005209  0.183989  1
  O  O36  1  0.597174  0.390976  0.692412  1
  O  O37  1  0.988065  0.699708  0.262729  1
  O  O38  1  0.223835  0.189688  0.994976  1
  O  O39  1  0.231799  0.005209  0.683989  1
  O  O40  1  0.664969  0.854617  0.755432  1
  O  O41  1  0.011935  0.300292  0.737271  1
  O  O42  1  0.335031  0.145383  0.244568  1
  O  O43  1  0.037546  0.830634  0.649399  1
  O  O44  1  0.020929  0.949211  0.917469  1
  O  O45  1  0.768201  0.994791  0.316011  1
  O  O46  1  0.664969  0.145383  0.744568  1
  O  O47  1  0.922075  0.294461  0.048219  1
  O  O48  1  0.763022  0.820146  0.517800  1
  O  O49  1  0.043017  0.514228  0.915695  1
  O  O50  1  0.962454  0.169366  0.350601  1
  O  O51  1  0.336598  0.596719  0.454276  1
  O  O52  1  0.727082  0.378688  0.307142  1
  O  O53  1  0.020929  0.050789  0.582531  1
  O  O54  1  0.865730  0.262537  0.644576  1
  O  O55  1  0.663402  0.403281  0.545724  1
  O  O56  1  0.402826  0.390976  0.192412  1
  O  O57  1  0.433644  0.064917  0.899315  1
  O  O58  1  0.433644  0.935083  0.600685  1
  O  O59  1  0.272918  0.621312  0.692858  1
  O  O60  1  0.597174  0.609024  0.807588  1
  O  O61  1  0.865730  0.737463  0.855424  1
  O  O62  1  0.922075  0.705539  0.451781  1
  O  O63  1  0.776165  0.189688  0.494976  1
  O  O64  1  0.663402  0.596719  0.954276  1
  O  O65  1  0.043017  0.485772  0.584305  1
  O  O66  1  0.077925  0.294461  0.548219  1
  O  O67  1  0.223835  0.810312  0.505024  1
  O  O68  1  0.236978  0.179854  0.482200  1
  O  O69  1  0.196365  0.624880  0.183538  1
  O  O70  1  0.727082  0.621312  0.192858  1
  O  O71  1  0.236978  0.820146  0.017800  1
  O  O72  1  0.196365  0.375120  0.316462  1
  O  O73  1  0.776165  0.810312  0.005024  1
  O  O74  1  0.272918  0.378688  0.807142  1
  O  O75  1  0.011935  0.699708  0.762729  1
  O  O76  1  0.956983  0.514228  0.415695  1
  O  O77  1  0.335031  0.854617  0.255432  1
  O  O78  1  0.134270  0.737463  0.355424  1
  O  O79  1  0.803635  0.375120  0.816462  1
  O  O80  1  0.962454  0.830634  0.149399  1
  O  O81  1  0.979071  0.949211  0.417469  1
  O  O82  1  0.134270  0.262537  0.144576  1
  O  O83  1  0.988065  0.300292  0.237271  1
  O  O84  1  0.566356  0.935083  0.100685  1
  O  O85  1  0.803635  0.624880  0.683538  1
  O  O86  1  0.077925  0.705539  0.951781  1
  O  O87  1  0.037546  0.169366  0.850601  1
  O  O88  1  0.231799  0.994791  0.816011  1
  O  O89  1  0.402826  0.609024  0.307588  1
