# generated using pymatgen
data_Pr14Ni5Rh
_symmetry_space_group_name_H-M   'P 1'
_cell_length_a   6.46003917
_cell_length_b   10.05595089
_cell_length_c   10.05595054
_cell_angle_alpha   120.26963962
_cell_angle_beta   89.78485360
_cell_angle_gamma   90.21514505
_symmetry_Int_Tables_number   1
_chemical_formula_structural   Pr14Ni5Rh
_chemical_formula_sum   'Pr14 Ni5 Rh1'
_cell_volume   564.18502224
_cell_formula_units_Z   1
loop_
 _symmetry_equiv_pos_site_id
 _symmetry_equiv_pos_as_xyz
  1  'x, y, z'
loop_
 _atom_site_type_symbol
 _atom_site_label
 _atom_site_symmetry_multiplicity
 _atom_site_fract_x
 _atom_site_fract_y
 _atom_site_fract_z
 _atom_site_occupancy
  Pr  Pr0  1  0.463540  0.333418  0.666582  1
  Pr  Pr1  1  0.964221  0.665635  0.334365  1
  Pr  Pr2  1  0.247792  0.126514  0.873486  1
  Pr  Pr3  1  0.247282  0.747667  0.872056  1
  Pr  Pr4  1  0.247282  0.127944  0.252333  1
  Pr  Pr5  1  0.745917  0.874449  0.125551  1
  Pr  Pr6  1  0.747666  0.252369  0.125681  1
  Pr  Pr7  1  0.747666  0.874319  0.747631  1
  Pr  Pr8  1  0.437196  0.539255  0.460745  1
  Pr  Pr9  1  0.438753  0.921657  0.463079  1
  Pr  Pr10  1  0.438753  0.536921  0.078343  1
  Pr  Pr11  1  0.935219  0.460559  0.539441  1
  Pr  Pr12  1  0.936952  0.078801  0.539413  1
  Pr  Pr13  1  0.936952  0.460587  0.921199  1
  Ni  Ni14  1  0.191763  0.376200  0.188557  1
  Ni  Ni15  1  0.191763  0.811443  0.623800  1
  Ni  Ni16  1  0.691784  0.188101  0.811899  1
  Ni  Ni17  1  0.692380  0.623801  0.811799  1
  Ni  Ni18  1  0.692380  0.188201  0.376199  1
  Rh  Rh19  1  0.190744  0.812157  0.187843  1
