# generated using pymatgen
data_La6TbY3(Sn5Ir2)4
_symmetry_space_group_name_H-M   'P 1'
_cell_length_a   14.18580000
_cell_length_b   14.18615000
_cell_length_c   4.65466500
_cell_angle_alpha   90.00000000
_cell_angle_beta   90.00000000
_cell_angle_gamma   89.99927300
_symmetry_Int_Tables_number   1
_chemical_formula_structural   La6TbY3(Sn5Ir2)4
_chemical_formula_sum   'La6 Tb1 Y3 Sn20 Ir8'
_cell_volume   936.71356638
_cell_formula_units_Z   1
loop_
 _symmetry_equiv_pos_site_id
 _symmetry_equiv_pos_as_xyz
  1  'x, y, z'
loop_
 _atom_site_type_symbol
 _atom_site_label
 _atom_site_symmetry_multiplicity
 _atom_site_fract_x
 _atom_site_fract_y
 _atom_site_fract_z
 _atom_site_occupancy
  La  La0  1  0.500007  0.499964  0.000000  1
  La  La1  1  0.999967  0.000000  0.000000  1
  La  La2  1  0.886946  0.386940  0.500000  1
  La  La3  1  0.113044  0.613045  0.500000  1
  La  La4  1  0.386923  0.113085  0.500000  1
  La  La5  1  0.613084  0.886915  0.500000  1
  Tb  Tb6  1  0.675600  0.175600  0.500000  1
  Y  Y7  1  0.324471  0.824469  0.500000  1
  Y  Y8  1  0.175496  0.324428  0.500000  1
  Y  Y9  1  0.824429  0.675500  0.500000  1
  Sn  Sn10  1  0.569940  0.069941  0.000000  1
  Sn  Sn11  1  0.429973  0.929974  0.000000  1
  Sn  Sn12  1  0.070030  0.429990  0.000000  1
  Sn  Sn13  1  0.929992  0.570031  0.000000  1
  Sn  Sn14  1  0.655418  0.698285  0.000000  1
  Sn  Sn15  1  0.344589  0.301751  0.000000  1
  Sn  Sn16  1  0.155395  0.801706  0.000000  1
  Sn  Sn17  1  0.844643  0.198345  0.000000  1
  Sn  Sn18  1  0.301701  0.655391  0.000000  1
  Sn  Sn19  1  0.698344  0.344648  0.000000  1
  Sn  Sn20  1  0.198288  0.155421  0.000000  1
  Sn  Sn21  1  0.801751  0.844594  0.000000  1
  Sn  Sn22  1  0.663430  0.506304  0.500000  1
  Sn  Sn23  1  0.336630  0.493597  0.500000  1
  Sn  Sn24  1  0.163404  0.993661  0.500000  1
  Sn  Sn25  1  0.836609  0.006287  0.500000  1
  Sn  Sn26  1  0.493665  0.663406  0.500000  1
  Sn  Sn27  1  0.506287  0.336609  0.500000  1
  Sn  Sn28  1  0.006304  0.163434  0.500000  1
  Sn  Sn29  1  0.993591  0.836631  0.500000  1
  Ir  Ir30  1  0.747261  0.529498  0.000000  1
  Ir  Ir31  1  0.252732  0.470601  0.000000  1
  Ir  Ir32  1  0.247250  0.970512  0.000000  1
  Ir  Ir33  1  0.752777  0.029414  0.000000  1
  Ir  Ir34  1  0.470515  0.747252  0.000000  1
  Ir  Ir35  1  0.529414  0.252776  0.000000  1
  Ir  Ir36  1  0.029500  0.247265  0.000000  1
  Ir  Ir37  1  0.970598  0.752731  0.000000  1
