# generated using pymatgen
data_Rb2SbP2S7
_symmetry_space_group_name_H-M   'P 1'
_cell_length_a   9.37922844
_cell_length_b   9.37922927
_cell_length_c   9.20878249
_cell_angle_alpha   74.80379411
_cell_angle_beta   74.80379013
_cell_angle_gamma   71.80152531
_symmetry_Int_Tables_number   1
_chemical_formula_structural   Rb2SbP2S7
_chemical_formula_sum   'Rb4 Sb2 P4 S14'
_cell_volume   728.16802955
_cell_formula_units_Z   2
loop_
 _symmetry_equiv_pos_site_id
 _symmetry_equiv_pos_as_xyz
  1  'x, y, z'
loop_
 _atom_site_type_symbol
 _atom_site_label
 _atom_site_symmetry_multiplicity
 _atom_site_fract_x
 _atom_site_fract_y
 _atom_site_fract_z
 _atom_site_occupancy
  Rb  Rb0  1  0.607857  0.052228  0.163795  1
  Rb  Rb1  1  0.947772  0.392143  0.836205  1
  Rb  Rb2  1  0.392143  0.947772  0.836205  1
  Rb  Rb3  1  0.052228  0.607857  0.163795  1
  Sb  Sb4  1  0.681335  0.318665  0.500000  1
  Sb  Sb5  1  0.318665  0.681335  0.500000  1
  P  P6  1  0.943971  0.943971  0.440223  1
  P  P7  1  0.056029  0.056029  0.559777  1
  P  P8  1  0.389147  0.389147  0.817105  1
  P  P9  1  0.610853  0.610853  0.182895  1
  S  S10  1  0.690945  0.377988  0.189926  1
  S  S11  1  0.622012  0.309055  0.810074  1
  S  S12  1  0.309055  0.622012  0.810074  1
  S  S13  1  0.377988  0.690945  0.189926  1
  S  S14  1  0.995719  0.995719  0.213570  1
  S  S15  1  0.004281  0.004281  0.786430  1
  S  S16  1  0.712910  0.017134  0.531865  1
  S  S17  1  0.982866  0.287090  0.468135  1
  S  S18  1  0.287090  0.982866  0.468135  1
  S  S19  1  0.017134  0.712910  0.531865  1
  S  S20  1  0.273557  0.273557  0.000629  1
  S  S21  1  0.726443  0.726443  0.999371  1
  S  S22  1  0.354909  0.354909  0.612579  1
  S  S23  1  0.645091  0.645091  0.387421  1
