# generated using pymatgen
data_Dy6Ho5Er3Tm2(CdIr)4
_symmetry_space_group_name_H-M   'P 1'
_cell_length_a   9.59493337
_cell_length_b   9.58368384
_cell_length_c   9.58195511
_cell_angle_alpha   59.96412418
_cell_angle_beta   59.96709766
_cell_angle_gamma   59.94924405
_symmetry_Int_Tables_number   1
_chemical_formula_structural   Dy6Ho5Er3Tm2(CdIr)4
_chemical_formula_sum   'Dy6 Ho5 Er3 Tm2 Cd4 Ir4'
_cell_volume   622.47360842
_cell_formula_units_Z   1
loop_
 _symmetry_equiv_pos_site_id
 _symmetry_equiv_pos_as_xyz
  1  'x, y, z'
loop_
 _atom_site_type_symbol
 _atom_site_label
 _atom_site_symmetry_multiplicity
 _atom_site_fract_x
 _atom_site_fract_y
 _atom_site_fract_z
 _atom_site_occupancy
  Dy  Dy0  1  0.188110  0.811890  0.811890  1
  Dy  Dy1  1  0.811640  0.188360  0.188360  1
  Dy  Dy2  1  0.811513  0.188461  0.812048  1
  Dy  Dy3  1  0.187977  0.812048  0.188461  1
  Dy  Dy4  1  0.811557  0.812092  0.188443  1
  Dy  Dy5  1  0.187908  0.188443  0.812092  1
  Ho  Ho6  1  0.598198  0.599280  0.599559  1
  Ho  Ho7  1  0.598879  0.599774  0.202187  1
  Ho  Ho8  1  0.599162  0.202187  0.599774  1
  Ho  Ho9  1  0.202964  0.599559  0.599280  1
  Ho  Ho10  1  0.061813  0.438187  0.438187  1
  Er  Er11  1  0.438161  0.061839  0.061839  1
  Er  Er12  1  0.439020  0.061043  0.437599  1
  Er  Er13  1  0.062340  0.437599  0.061043  1
  Tm  Tm14  1  0.439137  0.437642  0.061023  1
  Tm  Tm15  1  0.062200  0.061023  0.437642  1
  Cd  Cd16  1  0.830704  0.830391  0.830265  1
  Cd  Cd17  1  0.830762  0.830563  0.508022  1
  Cd  Cd18  1  0.830651  0.508022  0.830563  1
  Cd  Cd19  1  0.508641  0.830265  0.830391  1
  Ir  Ir20  1  0.391892  0.392096  0.391550  1
  Ir  Ir21  1  0.391429  0.392445  0.825244  1
  Ir  Ir22  1  0.390884  0.825244  0.392445  1
  Ir  Ir23  1  0.824463  0.391550  0.392096  1
