# generated using pymatgen
data_PrHo2Th(Al3Ir)6
_symmetry_space_group_name_H-M   'P 1'
_cell_length_a   7.59748191
_cell_length_b   7.60035119
_cell_length_c   9.52124200
_cell_angle_alpha   90.00000000
_cell_angle_beta   90.00000000
_cell_angle_gamma   119.49227194
_symmetry_Int_Tables_number   1
_chemical_formula_structural   PrHo2Th(Al3Ir)6
_chemical_formula_sum   'Pr1 Ho2 Th1 Al18 Ir6'
_cell_volume   478.54948263
_cell_formula_units_Z   1
loop_
 _symmetry_equiv_pos_site_id
 _symmetry_equiv_pos_as_xyz
  1  'x, y, z'
loop_
 _atom_site_type_symbol
 _atom_site_label
 _atom_site_symmetry_multiplicity
 _atom_site_fract_x
 _atom_site_fract_y
 _atom_site_fract_z
 _atom_site_occupancy
  Pr  Pr0  1  0.671258  0.994370  0.250000  1
  Ho  Ho1  1  0.003860  0.328658  0.750000  1
  Ho  Ho2  1  0.327787  0.004225  0.750000  1
  Th  Th3  1  0.995215  0.670848  0.250000  1
  Al  Al4  1  0.133823  0.133446  0.250000  1
  Al  Al5  1  0.872309  0.873726  0.750000  1
  Al  Al6  1  0.003667  0.333171  0.069712  1
  Al  Al7  1  0.999261  0.664322  0.918698  1
  Al  Al8  1  0.999261  0.664322  0.581302  1
  Al  Al9  1  0.337830  0.005292  0.430339  1
  Al  Al10  1  0.003667  0.333171  0.430288  1
  Al  Al11  1  0.664573  0.000305  0.578349  1
  Al  Al12  1  0.664573  0.000305  0.921651  1
  Al  Al13  1  0.337830  0.005292  0.069661  1
  Al  Al14  1  0.332300  0.332300  0.555798  1
  Al  Al15  1  0.663291  0.664950  0.457046  1
  Al  Al16  1  0.663291  0.664950  0.042954  1
  Al  Al17  1  0.332300  0.332300  0.944202  1
  Al  Al18  1  0.341074  0.545449  0.250000  1
  Al  Al19  1  0.658157  0.449346  0.750000  1
  Al  Al20  1  0.544259  0.339350  0.250000  1
  Al  Al21  1  0.449185  0.660126  0.750000  1
  Ir  Ir22  1  0.672989  0.329812  0.999600  1
  Ir  Ir23  1  0.326114  0.670876  0.999490  1
  Ir  Ir24  1  0.326114  0.670876  0.500510  1
  Ir  Ir25  1  0.672989  0.329812  0.500400  1
  Ir  Ir26  1  0.001510  0.999200  0.999453  1
  Ir  Ir27  1  0.001510  0.999200  0.500547  1
