# generated using pymatgen
data_Hf6Mn(Tl2Cl9)2
_symmetry_space_group_name_H-M   'P 1'
_cell_length_a   10.18491353
_cell_length_b   10.37320172
_cell_length_c   10.44701900
_cell_angle_alpha   118.31842217
_cell_angle_beta   100.94822566
_cell_angle_gamma   103.76693468
_symmetry_Int_Tables_number   1
_chemical_formula_structural   Hf6Mn(Tl2Cl9)2
_chemical_formula_sum   'Hf6 Mn1 Tl4 Cl18'
_cell_volume   882.56305508
_cell_formula_units_Z   1
loop_
 _symmetry_equiv_pos_site_id
 _symmetry_equiv_pos_as_xyz
  1  'x, y, z'
loop_
 _atom_site_type_symbol
 _atom_site_label
 _atom_site_symmetry_multiplicity
 _atom_site_fract_x
 _atom_site_fract_y
 _atom_site_fract_z
 _atom_site_occupancy
  Hf  Hf0  1  0.153829  0.057274  0.233500  1
  Hf  Hf1  1  0.846171  0.942726  0.766500  1
  Hf  Hf2  1  0.855357  0.131243  0.137759  1
  Hf  Hf3  1  0.144643  0.868757  0.862241  1
  Hf  Hf4  1  0.151919  0.249197  0.046661  1
  Hf  Hf5  1  0.848081  0.750803  0.953339  1
  Mn  Mn6  1  0.000000  0.000000  0.000000  1
  Tl  Tl7  1  0.655326  0.537865  0.228624  1
  Tl  Tl8  1  0.344674  0.462135  0.771376  1
  Tl  Tl9  1  0.686943  0.224589  0.561819  1
  Tl  Tl10  1  0.313057  0.775411  0.438181  1
  Cl  Cl11  1  0.009697  0.403883  0.194167  1
  Cl  Cl12  1  0.990303  0.596117  0.805833  1
  Cl  Cl13  1  0.325938  0.327790  0.305604  1
  Cl  Cl14  1  0.674062  0.672210  0.694396  1
  Cl  Cl15  1  0.324808  0.518217  0.101032  1
  Cl  Cl16  1  0.675192  0.481783  0.898968  1
  Cl  Cl17  1  0.005487  0.799736  0.205865  1
  Cl  Cl18  1  0.994513  0.200264  0.794135  1
  Cl  Cl19  1  0.705492  0.274228  0.287445  1
  Cl  Cl20  1  0.294508  0.725772  0.712555  1
  Cl  Cl21  1  0.313105  0.126363  0.905652  1
  Cl  Cl22  1  0.686895  0.873637  0.094348  1
  Cl  Cl23  1  0.016858  0.200792  0.400251  1
  Cl  Cl24  1  0.983142  0.799208  0.599749  1
  Cl  Cl25  1  0.316471  0.923847  0.108865  1
  Cl  Cl26  1  0.683529  0.076153  0.891135  1
  Cl  Cl27  1  0.334357  0.121725  0.496117  1
  Cl  Cl28  1  0.665643  0.878275  0.503883  1
