# generated using pymatgen
data_Ta8Nb4Al3Au5N4
_symmetry_space_group_name_H-M   'P 1'
_cell_length_a   7.12108799
_cell_length_b   7.10261329
_cell_length_c   7.10428086
_cell_angle_alpha   90.06705459
_cell_angle_beta   89.85420620
_cell_angle_gamma   89.97140104
_symmetry_Int_Tables_number   1
_chemical_formula_structural   Ta8Nb4Al3Au5N4
_chemical_formula_sum   'Ta8 Nb4 Al3 Au5 N4'
_cell_volume   359.32123688
_cell_formula_units_Z   1
loop_
 _symmetry_equiv_pos_site_id
 _symmetry_equiv_pos_as_xyz
  1  'x, y, z'
loop_
 _atom_site_type_symbol
 _atom_site_label
 _atom_site_symmetry_multiplicity
 _atom_site_fract_x
 _atom_site_fract_y
 _atom_site_fract_z
 _atom_site_occupancy
  Ta  Ta0  1  0.786530  0.957652  0.376428  1
  Ta  Ta1  1  0.712436  0.043781  0.879136  1
  Ta  Ta2  1  0.212340  0.458333  0.126166  1
  Ta  Ta3  1  0.292241  0.540293  0.625825  1
  Ta  Ta4  1  0.954526  0.377542  0.786466  1
  Ta  Ta5  1  0.044040  0.874992  0.714904  1
  Ta  Ta6  1  0.458267  0.127327  0.209442  1
  Ta  Ta7  1  0.543396  0.628047  0.286044  1
  Nb  Nb8  1  0.372673  0.787424  0.956327  1
  Nb  Nb9  1  0.873946  0.709161  0.042465  1
  Nb  Nb10  1  0.124359  0.214210  0.455717  1
  Nb  Nb11  1  0.621645  0.286737  0.544508  1
  Al  Al12  1  0.426877  0.928479  0.569013  1
  Al  Al13  1  0.931107  0.572744  0.428166  1
  Al  Al14  1  0.071769  0.068620  0.073249  1
  Au  Au15  1  0.179047  0.820652  0.322513  1
  Au  Au16  1  0.309538  0.169629  0.817804  1
  Au  Au17  1  0.830851  0.316363  0.188487  1
  Au  Au18  1  0.683328  0.689794  0.668521  1
  Au  Au19  1  0.568244  0.430895  0.931946  1
  N  N20  1  0.875156  0.122679  0.628184  1
  N  N21  1  0.622945  0.877135  0.122931  1
  N  N22  1  0.125238  0.617636  0.874193  1
  N  N23  1  0.379499  0.379876  0.371564  1
