# generated using pymatgen
data_Sr3GdCrO6
_symmetry_space_group_name_H-M   'P 1'
_cell_length_a   6.88655233
_cell_length_b   6.88655357
_cell_length_c   6.88655363
_cell_angle_alpha   91.87389028
_cell_angle_beta   91.87389402
_cell_angle_gamma   91.87389126
_symmetry_Int_Tables_number   1
_chemical_formula_structural   Sr3GdCrO6
_chemical_formula_sum   'Sr6 Gd2 Cr2 O12'
_cell_volume   326.05644753
_cell_formula_units_Z   2
loop_
 _symmetry_equiv_pos_site_id
 _symmetry_equiv_pos_as_xyz
  1  'x, y, z'
loop_
 _atom_site_type_symbol
 _atom_site_label
 _atom_site_symmetry_multiplicity
 _atom_site_fract_x
 _atom_site_fract_y
 _atom_site_fract_z
 _atom_site_occupancy
  Sr  Sr0  1  0.250000  0.884099  0.615901  1
  Sr  Sr1  1  0.884099  0.615901  0.250000  1
  Sr  Sr2  1  0.750000  0.115901  0.384099  1
  Sr  Sr3  1  0.384099  0.750000  0.115901  1
  Sr  Sr4  1  0.115901  0.384099  0.750000  1
  Sr  Sr5  1  0.615901  0.250000  0.884099  1
  Gd  Gd6  1  0.750000  0.750000  0.750000  1
  Gd  Gd7  1  0.250000  0.250000  0.250000  1
  Cr  Cr8  1  0.500000  0.500000  0.500000  1
  Cr  Cr9  1  0.000000  0.000000  0.000000  1
  O  O10  1  0.587292  0.784832  0.454112  1
  O  O11  1  0.454112  0.587292  0.784832  1
  O  O12  1  0.784832  0.454112  0.587292  1
  O  O13  1  0.912708  0.045888  0.715168  1
  O  O14  1  0.715168  0.912708  0.045888  1
  O  O15  1  0.045888  0.715168  0.912708  1
  O  O16  1  0.412708  0.215168  0.545888  1
  O  O17  1  0.545888  0.412708  0.215168  1
  O  O18  1  0.215168  0.545888  0.412708  1
  O  O19  1  0.087292  0.954112  0.284832  1
  O  O20  1  0.954112  0.284832  0.087292  1
  O  O21  1  0.284832  0.087292  0.954112  1
