# generated using pymatgen
data_Yb2Er2TmRu2
_symmetry_space_group_name_H-M   'P 1'
_cell_length_a   6.38447985
_cell_length_b   7.19825304
_cell_length_c   8.46590814
_cell_angle_alpha   97.40301379
_cell_angle_beta   112.15232025
_cell_angle_gamma   90.00000403
_symmetry_Int_Tables_number   1
_chemical_formula_structural   Yb2Er2TmRu2
_chemical_formula_sum   'Yb4 Er4 Tm2 Ru4'
_cell_volume   356.84533970
_cell_formula_units_Z   2
loop_
 _symmetry_equiv_pos_site_id
 _symmetry_equiv_pos_as_xyz
  1  'x, y, z'
loop_
 _atom_site_type_symbol
 _atom_site_label
 _atom_site_symmetry_multiplicity
 _atom_site_fract_x
 _atom_site_fract_y
 _atom_site_fract_z
 _atom_site_occupancy
  Yb  Yb0  1  0.794844  0.079003  0.816447  1
  Yb  Yb1  1  0.978397  0.420997  0.183553  1
  Yb  Yb2  1  0.205156  0.920997  0.183553  1
  Yb  Yb3  1  0.021603  0.579003  0.816447  1
  Er  Er4  1  0.197886  0.183973  0.566184  1
  Er  Er5  1  0.631703  0.316027  0.433816  1
  Er  Er6  1  0.802114  0.816027  0.433816  1
  Er  Er7  1  0.368297  0.683973  0.566184  1
  Tm  Tm8  1  0.432000  0.250000  0.000000  1
  Tm  Tm9  1  0.568000  0.750000  0.000000  1
  Ru  Ru10  1  0.581846  0.424837  0.768732  1
  Ru  Ru11  1  0.813114  0.075163  0.231268  1
  Ru  Ru12  1  0.418154  0.575163  0.231268  1
  Ru  Ru13  1  0.186886  0.924837  0.768732  1
