# generated using pymatgen
data_Lu12InTc3Hg
_symmetry_space_group_name_H-M   'P 1'
_cell_length_a   8.28365745
_cell_length_b   8.28365779
_cell_length_c   8.28365732
_cell_angle_alpha   107.97978952
_cell_angle_beta   109.99712470
_cell_angle_gamma   110.44728150
_symmetry_Int_Tables_number   1
_chemical_formula_structural   Lu12InTc3Hg
_chemical_formula_sum   'Lu12 In1 Tc3 Hg1'
_cell_volume   437.33839784
_cell_formula_units_Z   1
loop_
 _symmetry_equiv_pos_site_id
 _symmetry_equiv_pos_as_xyz
  1  'x, y, z'
loop_
 _atom_site_type_symbol
 _atom_site_label
 _atom_site_symmetry_multiplicity
 _atom_site_fract_x
 _atom_site_fract_y
 _atom_site_fract_z
 _atom_site_occupancy
  Lu  Lu0  1  0.306410  0.307335  0.613745  1
  Lu  Lu1  1  0.693590  0.692665  0.386255  1
  Lu  Lu2  1  0.693590  0.307335  0.000925  1
  Lu  Lu3  1  0.306410  0.692665  0.999075  1
  Lu  Lu4  1  0.187700  0.423724  0.236023  1
  Lu  Lu5  1  0.812300  0.576276  0.763977  1
  Lu  Lu6  1  0.187700  0.951676  0.763977  1
  Lu  Lu7  1  0.944698  0.189432  0.755268  1
  Lu  Lu8  1  0.812300  0.048324  0.236023  1
  Lu  Lu9  1  0.055302  0.810568  0.244732  1
  Lu  Lu10  1  0.434164  0.189432  0.244732  1
  Lu  Lu11  1  0.565836  0.810568  0.755268  1
  In  In12  1  0.000000  0.500000  0.500000  1
  Tc  Tc13  1  0.368432  0.368432  0.000000  1
  Tc  Tc14  1  0.631568  0.631568  0.000000  1
  Tc  Tc15  1  0.000000  0.000000  0.000000  1
  Hg  Hg16  1  0.500000  0.000000  0.500000  1
