# generated using pymatgen
data_Y5TcOsO12
_symmetry_space_group_name_H-M   'P 1'
_cell_length_a   6.87571642
_cell_length_b   6.87571746
_cell_length_c   7.53341900
_cell_angle_alpha   73.88723426
_cell_angle_beta   73.88723313
_cell_angle_gamma   48.69763623
_symmetry_Int_Tables_number   1
_chemical_formula_structural   Y5TcOsO12
_chemical_formula_sum   'Y5 Tc1 Os1 O12'
_cell_volume   254.83407280
_cell_formula_units_Z   1
loop_
 _symmetry_equiv_pos_site_id
 _symmetry_equiv_pos_as_xyz
  1  'x, y, z'
loop_
 _atom_site_type_symbol
 _atom_site_label
 _atom_site_symmetry_multiplicity
 _atom_site_fract_x
 _atom_site_fract_y
 _atom_site_fract_z
 _atom_site_occupancy
  Y  Y0  1  0.499384  0.500616  0.500000  1
  Y  Y1  1  0.184786  0.187219  0.172996  1
  Y  Y2  1  0.812781  0.815214  0.827004  1
  Y  Y3  1  0.801052  0.805056  0.357518  1
  Y  Y4  1  0.194944  0.198948  0.642482  1
  Tc  Tc5  1  0.288938  0.711062  0.000000  1
  Os  Os6  1  0.719131  0.280869  0.000000  1
  O  O7  1  0.996901  0.000811  0.175079  1
  O  O8  1  0.999189  0.003099  0.824921  1
  O  O9  1  0.500881  0.497444  0.796817  1
  O  O10  1  0.502556  0.499119  0.203183  1
  O  O11  1  0.597127  0.095253  0.574189  1
  O  O12  1  0.904747  0.402873  0.425811  1
  O  O13  1  0.400458  0.904498  0.427213  1
  O  O14  1  0.410685  0.915804  0.916392  1
  O  O15  1  0.084196  0.589315  0.083608  1
  O  O16  1  0.586685  0.079944  0.084556  1
  O  O17  1  0.920056  0.413315  0.915444  1
  O  O18  1  0.095502  0.599542  0.572787  1
