# generated using pymatgen
data_PrSmFe6(B4Os)2
_symmetry_space_group_name_H-M   'P 1'
_cell_length_a   7.11594873
_cell_length_b   7.30176098
_cell_length_c   3.87239300
_cell_angle_alpha   90.00000000
_cell_angle_beta   90.00000000
_cell_angle_gamma   91.35180737
_symmetry_Int_Tables_number   1
_chemical_formula_structural   PrSmFe6(B4Os)2
_chemical_formula_sum   'Pr1 Sm1 Fe6 B8 Os2'
_cell_volume   201.14950210
_cell_formula_units_Z   1
loop_
 _symmetry_equiv_pos_site_id
 _symmetry_equiv_pos_as_xyz
  1  'x, y, z'
loop_
 _atom_site_type_symbol
 _atom_site_label
 _atom_site_symmetry_multiplicity
 _atom_site_fract_x
 _atom_site_fract_y
 _atom_site_fract_z
 _atom_site_occupancy
  Pr  Pr0  1  0.500000  0.500000  0.429406  1
  Sm  Sm1  1  0.000000  0.000000  0.934718  1
  Fe  Fe2  1  0.891729  0.346496  0.395345  1
  Fe  Fe3  1  0.108271  0.653504  0.395345  1
  Fe  Fe4  1  0.376980  0.109970  0.619303  1
  Fe  Fe5  1  0.623020  0.890030  0.619303  1
  Fe  Fe6  1  0.618920  0.123224  0.119958  1
  Fe  Fe7  1  0.381080  0.876776  0.119958  1
  B  B8  1  0.661149  0.818123  0.118678  1
  B  B9  1  0.338851  0.181877  0.118678  1
  B  B10  1  0.310166  0.834540  0.617015  1
  B  B11  1  0.689834  0.165460  0.617015  1
  B  B12  1  0.829895  0.731995  0.401817  1
  B  B13  1  0.170105  0.268005  0.401817  1
  B  B14  1  0.209818  0.671518  0.899019  1
  B  B15  1  0.790182  0.328482  0.899019  1
  Os  Os16  1  0.145116  0.387670  0.896803  1
  Os  Os17  1  0.854884  0.612330  0.896803  1
