# generated using pymatgen
data_Y19Ho(Ir5Pt)2
_symmetry_space_group_name_H-M   'P 1'
_cell_length_a   10.98672624
_cell_length_b   10.98577783
_cell_length_c   6.36531731
_cell_angle_alpha   90.02071331
_cell_angle_beta   89.98376494
_cell_angle_gamma   90.03949003
_symmetry_Int_Tables_number   1
_chemical_formula_structural   Y19Ho(Ir5Pt)2
_chemical_formula_sum   'Y19 Ho1 Ir10 Pt2'
_cell_volume   768.27910892
_cell_formula_units_Z   1
loop_
 _symmetry_equiv_pos_site_id
 _symmetry_equiv_pos_as_xyz
  1  'x, y, z'
loop_
 _atom_site_type_symbol
 _atom_site_label
 _atom_site_symmetry_multiplicity
 _atom_site_fract_x
 _atom_site_fract_y
 _atom_site_fract_z
 _atom_site_occupancy
  Y  Y0  1  0.291647  0.088232  0.376334  1
  Y  Y1  1  0.291538  0.911598  0.876243  1
  Y  Y2  1  0.704896  0.090299  0.874024  1
  Y  Y3  1  0.704821  0.909918  0.374071  1
  Y  Y4  1  0.584385  0.790955  0.878424  1
  Y  Y5  1  0.584126  0.209300  0.378520  1
  Y  Y6  1  0.410717  0.791237  0.377953  1
  Y  Y7  1  0.410409  0.208483  0.877820  1
  Y  Y8  1  0.209142  0.411610  0.621726  1
  Y  Y9  1  0.208997  0.588783  0.121727  1
  Y  Y10  1  0.791060  0.414463  0.122857  1
  Y  Y11  1  0.790906  0.585107  0.622776  1
  Y  Y12  1  0.913733  0.707133  0.126656  1
  Y  Y13  1  0.913822  0.292799  0.626489  1
  Y  Y14  1  0.091677  0.706344  0.622440  1
  Y  Y15  1  0.091828  0.293681  0.122599  1
  Y  Y16  1  0.002826  0.999167  0.500042  1
  Y  Y17  1  0.002763  0.000831  0.999952  1
  Y  Y18  1  0.500036  0.499381  0.999864  1
  Ho  Ho19  1  0.500035  0.500582  0.499844  1
  Ir  Ir20  1  0.153001  0.154004  0.749889  1
  Ir  Ir21  1  0.152896  0.846021  0.249874  1
  Ir  Ir22  1  0.654165  0.347180  0.747129  1
  Ir  Ir23  1  0.654056  0.653083  0.251293  1
  Ir  Ir24  1  0.347925  0.347192  0.252496  1
  Ir  Ir25  1  0.347875  0.652648  0.748404  1
  Ir  Ir26  1  0.500418  0.999833  0.125034  1
  Ir  Ir27  1  0.500425  0.000134  0.625182  1
  Ir  Ir28  1  0.999722  0.500231  0.875140  1
  Ir  Ir29  1  0.999722  0.499755  0.375066  1
  Pt  Pt30  1  0.845264  0.153445  0.250076  1
  Pt  Pt31  1  0.845172  0.846573  0.750055  1
