# generated using pymatgen
data_TaNb11Zn11GaN4
_symmetry_space_group_name_H-M   'P 1'
_cell_length_a   8.29493864
_cell_length_b   8.29493808
_cell_length_c   8.30830402
_cell_angle_alpha   60.00397345
_cell_angle_beta   60.00397650
_cell_angle_gamma   59.91094478
_symmetry_Int_Tables_number   1
_chemical_formula_structural   TaNb11Zn11GaN4
_chemical_formula_sum   'Ta1 Nb11 Zn11 Ga1 N4'
_cell_volume   403.97697802
_cell_formula_units_Z   1
loop_
 _symmetry_equiv_pos_site_id
 _symmetry_equiv_pos_as_xyz
  1  'x, y, z'
loop_
 _atom_site_type_symbol
 _atom_site_label
 _atom_site_symmetry_multiplicity
 _atom_site_fract_x
 _atom_site_fract_y
 _atom_site_fract_z
 _atom_site_occupancy
  Ta  Ta0  1  0.430042  0.430042  0.069374  1
  Nb  Nb1  1  0.069113  0.431583  0.067339  1
  Nb  Nb2  1  0.431583  0.069113  0.067339  1
  Nb  Nb3  1  0.067038  0.067038  0.432770  1
  Nb  Nb4  1  0.432743  0.067572  0.432784  1
  Nb  Nb5  1  0.067572  0.432743  0.432784  1
  Nb  Nb6  1  0.818463  0.818463  0.181727  1
  Nb  Nb7  1  0.181847  0.818034  0.182386  1
  Nb  Nb8  1  0.818034  0.181847  0.182386  1
  Nb  Nb9  1  0.181863  0.181863  0.817380  1
  Nb  Nb10  1  0.818949  0.181820  0.817189  1
  Nb  Nb11  1  0.181820  0.818949  0.817189  1
  Zn  Zn12  1  0.832439  0.501184  0.833893  1
  Zn  Zn13  1  0.501184  0.832439  0.833893  1
  Zn  Zn14  1  0.832402  0.832402  0.833922  1
  Zn  Zn15  1  0.417486  0.417486  0.747981  1
  Zn  Zn16  1  0.417701  0.747792  0.416901  1
  Zn  Zn17  1  0.747792  0.417701  0.416901  1
  Zn  Zn18  1  0.417712  0.417712  0.416585  1
  Zn  Zn19  1  0.624851  0.624851  0.125117  1
  Zn  Zn20  1  0.623217  0.126773  0.626772  1
  Zn  Zn21  1  0.126773  0.623217  0.626772  1
  Zn  Zn22  1  0.623156  0.623156  0.627010  1
  Ga  Ga23  1  0.833718  0.833718  0.498659  1
  N  N24  1  0.125741  0.125741  0.623000  1
  N  N25  1  0.127725  0.623535  0.123863  1
  N  N26  1  0.623535  0.127725  0.123863  1
  N  N27  1  0.125502  0.125502  0.124225  1
