# generated using pymatgen
data_Ba5Zn2(Sb2O)2
_symmetry_space_group_name_H-M   'P 1'
_cell_length_a   4.96959334
_cell_length_b   8.94477619
_cell_length_c   9.30230941
_cell_angle_alpha   84.59878467
_cell_angle_beta   74.50727774
_cell_angle_gamma   73.87147180
_symmetry_Int_Tables_number   1
_chemical_formula_structural   Ba5Zn2(Sb2O)2
_chemical_formula_sum   'Ba5 Zn2 Sb4 O2'
_cell_volume   382.70786536
_cell_formula_units_Z   1
loop_
 _symmetry_equiv_pos_site_id
 _symmetry_equiv_pos_as_xyz
  1  'x, y, z'
loop_
 _atom_site_type_symbol
 _atom_site_label
 _atom_site_symmetry_multiplicity
 _atom_site_fract_x
 _atom_site_fract_y
 _atom_site_fract_z
 _atom_site_occupancy
  Ba  Ba0  1  0.966120  0.358021  0.709737  1
  Ba  Ba1  1  0.033880  0.641979  0.290263  1
  Ba  Ba2  1  0.700392  0.950369  0.648846  1
  Ba  Ba3  1  0.299608  0.049631  0.351154  1
  Ba  Ba4  1  0.000000  0.000000  0.000000  1
  Zn  Zn5  1  0.738006  0.402909  0.121078  1
  Zn  Zn6  1  0.261994  0.597091  0.878922  1
  Sb  Sb7  1  0.649258  0.702261  0.999222  1
  Sb  Sb8  1  0.350742  0.297739  0.000778  1
  Sb  Sb9  1  0.610727  0.353982  0.424565  1
  Sb  Sb10  1  0.389273  0.646018  0.575435  1
  O  O11  1  0.872496  0.943912  0.311095  1
  O  O12  1  0.127504  0.056088  0.688905  1
