# generated using pymatgen
data_Hf4V5Re3
_symmetry_space_group_name_H-M   'P 1'
_cell_length_a   5.24753100
_cell_length_b   5.25635702
_cell_length_c   8.39455300
_cell_angle_alpha   90.00000000
_cell_angle_beta   90.00000000
_cell_angle_gamma   119.94446461
_symmetry_Int_Tables_number   1
_chemical_formula_structural   Hf4V5Re3
_chemical_formula_sum   'Hf4 V5 Re3'
_cell_volume   200.63691417
_cell_formula_units_Z   1
loop_
 _symmetry_equiv_pos_site_id
 _symmetry_equiv_pos_as_xyz
  1  'x, y, z'
loop_
 _atom_site_type_symbol
 _atom_site_label
 _atom_site_symmetry_multiplicity
 _atom_site_fract_x
 _atom_site_fract_y
 _atom_site_fract_z
 _atom_site_occupancy
  Hf  Hf0  1  0.333162  0.666324  0.060107  1
  Hf  Hf1  1  0.667469  0.334937  0.561877  1
  Hf  Hf2  1  0.667469  0.334937  0.938123  1
  Hf  Hf3  1  0.333162  0.666324  0.439893  1
  V  V4  1  0.827984  0.655970  0.250000  1
  V  V5  1  0.171412  0.832941  0.750000  1
  V  V6  1  0.661530  0.832941  0.750000  1
  V  V7  1  0.336621  0.165270  0.250000  1
  V  V8  1  0.828648  0.165270  0.250000  1
  Re  Re9  1  0.999762  0.999523  0.002285  1
  Re  Re10  1  0.999762  0.999523  0.497715  1
  Re  Re11  1  0.173020  0.346039  0.750000  1
