# generated using pymatgen
data_Sc4Ga4Ir3Pt
_symmetry_space_group_name_H-M   'P 1'
_cell_length_a   4.32535300
_cell_length_b   6.37719069
_cell_length_c   7.57943598
_cell_angle_alpha   89.91690316
_cell_angle_beta   90.00000000
_cell_angle_gamma   90.00000000
_symmetry_Int_Tables_number   1
_chemical_formula_structural   Sc4Ga4Ir3Pt
_chemical_formula_sum   'Sc4 Ga4 Ir3 Pt1'
_cell_volume   209.06791703
_cell_formula_units_Z   1
loop_
 _symmetry_equiv_pos_site_id
 _symmetry_equiv_pos_as_xyz
  1  'x, y, z'
loop_
 _atom_site_type_symbol
 _atom_site_label
 _atom_site_symmetry_multiplicity
 _atom_site_fract_x
 _atom_site_fract_y
 _atom_site_fract_z
 _atom_site_occupancy
  Sc  Sc0  1  0.250000  0.019929  0.316093  1
  Sc  Sc1  1  0.250000  0.527937  0.187679  1
  Sc  Sc2  1  0.750000  0.978487  0.685867  1
  Sc  Sc3  1  0.750000  0.480736  0.808034  1
  Ga  Ga4  1  0.250000  0.159178  0.933778  1
  Ga  Ga5  1  0.250000  0.660068  0.565918  1
  Ga  Ga6  1  0.750000  0.835666  0.064733  1
  Ga  Ga7  1  0.750000  0.340306  0.436573  1
  Ir  Ir8  1  0.250000  0.258984  0.610909  1
  Ir  Ir9  1  0.250000  0.757662  0.889991  1
  Ir  Ir10  1  0.750000  0.740783  0.388990  1
  Pt  Pt11  1  0.750000  0.240264  0.111436  1
