# generated using pymatgen
data_PrNd5Ga8Si3Ge
_symmetry_space_group_name_H-M   'P 1'
_cell_length_a   4.22236614
_cell_length_b   4.29603771
_cell_length_c   22.02651393
_cell_angle_alpha   84.40674771
_cell_angle_beta   84.49169505
_cell_angle_gamma   89.99906719
_symmetry_Int_Tables_number   1
_chemical_formula_structural   PrNd5Ga8Si3Ge
_chemical_formula_sum   'Pr1 Nd5 Ga8 Si3 Ge1'
_cell_volume   395.79261831
_cell_formula_units_Z   1
loop_
 _symmetry_equiv_pos_site_id
 _symmetry_equiv_pos_as_xyz
  1  'x, y, z'
loop_
 _atom_site_type_symbol
 _atom_site_label
 _atom_site_symmetry_multiplicity
 _atom_site_fract_x
 _atom_site_fract_y
 _atom_site_fract_z
 _atom_site_occupancy
  Pr  Pr0  1  0.958816  0.708861  0.082588  1
  Nd  Nd1  1  0.290725  0.040574  0.419052  1
  Nd  Nd2  1  0.624006  0.373701  0.752468  1
  Nd  Nd3  1  0.375944  0.626257  0.247608  1
  Nd  Nd4  1  0.708800  0.959123  0.581644  1
  Nd  Nd5  1  0.041022  0.291288  0.917345  1
  Ga  Ga6  1  0.819806  0.569846  0.360344  1
  Ga  Ga7  1  0.153004  0.902904  0.694081  1
  Ga  Ga8  1  0.431832  0.182096  0.135770  1
  Ga  Ga9  1  0.763660  0.514021  0.471815  1
  Ga  Ga10  1  0.096505  0.846921  0.806079  1
  Ga  Ga11  1  0.846422  0.096449  0.307045  1
  Ga  Ga12  1  0.180511  0.430508  0.639123  1
  Ga  Ga13  1  0.513441  0.763815  0.972559  1
  Si  Si14  1  0.235993  0.485458  0.528993  1
  Si  Si15  1  0.569261  0.818872  0.862560  1
  Si  Si16  1  0.487221  0.236874  0.026033  1
  Ge  Ge17  1  0.903030  0.152431  0.194891  1
