# generated using pymatgen
data_Ho16MgIn3IrPd3
_symmetry_space_group_name_H-M   'P 1'
_cell_length_a   9.65548167
_cell_length_b   9.65548034
_cell_length_c   9.67096213
_cell_angle_alpha   60.24084610
_cell_angle_beta   60.24085174
_cell_angle_gamma   60.13274306
_symmetry_Int_Tables_number   1
_chemical_formula_structural   Ho16MgIn3IrPd3
_chemical_formula_sum   'Ho16 Mg1 In3 Ir1 Pd3'
_cell_volume   640.48788451
_cell_formula_units_Z   1
loop_
 _symmetry_equiv_pos_site_id
 _symmetry_equiv_pos_as_xyz
  1  'x, y, z'
loop_
 _atom_site_type_symbol
 _atom_site_label
 _atom_site_symmetry_multiplicity
 _atom_site_fract_x
 _atom_site_fract_y
 _atom_site_fract_z
 _atom_site_occupancy
  Ho  Ho0  1  0.434952  0.434952  0.064123  1
  Ho  Ho1  1  0.646425  0.646425  0.061595  1
  Ho  Ho2  1  0.184090  0.810622  0.192383  1
  Ho  Ho3  1  0.064353  0.437346  0.062336  1
  Ho  Ho4  1  0.190409  0.809681  0.808710  1
  Ho  Ho5  1  0.064276  0.437757  0.432810  1
  Ho  Ho6  1  0.810622  0.184090  0.192383  1
  Ho  Ho7  1  0.651882  0.651882  0.645277  1
  Ho  Ho8  1  0.809681  0.190409  0.808710  1
  Ho  Ho9  1  0.189034  0.189034  0.809574  1
  Ho  Ho10  1  0.054106  0.650826  0.644189  1
  Ho  Ho11  1  0.437346  0.064353  0.062336  1
  Ho  Ho12  1  0.062280  0.062280  0.434985  1
  Ho  Ho13  1  0.650826  0.054106  0.644189  1
  Ho  Ho14  1  0.810003  0.810003  0.193833  1
  Ho  Ho15  1  0.437757  0.064276  0.432810  1
  Mg  Mg16  1  0.421306  0.421306  0.422197  1
  In  In17  1  0.417225  0.417225  0.747513  1
  In  In18  1  0.416465  0.748208  0.417653  1
  In  In19  1  0.748208  0.416465  0.417653  1
  Ir  Ir20  1  0.857493  0.857493  0.428915  1
  Pd  Pd21  1  0.430679  0.855665  0.858986  1
  Pd  Pd22  1  0.854916  0.854916  0.857850  1
  Pd  Pd23  1  0.855665  0.430679  0.858986  1
