# generated using pymatgen
data_YbCe2SmH11
_symmetry_space_group_name_H-M   'P 1'
_cell_length_a   6.62219461
_cell_length_b   6.62219337
_cell_length_c   6.62219288
_cell_angle_alpha   133.11418506
_cell_angle_beta   132.16209586
_cell_angle_gamma   69.22586381
_symmetry_Int_Tables_number   1
_chemical_formula_structural   YbCe2SmH11
_chemical_formula_sum   'Yb1 Ce2 Sm1 H11'
_cell_volume   154.20685497
_cell_formula_units_Z   1
loop_
 _symmetry_equiv_pos_site_id
 _symmetry_equiv_pos_as_xyz
  1  'x, y, z'
loop_
 _atom_site_type_symbol
 _atom_site_label
 _atom_site_symmetry_multiplicity
 _atom_site_fract_x
 _atom_site_fract_y
 _atom_site_fract_z
 _atom_site_occupancy
  Yb  Yb0  1  0.000000  0.500000  0.500000  1
  Ce  Ce1  1  0.260630  0.260630  0.000000  1
  Ce  Ce2  1  0.739370  0.739370  0.000000  1
  Sm  Sm3  1  0.500000  0.000000  0.500000  1
  H  H4  1  0.648854  0.113013  0.999868  1
  H  H5  1  0.351146  0.351014  0.464158  1
  H  H6  1  0.113145  0.648986  0.000132  1
  H  H7  1  0.886855  0.886987  0.535842  1
  H  H8  1  0.886855  0.351014  0.999868  1
  H  H9  1  0.648854  0.648986  0.535842  1
  H  H10  1  0.351146  0.886987  0.000132  1
  H  H11  1  0.113145  0.113013  0.464158  1
  H  H12  1  0.744873  0.244873  0.500000  1
  H  H13  1  0.500000  0.500000  0.000000  1
  H  H14  1  0.255127  0.755127  0.500000  1
