# generated using pymatgen
data_MgTa5Os6
_symmetry_space_group_name_H-M   'P 1'
_cell_length_a   13.61337239
_cell_length_b   3.13041000
_cell_length_c   4.54259449
_cell_angle_alpha   90.00000000
_cell_angle_beta   87.29990947
_cell_angle_gamma   90.00000000
_symmetry_Int_Tables_number   1
_chemical_formula_structural   MgTa5Os6
_chemical_formula_sum   'Mg1 Ta5 Os6'
_cell_volume   193.36973184
_cell_formula_units_Z   1
loop_
 _symmetry_equiv_pos_site_id
 _symmetry_equiv_pos_as_xyz
  1  'x, y, z'
loop_
 _atom_site_type_symbol
 _atom_site_label
 _atom_site_symmetry_multiplicity
 _atom_site_fract_x
 _atom_site_fract_y
 _atom_site_fract_z
 _atom_site_occupancy
  Mg  Mg0  1  0.583697  0.499999  0.240939  1
  Ta  Ta1  1  0.918262  0.499999  0.199758  1
  Ta  Ta2  1  0.251993  0.499999  0.291502  1
  Ta  Ta3  1  0.743051  0.499999  0.713348  1
  Ta  Ta4  1  0.078113  0.499999  0.787155  1
  Ta  Ta5  1  0.424034  0.499999  0.767238  1
  Os  Os6  1  0.751852  0.000000  0.210725  1
  Os  Os7  1  0.093038  0.000000  0.291539  1
  Os  Os8  1  0.413208  0.000000  0.269536  1
  Os  Os9  1  0.581659  0.000000  0.741642  1
  Os  Os10  1  0.906605  0.000000  0.694029  1
  Os  Os11  1  0.254487  0.000000  0.792593  1
