# generated using pymatgen
data_Ca4C5
_symmetry_space_group_name_H-M   'P 1'
_cell_length_a   3.87789709
_cell_length_b   7.20160189
_cell_length_c   7.76235759
_cell_angle_alpha   134.87990123
_cell_angle_beta   86.04131877
_cell_angle_gamma   90.75622389
_symmetry_Int_Tables_number   1
_chemical_formula_structural   Ca4C5
_chemical_formula_sum   'Ca4 C5'
_cell_volume   153.04749024
_cell_formula_units_Z   1
loop_
 _symmetry_equiv_pos_site_id
 _symmetry_equiv_pos_as_xyz
  1  'x, y, z'
loop_
 _atom_site_type_symbol
 _atom_site_label
 _atom_site_symmetry_multiplicity
 _atom_site_fract_x
 _atom_site_fract_y
 _atom_site_fract_z
 _atom_site_occupancy
  Ca  Ca0  1  0.683958  0.733098  0.156137  1
  Ca  Ca1  1  0.231201  0.130653  0.676426  1
  Ca  Ca2  1  0.671168  0.291478  0.216026  1
  Ca  Ca3  1  0.221831  0.716983  0.781439  1
  C  C4  1  0.721992  0.793061  0.528670  1
  C  C5  1  0.724612  0.938748  0.761163  1
  C  C6  1  0.134676  0.057198  0.257741  1
  C  C7  1  0.939307  0.233991  0.471977  1
  C  C8  1  0.756401  0.406361  0.689383  1
