# generated using pymatgen
data_Ni3Mo12Pd(PtN)4
_symmetry_space_group_name_H-M   'P 1'
_cell_length_a   6.81405174
_cell_length_b   6.81405174
_cell_length_c   6.81405174
_cell_angle_alpha   90.08489411
_cell_angle_beta   90.08489411
_cell_angle_gamma   90.08489411
_symmetry_Int_Tables_number   1
_chemical_formula_structural   Ni3Mo12Pd(PtN)4
_chemical_formula_sum   'Ni3 Mo12 Pd1 Pt4 N4'
_cell_volume   316.38424561
_cell_formula_units_Z   1
loop_
 _symmetry_equiv_pos_site_id
 _symmetry_equiv_pos_as_xyz
  1  'x, y, z'
loop_
 _atom_site_type_symbol
 _atom_site_label
 _atom_site_symmetry_multiplicity
 _atom_site_fract_x
 _atom_site_fract_y
 _atom_site_fract_z
 _atom_site_occupancy
  Ni  Ni0  1  0.687457  0.311557  0.809696  1
  Ni  Ni1  1  0.311557  0.809696  0.687457  1
  Ni  Ni2  1  0.809696  0.687457  0.311557  1
  Mo  Mo3  1  0.126209  0.801376  0.040798  1
  Mo  Mo4  1  0.378055  0.196837  0.548476  1
  Mo  Mo5  1  0.872802  0.305163  0.457695  1
  Mo  Mo6  1  0.624961  0.695901  0.956810  1
  Mo  Mo7  1  0.801376  0.040798  0.126209  1
  Mo  Mo8  1  0.196837  0.548476  0.378055  1
  Mo  Mo9  1  0.305163  0.457695  0.872802  1
  Mo  Mo10  1  0.695901  0.956810  0.624961  1
  Mo  Mo11  1  0.040798  0.126209  0.801376  1
  Mo  Mo12  1  0.548476  0.378055  0.196837  1
  Mo  Mo13  1  0.457695  0.872802  0.305163  1
  Mo  Mo14  1  0.956810  0.624961  0.695901  1
  Pd  Pd15  1  0.189442  0.189442  0.189442  1
  Pt  Pt16  1  0.059209  0.930310  0.442533  1
  Pt  Pt17  1  0.442533  0.059209  0.930310  1
  Pt  Pt18  1  0.930310  0.442533  0.059209  1
  Pt  Pt19  1  0.564221  0.564221  0.564221  1
  N  N20  1  0.374506  0.624593  0.126660  1
  N  N21  1  0.126660  0.374506  0.624593  1
  N  N22  1  0.624593  0.126660  0.374506  1
  N  N23  1  0.874735  0.874735  0.874735  1
