# generated using pymatgen
data_Ho3In3SnPtRh
_symmetry_space_group_name_H-M   'P 1'
_cell_length_a   7.85066500
_cell_length_b   7.85066670
_cell_length_c   3.85084100
_cell_angle_alpha   90.00000000
_cell_angle_beta   90.00000000
_cell_angle_gamma   120.00000435
_symmetry_Int_Tables_number   1
_chemical_formula_structural   Ho3In3SnPtRh
_chemical_formula_sum   'Ho3 In3 Sn1 Pt1 Rh1'
_cell_volume   205.54134081
_cell_formula_units_Z   1
loop_
 _symmetry_equiv_pos_site_id
 _symmetry_equiv_pos_as_xyz
  1  'x, y, z'
loop_
 _atom_site_type_symbol
 _atom_site_label
 _atom_site_symmetry_multiplicity
 _atom_site_fract_x
 _atom_site_fract_y
 _atom_site_fract_z
 _atom_site_occupancy
  Ho  Ho0  1  0.973321  0.386876  0.500000  1
  Ho  Ho1  1  0.613124  0.586444  0.500000  1
  Ho  Ho2  1  0.413556  0.026679  0.500000  1
  In  In3  1  0.254823  0.247737  0.000000  1
  In  In4  1  0.992914  0.745177  0.000000  1
  In  In5  1  0.752263  0.007086  0.000000  1
  Sn  Sn6  1  0.333333  0.666667  0.000000  1
  Pt  Pt7  1  0.666667  0.333333  0.000000  1
  Rh  Rh8  1  0.000000  0.000000  0.500000  1
