# generated using pymatgen
data_ErLu15Tl4(InCo)2
_symmetry_space_group_name_H-M   'P 1'
_cell_length_a   10.12235100
_cell_length_b   10.12824509
_cell_length_c   6.93490300
_cell_angle_alpha   90.00805260
_cell_angle_beta   90.00000000
_cell_angle_gamma   119.98075452
_symmetry_Int_Tables_number   1
_chemical_formula_structural   ErLu15Tl4(InCo)2
_chemical_formula_sum   'Er1 Lu15 Tl4 In2 Co2'
_cell_volume   615.84412406
_cell_formula_units_Z   1
loop_
 _symmetry_equiv_pos_site_id
 _symmetry_equiv_pos_as_xyz
  1  'x, y, z'
loop_
 _atom_site_type_symbol
 _atom_site_label
 _atom_site_symmetry_multiplicity
 _atom_site_fract_x
 _atom_site_fract_y
 _atom_site_fract_z
 _atom_site_occupancy
  Er  Er0  1  0.535285  0.070569  0.520628  1
  Lu  Lu1  1  0.927928  0.465015  0.522930  1
  Lu  Lu2  1  0.537087  0.465015  0.522930  1
  Lu  Lu3  1  0.463269  0.926536  0.024385  1
  Lu  Lu4  1  0.073624  0.536676  0.024228  1
  Lu  Lu5  1  0.463053  0.536676  0.024228  1
  Lu  Lu6  1  0.179154  0.358307  0.725225  1
  Lu  Lu7  1  0.642247  0.820882  0.727819  1
  Lu  Lu8  1  0.178636  0.820882  0.727819  1
  Lu  Lu9  1  0.820530  0.641060  0.224739  1
  Lu  Lu10  1  0.358213  0.180022  0.223936  1
  Lu  Lu11  1  0.821809  0.180022  0.223936  1
  Lu  Lu12  1  0.666745  0.333488  0.913234  1
  Lu  Lu13  1  0.333321  0.666642  0.414135  1
  Lu  Lu14  1  0.999203  0.998407  0.505491  1
  Lu  Lu15  1  0.999279  0.998559  0.008970  1
  Tl  Tl16  1  0.837063  0.674126  0.771737  1
  Tl  Tl17  1  0.325036  0.162788  0.770659  1
  Tl  Tl18  1  0.837750  0.162788  0.770659  1
  Tl  Tl19  1  0.162659  0.325319  0.273220  1
  In  In20  1  0.675024  0.837589  0.272035  1
  In  In21  1  0.162565  0.837589  0.272035  1
  Co  Co22  1  0.667224  0.334447  0.294936  1
  Co  Co23  1  0.333298  0.666599  0.795766  1
