# generated using pymatgen
data_YbPa2(SnRh)3
_symmetry_space_group_name_H-M   'P 1'
_cell_length_a   7.39173900
_cell_length_b   7.47504071
_cell_length_c   4.00102600
_cell_angle_alpha   90.00000000
_cell_angle_beta   90.00000000
_cell_angle_gamma   119.63204413
_symmetry_Int_Tables_number   1
_chemical_formula_structural   YbPa2(SnRh)3
_chemical_formula_sum   'Yb1 Pa2 Sn3 Rh3'
_cell_volume   192.15891698
_cell_formula_units_Z   1
loop_
 _symmetry_equiv_pos_site_id
 _symmetry_equiv_pos_as_xyz
  1  'x, y, z'
loop_
 _atom_site_type_symbol
 _atom_site_label
 _atom_site_symmetry_multiplicity
 _atom_site_fract_x
 _atom_site_fract_y
 _atom_site_fract_z
 _atom_site_occupancy
  Yb  Yb0  1  0.408761  0.000000  0.000000  1
  Pa  Pa1  1  0.001320  0.414774  0.000000  1
  Pa  Pa2  1  0.586545  0.585226  0.000000  1
  Sn  Sn3  1  0.256130  0.241104  0.500000  1
  Sn  Sn4  1  0.015026  0.758896  0.500000  1
  Sn  Sn5  1  0.731708  0.000000  0.500000  1
  Rh  Rh6  1  0.689829  0.360950  0.500000  1
  Rh  Rh7  1  0.328878  0.639050  0.500000  1
  Rh  Rh8  1  0.981803  0.000000  0.000000  1
