# generated using pymatgen
data_Nd17Dy3(SiBi2)4
_symmetry_space_group_name_H-M   'P 1'
_cell_length_a   12.43133483
_cell_length_b   9.43190900
_cell_length_c   8.29079500
_cell_angle_alpha   90.00000000
_cell_angle_beta   89.96892164
_cell_angle_gamma   90.00000000
_symmetry_Int_Tables_number   1
_chemical_formula_structural   Nd17Dy3(SiBi2)4
_chemical_formula_sum   'Nd17 Dy3 Si4 Bi8'
_cell_volume   972.10567601
_cell_formula_units_Z   1
loop_
 _symmetry_equiv_pos_site_id
 _symmetry_equiv_pos_as_xyz
  1  'x, y, z'
loop_
 _atom_site_type_symbol
 _atom_site_label
 _atom_site_symmetry_multiplicity
 _atom_site_fract_x
 _atom_site_fract_y
 _atom_site_fract_z
 _atom_site_occupancy
  Nd  Nd0  1  0.063229  0.550121  0.818189  1
  Nd  Nd1  1  0.563644  0.949309  0.681248  1
  Nd  Nd2  1  0.936761  0.049958  0.181965  1
  Nd  Nd3  1  0.436546  0.450555  0.318553  1
  Nd  Nd4  1  0.936761  0.450042  0.181965  1
  Nd  Nd5  1  0.436546  0.049445  0.318553  1
  Nd  Nd6  1  0.063229  0.949879  0.818189  1
  Nd  Nd7  1  0.563644  0.550691  0.681248  1
  Nd  Nd8  1  0.499452  0.250000  0.959552  1
  Nd  Nd9  1  0.212473  0.750000  0.166653  1
  Nd  Nd10  1  0.713101  0.750000  0.333622  1
  Nd  Nd11  1  0.787706  0.250000  0.833402  1
  Nd  Nd12  1  0.286638  0.250000  0.666077  1
  Nd  Nd13  1  0.294118  0.750000  0.634928  1
  Nd  Nd14  1  0.794511  0.750000  0.864985  1
  Nd  Nd15  1  0.706338  0.250000  0.364816  1
  Nd  Nd16  1  0.204891  0.250000  0.135543  1
  Dy  Dy17  1  0.000334  0.750000  0.457552  1
  Dy  Dy18  1  0.500289  0.750000  0.042587  1
  Dy  Dy19  1  0.999651  0.250000  0.542920  1
  Si  Si20  1  0.479087  0.750000  0.409413  1
  Si  Si21  1  0.979648  0.750000  0.090336  1
  Si  Si22  1  0.520577  0.250000  0.585808  1
  Si  Si23  1  0.020479  0.250000  0.909370  1
  Bi  Bi24  1  0.327655  0.513307  0.932091  1
  Bi  Bi25  1  0.829810  0.989088  0.567677  1
  Bi  Bi26  1  0.672529  0.008186  0.069082  1
  Bi  Bi27  1  0.170179  0.489133  0.432413  1
  Bi  Bi28  1  0.672529  0.491814  0.069082  1
  Bi  Bi29  1  0.170179  0.010867  0.432413  1
  Bi  Bi30  1  0.327655  0.986693  0.932091  1
  Bi  Bi31  1  0.829810  0.510912  0.567677  1
