# generated using pymatgen
data_TmLuZr2(NiAs)4
_symmetry_space_group_name_H-M   'P 1'
_cell_length_a   3.99564200
_cell_length_b   3.99564245
_cell_length_c   14.70017300
_cell_angle_alpha   90.00000000
_cell_angle_beta   90.00000000
_cell_angle_gamma   119.99999625
_symmetry_Int_Tables_number   1
_chemical_formula_structural   TmLuZr2(NiAs)4
_chemical_formula_sum   'Tm1 Lu1 Zr2 Ni4 As4'
_cell_volume   203.24800073
_cell_formula_units_Z   1
loop_
 _symmetry_equiv_pos_site_id
 _symmetry_equiv_pos_as_xyz
  1  'x, y, z'
loop_
 _atom_site_type_symbol
 _atom_site_label
 _atom_site_symmetry_multiplicity
 _atom_site_fract_x
 _atom_site_fract_y
 _atom_site_fract_z
 _atom_site_occupancy
  Tm  Tm0  1  0.000000  0.000000  0.500000  1
  Lu  Lu1  1  0.000000  0.000000  0.000000  1
  Zr  Zr2  1  0.000000  0.000000  0.249291  1
  Zr  Zr3  1  0.000000  0.000000  0.750709  1
  Ni  Ni4  1  0.333333  0.666667  0.150714  1
  Ni  Ni5  1  0.666667  0.333333  0.849286  1
  Ni  Ni6  1  0.666667  0.333333  0.652563  1
  Ni  Ni7  1  0.333333  0.666667  0.347437  1
  As  As8  1  0.333333  0.666667  0.620604  1
  As  As9  1  0.666667  0.333333  0.379396  1
  As  As10  1  0.666667  0.333333  0.119009  1
  As  As11  1  0.333333  0.666667  0.880991  1
