# generated using pymatgen
data_KDy10(C2I9)2
_symmetry_space_group_name_H-M   'P 1'
_cell_length_a   11.41793882
_cell_length_b   11.44873736
_cell_length_c   11.51465283
_cell_angle_alpha   113.43265266
_cell_angle_beta   87.00154104
_cell_angle_gamma   119.70267387
_symmetry_Int_Tables_number   1
_chemical_formula_structural   KDy10(C2I9)2
_chemical_formula_sum   'K1 Dy10 C4 I18'
_cell_volume   1179.66033934
_cell_formula_units_Z   1
loop_
 _symmetry_equiv_pos_site_id
 _symmetry_equiv_pos_as_xyz
  1  'x, y, z'
loop_
 _atom_site_type_symbol
 _atom_site_label
 _atom_site_symmetry_multiplicity
 _atom_site_fract_x
 _atom_site_fract_y
 _atom_site_fract_z
 _atom_site_occupancy
  K  K0  1  0.500000  0.000000  0.500000  1
  Dy  Dy1  1  0.677883  0.724329  0.711389  1
  Dy  Dy2  1  0.276208  0.352064  0.016232  1
  Dy  Dy3  1  0.093592  0.390861  0.291896  1
  Dy  Dy4  1  0.965676  0.038334  0.322796  1
  Dy  Dy5  1  0.906408  0.609139  0.708104  1
  Dy  Dy6  1  0.104833  0.944826  0.000664  1
  Dy  Dy7  1  0.034324  0.961666  0.677204  1
  Dy  Dy8  1  0.322117  0.275671  0.288611  1
  Dy  Dy9  1  0.723792  0.647936  0.983768  1
  Dy  Dy10  1  0.895167  0.055174  0.999336  1
  C  C11  1  0.151527  0.219733  0.120601  1
  C  C12  1  0.848473  0.780267  0.879399  1
  C  C13  1  0.923954  0.856370  0.803611  1
  C  C14  1  0.076046  0.143630  0.196389  1
  I  I15  1  0.449978  0.530828  0.831717  1
  I  I16  1  0.384391  0.039876  0.158432  1
  I  I17  1  0.775935  0.856597  0.502221  1
  I  I18  1  0.837529  0.310617  0.153253  1
  I  I19  1  0.550022  0.469172  0.168283  1
  I  I20  1  0.224065  0.143403  0.497779  1
  I  I21  1  0.317185  0.095548  0.829607  1
  I  I22  1  0.682815  0.904452  0.170393  1
  I  I23  1  0.975795  0.756146  0.168640  1
  I  I24  1  0.933365  0.298164  0.500332  1
  I  I25  1  0.024205  0.243854  0.831360  1
  I  I26  1  0.066635  0.701836  0.499668  1
  I  I27  1  0.263548  0.624997  0.186889  1
  I  I28  1  0.736452  0.375003  0.813111  1
  I  I29  1  0.642145  0.433791  0.500094  1
  I  I30  1  0.162471  0.689383  0.846747  1
  I  I31  1  0.615609  0.960124  0.841568  1
  I  I32  1  0.357855  0.566209  0.499906  1
