# generated using pymatgen
data_NaMg2ReN4
_symmetry_space_group_name_H-M   'P 1'
_cell_length_a   7.16563300
_cell_length_b   5.75534000
_cell_length_c   5.44733200
_cell_angle_alpha   90.00000000
_cell_angle_beta   90.00000000
_cell_angle_gamma   90.00000000
_symmetry_Int_Tables_number   1
_chemical_formula_structural   NaMg2ReN4
_chemical_formula_sum   'Na2 Mg4 Re2 N8'
_cell_volume   224.65153549
_cell_formula_units_Z   2
loop_
 _symmetry_equiv_pos_site_id
 _symmetry_equiv_pos_as_xyz
  1  'x, y, z'
loop_
 _atom_site_type_symbol
 _atom_site_label
 _atom_site_symmetry_multiplicity
 _atom_site_fract_x
 _atom_site_fract_y
 _atom_site_fract_z
 _atom_site_occupancy
  Na  Na0  1  0.000000  0.668659  0.865177  1
  Na  Na1  1  0.500000  0.331341  0.365177  1
  Mg  Mg2  1  0.254481  0.174867  0.853327  1
  Mg  Mg3  1  0.745519  0.174867  0.853327  1
  Mg  Mg4  1  0.245519  0.825133  0.353327  1
  Mg  Mg5  1  0.754481  0.825133  0.353327  1
  Re  Re6  1  0.000000  0.312025  0.346064  1
  Re  Re7  1  0.500000  0.687975  0.846064  1
  N  N8  1  0.000000  0.627784  0.414850  1
  N  N9  1  0.500000  0.372216  0.914850  1
  N  N10  1  0.000000  0.272036  0.012982  1
  N  N11  1  0.500000  0.727964  0.512982  1
  N  N12  1  0.793109  0.169833  0.471946  1
  N  N13  1  0.206891  0.169833  0.471946  1
  N  N14  1  0.706891  0.830167  0.971946  1
  N  N15  1  0.293109  0.830167  0.971946  1
