# generated using pymatgen
data_Y12TmTh3(CdNi)4
_symmetry_space_group_name_H-M   'P 1'
_cell_length_a   9.62459070
_cell_length_b   9.65194497
_cell_length_c   9.65194400
_cell_angle_alpha   59.99999649
_cell_angle_beta   59.90593516
_cell_angle_gamma   59.90593170
_symmetry_Int_Tables_number   1
_chemical_formula_structural   Y12TmTh3(CdNi)4
_chemical_formula_sum   'Y12 Tm1 Th3 Cd4 Ni4'
_cell_volume   633.10820038
_cell_formula_units_Z   1
loop_
 _symmetry_equiv_pos_site_id
 _symmetry_equiv_pos_as_xyz
  1  'x, y, z'
loop_
 _atom_site_type_symbol
 _atom_site_label
 _atom_site_symmetry_multiplicity
 _atom_site_fract_x
 _atom_site_fract_y
 _atom_site_fract_z
 _atom_site_occupancy
  Y  Y0  1  0.062690  0.438787  0.438787  1
  Y  Y1  1  0.439238  0.062389  0.062389  1
  Y  Y2  1  0.439238  0.062389  0.435984  1
  Y  Y3  1  0.062690  0.438787  0.059735  1
  Y  Y4  1  0.439238  0.435984  0.062389  1
  Y  Y5  1  0.062690  0.059735  0.438787  1
  Y  Y6  1  0.186739  0.815189  0.815189  1
  Y  Y7  1  0.814146  0.185287  0.185287  1
  Y  Y8  1  0.814146  0.185287  0.815280  1
  Y  Y9  1  0.186739  0.815189  0.182882  1
  Y  Y10  1  0.814146  0.815280  0.185287  1
  Y  Y11  1  0.186739  0.182882  0.815189  1
  Tm  Tm12  1  0.199429  0.600191  0.600191  1
  Th  Th13  1  0.592453  0.599308  0.599308  1
  Th  Th14  1  0.592453  0.599308  0.208931  1
  Th  Th15  1  0.592453  0.208931  0.599308  1
  Cd  Cd16  1  0.834700  0.830868  0.830868  1
  Cd  Cd17  1  0.834700  0.830868  0.503564  1
  Cd  Cd18  1  0.834700  0.503564  0.830868  1
  Cd  Cd19  1  0.504814  0.831728  0.831728  1
  Ni  Ni20  1  0.396941  0.392726  0.392726  1
  Ni  Ni21  1  0.396941  0.392726  0.817607  1
  Ni  Ni22  1  0.396941  0.817607  0.392726  1
  Ni  Ni23  1  0.815030  0.394990  0.394990  1
