# generated using pymatgen
data_Gd7Ho(TmSi3)2
_symmetry_space_group_name_H-M   'P 1'
_cell_length_a   8.42447600
_cell_length_b   8.42447494
_cell_length_c   6.32395600
_cell_angle_alpha   90.00000000
_cell_angle_beta   90.00000000
_cell_angle_gamma   120.00000418
_symmetry_Int_Tables_number   1
_chemical_formula_structural   Gd7Ho(TmSi3)2
_chemical_formula_sum   'Gd7 Ho1 Tm2 Si6'
_cell_volume   388.69163371
_cell_formula_units_Z   1
loop_
 _symmetry_equiv_pos_site_id
 _symmetry_equiv_pos_as_xyz
  1  'x, y, z'
loop_
 _atom_site_type_symbol
 _atom_site_label
 _atom_site_symmetry_multiplicity
 _atom_site_fract_x
 _atom_site_fract_y
 _atom_site_fract_z
 _atom_site_occupancy
  Gd  Gd0  1  0.333333  0.666667  0.500000  1
  Gd  Gd1  1  0.747292  0.748014  0.248875  1
  Gd  Gd2  1  0.251986  0.999278  0.248875  1
  Gd  Gd3  1  0.000722  0.252708  0.248875  1
  Gd  Gd4  1  0.251986  0.252708  0.751125  1
  Gd  Gd5  1  0.747292  0.999278  0.751125  1
  Gd  Gd6  1  0.000722  0.748014  0.751125  1
  Ho  Ho7  1  0.666667  0.333333  0.500000  1
  Tm  Tm8  1  0.333333  0.666667  0.000000  1
  Tm  Tm9  1  0.666667  0.333333  0.000000  1
  Si  Si10  1  0.393944  0.392067  0.244238  1
  Si  Si11  1  0.607933  0.001877  0.244238  1
  Si  Si12  1  0.998123  0.606056  0.244238  1
  Si  Si13  1  0.607933  0.606056  0.755762  1
  Si  Si14  1  0.393944  0.001877  0.755762  1
  Si  Si15  1  0.998123  0.392067  0.755762  1
