# generated using pymatgen
data_YHo3Re3Ru5
_symmetry_space_group_name_H-M   'P 1'
_cell_length_a   5.26780826
_cell_length_b   5.30189462
_cell_length_c   9.07415751
_cell_angle_alpha   89.99999767
_cell_angle_beta   89.96694488
_cell_angle_gamma   120.21428719
_symmetry_Int_Tables_number   1
_chemical_formula_structural   YHo3Re3Ru5
_chemical_formula_sum   'Y1 Ho3 Re3 Ru5'
_cell_volume   219.00602917
_cell_formula_units_Z   1
loop_
 _symmetry_equiv_pos_site_id
 _symmetry_equiv_pos_as_xyz
  1  'x, y, z'
loop_
 _atom_site_type_symbol
 _atom_site_label
 _atom_site_symmetry_multiplicity
 _atom_site_fract_x
 _atom_site_fract_y
 _atom_site_fract_z
 _atom_site_occupancy
  Y  Y0  1  0.340474  0.670238  0.065796  1
  Ho  Ho1  1  0.340621  0.670311  0.434348  1
  Ho  Ho2  1  0.669327  0.334664  0.564315  1
  Ho  Ho3  1  0.669156  0.334578  0.935242  1
  Re  Re4  1  0.160885  0.332197  0.749647  1
  Re  Re5  1  0.160885  0.828688  0.749647  1
  Re  Re6  1  0.318823  0.159411  0.250535  1
  Ru  Ru7  1  0.816246  0.647301  0.250578  1
  Ru  Ru8  1  0.647429  0.823715  0.749540  1
  Ru  Ru9  1  0.029917  0.014958  0.001978  1
  Ru  Ru10  1  0.816246  0.168945  0.250578  1
  Ru  Ru11  1  0.029991  0.014996  0.497795  1
