# generated using pymatgen
data_Sr3Hg(WO4)4
_symmetry_space_group_name_H-M   'P 1'
_cell_length_a   5.13075157
_cell_length_b   5.55616179
_cell_length_c   14.22033057
_cell_angle_alpha   66.31143772
_cell_angle_beta   90.35782529
_cell_angle_gamma   89.96325093
_symmetry_Int_Tables_number   1
_chemical_formula_structural   Sr3Hg(WO4)4
_chemical_formula_sum   'Sr3 Hg1 W4 O16'
_cell_volume   371.21715856
_cell_formula_units_Z   1
loop_
 _symmetry_equiv_pos_site_id
 _symmetry_equiv_pos_as_xyz
  1  'x, y, z'
loop_
 _atom_site_type_symbol
 _atom_site_label
 _atom_site_symmetry_multiplicity
 _atom_site_fract_x
 _atom_site_fract_y
 _atom_site_fract_z
 _atom_site_occupancy
  Sr  Sr0  1  0.732381  0.157691  0.344427  1
  Sr  Sr1  1  0.248321  0.856151  0.156578  1
  Sr  Sr2  1  0.293143  0.812903  0.656546  1
  Hg  Hg3  1  0.742808  0.157030  0.852254  1
  W  W4  1  0.250809  0.585998  0.425276  1
  W  W5  1  0.743091  0.439568  0.075029  1
  W  W6  1  0.757820  0.387501  0.578620  1
  W  W7  1  0.243512  0.591193  0.919916  1
  O  O8  1  0.551185  0.730500  0.470602  1
  O  O9  1  0.052974  0.289674  0.042864  1
  O  O10  1  0.445875  0.253832  0.537269  1
  O  O11  1  0.933274  0.762099  0.950420  1
  O  O12  1  0.939131  0.371169  0.447492  1
  O  O13  1  0.433680  0.660282  0.040164  1
  O  O14  1  0.058206  0.621014  0.550642  1
  O  O15  1  0.549115  0.356909  0.956555  1
  O  O16  1  0.131501  0.905025  0.331696  1
  O  O17  1  0.620920  0.129773  0.172010  1
  O  O18  1  0.889046  0.067315  0.656147  1
  O  O19  1  0.387778  0.888021  0.823855  1
  O  O20  1  0.385541  0.489590  0.325845  1
  O  O21  1  0.869328  0.557861  0.169370  1
  O  O22  1  0.633749  0.460764  0.687600  1
  O  O23  1  0.106816  0.468137  0.828822  1
