# generated using pymatgen
data_Hf4Ta6Ga3Si5
_symmetry_space_group_name_H-M   'P 1'
_cell_length_a   6.71228900
_cell_length_b   6.86274597
_cell_length_c   13.25572633
_cell_angle_alpha   89.87815793
_cell_angle_beta   90.00000000
_cell_angle_gamma   90.00000000
_symmetry_Int_Tables_number   1
_chemical_formula_structural   Hf4Ta6Ga3Si5
_chemical_formula_sum   'Hf8 Ta12 Ga6 Si10'
_cell_volume   610.62013000
_cell_formula_units_Z   2
loop_
 _symmetry_equiv_pos_site_id
 _symmetry_equiv_pos_as_xyz
  1  'x, y, z'
loop_
 _atom_site_type_symbol
 _atom_site_label
 _atom_site_symmetry_multiplicity
 _atom_site_fract_x
 _atom_site_fract_y
 _atom_site_fract_z
 _atom_site_occupancy
  Hf  Hf0  1  0.490248  0.668863  0.596209  1
  Hf  Hf1  1  0.990248  0.831137  0.903791  1
  Hf  Hf2  1  0.506861  0.325510  0.098346  1
  Hf  Hf3  1  0.006861  0.174490  0.401654  1
  Hf  Hf4  1  0.502674  0.331570  0.402516  1
  Hf  Hf5  1  0.002674  0.168430  0.097484  1
  Hf  Hf6  1  0.496150  0.672861  0.903283  1
  Hf  Hf7  1  0.996150  0.827139  0.596717  1
  Ta  Ta8  1  0.661965  0.172277  0.628310  1
  Ta  Ta9  1  0.161965  0.327723  0.871690  1
  Ta  Ta10  1  0.340817  0.827485  0.128117  1
  Ta  Ta11  1  0.840817  0.672515  0.371883  1
  Ta  Ta12  1  0.334644  0.822318  0.373562  1
  Ta  Ta13  1  0.834644  0.677682  0.126438  1
  Ta  Ta14  1  0.666489  0.167154  0.873684  1
  Ta  Ta15  1  0.166489  0.332846  0.626316  1
  Ta  Ta16  1  0.836999  0.494028  0.749411  1
  Ta  Ta17  1  0.336999  0.005972  0.750589  1
  Ta  Ta18  1  0.164412  0.504973  0.252196  1
  Ta  Ta19  1  0.664412  0.995027  0.247804  1
  Ga  Ga20  1  0.676067  0.965921  0.462462  1
  Ga  Ga21  1  0.176067  0.534079  0.037538  1
  Ga  Ga22  1  0.323369  0.034728  0.963273  1
  Ga  Ga23  1  0.823369  0.465272  0.536727  1
  Ga  Ga24  1  0.325003  0.034774  0.536985  1
  Ga  Ga25  1  0.825003  0.465226  0.963015  1
  Si  Si26  1  0.671574  0.964758  0.036822  1
  Si  Si27  1  0.171574  0.535242  0.463178  1
  Si  Si28  1  0.461286  0.387640  0.751245  1
  Si  Si29  1  0.961286  0.112360  0.748755  1
  Si  Si30  1  0.540962  0.611543  0.250248  1
  Si  Si31  1  0.040962  0.888457  0.249752  1
  Si  Si32  1  0.701822  0.858768  0.749212  1
  Si  Si33  1  0.201822  0.641232  0.750788  1
  Si  Si34  1  0.298662  0.138839  0.250560  1
  Si  Si35  1  0.798662  0.361161  0.249440  1
