# generated using pymatgen
data_Dy12Ga2Co3Os
_symmetry_space_group_name_H-M   'P 1'
_cell_length_a   8.29995675
_cell_length_b   8.29995742
_cell_length_c   8.29995654
_cell_angle_alpha   112.27542173
_cell_angle_beta   109.92795995
_cell_angle_gamma   106.26631633
_symmetry_Int_Tables_number   1
_chemical_formula_structural   Dy12Ga2Co3Os
_chemical_formula_sum   'Dy12 Ga2 Co3 Os1'
_cell_volume   438.93369489
_cell_formula_units_Z   1
loop_
 _symmetry_equiv_pos_site_id
 _symmetry_equiv_pos_as_xyz
  1  'x, y, z'
loop_
 _atom_site_type_symbol
 _atom_site_label
 _atom_site_symmetry_multiplicity
 _atom_site_fract_x
 _atom_site_fract_y
 _atom_site_fract_z
 _atom_site_occupancy
  Dy  Dy0  1  0.053396  0.746524  0.306872  1
  Dy  Dy1  1  0.960408  0.265011  0.695397  1
  Dy  Dy2  1  0.560346  0.253476  0.306872  1
  Dy  Dy3  1  0.430387  0.734989  0.695397  1
  Dy  Dy4  1  0.674416  0.860078  0.186378  1
  Dy  Dy5  1  0.326300  0.511962  0.186378  1
  Dy  Dy6  1  0.326300  0.139922  0.814338  1
  Dy  Dy7  1  0.674416  0.488038  0.814338  1
  Dy  Dy8  1  0.177302  0.221360  0.398663  1
  Dy  Dy9  1  0.816886  0.218150  0.035036  1
  Dy  Dy10  1  0.177302  0.778640  0.955942  1
  Dy  Dy11  1  0.816886  0.781850  0.598736  1
  Ga  Ga12  1  0.991612  0.500000  0.491612  1
  Ga  Ga13  1  0.505624  0.000000  0.505624  1
  Co  Co14  1  0.336771  0.500000  0.836771  1
  Co  Co15  1  0.886680  0.886829  0.999851  1
  Co  Co16  1  0.113022  0.113171  0.999851  1
  Os  Os17  1  0.671944  0.500000  0.171944  1
