# generated using pymatgen
data_Lu3Sn3GeIrRu
_symmetry_space_group_name_H-M   'P 1'
_cell_length_a   7.35439800
_cell_length_b   7.35439670
_cell_length_c   4.07016200
_cell_angle_alpha   90.00000000
_cell_angle_beta   90.00000000
_cell_angle_gamma   120.00000583
_symmetry_Int_Tables_number   1
_chemical_formula_structural   Lu3Sn3GeIrRu
_chemical_formula_sum   'Lu3 Sn3 Ge1 Ir1 Ru1'
_cell_volume   190.64985657
_cell_formula_units_Z   1
loop_
 _symmetry_equiv_pos_site_id
 _symmetry_equiv_pos_as_xyz
  1  'x, y, z'
loop_
 _atom_site_type_symbol
 _atom_site_label
 _atom_site_symmetry_multiplicity
 _atom_site_fract_x
 _atom_site_fract_y
 _atom_site_fract_z
 _atom_site_occupancy
  Lu  Lu0  1  0.987237  0.398843  0.500000  1
  Lu  Lu1  1  0.601157  0.588394  0.500000  1
  Lu  Lu2  1  0.411606  0.012763  0.500000  1
  Sn  Sn3  1  0.989839  0.743197  0.000000  1
  Sn  Sn4  1  0.256803  0.246642  0.000000  1
  Sn  Sn5  1  0.753358  0.010161  0.000000  1
  Ge  Ge6  1  0.333333  0.666667  0.000000  1
  Ir  Ir7  1  0.666667  0.333333  0.000000  1
  Ru  Ru8  1  0.000000  0.000000  0.500000  1
