# generated using pymatgen
data_Gd2Al8GeIr3
_symmetry_space_group_name_H-M   'P 1'
_cell_length_a   7.56344000
_cell_length_b   7.56344026
_cell_length_c   9.44159300
_cell_angle_alpha   90.00000000
_cell_angle_beta   90.00000000
_cell_angle_gamma   119.79658792
_symmetry_Int_Tables_number   1
_chemical_formula_structural   Gd2Al8GeIr3
_chemical_formula_sum   'Gd4 Al16 Ge2 Ir6'
_cell_volume   468.70673017
_cell_formula_units_Z   2
loop_
 _symmetry_equiv_pos_site_id
 _symmetry_equiv_pos_as_xyz
  1  'x, y, z'
loop_
 _atom_site_type_symbol
 _atom_site_label
 _atom_site_symmetry_multiplicity
 _atom_site_fract_x
 _atom_site_fract_y
 _atom_site_fract_z
 _atom_site_occupancy
  Gd  Gd0  1  0.995313  0.674815  0.750000  1
  Gd  Gd1  1  0.004687  0.325185  0.250000  1
  Gd  Gd2  1  0.674815  0.995313  0.750000  1
  Gd  Gd3  1  0.325185  0.004687  0.250000  1
  Al  Al4  1  0.000892  0.337424  0.573990  1
  Al  Al5  1  0.999108  0.662576  0.426010  1
  Al  Al6  1  0.999108  0.662576  0.073990  1
  Al  Al7  1  0.337424  0.000892  0.926010  1
  Al  Al8  1  0.000892  0.337424  0.926010  1
  Al  Al9  1  0.662576  0.999108  0.073990  1
  Al  Al10  1  0.662576  0.999108  0.426010  1
  Al  Al11  1  0.337424  0.000892  0.573990  1
  Al  Al12  1  0.335937  0.335937  0.058232  1
  Al  Al13  1  0.664063  0.664063  0.941768  1
  Al  Al14  1  0.664063  0.664063  0.558232  1
  Al  Al15  1  0.335937  0.335937  0.441768  1
  Al  Al16  1  0.335742  0.552034  0.750000  1
  Al  Al17  1  0.664258  0.447966  0.250000  1
  Al  Al18  1  0.552034  0.335742  0.750000  1
  Al  Al19  1  0.447966  0.664258  0.250000  1
  Ge  Ge20  1  0.134570  0.134570  0.750000  1
  Ge  Ge21  1  0.865430  0.865430  0.250000  1
  Ir  Ir22  1  0.670710  0.329290  0.500000  1
  Ir  Ir23  1  0.329290  0.670710  0.500000  1
  Ir  Ir24  1  0.329290  0.670710  0.000000  1
  Ir  Ir25  1  0.670710  0.329290  0.000000  1
  Ir  Ir26  1  0.000000  0.000000  0.500000  1
  Ir  Ir27  1  0.000000  0.000000  0.000000  1
