# generated using pymatgen
data_Nb6Co14Si7Ni2
_symmetry_space_group_name_H-M   'P 1'
_cell_length_a   7.91966165
_cell_length_b   7.92354708
_cell_length_c   7.91737712
_cell_angle_alpha   60.04136258
_cell_angle_beta   60.02686926
_cell_angle_gamma   60.06126382
_symmetry_Int_Tables_number   1
_chemical_formula_structural   Nb6Co14Si7Ni2
_chemical_formula_sum   'Nb6 Co14 Si7 Ni2'
_cell_volume   351.65535078
_cell_formula_units_Z   1
loop_
 _symmetry_equiv_pos_site_id
 _symmetry_equiv_pos_as_xyz
  1  'x, y, z'
loop_
 _atom_site_type_symbol
 _atom_site_label
 _atom_site_symmetry_multiplicity
 _atom_site_fract_x
 _atom_site_fract_y
 _atom_site_fract_z
 _atom_site_occupancy
  Nb  Nb0  1  0.799719  0.200439  0.790951  1
  Nb  Nb1  1  0.800089  0.791348  0.204326  1
  Nb  Nb2  1  0.205380  0.794624  0.797442  1
  Nb  Nb3  1  0.208576  0.199942  0.795661  1
  Nb  Nb4  1  0.799668  0.200401  0.208920  1
  Nb  Nb5  1  0.205331  0.794533  0.202614  1
  Co  Co6  1  0.163380  0.168428  0.165192  1
  Co  Co7  1  0.618901  0.618186  0.144725  1
  Co  Co8  1  0.381861  0.381070  0.381801  1
  Co  Co9  1  0.165267  0.501201  0.166797  1
  Co  Co10  1  0.163387  0.168506  0.502921  1
  Co  Co11  1  0.142864  0.618727  0.619173  1
  Co  Co12  1  0.618783  0.144101  0.618517  1
  Co  Co13  1  0.831657  0.836540  0.834807  1
  Co  Co14  1  0.855769  0.381254  0.381504  1
  Co  Co15  1  0.381857  0.381068  0.855272  1
  Co  Co16  1  0.381342  0.857041  0.380800  1
  Co  Co17  1  0.498675  0.834688  0.833284  1
  Co  Co18  1  0.618940  0.618152  0.618164  1
  Co  Co19  1  0.831643  0.836475  0.497030  1
  Si  Si20  1  0.000471  0.501321  0.997656  1
  Si  Si21  1  0.498973  0.500991  0.499994  1
  Si  Si22  1  0.499959  0.500063  0.999989  1
  Si  Si23  1  0.498708  0.999546  0.499447  1
  Si  Si24  1  0.000445  0.501290  0.500618  1
  Si  Si25  1  0.003685  0.996264  0.500020  1
  Si  Si26  1  0.498718  0.999549  0.002317  1
  Ni  Ni27  1  0.495885  0.169815  0.167223  1
  Ni  Ni28  1  0.830066  0.504435  0.832834  1
