# generated using pymatgen
data_ErHf7Ti7Nb5Si16
_symmetry_space_group_name_H-M   'P 1'
_cell_length_a   6.85333443
_cell_length_b   6.85460495
_cell_length_c   12.60616629
_cell_angle_alpha   89.97506757
_cell_angle_beta   89.97599449
_cell_angle_gamma   89.97055792
_symmetry_Int_Tables_number   1
_chemical_formula_structural   ErHf7Ti7Nb5Si16
_chemical_formula_sum   'Er1 Hf7 Ti7 Nb5 Si16'
_cell_volume   592.19842846
_cell_formula_units_Z   1
loop_
 _symmetry_equiv_pos_site_id
 _symmetry_equiv_pos_as_xyz
  1  'x, y, z'
loop_
 _atom_site_type_symbol
 _atom_site_label
 _atom_site_symmetry_multiplicity
 _atom_site_fract_x
 _atom_site_fract_y
 _atom_site_fract_z
 _atom_site_occupancy
  Er  Er0  1  0.997346  0.660057  0.030794  1
  Hf  Hf1  1  0.342463  0.998639  0.469917  1
  Hf  Hf2  1  0.499757  0.843258  0.718077  1
  Hf  Hf3  1  0.498698  0.157829  0.221434  1
  Hf  Hf4  1  0.842435  0.500650  0.282146  1
  Hf  Hf5  1  0.158508  0.499663  0.780628  1
  Hf  Hf6  1  0.653219  0.003270  0.967715  1
  Hf  Hf7  1  0.999306  0.342886  0.530317  1
  Ti  Ti8  1  0.496750  0.651294  0.123986  1
  Ti  Ti9  1  0.504319  0.348571  0.621959  1
  Ti  Ti10  1  0.651960  0.492520  0.875701  1
  Ti  Ti11  1  0.347801  0.504618  0.378701  1
  Ti  Ti12  1  0.848227  0.996677  0.373997  1
  Ti  Ti13  1  0.005868  0.151817  0.128799  1
  Ti  Ti14  1  0.995237  0.848727  0.625859  1
  Nb  Nb15  1  0.331089  0.326644  0.999628  1
  Nb  Nb16  1  0.171433  0.830841  0.251664  1
  Nb  Nb17  1  0.829280  0.170372  0.748256  1
  Nb  Nb18  1  0.670973  0.670966  0.499695  1
  Nb  Nb19  1  0.154839  0.003489  0.871060  1
  Si  Si20  1  0.207879  0.135889  0.673579  1
  Si  Si21  1  0.370576  0.704722  0.926130  1
  Si  Si22  1  0.634665  0.292757  0.425921  1
  Si  Si23  1  0.703816  0.360867  0.074101  1
  Si  Si24  1  0.292872  0.635115  0.574040  1
  Si  Si25  1  0.790197  0.868567  0.180012  1
  Si  Si26  1  0.135220  0.206927  0.324940  1
  Si  Si27  1  0.860190  0.793214  0.819990  1
  Si  Si28  1  0.299549  0.954847  0.065267  1
  Si  Si29  1  0.544650  0.796127  0.314058  1
  Si  Si30  1  0.455536  0.205997  0.810650  1
  Si  Si31  1  0.796466  0.545681  0.685738  1
  Si  Si32  1  0.206364  0.452520  0.188844  1
  Si  Si33  1  0.703991  0.046047  0.562461  1
  Si  Si34  1  0.952649  0.293513  0.936864  1
  Si  Si35  1  0.045870  0.704423  0.437070  1
