# generated using pymatgen
data_Ca2CrH9
_symmetry_space_group_name_H-M   'P 1'
_cell_length_a   8.37023800
_cell_length_b   8.37023909
_cell_length_c   4.77174100
_cell_angle_alpha   90.00000000
_cell_angle_beta   90.00000000
_cell_angle_gamma   119.99999570
_symmetry_Int_Tables_number   1
_chemical_formula_structural   Ca2CrH9
_chemical_formula_sum   'Ca6 Cr3 H27'
_cell_volume   289.52307577
_cell_formula_units_Z   3
loop_
 _symmetry_equiv_pos_site_id
 _symmetry_equiv_pos_as_xyz
  1  'x, y, z'
loop_
 _atom_site_type_symbol
 _atom_site_label
 _atom_site_symmetry_multiplicity
 _atom_site_fract_x
 _atom_site_fract_y
 _atom_site_fract_z
 _atom_site_occupancy
  Ca  Ca0  1  0.265367  0.000000  0.500000  1
  Ca  Ca1  1  0.000000  0.265367  0.500000  1
  Ca  Ca2  1  0.734633  0.734633  0.500000  1
  Ca  Ca3  1  0.610424  0.000000  0.000000  1
  Ca  Ca4  1  0.000000  0.610424  0.000000  1
  Ca  Ca5  1  0.389576  0.389576  0.000000  1
  Cr  Cr6  1  0.000000  0.000000  0.000000  1
  Cr  Cr7  1  0.333333  0.666667  0.500000  1
  Cr  Cr8  1  0.666667  0.333333  0.500000  1
  H  H9  1  0.852715  0.000000  0.248311  1
  H  H10  1  0.000000  0.852715  0.248311  1
  H  H11  1  0.852715  0.000000  0.751689  1
  H  H12  1  0.000000  0.852715  0.751689  1
  H  H13  1  0.147285  0.147285  0.248311  1
  H  H14  1  0.147285  0.147285  0.751689  1
  H  H15  1  0.206007  0.000000  0.000000  1
  H  H16  1  0.000000  0.206007  0.000000  1
  H  H17  1  0.793993  0.793993  0.000000  1
  H  H18  1  0.197911  0.528381  0.247956  1
  H  H19  1  0.471619  0.669529  0.247956  1
  H  H20  1  0.197911  0.528381  0.752044  1
  H  H21  1  0.528381  0.197911  0.752044  1
  H  H22  1  0.330471  0.802089  0.247956  1
  H  H23  1  0.471619  0.669529  0.752044  1
  H  H24  1  0.669529  0.471619  0.752044  1
  H  H25  1  0.528381  0.197911  0.247956  1
  H  H26  1  0.330471  0.802089  0.752044  1
  H  H27  1  0.669529  0.471619  0.247956  1
  H  H28  1  0.802089  0.330471  0.752044  1
  H  H29  1  0.802089  0.330471  0.247956  1
  H  H30  1  0.330532  0.470141  0.500000  1
  H  H31  1  0.529859  0.860391  0.500000  1
  H  H32  1  0.470141  0.330532  0.500000  1
  H  H33  1  0.139609  0.669468  0.500000  1
  H  H34  1  0.860391  0.529859  0.500000  1
  H  H35  1  0.669468  0.139609  0.500000  1
