# generated using pymatgen
data_Dy4Tm8Tc3Os
_symmetry_space_group_name_H-M   'P 1'
_cell_length_a   7.40623525
_cell_length_b   8.96957000
_cell_length_c   6.22671500
_cell_angle_alpha   90.00000000
_cell_angle_beta   89.96419837
_cell_angle_gamma   90.00000000
_symmetry_Int_Tables_number   1
_chemical_formula_structural   Dy4Tm8Tc3Os
_chemical_formula_sum   'Dy4 Tm8 Tc3 Os1'
_cell_volume   413.64523842
_cell_formula_units_Z   1
loop_
 _symmetry_equiv_pos_site_id
 _symmetry_equiv_pos_as_xyz
  1  'x, y, z'
loop_
 _atom_site_type_symbol
 _atom_site_label
 _atom_site_symmetry_multiplicity
 _atom_site_fract_x
 _atom_site_fract_y
 _atom_site_fract_z
 _atom_site_occupancy
  Dy  Dy0  1  0.042014  0.250000  0.626739  1
  Dy  Dy1  1  0.959232  0.750000  0.376359  1
  Dy  Dy2  1  0.461072  0.750000  0.125059  1
  Dy  Dy3  1  0.539301  0.250000  0.875928  1
  Tm  Tm4  1  0.173475  0.062871  0.159019  1
  Tm  Tm5  1  0.825584  0.938797  0.840036  1
  Tm  Tm6  1  0.324692  0.937590  0.656989  1
  Tm  Tm7  1  0.825584  0.561203  0.840036  1
  Tm  Tm8  1  0.676347  0.063283  0.340469  1
  Tm  Tm9  1  0.173475  0.437129  0.159019  1
  Tm  Tm10  1  0.676347  0.436717  0.340469  1
  Tm  Tm11  1  0.324692  0.562410  0.656989  1
  Tc  Tc12  1  0.383301  0.250000  0.457911  1
  Tc  Tc13  1  0.616836  0.750000  0.543532  1
  Tc  Tc14  1  0.115704  0.750000  0.959599  1
  Os  Os15  1  0.882345  0.250000  0.041846  1
