# generated using pymatgen
data_YbLuOsC2
_symmetry_space_group_name_H-M   'P 1'
_cell_length_a   5.06466600
_cell_length_b   6.41645700
_cell_length_c   9.97326900
_cell_angle_alpha   90.00000000
_cell_angle_beta   90.00000000
_cell_angle_gamma   90.00000000
_symmetry_Int_Tables_number   1
_chemical_formula_structural   YbLuOsC2
_chemical_formula_sum   'Yb4 Lu4 Os4 C8'
_cell_volume   324.10343312
_cell_formula_units_Z   4
loop_
 _symmetry_equiv_pos_site_id
 _symmetry_equiv_pos_as_xyz
  1  'x, y, z'
loop_
 _atom_site_type_symbol
 _atom_site_label
 _atom_site_symmetry_multiplicity
 _atom_site_fract_x
 _atom_site_fract_y
 _atom_site_fract_z
 _atom_site_occupancy
  Yb  Yb0  1  0.250000  0.531462  0.219285  1
  Yb  Yb1  1  0.750000  0.468538  0.780715  1
  Yb  Yb2  1  0.750000  0.968538  0.719285  1
  Yb  Yb3  1  0.250000  0.031462  0.280715  1
  Lu  Lu4  1  0.250000  0.677896  0.560996  1
  Lu  Lu5  1  0.750000  0.322104  0.439004  1
  Lu  Lu6  1  0.750000  0.822104  0.060996  1
  Lu  Lu7  1  0.250000  0.177896  0.939004  1
  Os  Os8  1  0.250000  0.722839  0.862198  1
  Os  Os9  1  0.750000  0.277161  0.137802  1
  Os  Os10  1  0.750000  0.777161  0.362198  1
  Os  Os11  1  0.250000  0.222839  0.637802  1
  C  C12  1  0.250000  0.457679  0.759456  1
  C  C13  1  0.750000  0.542321  0.240544  1
  C  C14  1  0.750000  0.042321  0.259456  1
  C  C15  1  0.250000  0.957679  0.740544  1
  C  C16  1  0.250000  0.822132  0.041447  1
  C  C17  1  0.750000  0.177868  0.958553  1
  C  C18  1  0.750000  0.677868  0.541447  1
  C  C19  1  0.250000  0.322132  0.458553  1
