# generated using pymatgen
data_AlV4Ga2Mo5
_symmetry_space_group_name_H-M   'P 1'
_cell_length_a   4.89866504
_cell_length_b   4.90677696
_cell_length_c   14.64043910
_cell_angle_alpha   90.08730728
_cell_angle_beta   90.06572537
_cell_angle_gamma   90.26264249
_symmetry_Int_Tables_number   1
_chemical_formula_structural   AlV4Ga2Mo5
_chemical_formula_sum   'Al2 V8 Ga4 Mo10'
_cell_volume   351.90286938
_cell_formula_units_Z   2
loop_
 _symmetry_equiv_pos_site_id
 _symmetry_equiv_pos_as_xyz
  1  'x, y, z'
loop_
 _atom_site_type_symbol
 _atom_site_label
 _atom_site_symmetry_multiplicity
 _atom_site_fract_x
 _atom_site_fract_y
 _atom_site_fract_z
 _atom_site_occupancy
  Al  Al0  1  0.004942  0.006219  0.335089  1
  Al  Al1  1  0.004789  0.005925  0.667970  1
  V  V2  1  0.504848  0.997124  0.417378  1
  V  V3  1  0.502981  0.996144  0.748205  1
  V  V4  1  0.247888  0.502144  0.998748  1
  V  V5  1  0.246603  0.505652  0.332495  1
  V  V6  1  0.246456  0.505402  0.664992  1
  V  V7  1  0.996429  0.249153  0.167436  1
  V  V8  1  0.993800  0.248366  0.502200  1
  V  V9  1  0.992527  0.249932  0.833979  1
  Ga  Ga10  1  0.493988  0.494373  0.166781  1
  Ga  Ga11  1  0.493735  0.494921  0.498688  1
  Ga  Ga12  1  0.493029  0.494063  0.831271  1
  Ga  Ga13  1  0.005155  0.005309  0.999886  1
  Mo  Mo14  1  0.501579  0.998056  0.254076  1
  Mo  Mo15  1  0.501420  0.998488  0.584132  1
  Mo  Mo16  1  0.502416  0.997787  0.913575  1
  Mo  Mo17  1  0.752515  0.499446  0.999412  1
  Mo  Mo18  1  0.756622  0.500692  0.334414  1
  Mo  Mo19  1  0.756250  0.500701  0.666349  1
  Mo  Mo20  1  0.000129  0.750708  0.167487  1
  Mo  Mo21  1  0.999997  0.752296  0.500397  1
  Mo  Mo22  1  0.000450  0.749380  0.831955  1
  Mo  Mo23  1  0.501450  0.997715  0.083087  1
