# generated using pymatgen
data_La2TbEr(Zn5Ge)2
_symmetry_space_group_name_H-M   'P 1'
_cell_length_a   8.36607273
_cell_length_b   8.36607311
_cell_length_c   8.88692700
_cell_angle_alpha   90.00000000
_cell_angle_beta   90.00000000
_cell_angle_gamma   149.55904185
_symmetry_Int_Tables_number   1
_chemical_formula_structural   La2TbEr(Zn5Ge)2
_chemical_formula_sum   'La2 Tb1 Er1 Zn10 Ge2'
_cell_volume   315.13970784
_cell_formula_units_Z   1
loop_
 _symmetry_equiv_pos_site_id
 _symmetry_equiv_pos_as_xyz
  1  'x, y, z'
loop_
 _atom_site_type_symbol
 _atom_site_label
 _atom_site_symmetry_multiplicity
 _atom_site_fract_x
 _atom_site_fract_y
 _atom_site_fract_z
 _atom_site_occupancy
  La  La0  1  0.000205  0.999795  0.499751  1
  La  La1  1  0.000205  0.999795  0.000249  1
  Tb  Tb2  1  0.798033  0.201967  0.750000  1
  Er  Er3  1  0.201783  0.798217  0.250000  1
  Zn  Zn4  1  0.812120  0.187880  0.390678  1
  Zn  Zn5  1  0.187670  0.812330  0.608360  1
  Zn  Zn6  1  0.812120  0.187880  0.109322  1
  Zn  Zn7  1  0.187670  0.812330  0.891640  1
  Zn  Zn8  1  0.655171  0.344829  0.476580  1
  Zn  Zn9  1  0.344821  0.655179  0.522590  1
  Zn  Zn10  1  0.655171  0.344829  0.023420  1
  Zn  Zn11  1  0.344821  0.655179  0.977410  1
  Zn  Zn12  1  0.399719  0.600281  0.250000  1
  Zn  Zn13  1  0.600015  0.399985  0.750000  1
  Ge  Ge14  1  0.559310  0.440690  0.250000  1
  Ge  Ge15  1  0.441167  0.558833  0.750000  1
