# generated using pymatgen
data_Li4Ni10P7
_symmetry_space_group_name_H-M   'P 1'
_cell_length_a   9.06433658
_cell_length_b   9.02931817
_cell_length_c   3.61156000
_cell_angle_alpha   90.00000000
_cell_angle_beta   90.00000000
_cell_angle_gamma   120.23744726
_symmetry_Int_Tables_number   1
_chemical_formula_structural   Li4Ni10P7
_chemical_formula_sum   'Li4 Ni10 P7'
_cell_volume   255.37144860
_cell_formula_units_Z   1
loop_
 _symmetry_equiv_pos_site_id
 _symmetry_equiv_pos_as_xyz
  1  'x, y, z'
loop_
 _atom_site_type_symbol
 _atom_site_label
 _atom_site_symmetry_multiplicity
 _atom_site_fract_x
 _atom_site_fract_y
 _atom_site_fract_z
 _atom_site_occupancy
  Li  Li0  1  0.446644  0.217554  0.500000  1
  Li  Li1  1  0.785336  0.234154  0.500000  1
  Li  Li2  1  0.336941  0.668535  0.000000  1
  Li  Li3  1  0.998580  0.001392  0.500000  1
  Ni  Ni4  1  0.760694  0.544317  0.500000  1
  Ni  Ni5  1  0.276163  0.378768  0.500000  1
  Ni  Ni6  1  0.617332  0.894949  0.500000  1
  Ni  Ni7  1  0.103481  0.721360  0.500000  1
  Ni  Ni8  1  0.496588  0.450147  0.000000  1
  Ni  Ni9  1  0.549815  0.055356  0.000000  1
  Ni  Ni10  1  0.955061  0.500079  0.000000  1
  Ni  Ni11  1  0.725923  0.762342  0.000000  1
  Ni  Ni12  1  0.235277  0.957234  0.000000  1
  Ni  Ni13  1  0.038647  0.276538  0.000000  1
  P  P14  1  0.963023  0.751290  0.000000  1
  P  P15  1  0.241366  0.208390  0.000000  1
  P  P16  1  0.786474  0.031932  0.000000  1
  P  P17  1  0.671639  0.346881  0.000000  1
  P  P18  1  0.547932  0.619396  0.500000  1
  P  P19  1  0.378468  0.919978  0.500000  1
  P  P20  1  0.084618  0.459406  0.500000  1
