# generated using pymatgen
data_Th10CuSiBi6
_symmetry_space_group_name_H-M   'P 1'
_cell_length_a   9.67114400
_cell_length_b   9.67097364
_cell_length_c   6.54700600
_cell_angle_alpha   89.99911930
_cell_angle_beta   90.00043907
_cell_angle_gamma   119.99941768
_symmetry_Int_Tables_number   1
_chemical_formula_structural   Th10CuSiBi6
_chemical_formula_sum   'Th10 Cu1 Si1 Bi6'
_cell_volume   530.30285896
_cell_formula_units_Z   1
loop_
 _symmetry_equiv_pos_site_id
 _symmetry_equiv_pos_as_xyz
  1  'x, y, z'
loop_
 _atom_site_type_symbol
 _atom_site_label
 _atom_site_symmetry_multiplicity
 _atom_site_fract_x
 _atom_site_fract_y
 _atom_site_fract_z
 _atom_site_occupancy
  Th  Th0  1  0.666652  0.333326  0.000000  1
  Th  Th1  1  0.333348  0.666674  0.000000  1
  Th  Th2  1  0.333308  0.666655  0.500000  1
  Th  Th3  1  0.666692  0.333345  0.500000  1
  Th  Th4  1  0.744994  0.744991  0.752178  1
  Th  Th5  1  0.255006  0.999996  0.752178  1
  Th  Th6  1  0.000000  0.255013  0.752170  1
  Th  Th7  1  0.255006  0.255009  0.247822  1
  Th  Th8  1  0.744994  0.000004  0.247822  1
  Th  Th9  1  0.000000  0.744987  0.247830  1
  Cu  Cu10  1  0.000000  0.000000  0.500000  1
  Si  Si11  1  0.000000  0.000000  0.000000  1
  Bi  Bi12  1  0.388456  0.388460  0.748337  1
  Bi  Bi13  1  0.611544  0.000005  0.748337  1
  Bi  Bi14  1  0.000000  0.611547  0.748347  1
  Bi  Bi15  1  0.611544  0.611540  0.251663  1
  Bi  Bi16  1  0.388456  0.999995  0.251663  1
  Bi  Bi17  1  0.000000  0.388453  0.251653  1
