# generated using pymatgen
data_ZrTiCo9SnB6
_symmetry_space_group_name_H-M   'P 1'
_cell_length_a   5.67146098
_cell_length_b   5.67146129
_cell_length_c   5.67146119
_cell_angle_alpha   95.32832563
_cell_angle_beta   95.32833208
_cell_angle_gamma   95.32833474
_symmetry_Int_Tables_number   1
_chemical_formula_structural   ZrTiCo9SnB6
_chemical_formula_sum   'Zr1 Ti1 Co9 Sn1 B6'
_cell_volume   179.90196288
_cell_formula_units_Z   1
loop_
 _symmetry_equiv_pos_site_id
 _symmetry_equiv_pos_as_xyz
  1  'x, y, z'
loop_
 _atom_site_type_symbol
 _atom_site_label
 _atom_site_symmetry_multiplicity
 _atom_site_fract_x
 _atom_site_fract_y
 _atom_site_fract_z
 _atom_site_occupancy
  Zr  Zr0  1  0.329681  0.329681  0.329681  1
  Ti  Ti1  1  0.673321  0.673321  0.673321  1
  Co  Co2  1  0.994301  0.994301  0.507894  1
  Co  Co3  1  0.507894  0.994301  0.994301  1
  Co  Co4  1  0.994301  0.507894  0.994301  1
  Co  Co5  1  0.696918  0.212616  0.696918  1
  Co  Co6  1  0.696918  0.696918  0.212616  1
  Co  Co7  1  0.212616  0.696918  0.696918  1
  Co  Co8  1  0.295607  0.803666  0.295607  1
  Co  Co9  1  0.295607  0.295607  0.803666  1
  Co  Co10  1  0.803666  0.295607  0.295607  1
  Sn  Sn11  1  0.993871  0.993871  0.993871  1
  B  B12  1  0.615064  0.389510  0.998075  1
  B  B13  1  0.998075  0.615064  0.389510  1
  B  B14  1  0.389510  0.998075  0.615064  1
  B  B15  1  0.998075  0.389510  0.615064  1
  B  B16  1  0.615064  0.998075  0.389510  1
  B  B17  1  0.389510  0.615064  0.998075  1
