# generated using pymatgen
data_SrMnSb12OsRu2
_symmetry_space_group_name_H-M   'P 1'
_cell_length_a   8.18400190
_cell_length_b   8.18378816
_cell_length_c   8.16674911
_cell_angle_alpha   109.40017378
_cell_angle_beta   109.43580194
_cell_angle_gamma   109.53288803
_symmetry_Int_Tables_number   1
_chemical_formula_structural   SrMnSb12OsRu2
_chemical_formula_sum   'Sr1 Mn1 Sb12 Os1 Ru2'
_cell_volume   421.29551060
_cell_formula_units_Z   1
loop_
 _symmetry_equiv_pos_site_id
 _symmetry_equiv_pos_as_xyz
  1  'x, y, z'
loop_
 _atom_site_type_symbol
 _atom_site_label
 _atom_site_symmetry_multiplicity
 _atom_site_fract_x
 _atom_site_fract_y
 _atom_site_fract_z
 _atom_site_occupancy
  Sr  Sr0  1  0.000000  0.000000  0.000000  1
  Mn  Mn1  1  0.000000  0.000000  0.500000  1
  Sb  Sb2  1  0.840693  0.655017  0.501552  1
  Sb  Sb3  1  0.159307  0.344983  0.498448  1
  Sb  Sb4  1  0.158810  0.661054  0.818874  1
  Sb  Sb5  1  0.841190  0.338946  0.181126  1
  Sb  Sb6  1  0.659986  0.502429  0.841050  1
  Sb  Sb7  1  0.340014  0.497571  0.158950  1
  Sb  Sb8  1  0.654854  0.814153  0.153460  1
  Sb  Sb9  1  0.345146  0.185847  0.846540  1
  Sb  Sb10  1  0.502366  0.841480  0.661125  1
  Sb  Sb11  1  0.497634  0.158520  0.338875  1
  Sb  Sb12  1  0.186402  0.841634  0.340335  1
  Sb  Sb13  1  0.813598  0.158366  0.659665  1
  Os  Os14  1  0.000000  0.500000  0.000000  1
  Ru  Ru15  1  0.500000  0.500000  0.500000  1
  Ru  Ru16  1  0.500000  0.000000  0.000000  1
