# generated using pymatgen
data_Ac2GeO5
_symmetry_space_group_name_H-M   'P 1'
_cell_length_a   7.86202300
_cell_length_b   7.36255648
_cell_length_c   9.85905518
_cell_angle_alpha   71.69951630
_cell_angle_beta   90.00000000
_cell_angle_gamma   90.00000000
_symmetry_Int_Tables_number   1
_chemical_formula_structural   Ac2GeO5
_chemical_formula_sum   'Ac8 Ge4 O20'
_cell_volume   541.82359852
_cell_formula_units_Z   4
loop_
 _symmetry_equiv_pos_site_id
 _symmetry_equiv_pos_as_xyz
  1  'x, y, z'
loop_
 _atom_site_type_symbol
 _atom_site_label
 _atom_site_symmetry_multiplicity
 _atom_site_fract_x
 _atom_site_fract_y
 _atom_site_fract_z
 _atom_site_occupancy
  Ac  Ac0  1  0.349635  0.909868  0.384831  1
  Ac  Ac1  1  0.150365  0.409868  0.384831  1
  Ac  Ac2  1  0.624495  0.234903  0.984389  1
  Ac  Ac3  1  0.650365  0.090132  0.615169  1
  Ac  Ac4  1  0.875505  0.734903  0.984389  1
  Ac  Ac5  1  0.375505  0.765097  0.015611  1
  Ac  Ac6  1  0.849635  0.590132  0.615169  1
  Ac  Ac7  1  0.124495  0.265097  0.015611  1
  Ge  Ge8  1  0.582597  0.457824  0.299544  1
  Ge  Ge9  1  0.917403  0.957824  0.299544  1
  Ge  Ge10  1  0.082597  0.042176  0.700456  1
  Ge  Ge11  1  0.417403  0.542176  0.700456  1
  O  O12  1  0.242649  0.558962  0.587712  1
  O  O13  1  0.865297  0.009875  0.114260  1
  O  O14  1  0.134703  0.990125  0.885740  1
  O  O15  1  0.874711  0.453456  0.887735  1
  O  O16  1  0.757351  0.441038  0.412288  1
  O  O17  1  0.634703  0.509875  0.114260  1
  O  O18  1  0.958288  0.253493  0.631210  1
  O  O19  1  0.125289  0.546544  0.112265  1
  O  O20  1  0.458288  0.246507  0.368790  1
  O  O21  1  0.076955  0.137280  0.290529  1
  O  O22  1  0.742649  0.941038  0.412288  1
  O  O23  1  0.625289  0.953456  0.887735  1
  O  O24  1  0.541712  0.753493  0.631210  1
  O  O25  1  0.257351  0.058962  0.587712  1
  O  O26  1  0.041712  0.746507  0.368790  1
  O  O27  1  0.374711  0.046544  0.112265  1
  O  O28  1  0.923045  0.862720  0.709471  1
  O  O29  1  0.576955  0.362720  0.709471  1
  O  O30  1  0.365297  0.490125  0.885740  1
  O  O31  1  0.423045  0.637280  0.290529  1
