# generated using pymatgen
data_Ba2TaReF14
_symmetry_space_group_name_H-M   'P 1'
_cell_length_a   7.59269500
_cell_length_b   5.14155103
_cell_length_c   7.10191805
_cell_angle_alpha   85.46157525
_cell_angle_beta   90.00000000
_cell_angle_gamma   90.00000000
_symmetry_Int_Tables_number   1
_chemical_formula_structural   Ba2TaReF14
_chemical_formula_sum   'Ba2 Ta1 Re1 F14'
_cell_volume   276.37699387
_cell_formula_units_Z   1
loop_
 _symmetry_equiv_pos_site_id
 _symmetry_equiv_pos_as_xyz
  1  'x, y, z'
loop_
 _atom_site_type_symbol
 _atom_site_label
 _atom_site_symmetry_multiplicity
 _atom_site_fract_x
 _atom_site_fract_y
 _atom_site_fract_z
 _atom_site_occupancy
  Ba  Ba0  1  0.250000  0.027564  0.697057  1
  Ba  Ba1  1  0.750000  0.964629  0.307844  1
  Ta  Ta2  1  0.750000  0.537636  0.778398  1
  Re  Re3  1  0.250000  0.457424  0.227142  1
  F  F4  1  0.250000  0.635877  0.969941  1
  F  F5  1  0.535014  0.332931  0.781167  1
  F  F6  1  0.750000  0.356404  0.035233  1
  F  F7  1  0.037201  0.673236  0.213979  1
  F  F8  1  0.250000  0.181450  0.051015  1
  F  F9  1  0.079677  0.203104  0.351399  1
  F  F10  1  0.420323  0.203104  0.351399  1
  F  F11  1  0.580347  0.799121  0.647297  1
  F  F12  1  0.964986  0.332931  0.781167  1
  F  F13  1  0.750000  0.820292  0.946277  1
  F  F14  1  0.462799  0.673236  0.213979  1
  F  F15  1  0.750000  0.423929  0.514399  1
  F  F16  1  0.919653  0.799121  0.647297  1
  F  F17  1  0.250000  0.578008  0.485008  1
