# generated using pymatgen
data_Ti8VBi4P
_symmetry_space_group_name_H-M   'P 1'
_cell_length_a   7.86725662
_cell_length_b   7.86725720
_cell_length_c   7.86725763
_cell_angle_alpha   95.77120943
_cell_angle_beta   95.77121165
_cell_angle_gamma   143.02396525
_symmetry_Int_Tables_number   1
_chemical_formula_structural   Ti8VBi4P
_chemical_formula_sum   'Ti8 V1 Bi4 P1'
_cell_volume   277.76586534
_cell_formula_units_Z   1
loop_
 _symmetry_equiv_pos_site_id
 _symmetry_equiv_pos_as_xyz
  1  'x, y, z'
loop_
 _atom_site_type_symbol
 _atom_site_label
 _atom_site_symmetry_multiplicity
 _atom_site_fract_x
 _atom_site_fract_y
 _atom_site_fract_z
 _atom_site_occupancy
  Ti  Ti0  1  0.694908  0.580845  0.276199  1
  Ti  Ti1  1  0.580845  0.304645  0.885938  1
  Ti  Ti2  1  0.081292  0.195355  0.276199  1
  Ti  Ti3  1  0.919155  0.805092  0.723801  1
  Ti  Ti4  1  0.195355  0.919155  0.114062  1
  Ti  Ti5  1  0.805092  0.081292  0.885938  1
  Ti  Ti6  1  0.304645  0.418708  0.723801  1
  Ti  Ti7  1  0.418708  0.694908  0.114062  1
  V  V8  1  0.750000  0.750000  0.000000  1
  Bi  Bi9  1  0.139750  0.639750  0.779502  1
  Bi  Bi10  1  0.360250  0.139750  0.500000  1
  Bi  Bi11  1  0.639750  0.860250  0.500000  1
  Bi  Bi12  1  0.860250  0.360250  0.220498  1
  P  P13  1  0.250000  0.250000  0.000000  1
