# generated using pymatgen
data_Th2Zn4AgSn
_symmetry_space_group_name_H-M   'P 1'
_cell_length_a   8.62598800
_cell_length_b   8.62598799
_cell_length_c   9.05277100
_cell_angle_alpha   90.00000000
_cell_angle_beta   90.00000000
_cell_angle_gamma   149.76692464
_symmetry_Int_Tables_number   1
_chemical_formula_structural   Th2Zn4AgSn
_chemical_formula_sum   'Th4 Zn8 Ag2 Sn2'
_cell_volume   339.16803221
_cell_formula_units_Z   2
loop_
 _symmetry_equiv_pos_site_id
 _symmetry_equiv_pos_as_xyz
  1  'x, y, z'
loop_
 _atom_site_type_symbol
 _atom_site_label
 _atom_site_symmetry_multiplicity
 _atom_site_fract_x
 _atom_site_fract_y
 _atom_site_fract_z
 _atom_site_occupancy
  Th  Th0  1  0.205012  0.794988  0.250000  1
  Th  Th1  1  0.794988  0.205012  0.750000  1
  Th  Th2  1  0.000000  0.000000  0.500000  1
  Th  Th3  1  0.000000  0.000000  0.000000  1
  Zn  Zn4  1  0.816523  0.183477  0.392004  1
  Zn  Zn5  1  0.183477  0.816523  0.607996  1
  Zn  Zn6  1  0.816523  0.183477  0.107996  1
  Zn  Zn7  1  0.183477  0.816523  0.892004  1
  Zn  Zn8  1  0.660266  0.339734  0.479085  1
  Zn  Zn9  1  0.339734  0.660266  0.520915  1
  Zn  Zn10  1  0.660266  0.339734  0.020915  1
  Zn  Zn11  1  0.339734  0.660266  0.979085  1
  Ag  Ag12  1  0.396206  0.603794  0.250000  1
  Ag  Ag13  1  0.603794  0.396206  0.750000  1
  Sn  Sn14  1  0.558278  0.441722  0.250000  1
  Sn  Sn15  1  0.441722  0.558278  0.750000  1
