# generated using pymatgen
data_Tm12Fe2Ni2SnRu
_symmetry_space_group_name_H-M   'P 1'
_cell_length_a   8.18222986
_cell_length_b   8.18235113
_cell_length_c   8.18247758
_cell_angle_alpha   105.26354628
_cell_angle_beta   111.44398036
_cell_angle_gamma   111.78624940
_symmetry_Int_Tables_number   1
_chemical_formula_structural   Tm12Fe2Ni2SnRu
_chemical_formula_sum   'Tm12 Fe2 Ni2 Sn1 Ru1'
_cell_volume   420.01688076
_cell_formula_units_Z   1
loop_
 _symmetry_equiv_pos_site_id
 _symmetry_equiv_pos_as_xyz
  1  'x, y, z'
loop_
 _atom_site_type_symbol
 _atom_site_label
 _atom_site_symmetry_multiplicity
 _atom_site_fract_x
 _atom_site_fract_y
 _atom_site_fract_z
 _atom_site_occupancy
  Tm  Tm0  1  0.695938  0.281232  0.977183  1
  Tm  Tm1  1  0.304050  0.718726  0.022759  1
  Tm  Tm2  1  0.695934  0.718708  0.414658  1
  Tm  Tm3  1  0.304044  0.281294  0.585322  1
  Tm  Tm4  1  0.803629  0.119157  0.315539  1
  Tm  Tm5  1  0.803642  0.488105  0.684477  1
  Tm  Tm6  1  0.196390  0.880876  0.684478  1
  Tm  Tm7  1  0.196396  0.511913  0.315509  1
  Tm  Tm8  1  0.590123  0.776390  0.813730  1
  Tm  Tm9  1  0.962665  0.776401  0.186289  1
  Tm  Tm10  1  0.037319  0.223587  0.813719  1
  Tm  Tm11  1  0.409849  0.223590  0.186270  1
  Fe  Fe12  1  0.880348  0.500039  0.380310  1
  Fe  Fe13  1  0.119749  0.500028  0.619734  1
  Ni  Ni14  1  0.999909  0.115166  0.115077  1
  Ni  Ni15  1  0.000087  0.884850  0.884978  1
  Sn  Sn16  1  0.499980  0.999992  0.499980  1
  Ru  Ru17  1  0.499947  0.499945  0.999986  1
