# generated using pymatgen
data_Sc3Zn3B4IrRh9
_symmetry_space_group_name_H-M   'P 1'
_cell_length_a   9.40013176
_cell_length_b   9.40013135
_cell_length_c   3.01133300
_cell_angle_alpha   90.00000000
_cell_angle_beta   90.00000000
_cell_angle_gamma   90.92973433
_symmetry_Int_Tables_number   1
_chemical_formula_structural   Sc3Zn3B4IrRh9
_chemical_formula_sum   'Sc3 Zn3 B4 Ir1 Rh9'
_cell_volume   266.05380018
_cell_formula_units_Z   1
loop_
 _symmetry_equiv_pos_site_id
 _symmetry_equiv_pos_as_xyz
  1  'x, y, z'
loop_
 _atom_site_type_symbol
 _atom_site_label
 _atom_site_symmetry_multiplicity
 _atom_site_fract_x
 _atom_site_fract_y
 _atom_site_fract_z
 _atom_site_occupancy
  Sc  Sc0  1  0.323922  0.179055  0.000000  1
  Sc  Sc1  1  0.679055  0.823922  0.000000  1
  Sc  Sc2  1  0.171951  0.671951  0.000000  1
  Zn  Zn3  1  0.820127  0.320127  0.000000  1
  Zn  Zn4  1  0.001748  0.998241  0.000000  1
  Zn  Zn5  1  0.498241  0.501748  0.000000  1
  B  B6  1  0.629888  0.129888  0.000000  1
  B  B7  1  0.126230  0.373385  0.000000  1
  B  B8  1  0.873385  0.626230  0.000000  1
  B  B9  1  0.374495  0.874495  0.000000  1
  Ir  Ir10  1  0.501805  0.001805  0.500000  1
  Rh  Rh11  1  0.070845  0.216200  0.500000  1
  Rh  Rh12  1  0.217477  0.927473  0.500000  1
  Rh  Rh13  1  0.787019  0.073880  0.500000  1
  Rh  Rh14  1  0.932363  0.780610  0.500000  1
  Rh  Rh15  1  0.427473  0.717477  0.500000  1
  Rh  Rh16  1  0.573880  0.287019  0.500000  1
  Rh  Rh17  1  0.716200  0.570845  0.500000  1
  Rh  Rh18  1  0.280610  0.432363  0.500000  1
  Rh  Rh19  1  0.993285  0.493285  0.500000  1
