# generated using pymatgen
data_LaTb5YbOsBr12
_symmetry_space_group_name_H-M   'P 1'
_cell_length_a   9.27954714
_cell_length_b   9.47113611
_cell_length_c   9.50037178
_cell_angle_alpha   107.04467484
_cell_angle_beta   106.80635128
_cell_angle_gamma   107.27714099
_symmetry_Int_Tables_number   1
_chemical_formula_structural   LaTb5YbOsBr12
_chemical_formula_sum   'La1 Tb5 Yb1 Os1 Br12'
_cell_volume   694.54769470
_cell_formula_units_Z   1
loop_
 _symmetry_equiv_pos_site_id
 _symmetry_equiv_pos_as_xyz
  1  'x, y, z'
loop_
 _atom_site_type_symbol
 _atom_site_label
 _atom_site_symmetry_multiplicity
 _atom_site_fract_x
 _atom_site_fract_y
 _atom_site_fract_z
 _atom_site_occupancy
  La  La0  1  0.695502  0.897068  0.976251  1
  Tb  Tb1  1  0.295580  0.101576  0.024634  1
  Tb  Tb2  1  0.023876  0.318037  0.109398  1
  Tb  Tb3  1  0.112063  0.026280  0.317348  1
  Tb  Tb4  1  0.892707  0.974856  0.685075  1
  Tb  Tb5  1  0.973721  0.682318  0.890090  1
  Yb  Yb6  1  0.501084  0.499442  0.497994  1
  Os  Os7  1  0.989928  0.996887  0.001104  1
  Br  Br8  1  0.684511  0.230279  0.072905  1
  Br  Br9  1  0.373629  0.450476  0.161885  1
  Br  Br10  1  0.071184  0.681385  0.212020  1
  Br  Br11  1  0.794981  0.934465  0.331853  1
  Br  Br12  1  0.457245  0.163547  0.371791  1
  Br  Br13  1  0.160971  0.373999  0.455980  1
  Br  Br14  1  0.842644  0.626693  0.544784  1
  Br  Br15  1  0.540970  0.832507  0.609763  1
  Br  Br16  1  0.217889  0.070882  0.689117  1
  Br  Br17  1  0.931929  0.319394  0.788346  1
  Br  Br18  1  0.625218  0.531394  0.826729  1
  Br  Br19  1  0.314373  0.788519  0.932937  1
