# generated using pymatgen
data_Cs8Pr3NdBr20
_symmetry_space_group_name_H-M   'P 1'
_cell_length_a   9.14365099
_cell_length_b   9.59170900
_cell_length_c   14.76719888
_cell_angle_alpha   90.00000000
_cell_angle_beta   90.12524047
_cell_angle_gamma   90.00000000
_symmetry_Int_Tables_number   1
_chemical_formula_structural   Cs8Pr3NdBr20
_chemical_formula_sum   'Cs8 Pr3 Nd1 Br20'
_cell_volume   1295.12808632
_cell_formula_units_Z   1
loop_
 _symmetry_equiv_pos_site_id
 _symmetry_equiv_pos_as_xyz
  1  'x, y, z'
loop_
 _atom_site_type_symbol
 _atom_site_label
 _atom_site_symmetry_multiplicity
 _atom_site_fract_x
 _atom_site_fract_y
 _atom_site_fract_z
 _atom_site_occupancy
  Cs  Cs0  1  0.943566  0.004116  0.827739  1
  Cs  Cs1  1  0.055986  0.995150  0.172254  1
  Cs  Cs2  1  0.444101  0.995404  0.672279  1
  Cs  Cs3  1  0.055986  0.504850  0.172254  1
  Cs  Cs4  1  0.556120  0.003947  0.327735  1
  Cs  Cs5  1  0.943566  0.495884  0.827739  1
  Cs  Cs6  1  0.556120  0.496053  0.327735  1
  Cs  Cs7  1  0.444101  0.504596  0.672279  1
  Pr  Pr8  1  0.930468  0.750000  0.503513  1
  Pr  Pr9  1  0.069279  0.250000  0.496560  1
  Pr  Pr10  1  0.431129  0.250000  0.996709  1
  Nd  Nd11  1  0.569593  0.750000  0.003277  1
  Br  Br12  1  0.112481  0.750000  0.669110  1
  Br  Br13  1  0.886952  0.250000  0.330695  1
  Br  Br14  1  0.612177  0.250000  0.830892  1
  Br  Br15  1  0.389424  0.750000  0.167770  1
  Br  Br16  1  0.842653  0.042662  0.568362  1
  Br  Br17  1  0.157112  0.957250  0.431632  1
  Br  Br18  1  0.343792  0.957109  0.931504  1
  Br  Br19  1  0.157112  0.542750  0.431632  1
  Br  Br20  1  0.656345  0.041079  0.068732  1
  Br  Br21  1  0.842653  0.457338  0.568362  1
  Br  Br22  1  0.656345  0.458921  0.068732  1
  Br  Br23  1  0.343792  0.542891  0.931504  1
  Br  Br24  1  0.604221  0.750000  0.513266  1
  Br  Br25  1  0.395369  0.250000  0.486570  1
  Br  Br26  1  0.105061  0.250000  0.986942  1
  Br  Br27  1  0.894470  0.750000  0.013454  1
  Br  Br28  1  0.648901  0.750000  0.810031  1
  Br  Br29  1  0.350873  0.250000  0.190721  1
  Br  Br30  1  0.150052  0.250000  0.690440  1
  Br  Br31  1  0.850199  0.750000  0.309577  1
