# generated using pymatgen
data_Tb12InNi4Ru
_symmetry_space_group_name_H-M   'P 1'
_cell_length_a   8.35317741
_cell_length_b   8.35317696
_cell_length_c   8.35317780
_cell_angle_alpha   111.42877606
_cell_angle_beta   109.53907849
_cell_angle_gamma   107.46997524
_symmetry_Int_Tables_number   1
_chemical_formula_structural   Tb12InNi4Ru
_chemical_formula_sum   'Tb12 In1 Ni4 Ru1'
_cell_volume   448.14106177
_cell_formula_units_Z   1
loop_
 _symmetry_equiv_pos_site_id
 _symmetry_equiv_pos_as_xyz
  1  'x, y, z'
loop_
 _atom_site_type_symbol
 _atom_site_label
 _atom_site_symmetry_multiplicity
 _atom_site_fract_x
 _atom_site_fract_y
 _atom_site_fract_z
 _atom_site_occupancy
  Tb  Tb0  1  0.403101  0.213279  0.189822  1
  Tb  Tb1  1  0.596899  0.786721  0.810178  1
  Tb  Tb2  1  0.023459  0.213279  0.810178  1
  Tb  Tb3  1  0.976541  0.786721  0.189822  1
  Tb  Tb4  1  0.182142  0.292079  0.474222  1
  Tb  Tb5  1  0.817858  0.707921  0.525778  1
  Tb  Tb6  1  0.182142  0.707921  0.890064  1
  Tb  Tb7  1  0.817858  0.292079  0.109936  1
  Tb  Tb8  1  0.320225  0.624486  0.304263  1
  Tb  Tb9  1  0.679775  0.375514  0.695737  1
  Tb  Tb10  1  0.320225  0.015962  0.695737  1
  Tb  Tb11  1  0.679775  0.984038  0.304263  1
  In  In12  1  0.500000  0.500000  0.000000  1
  Ni  Ni13  1  0.367884  0.000000  0.367884  1
  Ni  Ni14  1  0.632116  0.000000  0.632116  1
  Ni  Ni15  1  0.122335  0.622335  0.500000  1
  Ni  Ni16  1  0.877665  0.377665  0.500000  1
  Ru  Ru17  1  0.000000  0.000000  0.000000  1
