# generated using pymatgen
data_SbBrF10
_symmetry_space_group_name_H-M   'P 1'
_cell_length_a   5.97953355
_cell_length_b   7.79591708
_cell_length_c   10.04172003
_cell_angle_alpha   85.27806826
_cell_angle_beta   107.19301436
_cell_angle_gamma   98.44581078
_symmetry_Int_Tables_number   1
_chemical_formula_structural   SbBrF10
_chemical_formula_sum   'Sb2 Br2 F20'
_cell_volume   441.96207206
_cell_formula_units_Z   2
loop_
 _symmetry_equiv_pos_site_id
 _symmetry_equiv_pos_as_xyz
  1  'x, y, z'
loop_
 _atom_site_type_symbol
 _atom_site_label
 _atom_site_symmetry_multiplicity
 _atom_site_fract_x
 _atom_site_fract_y
 _atom_site_fract_z
 _atom_site_occupancy
  Sb  Sb0  1  0.966016  0.770422  0.316042  1
  Sb  Sb1  1  0.033984  0.229578  0.683958  1
  Br  Br2  1  0.352822  0.410150  0.231387  1
  Br  Br3  1  0.647178  0.589850  0.768613  1
  F  F4  1  0.075395  0.285812  0.181841  1
  F  F5  1  0.924605  0.714188  0.818159  1
  F  F6  1  0.488033  0.260051  0.172171  1
  F  F7  1  0.511967  0.739949  0.827829  1
  F  F8  1  0.108365  0.214929  0.881570  1
  F  F9  1  0.891635  0.785071  0.118430  1
  F  F10  1  0.962370  0.285729  0.490167  1
  F  F11  1  0.037630  0.714271  0.509833  1
  F  F12  1  0.772027  0.055632  0.663088  1
  F  F13  1  0.227973  0.944368  0.336912  1
  F  F14  1  0.256265  0.081558  0.681149  1
  F  F15  1  0.743735  0.918442  0.318851  1
  F  F16  1  0.283673  0.434670  0.707842  1
  F  F17  1  0.716327  0.565330  0.292158  1
  F  F18  1  0.823322  0.406366  0.687772  1
  F  F19  1  0.176678  0.593634  0.312228  1
  F  F20  1  0.716472  0.485975  0.942162  1
  F  F21  1  0.283528  0.514025  0.057838  1
  F  F22  1  0.587323  0.706272  0.602135  1
  F  F23  1  0.412677  0.293728  0.397865  1
