# generated using pymatgen
data_Dy6Tm(LuSn2)3
_symmetry_space_group_name_H-M   'P 1'
_cell_length_a   6.46034200
_cell_length_b   8.91336849
_cell_length_c   8.91435703
_cell_angle_alpha   119.99196268
_cell_angle_beta   90.00189382
_cell_angle_gamma   89.99828668
_symmetry_Int_Tables_number   1
_chemical_formula_structural   Dy6Tm(LuSn2)3
_chemical_formula_sum   'Dy6 Tm1 Lu3 Sn6'
_cell_volume   444.58334938
_cell_formula_units_Z   1
loop_
 _symmetry_equiv_pos_site_id
 _symmetry_equiv_pos_as_xyz
  1  'x, y, z'
loop_
 _atom_site_type_symbol
 _atom_site_label
 _atom_site_symmetry_multiplicity
 _atom_site_fract_x
 _atom_site_fract_y
 _atom_site_fract_z
 _atom_site_occupancy
  Dy  Dy0  1  0.749922  0.239566  0.000049  1
  Dy  Dy1  1  0.749917  0.760394  0.760398  1
  Dy  Dy2  1  0.749922  0.999900  0.239550  1
  Dy  Dy3  1  0.250076  0.760481  0.000028  1
  Dy  Dy4  1  0.250080  0.239645  0.239550  1
  Dy  Dy5  1  0.250073  0.999986  0.760392  1
  Tm  Tm6  1  0.000001  0.333370  0.666721  1
  Lu  Lu7  1  0.499999  0.333351  0.666729  1
  Lu  Lu8  1  0.500007  0.666635  0.333281  1
  Lu  Lu9  1  0.000007  0.666676  0.333299  1
  Sn  Sn10  1  0.749626  0.603915  0.000426  1
  Sn  Sn11  1  0.749637  0.396420  0.396007  1
  Sn  Sn12  1  0.749628  0.999565  0.603549  1
  Sn  Sn13  1  0.250355  0.396512  0.000421  1
  Sn  Sn14  1  0.250376  0.604010  0.603577  1
  Sn  Sn15  1  0.250372  0.999575  0.396024  1
