# generated using pymatgen
data_Tb4Ho3Er3Ru4
_symmetry_space_group_name_H-M   'P 1'
_cell_length_a   6.34533005
_cell_length_b   7.27046960
_cell_length_c   8.47256189
_cell_angle_alpha   96.74945464
_cell_angle_beta   112.05318448
_cell_angle_gamma   89.89361810
_symmetry_Int_Tables_number   1
_chemical_formula_structural   Tb4Ho3Er3Ru4
_chemical_formula_sum   'Tb4 Ho3 Er3 Ru4'
_cell_volume   359.38121805
_cell_formula_units_Z   1
loop_
 _symmetry_equiv_pos_site_id
 _symmetry_equiv_pos_as_xyz
  1  'x, y, z'
loop_
 _atom_site_type_symbol
 _atom_site_label
 _atom_site_symmetry_multiplicity
 _atom_site_fract_x
 _atom_site_fract_y
 _atom_site_fract_z
 _atom_site_occupancy
  Tb  Tb0  1  0.790048  0.583650  0.812460  1
  Tb  Tb1  1  0.977317  0.916280  0.187416  1
  Tb  Tb2  1  0.209746  0.416184  0.187542  1
  Tb  Tb3  1  0.022941  0.083961  0.812587  1
  Ho  Ho4  1  0.205693  0.685406  0.565998  1
  Ho  Ho5  1  0.639927  0.815010  0.434419  1
  Ho  Ho6  1  0.794517  0.314531  0.434095  1
  Er  Er7  1  0.360189  0.184928  0.565833  1
  Er  Er8  1  0.420312  0.749706  0.999839  1
  Er  Er9  1  0.579614  0.250302  0.999930  1
  Ru  Ru10  1  0.601070  0.925069  0.779076  1
  Ru  Ru11  1  0.821817  0.575954  0.220512  1
  Ru  Ru12  1  0.398614  0.075207  0.221056  1
  Ru  Ru13  1  0.178195  0.423811  0.779236  1
