# generated using pymatgen
data_Sr6Yb2IrRuO12
_symmetry_space_group_name_H-M   'P 1'
_cell_length_a   6.83569978
_cell_length_b   6.83569942
_cell_length_c   6.83569900
_cell_angle_alpha   91.79791040
_cell_angle_beta   91.79790125
_cell_angle_gamma   91.79791725
_symmetry_Int_Tables_number   1
_chemical_formula_structural   Sr6Yb2IrRuO12
_chemical_formula_sum   'Sr6 Yb2 Ir1 Ru1 O12'
_cell_volume   318.92842163
_cell_formula_units_Z   1
loop_
 _symmetry_equiv_pos_site_id
 _symmetry_equiv_pos_as_xyz
  1  'x, y, z'
loop_
 _atom_site_type_symbol
 _atom_site_label
 _atom_site_symmetry_multiplicity
 _atom_site_fract_x
 _atom_site_fract_y
 _atom_site_fract_z
 _atom_site_occupancy
  Sr  Sr0  1  0.889167  0.615184  0.246381  1
  Sr  Sr1  1  0.615184  0.246381  0.889167  1
  Sr  Sr2  1  0.753619  0.110833  0.384816  1
  Sr  Sr3  1  0.384816  0.753619  0.110833  1
  Sr  Sr4  1  0.110833  0.384816  0.753619  1
  Sr  Sr5  1  0.246381  0.889167  0.615184  1
  Yb  Yb6  1  0.248337  0.248337  0.248337  1
  Yb  Yb7  1  0.751663  0.751663  0.751663  1
  Ir  Ir8  1  0.000000  0.000000  0.000000  1
  Ru  Ru9  1  0.500000  0.500000  0.500000  1
  O  O10  1  0.782044  0.452112  0.581565  1
  O  O11  1  0.913521  0.048660  0.711081  1
  O  O12  1  0.711081  0.913521  0.048660  1
  O  O13  1  0.048660  0.711081  0.913521  1
  O  O14  1  0.581565  0.782044  0.452112  1
  O  O15  1  0.452112  0.581565  0.782044  1
  O  O16  1  0.418435  0.217956  0.547888  1
  O  O17  1  0.547888  0.418435  0.217956  1
  O  O18  1  0.951340  0.288919  0.086479  1
  O  O19  1  0.288919  0.086479  0.951340  1
  O  O20  1  0.086479  0.951340  0.288919  1
  O  O21  1  0.217956  0.547888  0.418435  1
