# generated using pymatgen
data_K2Li14HfZr2O14
_symmetry_space_group_name_H-M   'P 1'
_cell_length_a   8.25384966
_cell_length_b   8.25385020
_cell_length_c   8.25384967
_cell_angle_alpha   127.39559405
_cell_angle_beta   123.23506725
_cell_angle_gamma   81.06058210
_symmetry_Int_Tables_number   1
_chemical_formula_structural   K2Li14HfZr2O14
_chemical_formula_sum   'K2 Li14 Hf1 Zr2 O14'
_cell_volume   360.08444000
_cell_formula_units_Z   1
loop_
 _symmetry_equiv_pos_site_id
 _symmetry_equiv_pos_as_xyz
  1  'x, y, z'
loop_
 _atom_site_type_symbol
 _atom_site_label
 _atom_site_symmetry_multiplicity
 _atom_site_fract_x
 _atom_site_fract_y
 _atom_site_fract_z
 _atom_site_occupancy
  K  K0  1  0.500000  0.760606  0.260606  1
  K  K1  1  0.500000  0.239394  0.739394  1
  Li  Li2  1  0.706032  0.136420  0.112851  1
  Li  Li3  1  0.976432  0.863580  0.569613  1
  Li  Li4  1  0.023568  0.593181  0.887149  1
  Li  Li5  1  0.293968  0.406819  0.430387  1
  Li  Li6  1  0.023568  0.136420  0.430387  1
  Li  Li7  1  0.846374  0.500000  0.346374  1
  Li  Li8  1  0.153626  0.500000  0.653626  1
  Li  Li9  1  0.413777  0.771214  0.642563  1
  Li  Li10  1  0.586223  0.228786  0.357437  1
  Li  Li11  1  0.871349  0.228786  0.642563  1
  Li  Li12  1  0.128651  0.771214  0.357437  1
  Li  Li13  1  0.706032  0.593181  0.569613  1
  Li  Li14  1  0.293968  0.863580  0.887149  1
  Li  Li15  1  0.976432  0.406819  0.112851  1
  Hf  Hf16  1  0.000000  0.000000  0.000000  1
  Zr  Zr17  1  0.272078  0.272078  0.000000  1
  Zr  Zr18  1  0.727922  0.727922  0.000000  1
  O  O19  1  0.053042  0.873814  0.179228  1
  O  O20  1  0.418785  0.628732  0.790052  1
  O  O21  1  0.838680  0.628732  0.209948  1
  O  O22  1  0.581215  0.371268  0.209948  1
  O  O23  1  0.161320  0.371268  0.790052  1
  O  O24  1  0.744719  0.031401  0.286682  1
  O  O25  1  0.255281  0.541965  0.286682  1
  O  O26  1  0.255281  0.968599  0.713318  1
  O  O27  1  0.744719  0.458035  0.713318  1
  O  O28  1  0.000000  0.714375  0.714375  1
  O  O29  1  0.000000  0.285625  0.285625  1
  O  O30  1  0.694585  0.873814  0.820772  1
  O  O31  1  0.305415  0.126186  0.179228  1
  O  O32  1  0.946958  0.126186  0.820772  1
