# generated using pymatgen
data_Th6FeRuAu6
_symmetry_space_group_name_H-M   'P 1'
_cell_length_a   8.22864270
_cell_length_b   8.22864384
_cell_length_c   8.22864474
_cell_angle_alpha   114.20794952
_cell_angle_beta   114.20793669
_cell_angle_gamma   114.20791695
_symmetry_Int_Tables_number   1
_chemical_formula_structural   Th6FeRuAu6
_chemical_formula_sum   'Th6 Fe1 Ru1 Au6'
_cell_volume   333.22399315
_cell_formula_units_Z   1
loop_
 _symmetry_equiv_pos_site_id
 _symmetry_equiv_pos_as_xyz
  1  'x, y, z'
loop_
 _atom_site_type_symbol
 _atom_site_label
 _atom_site_symmetry_multiplicity
 _atom_site_fract_x
 _atom_site_fract_y
 _atom_site_fract_z
 _atom_site_occupancy
  Th  Th0  1  0.044071  0.382320  0.277008  1
  Th  Th1  1  0.382320  0.277008  0.044071  1
  Th  Th2  1  0.722992  0.955929  0.617680  1
  Th  Th3  1  0.277008  0.044071  0.382320  1
  Th  Th4  1  0.617680  0.722992  0.955929  1
  Th  Th5  1  0.955929  0.617680  0.722992  1
  Fe  Fe6  1  0.000000  0.000000  0.000000  1
  Ru  Ru7  1  0.500000  0.500000  0.500000  1
  Au  Au8  1  0.420816  0.930513  0.765559  1
  Au  Au9  1  0.930513  0.765559  0.420816  1
  Au  Au10  1  0.234441  0.579184  0.069487  1
  Au  Au11  1  0.765559  0.420816  0.930513  1
  Au  Au12  1  0.069487  0.234441  0.579184  1
  Au  Au13  1  0.579184  0.069487  0.234441  1
