# generated using pymatgen
data_Ca2LuTaO6
_symmetry_space_group_name_H-M   'P 1'
_cell_length_a   5.79220000
_cell_length_b   5.59956901
_cell_length_c   9.79765594
_cell_angle_alpha   55.23555783
_cell_angle_beta   90.00000000
_cell_angle_gamma   90.00000000
_symmetry_Int_Tables_number   1
_chemical_formula_structural   Ca2LuTaO6
_chemical_formula_sum   'Ca4 Lu2 Ta2 O12'
_cell_volume   261.05355598
_cell_formula_units_Z   2
loop_
 _symmetry_equiv_pos_site_id
 _symmetry_equiv_pos_as_xyz
  1  'x, y, z'
loop_
 _atom_site_type_symbol
 _atom_site_label
 _atom_site_symmetry_multiplicity
 _atom_site_fract_x
 _atom_site_fract_y
 _atom_site_fract_z
 _atom_site_occupancy
  Ca  Ca0  1  0.050708  0.260846  0.751888  1
  Ca  Ca1  1  0.550708  0.739154  0.748112  1
  Ca  Ca2  1  0.949292  0.739154  0.248112  1
  Ca  Ca3  1  0.449292  0.260846  0.251888  1
  Lu  Lu4  1  0.000000  0.000000  0.500000  1
  Lu  Lu5  1  0.500000  0.000000  0.000000  1
  Ta  Ta6  1  0.000000  0.500000  0.000000  1
  Ta  Ta7  1  0.500000  0.500000  0.500000  1
  O  O8  1  0.311071  0.737962  0.552286  1
  O  O9  1  0.811071  0.262038  0.947714  1
  O  O10  1  0.688929  0.262038  0.447714  1
  O  O11  1  0.188929  0.737962  0.052286  1
  O  O12  1  0.212167  0.373828  0.441384  1
  O  O13  1  0.712167  0.626172  0.058616  1
  O  O14  1  0.787833  0.626172  0.558616  1
  O  O15  1  0.287833  0.373828  0.941384  1
  O  O16  1  0.460246  0.157717  0.737623  1
  O  O17  1  0.960246  0.842283  0.762377  1
  O  O18  1  0.039754  0.157717  0.237623  1
  O  O19  1  0.539754  0.842283  0.262377  1
