# generated using pymatgen
data_DySc6Sn23Ir6
_symmetry_space_group_name_H-M   'P 1'
_cell_length_a   9.73040000
_cell_length_b   9.73040172
_cell_length_c   9.96657400
_cell_angle_alpha   90.00000000
_cell_angle_beta   90.00000000
_cell_angle_gamma   120.00000095
_symmetry_Int_Tables_number   1
_chemical_formula_structural   DySc6Sn23Ir6
_chemical_formula_sum   'Dy1 Sc6 Sn23 Ir6'
_cell_volume   817.21811993
_cell_formula_units_Z   1
loop_
 _symmetry_equiv_pos_site_id
 _symmetry_equiv_pos_as_xyz
  1  'x, y, z'
loop_
 _atom_site_type_symbol
 _atom_site_label
 _atom_site_symmetry_multiplicity
 _atom_site_fract_x
 _atom_site_fract_y
 _atom_site_fract_z
 _atom_site_occupancy
  Dy  Dy0  1  0.000000  0.000000  0.000000  1
  Sc  Sc1  1  0.482981  0.517019  0.309396  1
  Sc  Sc2  1  0.517019  0.482981  0.690604  1
  Sc  Sc3  1  0.482981  0.965961  0.309396  1
  Sc  Sc4  1  0.517019  0.034039  0.690604  1
  Sc  Sc5  1  0.034039  0.517019  0.309396  1
  Sc  Sc6  1  0.965961  0.482981  0.690604  1
  Sn  Sn7  1  0.353728  0.000000  0.000000  1
  Sn  Sn8  1  0.646272  0.000000  0.000000  1
  Sn  Sn9  1  0.000000  0.353728  0.000000  1
  Sn  Sn10  1  0.000000  0.646272  0.000000  1
  Sn  Sn11  1  0.646272  0.646272  0.000000  1
  Sn  Sn12  1  0.353728  0.353728  0.000000  1
  Sn  Sn13  1  0.333333  0.666667  0.828723  1
  Sn  Sn14  1  0.666667  0.333333  0.171277  1
  Sn  Sn15  1  0.000000  0.000000  0.500000  1
  Sn  Sn16  1  0.775906  0.224094  0.458745  1
  Sn  Sn17  1  0.224094  0.775906  0.541255  1
  Sn  Sn18  1  0.775906  0.551814  0.458745  1
  Sn  Sn19  1  0.224094  0.448186  0.541255  1
  Sn  Sn20  1  0.448186  0.224094  0.458745  1
  Sn  Sn21  1  0.551814  0.775906  0.541255  1
  Sn  Sn22  1  0.333333  0.666667  0.137264  1
  Sn  Sn23  1  0.666667  0.333333  0.862736  1
  Sn  Sn24  1  0.122805  0.877195  0.285097  1
  Sn  Sn25  1  0.877195  0.122805  0.714903  1
  Sn  Sn26  1  0.122805  0.245611  0.285097  1
  Sn  Sn27  1  0.877195  0.754389  0.714903  1
  Sn  Sn28  1  0.754389  0.877195  0.285097  1
  Sn  Sn29  1  0.245611  0.122805  0.714903  1
  Ir  Ir30  1  0.830175  0.169825  0.200291  1
  Ir  Ir31  1  0.169825  0.830175  0.799709  1
  Ir  Ir32  1  0.830175  0.660349  0.200291  1
  Ir  Ir33  1  0.169825  0.339651  0.799709  1
  Ir  Ir34  1  0.339651  0.169825  0.200291  1
  Ir  Ir35  1  0.660349  0.830175  0.799709  1
