# generated using pymatgen
data_Ac8CoNiI10
_symmetry_space_group_name_H-M   'P 1'
_cell_length_a   4.35721800
_cell_length_b   9.68231100
_cell_length_c   20.36029800
_cell_angle_alpha   90.00000000
_cell_angle_beta   90.00000000
_cell_angle_gamma   90.00000000
_symmetry_Int_Tables_number   1
_chemical_formula_structural   Ac8CoNiI10
_chemical_formula_sum   'Ac8 Co1 Ni1 I10'
_cell_volume   858.95902574
_cell_formula_units_Z   1
loop_
 _symmetry_equiv_pos_site_id
 _symmetry_equiv_pos_as_xyz
  1  'x, y, z'
loop_
 _atom_site_type_symbol
 _atom_site_label
 _atom_site_symmetry_multiplicity
 _atom_site_fract_x
 _atom_site_fract_y
 _atom_site_fract_z
 _atom_site_occupancy
  Ac  Ac0  1  0.000000  0.368724  0.853064  1
  Ac  Ac1  1  0.500000  0.575465  0.000000  1
  Ac  Ac2  1  0.000000  0.368724  0.146936  1
  Ac  Ac3  1  0.000000  0.833022  0.500000  1
  Ac  Ac4  1  0.500000  0.632002  0.354962  1
  Ac  Ac5  1  0.000000  0.426738  0.500000  1
  Ac  Ac6  1  0.500000  0.632002  0.645038  1
  Ac  Ac7  1  0.500000  0.166288  0.000000  1
  Co  Co8  1  0.500000  0.627404  0.500000  1
  Ni  Ni9  1  0.000000  0.372821  0.000000  1
  I  I10  1  0.500000  0.105279  0.168303  1
  I  I11  1  0.000000  0.363552  0.676714  1
  I  I12  1  0.000000  0.870038  0.000000  1
  I  I13  1  0.000000  0.893486  0.331679  1
  I  I14  1  0.500000  0.105279  0.831697  1
  I  I15  1  0.500000  0.636565  0.823811  1
  I  I16  1  0.000000  0.893486  0.668321  1
  I  I17  1  0.000000  0.363552  0.323286  1
  I  I18  1  0.500000  0.636565  0.176189  1
  I  I19  1  0.500000  0.129008  0.500000  1
