# generated using pymatgen
data_Li2Dy8Sc9Si16Ru
_symmetry_space_group_name_H-M   'P 1'
_cell_length_a   6.92135001
_cell_length_b   7.35160235
_cell_length_c   13.95702700
_cell_angle_alpha   90.00000000
_cell_angle_beta   90.00000000
_cell_angle_gamma   90.01491516
_symmetry_Int_Tables_number   1
_chemical_formula_structural   Li2Dy8Sc9Si16Ru
_chemical_formula_sum   'Li2 Dy8 Sc9 Si16 Ru1'
_cell_volume   710.17556233
_cell_formula_units_Z   1
loop_
 _symmetry_equiv_pos_site_id
 _symmetry_equiv_pos_as_xyz
  1  'x, y, z'
loop_
 _atom_site_type_symbol
 _atom_site_label
 _atom_site_symmetry_multiplicity
 _atom_site_fract_x
 _atom_site_fract_y
 _atom_site_fract_z
 _atom_site_occupancy
  Li  Li0  1  0.843005  0.495016  0.250000  1
  Li  Li1  1  0.341507  0.005430  0.250000  1
  Dy  Dy2  1  0.015445  0.183320  0.096867  1
  Dy  Dy3  1  0.992794  0.819035  0.901132  1
  Dy  Dy4  1  0.488691  0.672442  0.903226  1
  Dy  Dy5  1  0.992794  0.819035  0.598868  1
  Dy  Dy6  1  0.515620  0.317890  0.098452  1
  Dy  Dy7  1  0.015445  0.183320  0.403133  1
  Dy  Dy8  1  0.515620  0.317890  0.401548  1
  Dy  Dy9  1  0.488691  0.672442  0.596774  1
  Sc  Sc10  1  0.658317  0.997208  0.750000  1
  Sc  Sc11  1  0.325735  0.178522  0.626921  1
  Sc  Sc12  1  0.669513  0.822969  0.373608  1
  Sc  Sc13  1  0.171329  0.677369  0.374967  1
  Sc  Sc14  1  0.669513  0.822969  0.126392  1
  Sc  Sc15  1  0.825073  0.330693  0.627872  1
  Sc  Sc16  1  0.325735  0.178522  0.873079  1
  Sc  Sc17  1  0.825073  0.330693  0.872128  1
  Sc  Sc18  1  0.171329  0.677369  0.125033  1
  Si  Si19  1  0.029269  0.118479  0.750000  1
  Si  Si20  1  0.970701  0.894505  0.250000  1
  Si  Si21  1  0.470383  0.603334  0.250000  1
  Si  Si22  1  0.514944  0.396368  0.750000  1
  Si  Si23  1  0.286181  0.867319  0.750000  1
  Si  Si24  1  0.721525  0.119083  0.250000  1
  Si  Si25  1  0.218609  0.381471  0.250000  1
  Si  Si26  1  0.794230  0.628471  0.750000  1
  Si  Si27  1  0.153790  0.464389  0.544756  1
  Si  Si28  1  0.841503  0.537981  0.465552  1
  Si  Si29  1  0.342659  0.961878  0.466236  1
  Si  Si30  1  0.841503  0.537981  0.034448  1
  Si  Si31  1  0.658153  0.033566  0.539203  1
  Si  Si32  1  0.153790  0.464389  0.955244  1
  Si  Si33  1  0.658153  0.033566  0.960797  1
  Si  Si34  1  0.342659  0.961878  0.033764  1
  Ru  Ru35  1  0.150719  0.493208  0.750000  1
