# generated using pymatgen
data_Ba3Sc(FeO4)2
_symmetry_space_group_name_H-M   'P 1'
_cell_length_a   5.86943242
_cell_length_b   5.86967097
_cell_length_c   14.50301423
_cell_angle_alpha   89.99281133
_cell_angle_beta   89.98642440
_cell_angle_gamma   119.79269330
_symmetry_Int_Tables_number   1
_chemical_formula_structural   Ba3Sc(FeO4)2
_chemical_formula_sum   'Ba6 Sc2 Fe4 O16'
_cell_volume   433.61288418
_cell_formula_units_Z   2
loop_
 _symmetry_equiv_pos_site_id
 _symmetry_equiv_pos_as_xyz
  1  'x, y, z'
loop_
 _atom_site_type_symbol
 _atom_site_label
 _atom_site_symmetry_multiplicity
 _atom_site_fract_x
 _atom_site_fract_y
 _atom_site_fract_z
 _atom_site_occupancy
  Ba  Ba0  1  0.330544  0.655909  0.917010  1
  Ba  Ba1  1  0.664340  0.332727  0.077607  1
  Ba  Ba2  1  0.655872  0.330534  0.416934  1
  Ba  Ba3  1  0.332696  0.664303  0.577624  1
  Ba  Ba4  1  0.010058  0.012468  0.750187  1
  Ba  Ba5  1  0.012515  0.010083  0.250222  1
  Sc  Sc6  1  0.004877  0.000793  0.002010  1
  Sc  Sc7  1  0.000768  0.004779  0.502032  1
  Fe  Fe8  1  0.355595  0.682682  0.148052  1
  Fe  Fe9  1  0.682229  0.352200  0.848686  1
  Fe  Fe10  1  0.682571  0.355356  0.647952  1
  Fe  Fe11  1  0.352116  0.682237  0.348655  1
  O  O12  1  0.816667  0.156699  0.907968  1
  O  O13  1  0.357997  0.165618  0.915211  1
  O  O14  1  0.843412  0.671105  0.918039  1
  O  O15  1  0.153433  0.827026  0.091844  1
  O  O16  1  0.670940  0.845783  0.081037  1
  O  O17  1  0.162967  0.347145  0.082566  1
  O  O18  1  0.156608  0.816527  0.407949  1
  O  O19  1  0.670953  0.843382  0.418104  1
  O  O20  1  0.165576  0.358091  0.415232  1
  O  O21  1  0.826975  0.153412  0.591869  1
  O  O22  1  0.347248  0.163009  0.582519  1
  O  O23  1  0.845804  0.670965  0.581006  1
  O  O24  1  0.501928  0.432195  0.754579  1
  O  O25  1  0.944733  0.446574  0.755180  1
  O  O26  1  0.432251  0.501954  0.254670  1
  O  O27  1  0.446496  0.944613  0.255258  1
