# generated using pymatgen
data_Ti4CuSi4IrRh2
_symmetry_space_group_name_H-M   'P 1'
_cell_length_a   3.78106100
_cell_length_b   6.28419578
_cell_length_c   7.29814764
_cell_angle_alpha   90.93083489
_cell_angle_beta   90.00000000
_cell_angle_gamma   90.00000000
_symmetry_Int_Tables_number   1
_chemical_formula_structural   Ti4CuSi4IrRh2
_chemical_formula_sum   'Ti4 Cu1 Si4 Ir1 Rh2'
_cell_volume   173.38787332
_cell_formula_units_Z   1
loop_
 _symmetry_equiv_pos_site_id
 _symmetry_equiv_pos_as_xyz
  1  'x, y, z'
loop_
 _atom_site_type_symbol
 _atom_site_label
 _atom_site_symmetry_multiplicity
 _atom_site_fract_x
 _atom_site_fract_y
 _atom_site_fract_z
 _atom_site_occupancy
  Ti  Ti0  1  0.750000  0.472233  0.326907  1
  Ti  Ti1  1  0.250000  0.025187  0.818379  1
  Ti  Ti2  1  0.750000  0.976851  0.180223  1
  Ti  Ti3  1  0.250000  0.531663  0.677264  1
  Cu  Cu4  1  0.750000  0.348718  0.937737  1
  Si  Si5  1  0.250000  0.264416  0.124273  1
  Si  Si6  1  0.250000  0.766098  0.372377  1
  Si  Si7  1  0.750000  0.739563  0.879478  1
  Si  Si8  1  0.750000  0.235874  0.625094  1
  Ir  Ir9  1  0.750000  0.846539  0.564116  1
  Rh  Rh10  1  0.250000  0.641344  0.057433  1
  Rh  Rh11  1  0.250000  0.151512  0.436719  1
