# generated using pymatgen
data_Dy7Y3Al4(SnC4)2
_symmetry_space_group_name_H-M   'P 1'
_cell_length_a   10.97334427
_cell_length_b   10.99422027
_cell_length_c   3.54798300
_cell_angle_alpha   90.00000000
_cell_angle_beta   90.00000000
_cell_angle_gamma   90.02538302
_symmetry_Int_Tables_number   1
_chemical_formula_structural   Dy7Y3Al4(SnC4)2
_chemical_formula_sum   'Dy7 Y3 Al4 Sn2 C8'
_cell_volume   428.04056250
_cell_formula_units_Z   1
loop_
 _symmetry_equiv_pos_site_id
 _symmetry_equiv_pos_as_xyz
  1  'x, y, z'
loop_
 _atom_site_type_symbol
 _atom_site_label
 _atom_site_symmetry_multiplicity
 _atom_site_fract_x
 _atom_site_fract_y
 _atom_site_fract_z
 _atom_site_occupancy
  Dy  Dy0  1  0.550687  0.733166  0.500000  1
  Dy  Dy1  1  0.449184  0.266855  0.500000  1
  Dy  Dy2  1  0.050742  0.766785  0.500000  1
  Dy  Dy3  1  0.949228  0.233244  0.500000  1
  Dy  Dy4  1  0.267045  0.550655  0.500000  1
  Dy  Dy5  1  0.500008  0.000007  0.000000  1
  Dy  Dy6  1  0.999839  0.500004  0.000000  1
  Y  Y7  1  0.732324  0.449361  0.500000  1
  Y  Y8  1  0.232315  0.050525  0.500000  1
  Y  Y9  1  0.767675  0.949395  0.500000  1
  Al  Al10  1  0.703839  0.203709  0.000000  1
  Al  Al11  1  0.296263  0.796067  0.000000  1
  Al  Al12  1  0.203954  0.296410  0.000000  1
  Al  Al13  1  0.796155  0.703711  0.000000  1
  Sn  Sn14  1  0.499889  0.500124  0.000000  1
  Sn  Sn15  1  0.999940  0.999928  0.000000  1
  C  C16  1  0.632520  0.133734  0.500000  1
  C  C17  1  0.367393  0.866149  0.500000  1
  C  C18  1  0.133037  0.367032  0.500000  1
  C  C19  1  0.867469  0.633803  0.500000  1
  C  C20  1  0.162769  0.662667  0.000000  1
  C  C21  1  0.837785  0.336744  0.000000  1
  C  C22  1  0.662277  0.836756  0.000000  1
  C  C23  1  0.337663  0.163168  0.000000  1
