# generated using pymatgen
data_Ba4GaAs3Pt3Rh
_symmetry_space_group_name_H-M   'P 1'
_cell_length_a   6.82494201
_cell_length_b   6.82494102
_cell_length_c   6.82494041
_cell_angle_alpha   90.67486279
_cell_angle_beta   89.32513987
_cell_angle_gamma   90.67486516
_symmetry_Int_Tables_number   1
_chemical_formula_structural   Ba4GaAs3Pt3Rh
_chemical_formula_sum   'Ba4 Ga1 As3 Pt3 Rh1'
_cell_volume   317.83890043
_cell_formula_units_Z   1
loop_
 _symmetry_equiv_pos_site_id
 _symmetry_equiv_pos_as_xyz
  1  'x, y, z'
loop_
 _atom_site_type_symbol
 _atom_site_label
 _atom_site_symmetry_multiplicity
 _atom_site_fract_x
 _atom_site_fract_y
 _atom_site_fract_z
 _atom_site_occupancy
  Ba  Ba0  1  0.627385  0.377038  0.878164  1
  Ba  Ba1  1  0.378164  0.872615  0.622962  1
  Ba  Ba2  1  0.122962  0.121836  0.127385  1
  Ba  Ba3  1  0.871480  0.628520  0.371480  1
  Ga  Ga4  1  0.158423  0.341577  0.658423  1
  As  As5  1  0.665815  0.161311  0.332773  1
  As  As6  1  0.338689  0.667227  0.165815  1
  As  As7  1  0.832773  0.834185  0.838689  1
  Pt  Pt8  1  0.089643  0.594661  0.914584  1
  Pt  Pt9  1  0.414584  0.410357  0.405339  1
  Pt  Pt10  1  0.905339  0.085416  0.589643  1
  Rh  Rh11  1  0.594741  0.905259  0.094741  1
