# generated using pymatgen
data_Pr8Nd4Ga3PBr12
_symmetry_space_group_name_H-M   'P 1'
_cell_length_a   10.59554735
_cell_length_b   10.47179132
_cell_length_c   10.47006438
_cell_angle_alpha   109.20087326
_cell_angle_beta   109.71423041
_cell_angle_gamma   109.74427492
_symmetry_Int_Tables_number   1
_chemical_formula_structural   Pr8Nd4Ga3PBr12
_chemical_formula_sum   'Pr8 Nd4 Ga3 P1 Br12'
_cell_volume   891.53540289
_cell_formula_units_Z   1
loop_
 _symmetry_equiv_pos_site_id
 _symmetry_equiv_pos_as_xyz
  1  'x, y, z'
loop_
 _atom_site_type_symbol
 _atom_site_label
 _atom_site_symmetry_multiplicity
 _atom_site_fract_x
 _atom_site_fract_y
 _atom_site_fract_z
 _atom_site_occupancy
  Pr  Pr0  1  0.257602  0.741113  0.234391  1
  Pr  Pr1  1  0.023084  0.265745  0.006823  1
  Pr  Pr2  1  0.008292  0.016767  0.258300  1
  Pr  Pr3  1  0.483812  0.741114  0.006828  1
  Pr  Pr4  1  0.492002  0.241955  0.483621  1
  Pr  Pr5  1  0.016470  0.493204  0.759016  1
  Pr  Pr6  1  0.257421  0.007413  0.014575  1
  Pr  Pr7  1  0.242483  0.265713  0.758819  1
  Nd  Nd8  1  0.475882  0.492942  0.233754  1
  Nd  Nd9  1  0.750109  0.241354  0.258810  1
  Nd  Nd10  1  0.750162  0.007816  0.492343  1
  Nd  Nd11  1  0.242195  0.484658  0.492322  1
  Ga  Ga12  1  0.250554  0.250683  0.251008  1
  Ga  Ga13  1  0.501594  0.001491  0.251008  1
  Ga  Ga14  1  0.999004  0.249577  0.498567  1
  P  P15  1  0.250873  0.500040  0.000809  1
  Br  Br16  1  0.250063  0.753791  0.744840  1
  Br  Br17  1  0.510169  0.505844  0.755829  1
  Br  Br18  1  0.989219  0.743545  0.994275  1
  Br  Br19  1  0.745689  0.249981  0.755840  1
  Br  Br20  1  0.994802  0.991097  0.744881  1
  Br  Br21  1  0.250014  0.994931  0.505103  1
  Br  Br22  1  0.754642  0.509589  0.503830  1
  Br  Br23  1  0.505813  0.251577  0.995662  1
  Br  Br24  1  0.753592  0.743450  0.250054  1
  Br  Br25  1  0.744904  0.995659  0.990467  1
  Br  Br26  1  0.994983  0.505158  0.249951  1
  Br  Br27  1  0.504571  0.753786  0.508277  1
