# generated using pymatgen
data_Hf4ZrZnSn2Sb
_symmetry_space_group_name_H-M   'P 1'
_cell_length_a   8.64038902
_cell_length_b   8.62597685
_cell_length_c   5.81633200
_cell_angle_alpha   90.00000000
_cell_angle_beta   90.00000000
_cell_angle_gamma   119.94482517
_symmetry_Int_Tables_number   1
_chemical_formula_structural   Hf4ZrZnSn2Sb
_chemical_formula_sum   'Hf8 Zr2 Zn2 Sn4 Sb2'
_cell_volume   375.63201040
_cell_formula_units_Z   2
loop_
 _symmetry_equiv_pos_site_id
 _symmetry_equiv_pos_as_xyz
  1  'x, y, z'
loop_
 _atom_site_type_symbol
 _atom_site_label
 _atom_site_symmetry_multiplicity
 _atom_site_fract_x
 _atom_site_fract_y
 _atom_site_fract_z
 _atom_site_occupancy
  Hf  Hf0  1  0.999763  0.268048  0.250000  1
  Hf  Hf1  1  0.999763  0.731714  0.750000  1
  Hf  Hf2  1  0.268806  0.268834  0.750000  1
  Hf  Hf3  1  0.268806  0.999972  0.250000  1
  Hf  Hf4  1  0.333701  0.666851  0.500000  1
  Hf  Hf5  1  0.666214  0.333106  0.000000  1
  Hf  Hf6  1  0.666214  0.333106  0.500000  1
  Hf  Hf7  1  0.333701  0.666851  0.000000  1
  Zr  Zr8  1  0.731000  0.731446  0.250000  1
  Zr  Zr9  1  0.731000  0.999553  0.750000  1
  Zn  Zn10  1  0.002696  0.001348  0.000000  1
  Zn  Zn11  1  0.002696  0.001348  0.500000  1
  Sn  Sn12  1  0.383009  0.999631  0.750000  1
  Sn  Sn13  1  0.383009  0.383377  0.250000  1
  Sn  Sn14  1  0.000906  0.614479  0.250000  1
  Sn  Sn15  1  0.000906  0.386427  0.750000  1
  Sb  Sb16  1  0.613908  0.612611  0.750000  1
  Sb  Sb17  1  0.613908  0.001297  0.250000  1
