# generated using pymatgen
data_YbYI26
_symmetry_space_group_name_H-M   'P 1'
_cell_length_a   12.93328980
_cell_length_b   11.35414248
_cell_length_c   15.06364760
_cell_angle_alpha   120.42575934
_cell_angle_beta   90.85782605
_cell_angle_gamma   102.41940416
_symmetry_Int_Tables_number   1
_chemical_formula_structural   YbYI26
_chemical_formula_sum   'Yb1 Y1 I26'
_cell_volume   1842.51141362
_cell_formula_units_Z   1
loop_
 _symmetry_equiv_pos_site_id
 _symmetry_equiv_pos_as_xyz
  1  'x, y, z'
loop_
 _atom_site_type_symbol
 _atom_site_label
 _atom_site_symmetry_multiplicity
 _atom_site_fract_x
 _atom_site_fract_y
 _atom_site_fract_z
 _atom_site_occupancy
  Yb  Yb0  1  0.333416  0.876136  0.934616  1
  Y  Y1  1  0.662225  0.117595  0.064403  1
  I  I2  1  0.385749  0.658869  0.986267  1
  I  I3  1  0.612524  0.335427  0.018719  1
  I  I4  1  0.582980  0.817839  0.395350  1
  I  I5  1  0.423025  0.193983  0.609245  1
  I  I6  1  0.733791  0.679232  0.006514  1
  I  I7  1  0.253178  0.304000  0.986137  1
  I  I8  1  0.711615  0.946503  0.162502  1
  I  I9  1  0.271504  0.038108  0.830081  1
  I  I10  1  0.452315  0.134430  0.146754  1
  I  I11  1  0.559570  0.869758  0.858928  1
  I  I12  1  0.234588  0.662757  0.698567  1
  I  I13  1  0.779226  0.350449  0.288384  1
  I  I14  1  0.100846  0.833024  0.986689  1
  I  I15  1  0.888736  0.158797  0.013927  1
  I  I16  1  0.078041  0.072886  0.192972  1
  I  I17  1  0.915790  0.916286  0.802923  1
  I  I18  1  0.275366  0.922222  0.463176  1
  I  I19  1  0.728753  0.087438  0.543801  1
  I  I20  1  0.326524  0.426844  0.649298  1
  I  I21  1  0.684504  0.588891  0.345911  1
  I  I22  1  0.860356  0.373703  0.702670  1
  I  I23  1  0.141573  0.637285  0.308490  1
  I  I24  1  0.947542  0.712894  0.606444  1
  I  I25  1  0.054210  0.284808  0.392007  1
  I  I26  1  0.259373  0.635034  0.137178  1
  I  I27  1  0.742678  0.364804  0.868048  1
