# generated using pymatgen
data_Cs2Sm2GaAgTe6
_symmetry_space_group_name_H-M   'P 1'
_cell_length_a   8.98749566
_cell_length_b   8.98749463
_cell_length_c   11.88384300
_cell_angle_alpha   90.00000000
_cell_angle_beta   90.00000000
_cell_angle_gamma   150.73119196
_symmetry_Int_Tables_number   1
_chemical_formula_structural   Cs2Sm2GaAgTe6
_chemical_formula_sum   'Cs2 Sm2 Ga1 Ag1 Te6'
_cell_volume   469.31134381
_cell_formula_units_Z   1
loop_
 _symmetry_equiv_pos_site_id
 _symmetry_equiv_pos_as_xyz
  1  'x, y, z'
loop_
 _atom_site_type_symbol
 _atom_site_label
 _atom_site_symmetry_multiplicity
 _atom_site_fract_x
 _atom_site_fract_y
 _atom_site_fract_z
 _atom_site_occupancy
  Cs  Cs0  1  0.247869  0.752132  0.250000  1
  Cs  Cs1  1  0.744812  0.255189  0.750000  1
  Sm  Sm2  1  0.005423  0.994577  0.020412  1
  Sm  Sm3  1  0.005423  0.994577  0.479588  1
  Ga  Ga4  1  0.462502  0.537499  0.750000  1
  Ag  Ag5  1  0.534200  0.465801  0.250000  1
  Te  Te6  1  0.623893  0.376108  0.050050  1
  Te  Te7  1  0.928224  0.071777  0.250000  1
  Te  Te8  1  0.623893  0.376108  0.449951  1
  Te  Te9  1  0.383902  0.616099  0.562749  1
  Te  Te10  1  0.055962  0.944039  0.750000  1
  Te  Te11  1  0.383902  0.616099  0.937252  1
