# generated using pymatgen
data_Yb3SmSb6Rh7
_symmetry_space_group_name_H-M   'P 1'
_cell_length_a   7.61038539
_cell_length_b   7.61038582
_cell_length_c   7.61038526
_cell_angle_alpha   109.48616293
_cell_angle_beta   109.48615881
_cell_angle_gamma   109.48615567
_symmetry_Int_Tables_number   1
_chemical_formula_structural   Yb3SmSb6Rh7
_chemical_formula_sum   'Yb3 Sm1 Sb6 Rh7'
_cell_volume   339.12330986
_cell_formula_units_Z   1
loop_
 _symmetry_equiv_pos_site_id
 _symmetry_equiv_pos_as_xyz
  1  'x, y, z'
loop_
 _atom_site_type_symbol
 _atom_site_label
 _atom_site_symmetry_multiplicity
 _atom_site_fract_x
 _atom_site_fract_y
 _atom_site_fract_z
 _atom_site_occupancy
  Yb  Yb0  1  0.500000  0.000000  0.000000  1
  Yb  Yb1  1  0.000000  0.500000  0.000000  1
  Yb  Yb2  1  0.000000  0.000000  0.500000  1
  Sm  Sm3  1  0.500000  0.500000  0.500000  1
  Sb  Sb4  1  0.316106  0.995604  0.316106  1
  Sb  Sb5  1  0.004396  0.683894  0.683894  1
  Sb  Sb6  1  0.683894  0.683894  0.004396  1
  Sb  Sb7  1  0.683894  0.004396  0.683894  1
  Sb  Sb8  1  0.995604  0.316106  0.316106  1
  Sb  Sb9  1  0.316106  0.316106  0.995604  1
  Rh  Rh10  1  0.249832  0.500000  0.750168  1
  Rh  Rh11  1  0.500000  0.249832  0.750168  1
  Rh  Rh12  1  0.750168  0.249832  0.500000  1
  Rh  Rh13  1  0.500000  0.750168  0.249832  1
  Rh  Rh14  1  0.000000  0.000000  0.000000  1
  Rh  Rh15  1  0.249832  0.750168  0.500000  1
  Rh  Rh16  1  0.750168  0.500000  0.249832  1
