# generated using pymatgen
data_Li2Tm2Co3P6Rh5
_symmetry_space_group_name_H-M   'P 1'
_cell_length_a   3.77335600
_cell_length_b   10.62931600
_cell_length_c   12.45761800
_cell_angle_alpha   90.00000000
_cell_angle_beta   90.00000000
_cell_angle_gamma   90.00000000
_symmetry_Int_Tables_number   1
_chemical_formula_structural   Li2Tm2Co3P6Rh5
_chemical_formula_sum   'Li4 Tm4 Co6 P12 Rh10'
_cell_volume   499.65255086
_cell_formula_units_Z   2
loop_
 _symmetry_equiv_pos_site_id
 _symmetry_equiv_pos_as_xyz
  1  'x, y, z'
loop_
 _atom_site_type_symbol
 _atom_site_label
 _atom_site_symmetry_multiplicity
 _atom_site_fract_x
 _atom_site_fract_y
 _atom_site_fract_z
 _atom_site_occupancy
  Li  Li0  1  0.250000  0.704657  0.987110  1
  Li  Li1  1  0.250000  0.795343  0.487110  1
  Li  Li2  1  0.750000  0.291437  0.009897  1
  Li  Li3  1  0.750000  0.208563  0.509897  1
  Tm  Tm4  1  0.250000  0.576887  0.710305  1
  Tm  Tm5  1  0.250000  0.923113  0.210305  1
  Tm  Tm6  1  0.750000  0.418245  0.293075  1
  Tm  Tm7  1  0.750000  0.081755  0.793075  1
  Co  Co8  1  0.750000  0.120132  0.305615  1
  Co  Co9  1  0.750000  0.379868  0.805615  1
  Co  Co10  1  0.250000  0.461867  0.933781  1
  Co  Co11  1  0.250000  0.038133  0.433781  1
  Co  Co12  1  0.750000  0.532920  0.062742  1
  Co  Co13  1  0.750000  0.967080  0.562742  1
  P  P14  1  0.250000  0.424683  0.108449  1
  P  P15  1  0.250000  0.075317  0.608449  1
  P  P16  1  0.750000  0.565020  0.886740  1
  P  P17  1  0.750000  0.934980  0.386740  1
  P  P18  1  0.250000  0.272809  0.862002  1
  P  P19  1  0.250000  0.227191  0.362002  1
  P  P20  1  0.750000  0.731692  0.136064  1
  P  P21  1  0.750000  0.768308  0.636064  1
  P  P22  1  0.250000  0.598958  0.388479  1
  P  P23  1  0.250000  0.901042  0.888479  1
  P  P24  1  0.750000  0.401528  0.619101  1
  P  P25  1  0.750000  0.098472  0.119101  1
  Rh  Rh26  1  0.250000  0.402234  0.476587  1
  Rh  Rh27  1  0.250000  0.097766  0.976587  1
  Rh  Rh28  1  0.750000  0.595463  0.523577  1
  Rh  Rh29  1  0.750000  0.904537  0.023577  1
  Rh  Rh30  1  0.250000  0.222201  0.175525  1
  Rh  Rh31  1  0.250000  0.277799  0.675525  1
  Rh  Rh32  1  0.750000  0.771680  0.826902  1
  Rh  Rh33  1  0.750000  0.728320  0.326902  1
  Rh  Rh34  1  0.250000  0.881325  0.694052  1
  Rh  Rh35  1  0.250000  0.618675  0.194052  1
