# generated using pymatgen
data_DyY4RuRh
_symmetry_space_group_name_H-M   'P 1'
_cell_length_a   8.58398645
_cell_length_b   8.58398672
_cell_length_c   7.26986900
_cell_angle_alpha   83.40546614
_cell_angle_beta   83.40547496
_cell_angle_gamma   43.83511837
_symmetry_Int_Tables_number   1
_chemical_formula_structural   DyY4RuRh
_chemical_formula_sum   'Dy2 Y8 Ru2 Rh2'
_cell_volume   368.14991583
_cell_formula_units_Z   2
loop_
 _symmetry_equiv_pos_site_id
 _symmetry_equiv_pos_as_xyz
  1  'x, y, z'
loop_
 _atom_site_type_symbol
 _atom_site_label
 _atom_site_symmetry_multiplicity
 _atom_site_fract_x
 _atom_site_fract_y
 _atom_site_fract_z
 _atom_site_occupancy
  Dy  Dy0  1  0.577308  0.422692  0.750000  1
  Dy  Dy1  1  0.425343  0.574657  0.250000  1
  Y  Y2  1  0.206773  0.981382  0.582357  1
  Y  Y3  1  0.018618  0.793227  0.917643  1
  Y  Y4  1  0.208905  0.353239  0.313402  1
  Y  Y5  1  0.646761  0.791095  0.186598  1
  Y  Y6  1  0.790758  0.643495  0.683400  1
  Y  Y7  1  0.356505  0.209242  0.816600  1
  Y  Y8  1  0.976362  0.209095  0.086212  1
  Y  Y9  1  0.790905  0.023638  0.413788  1
  Ru  Ru10  1  0.820673  0.397748  0.427375  1
  Ru  Ru11  1  0.602252  0.179327  0.072625  1
  Rh  Rh12  1  0.180307  0.601470  0.574670  1
  Rh  Rh13  1  0.398530  0.819693  0.925330  1
