# generated using pymatgen
data_NdSmZn4Ru
_symmetry_space_group_name_H-M   'P 1'
_cell_length_a   7.06733700
_cell_length_b   7.06733700
_cell_length_c   5.43498300
_cell_angle_alpha   90.00000000
_cell_angle_beta   90.00000000
_cell_angle_gamma   90.00000000
_symmetry_Int_Tables_number   1
_chemical_formula_structural   NdSmZn4Ru
_chemical_formula_sum   'Nd2 Sm2 Zn8 Ru2'
_cell_volume   271.46246699
_cell_formula_units_Z   2
loop_
 _symmetry_equiv_pos_site_id
 _symmetry_equiv_pos_as_xyz
  1  'x, y, z'
loop_
 _atom_site_type_symbol
 _atom_site_label
 _atom_site_symmetry_multiplicity
 _atom_site_fract_x
 _atom_site_fract_y
 _atom_site_fract_z
 _atom_site_occupancy
  Nd  Nd0  1  0.000000  0.500000  0.768866  1
  Nd  Nd1  1  0.500000  0.000000  0.231134  1
  Sm  Sm2  1  0.000000  0.000000  0.000000  1
  Sm  Sm3  1  0.500000  0.500000  0.000000  1
  Zn  Zn4  1  0.186136  0.686136  0.297507  1
  Zn  Zn5  1  0.813864  0.686136  0.297507  1
  Zn  Zn6  1  0.813864  0.313864  0.297507  1
  Zn  Zn7  1  0.313864  0.186136  0.702493  1
  Zn  Zn8  1  0.186136  0.313864  0.297507  1
  Zn  Zn9  1  0.686136  0.186136  0.702493  1
  Zn  Zn10  1  0.686136  0.813864  0.702493  1
  Zn  Zn11  1  0.313864  0.813864  0.702493  1
  Ru  Ru12  1  0.500000  0.500000  0.500000  1
  Ru  Ru13  1  0.000000  0.000000  0.500000  1
