# generated using pymatgen
data_Ba5Al2Si7
_symmetry_space_group_name_H-M   'P 1'
_cell_length_a   6.71935040
_cell_length_b   6.71934930
_cell_length_c   18.33608647
_cell_angle_alpha   81.61955803
_cell_angle_beta   81.61956029
_cell_angle_gamma   101.00210555
_symmetry_Int_Tables_number   1
_chemical_formula_structural   Ba5Al2Si7
_chemical_formula_sum   'Ba10 Al4 Si14'
_cell_volume   791.03091651
_cell_formula_units_Z   2
loop_
 _symmetry_equiv_pos_site_id
 _symmetry_equiv_pos_as_xyz
  1  'x, y, z'
loop_
 _atom_site_type_symbol
 _atom_site_label
 _atom_site_symmetry_multiplicity
 _atom_site_fract_x
 _atom_site_fract_y
 _atom_site_fract_z
 _atom_site_occupancy
  Ba  Ba0  1  0.750156  0.249844  0.000000  1
  Ba  Ba1  1  0.120054  0.572426  0.788193  1
  Ba  Ba2  1  0.290974  0.709026  0.500000  1
  Ba  Ba3  1  0.761633  0.761633  0.644122  1
  Ba  Ba4  1  0.238367  0.238367  0.355878  1
  Ba  Ba5  1  0.572426  0.120054  0.788193  1
  Ba  Ba6  1  0.249844  0.750156  0.000000  1
  Ba  Ba7  1  0.709026  0.290974  0.500000  1
  Ba  Ba8  1  0.427574  0.879946  0.211807  1
  Ba  Ba9  1  0.879946  0.427574  0.211807  1
  Al  Al10  1  0.223884  0.223884  0.069742  1
  Al  Al11  1  0.925881  0.925881  0.263215  1
  Al  Al12  1  0.074119  0.074119  0.736786  1
  Al  Al13  1  0.776116  0.776116  0.930258  1
  Si  Si14  1  0.351641  0.351641  0.641934  1
  Si  Si15  1  0.297318  0.297318  0.930352  1
  Si  Si16  1  0.933049  0.933049  0.129159  1
  Si  Si17  1  0.648359  0.648359  0.358066  1
  Si  Si18  1  0.424201  0.424201  0.149031  1
  Si  Si19  1  0.066951  0.066951  0.870841  1
  Si  Si20  1  0.818852  0.818852  0.449141  1
  Si  Si21  1  0.329495  0.975101  0.641289  1
  Si  Si22  1  0.670505  0.024899  0.358711  1
  Si  Si23  1  0.181148  0.181148  0.550859  1
  Si  Si24  1  0.975101  0.329495  0.641289  1
  Si  Si25  1  0.024899  0.670505  0.358711  1
  Si  Si26  1  0.702682  0.702682  0.069648  1
  Si  Si27  1  0.575799  0.575799  0.850969  1
