# generated using pymatgen
data_Er3TmInPbAu4
_symmetry_space_group_name_H-M   'P 1'
_cell_length_a   8.05477969
_cell_length_b   8.05477969
_cell_length_c   7.24491600
_cell_angle_alpha   90.00000000
_cell_angle_beta   90.00000000
_cell_angle_gamma   89.90637520
_symmetry_Int_Tables_number   1
_chemical_formula_structural   Er3TmInPbAu4
_chemical_formula_sum   'Er6 Tm2 In2 Pb2 Au8'
_cell_volume   470.04572496
_cell_formula_units_Z   2
loop_
 _symmetry_equiv_pos_site_id
 _symmetry_equiv_pos_as_xyz
  1  'x, y, z'
loop_
 _atom_site_type_symbol
 _atom_site_label
 _atom_site_symmetry_multiplicity
 _atom_site_fract_x
 _atom_site_fract_y
 _atom_site_fract_z
 _atom_site_occupancy
  Er  Er0  1  0.843335  0.156665  0.500000  1
  Er  Er1  1  0.156665  0.843335  0.500000  1
  Er  Er2  1  0.343317  0.343317  0.000000  1
  Er  Er3  1  0.656683  0.656683  0.000000  1
  Er  Er4  1  0.680553  0.680553  0.500000  1
  Er  Er5  1  0.319447  0.319447  0.500000  1
  Tm  Tm6  1  0.180458  0.819542  0.000000  1
  Tm  Tm7  1  0.819542  0.180458  0.000000  1
  In  In8  1  0.500000  0.000000  0.750091  1
  In  In9  1  0.000000  0.500000  0.249909  1
  Pb  Pb10  1  0.500000  0.000000  0.249889  1
  Pb  Pb11  1  0.000000  0.500000  0.750111  1
  Au  Au12  1  0.632366  0.376379  0.274016  1
  Au  Au13  1  0.367634  0.623621  0.274016  1
  Au  Au14  1  0.132085  0.123288  0.774618  1
  Au  Au15  1  0.867915  0.876712  0.774618  1
  Au  Au16  1  0.376379  0.632366  0.725984  1
  Au  Au17  1  0.623621  0.367634  0.725984  1
  Au  Au18  1  0.876712  0.867915  0.225382  1
  Au  Au19  1  0.123288  0.132085  0.225382  1
