# generated using pymatgen
data_TbYb5(PrSi2)4
_symmetry_space_group_name_H-M   'P 1'
_cell_length_a   7.52909116
_cell_length_b   7.92278600
_cell_length_c   15.13685300
_cell_angle_alpha   90.00000000
_cell_angle_beta   89.98804482
_cell_angle_gamma   90.00000000
_symmetry_Int_Tables_number   1
_chemical_formula_structural   TbYb5(PrSi2)4
_chemical_formula_sum   'Tb2 Yb10 Pr8 Si16'
_cell_volume   902.93412138
_cell_formula_units_Z   2
loop_
 _symmetry_equiv_pos_site_id
 _symmetry_equiv_pos_as_xyz
  1  'x, y, z'
loop_
 _atom_site_type_symbol
 _atom_site_label
 _atom_site_symmetry_multiplicity
 _atom_site_fract_x
 _atom_site_fract_y
 _atom_site_fract_z
 _atom_site_occupancy
  Tb  Tb0  1  0.180263  0.683203  0.122636  1
  Tb  Tb1  1  0.680263  0.816797  0.122636  1
  Yb  Yb2  1  0.319790  0.180983  0.622419  1
  Yb  Yb3  1  0.681792  0.820049  0.377001  1
  Yb  Yb4  1  0.644025  0.006916  0.749833  1
  Yb  Yb5  1  0.181792  0.679951  0.377001  1
  Yb  Yb6  1  0.819219  0.319787  0.879326  1
  Yb  Yb7  1  0.819790  0.319017  0.622419  1
  Yb  Yb8  1  0.853315  0.496452  0.252851  1
  Yb  Yb9  1  0.353315  0.003548  0.252851  1
  Yb  Yb10  1  0.319219  0.180213  0.879326  1
  Yb  Yb11  1  0.144025  0.493084  0.749833  1
  Pr  Pr12  1  0.027084  0.183145  0.401057  1
  Pr  Pr13  1  0.527084  0.316855  0.401057  1
  Pr  Pr14  1  0.469588  0.687275  0.899000  1
  Pr  Pr15  1  0.470913  0.686486  0.599844  1
  Pr  Pr16  1  0.970913  0.813514  0.599844  1
  Pr  Pr17  1  0.969588  0.812725  0.899000  1
  Pr  Pr18  1  0.529683  0.314387  0.098293  1
  Pr  Pr19  1  0.029683  0.185613  0.098293  1
  Si  Si20  1  0.255946  0.874261  0.750773  1
  Si  Si21  1  0.469913  0.598158  0.244690  1
  Si  Si22  1  0.030481  0.092572  0.751485  1
  Si  Si23  1  0.530481  0.407428  0.751485  1
  Si  Si24  1  0.142772  0.470751  0.536932  1
  Si  Si25  1  0.969913  0.901842  0.244690  1
  Si  Si26  1  0.743096  0.120174  0.246424  1
  Si  Si27  1  0.859351  0.533220  0.040707  1
  Si  Si28  1  0.359351  0.966780  0.040707  1
  Si  Si29  1  0.144405  0.474706  0.965393  1
  Si  Si30  1  0.642772  0.029249  0.536932  1
  Si  Si31  1  0.358362  0.972730  0.461338  1
  Si  Si32  1  0.858362  0.527270  0.461338  1
  Si  Si33  1  0.755946  0.625739  0.750773  1
  Si  Si34  1  0.243096  0.379826  0.246424  1
  Si  Si35  1  0.644405  0.025294  0.965393  1
