# generated using pymatgen
data_YEr5MnSi24Ru7
_symmetry_space_group_name_H-M   'P 1'
_cell_length_a   10.10297091
_cell_length_b   10.10268848
_cell_length_c   8.09667016
_cell_angle_alpha   90.04638560
_cell_angle_beta   90.00872973
_cell_angle_gamma   132.72184835
_symmetry_Int_Tables_number   1
_chemical_formula_structural   YEr5MnSi24Ru7
_chemical_formula_sum   'Y1 Er5 Mn1 Si24 Ru7'
_cell_volume   607.12227476
_cell_formula_units_Z   1
loop_
 _symmetry_equiv_pos_site_id
 _symmetry_equiv_pos_as_xyz
  1  'x, y, z'
loop_
 _atom_site_type_symbol
 _atom_site_label
 _atom_site_symmetry_multiplicity
 _atom_site_fract_x
 _atom_site_fract_y
 _atom_site_fract_z
 _atom_site_occupancy
  Y  Y0  1  0.498203  0.997570  0.248714  1
  Er  Er1  1  0.003002  0.501879  0.750899  1
  Er  Er2  1  0.501840  0.002990  0.750923  1
  Er  Er3  1  0.997626  0.498273  0.248660  1
  Er  Er4  1  0.501818  0.501817  0.500773  1
  Er  Er5  1  0.999304  0.999283  0.997768  1
  Mn  Mn6  1  0.624895  0.624940  0.874530  1
  Si  Si7  1  0.387241  0.154239  0.004642  1
  Si  Si8  1  0.654300  0.887402  0.494776  1
  Si  Si9  1  0.112604  0.345537  0.506198  1
  Si  Si10  1  0.842146  0.614336  0.989406  1
  Si  Si11  1  0.614474  0.842134  0.989221  1
  Si  Si12  1  0.345528  0.112754  0.506402  1
  Si  Si13  1  0.887542  0.654261  0.494557  1
  Si  Si14  1  0.154197  0.387379  0.004888  1
  Si  Si15  1  0.612509  0.378595  0.228994  1
  Si  Si16  1  0.877526  0.110694  0.271100  1
  Si  Si17  1  0.888613  0.122111  0.728809  1
  Si  Si18  1  0.624425  0.396067  0.772339  1
  Si  Si19  1  0.396110  0.624464  0.772313  1
  Si  Si20  1  0.122142  0.888634  0.728823  1
  Si  Si21  1  0.704780  0.295065  0.999726  1
  Si  Si22  1  0.795226  0.205369  0.500369  1
  Si  Si23  1  0.294297  0.704032  0.999716  1
  Si  Si24  1  0.204639  0.794485  0.500375  1
  Si  Si25  1  0.166828  0.166824  0.333761  1
  Si  Si26  1  0.667910  0.667916  0.161096  1
  Si  Si27  1  0.338313  0.338324  0.832775  1
  Si  Si28  1  0.825793  0.825761  0.673507  1
  Si  Si29  1  0.378185  0.612113  0.229002  1
  Si  Si30  1  0.110311  0.877088  0.271082  1
  Ru  Ru31  1  0.125218  0.125204  0.628893  1
  Ru  Ru32  1  0.871654  0.871624  0.374219  1
  Ru  Ru33  1  0.373689  0.373721  0.127206  1
  Ru  Ru34  1  0.329696  0.669181  0.502561  1
  Ru  Ru35  1  0.167479  0.828476  0.999226  1
  Ru  Ru36  1  0.670290  0.330776  0.502454  1
  Ru  Ru37  1  0.829641  0.168675  0.999298  1
