# generated using pymatgen
data_Pu3UF24
_symmetry_space_group_name_H-M   'P 1'
_cell_length_a   5.61229918
_cell_length_b   9.51707300
_cell_length_c   10.35650100
_cell_angle_alpha   90.00000000
_cell_angle_beta   89.71552595
_cell_angle_gamma   90.00000000
_symmetry_Int_Tables_number   1
_chemical_formula_structural   Pu3UF24
_chemical_formula_sum   'Pu3 U1 F24'
_cell_volume   553.16145837
_cell_formula_units_Z   1
loop_
 _symmetry_equiv_pos_site_id
 _symmetry_equiv_pos_as_xyz
  1  'x, y, z'
loop_
 _atom_site_type_symbol
 _atom_site_label
 _atom_site_symmetry_multiplicity
 _atom_site_fract_x
 _atom_site_fract_y
 _atom_site_fract_z
 _atom_site_occupancy
  Pu  Pu0  1  0.585068  0.750000  0.371932  1
  Pu  Pu1  1  0.084957  0.250000  0.128128  1
  Pu  Pu2  1  0.414674  0.250000  0.628234  1
  U  U3  1  0.915136  0.750000  0.871724  1
  F  F4  1  0.562308  0.398527  0.737843  1
  F  F5  1  0.065727  0.599688  0.760001  1
  F  F6  1  0.437662  0.898524  0.262348  1
  F  F7  1  0.936644  0.101411  0.238132  1
  F  F8  1  0.206070  0.750000  0.986524  1
  F  F9  1  0.702960  0.250000  0.513797  1
  F  F10  1  0.797698  0.250000  0.014587  1
  F  F11  1  0.296714  0.750000  0.486361  1
  F  F12  1  0.623660  0.750000  0.756882  1
  F  F13  1  0.125838  0.250000  0.742626  1
  F  F14  1  0.373061  0.250000  0.241572  1
  F  F15  1  0.874145  0.750000  0.257437  1
  F  F16  1  0.764096  0.900179  0.983671  1
  F  F17  1  0.266808  0.101603  0.518462  1
  F  F18  1  0.233739  0.398479  0.017912  1
  F  F19  1  0.733026  0.601584  0.481730  1
  F  F20  1  0.233739  0.101521  0.017912  1
  F  F21  1  0.733026  0.898416  0.481730  1
  F  F22  1  0.764096  0.599821  0.983671  1
  F  F23  1  0.266808  0.398397  0.518462  1
  F  F24  1  0.065727  0.900312  0.760001  1
  F  F25  1  0.562308  0.101473  0.737843  1
  F  F26  1  0.936644  0.398589  0.238132  1
  F  F27  1  0.437662  0.601476  0.262348  1
