# generated using pymatgen
data_Tb3V(Co4P3)2
_symmetry_space_group_name_H-M   'P 1'
_cell_length_a   3.69893400
_cell_length_b   10.57720800
_cell_length_c   12.25753300
_cell_angle_alpha   90.00000000
_cell_angle_beta   90.00000000
_cell_angle_gamma   90.00000000
_symmetry_Int_Tables_number   1
_chemical_formula_structural   Tb3V(Co4P3)2
_chemical_formula_sum   'Tb6 V2 Co16 P12'
_cell_volume   479.56855419
_cell_formula_units_Z   2
loop_
 _symmetry_equiv_pos_site_id
 _symmetry_equiv_pos_as_xyz
  1  'x, y, z'
loop_
 _atom_site_type_symbol
 _atom_site_label
 _atom_site_symmetry_multiplicity
 _atom_site_fract_x
 _atom_site_fract_y
 _atom_site_fract_z
 _atom_site_occupancy
  Tb  Tb0  1  0.000000  0.500000  0.523004  1
  Tb  Tb1  1  0.500000  0.000000  0.476996  1
  Tb  Tb2  1  0.500000  0.818917  0.204517  1
  Tb  Tb3  1  0.500000  0.181083  0.204517  1
  Tb  Tb4  1  0.000000  0.681083  0.795483  1
  Tb  Tb5  1  0.000000  0.318917  0.795483  1
  V  V6  1  0.500000  0.500000  0.154306  1
  V  V7  1  0.000000  0.000000  0.845694  1
  Co  Co8  1  0.500000  0.500000  0.702593  1
  Co  Co9  1  0.000000  0.000000  0.297407  1
  Co  Co10  1  0.000000  0.500000  0.987438  1
  Co  Co11  1  0.500000  0.000000  0.012562  1
  Co  Co12  1  0.500000  0.332466  0.993454  1
  Co  Co13  1  0.500000  0.667534  0.993454  1
  Co  Co14  1  0.000000  0.167534  0.006546  1
  Co  Co15  1  0.000000  0.832466  0.006546  1
  Co  Co16  1  0.500000  0.296028  0.431120  1
  Co  Co17  1  0.500000  0.703972  0.431120  1
  Co  Co18  1  0.000000  0.203972  0.568880  1
  Co  Co19  1  0.000000  0.796028  0.568880  1
  Co  Co20  1  0.500000  0.879047  0.708018  1
  Co  Co21  1  0.500000  0.120953  0.708018  1
  Co  Co22  1  0.000000  0.620953  0.291982  1
  Co  Co23  1  0.000000  0.379047  0.291982  1
  P  P24  1  0.500000  0.500000  0.883227  1
  P  P25  1  0.000000  0.000000  0.116773  1
  P  P26  1  0.500000  0.500000  0.346388  1
  P  P27  1  0.000000  0.000000  0.653612  1
  P  P28  1  0.500000  0.310673  0.615608  1
  P  P29  1  0.500000  0.689327  0.615608  1
  P  P30  1  0.000000  0.189327  0.384392  1
  P  P31  1  0.000000  0.810673  0.384392  1
  P  P32  1  0.500000  0.846133  0.892042  1
  P  P33  1  0.500000  0.153867  0.892042  1
  P  P34  1  0.000000  0.653867  0.107958  1
  P  P35  1  0.000000  0.346133  0.107958  1
