# generated using pymatgen
data_Sr4HoSi12Ir19
_symmetry_space_group_name_H-M   'P 1'
_cell_length_a   12.92590600
_cell_length_b   12.92590653
_cell_length_c   4.05444100
_cell_angle_alpha   90.00000000
_cell_angle_beta   90.00000000
_cell_angle_gamma   120.00000376
_symmetry_Int_Tables_number   1
_chemical_formula_structural   Sr4HoSi12Ir19
_chemical_formula_sum   'Sr4 Ho1 Si12 Ir19'
_cell_volume   586.65611884
_cell_formula_units_Z   1
loop_
 _symmetry_equiv_pos_site_id
 _symmetry_equiv_pos_as_xyz
  1  'x, y, z'
loop_
 _atom_site_type_symbol
 _atom_site_label
 _atom_site_symmetry_multiplicity
 _atom_site_fract_x
 _atom_site_fract_y
 _atom_site_fract_z
 _atom_site_occupancy
  Sr  Sr0  1  0.999933  0.817418  0.500000  1
  Sr  Sr1  1  0.182582  0.182515  0.500000  1
  Sr  Sr2  1  0.817485  0.000067  0.500000  1
  Sr  Sr3  1  0.666667  0.333333  0.000000  1
  Ho  Ho4  1  0.333333  0.666667  0.000000  1
  Si  Si5  1  0.000821  0.186779  0.000000  1
  Si  Si6  1  0.813221  0.814042  0.000000  1
  Si  Si7  1  0.185958  0.999179  0.000000  1
  Si  Si8  1  0.519067  0.689462  0.500000  1
  Si  Si9  1  0.310538  0.829605  0.500000  1
  Si  Si10  1  0.170395  0.480933  0.500000  1
  Si  Si11  1  0.478734  0.167174  0.500000  1
  Si  Si12  1  0.688440  0.521266  0.500000  1
  Si  Si13  1  0.832826  0.311560  0.500000  1
  Si  Si14  1  0.999254  0.628689  0.000000  1
  Si  Si15  1  0.371311  0.370565  0.000000  1
  Si  Si16  1  0.629435  0.000746  0.000000  1
  Ir  Ir17  1  0.001576  0.287721  0.500000  1
  Ir  Ir18  1  0.712279  0.713855  0.500000  1
  Ir  Ir19  1  0.286145  0.998424  0.500000  1
  Ir  Ir20  1  0.616676  0.802555  0.000000  1
  Ir  Ir21  1  0.197445  0.814121  0.000000  1
  Ir  Ir22  1  0.185879  0.383324  0.000000  1
  Ir  Ir23  1  0.379743  0.182784  0.000000  1
  Ir  Ir24  1  0.803041  0.620257  0.000000  1
  Ir  Ir25  1  0.817216  0.196959  0.000000  1
  Ir  Ir26  1  0.508850  0.871713  0.500000  1
  Ir  Ir27  1  0.128287  0.637137  0.500000  1
  Ir  Ir28  1  0.362863  0.491150  0.500000  1
  Ir  Ir29  1  0.484860  0.362260  0.500000  1
  Ir  Ir30  1  0.877401  0.515140  0.500000  1
  Ir  Ir31  1  0.637740  0.122599  0.500000  1
  Ir  Ir32  1  0.000000  0.000000  0.000000  1
  Ir  Ir33  1  0.001568  0.448330  0.000000  1
  Ir  Ir34  1  0.551670  0.553238  0.000000  1
  Ir  Ir35  1  0.446762  0.998432  0.000000  1
