# generated using pymatgen
data_Dy3Y3MnB14Ru
_symmetry_space_group_name_H-M   'P 1'
_cell_length_a   8.06557206
_cell_length_b   8.06557251
_cell_length_c   9.32675706
_cell_angle_alpha   89.98733816
_cell_angle_beta   90.01266296
_cell_angle_gamma   155.00797857
_symmetry_Int_Tables_number   1
_chemical_formula_structural   Dy3Y3MnB14Ru
_chemical_formula_sum   'Dy3 Y3 Mn1 B14 Ru1'
_cell_volume   256.34188432
_cell_formula_units_Z   1
loop_
 _symmetry_equiv_pos_site_id
 _symmetry_equiv_pos_as_xyz
  1  'x, y, z'
loop_
 _atom_site_type_symbol
 _atom_site_label
 _atom_site_symmetry_multiplicity
 _atom_site_fract_x
 _atom_site_fract_y
 _atom_site_fract_z
 _atom_site_occupancy
  Dy  Dy0  1  0.894929  0.105071  0.442375  1
  Dy  Dy1  1  0.104549  0.895451  0.563282  1
  Dy  Dy2  1  0.894895  0.105105  0.057630  1
  Y  Y3  1  0.104633  0.895367  0.936402  1
  Y  Y4  1  0.243879  0.756121  0.249984  1
  Y  Y5  1  0.759198  0.240802  0.749945  1
  Mn  Mn6  1  0.946762  0.053238  0.750014  1
  B  B7  1  0.727022  0.272978  0.466459  1
  B  B8  1  0.272372  0.727628  0.533838  1
  B  B9  1  0.727078  0.272922  0.033590  1
  B  B10  1  0.272415  0.727585  0.966180  1
  B  B11  1  0.631480  0.368520  0.150706  1
  B  B12  1  0.370225  0.629775  0.846383  1
  B  B13  1  0.631450  0.368550  0.349452  1
  B  B14  1  0.370230  0.629770  0.653602  1
  B  B15  1  0.520483  0.479517  0.096069  1
  B  B16  1  0.478204  0.521796  0.901512  1
  B  B17  1  0.520581  0.479419  0.404017  1
  B  B18  1  0.478293  0.521707  0.598539  1
  B  B19  1  0.457397  0.542603  0.250021  1
  B  B20  1  0.539888  0.460112  0.749872  1
  Ru  Ru21  1  0.054039  0.945961  0.250124  1
