# generated using pymatgen
data_Tb3Er7(TlBi2)2
_symmetry_space_group_name_H-M   'P 1'
_cell_length_a   9.04559100
_cell_length_b   9.04559100
_cell_length_c   6.48108700
_cell_angle_alpha   90.00000000
_cell_angle_beta   90.00000000
_cell_angle_gamma   119.65088925
_symmetry_Int_Tables_number   1
_chemical_formula_structural   Tb3Er7(TlBi2)2
_chemical_formula_sum   'Tb3 Er7 Tl2 Bi4'
_cell_volume   460.86045598
_cell_formula_units_Z   1
loop_
 _symmetry_equiv_pos_site_id
 _symmetry_equiv_pos_as_xyz
  1  'x, y, z'
loop_
 _atom_site_type_symbol
 _atom_site_label
 _atom_site_symmetry_multiplicity
 _atom_site_fract_x
 _atom_site_fract_y
 _atom_site_fract_z
 _atom_site_occupancy
  Tb  Tb0  1  0.760453  0.760453  0.750000  1
  Tb  Tb1  1  0.234942  0.997786  0.750000  1
  Tb  Tb2  1  0.997786  0.234942  0.750000  1
  Er  Er3  1  0.669004  0.329048  0.003479  1
  Er  Er4  1  0.329048  0.669004  0.003479  1
  Er  Er5  1  0.329048  0.669004  0.496521  1
  Er  Er6  1  0.669004  0.329048  0.496521  1
  Er  Er7  1  0.235486  0.235486  0.250000  1
  Er  Er8  1  0.765439  0.008933  0.250000  1
  Er  Er9  1  0.008933  0.765439  0.250000  1
  Tl  Tl10  1  0.395507  0.002140  0.250000  1
  Tl  Tl11  1  0.002140  0.395507  0.250000  1
  Bi  Bi12  1  0.394341  0.394341  0.750000  1
  Bi  Bi13  1  0.602015  0.997050  0.750000  1
  Bi  Bi14  1  0.997050  0.602015  0.750000  1
  Bi  Bi15  1  0.609803  0.609803  0.250000  1
