# generated using pymatgen
data_NaIn(CO3)2
_symmetry_space_group_name_H-M   'P 1'
_cell_length_a   4.80673140
_cell_length_b   5.92003512
_cell_length_c   8.33808879
_cell_angle_alpha   76.55705003
_cell_angle_beta   90.03245834
_cell_angle_gamma   114.18237294
_symmetry_Int_Tables_number   1
_chemical_formula_structural   NaIn(CO3)2
_chemical_formula_sum   'Na2 In2 C4 O12'
_cell_volume   209.31562185
_cell_formula_units_Z   2
loop_
 _symmetry_equiv_pos_site_id
 _symmetry_equiv_pos_as_xyz
  1  'x, y, z'
loop_
 _atom_site_type_symbol
 _atom_site_label
 _atom_site_symmetry_multiplicity
 _atom_site_fract_x
 _atom_site_fract_y
 _atom_site_fract_z
 _atom_site_occupancy
  Na  Na0  1  0.000008  0.000000  0.999996  1
  Na  Na1  1  0.499989  0.000000  0.500002  1
  In  In2  1  0.750002  0.500000  0.750006  1
  In  In3  1  0.250004  0.499999  0.250004  1
  C  C4  1  0.866992  0.733661  0.378096  1
  C  C5  1  0.367010  0.733656  0.878108  1
  C  C6  1  0.633009  0.266340  0.121903  1
  C  C7  1  0.132992  0.266344  0.621890  1
  O  O8  1  0.899909  0.263389  0.125548  1
  O  O9  1  0.399904  0.263390  0.625552  1
  O  O10  1  0.497635  0.736594  0.013245  1
  O  O11  1  0.997629  0.736601  0.513259  1
  O  O12  1  0.007313  0.736670  0.245268  1
  O  O13  1  0.507327  0.736674  0.745262  1
  O  O14  1  0.492688  0.263330  0.254729  1
  O  O15  1  0.992674  0.263327  0.754736  1
  O  O16  1  0.002360  0.263406  0.486754  1
  O  O17  1  0.502365  0.263399  0.986741  1
  O  O18  1  0.600091  0.736611  0.374454  1
  O  O19  1  0.100097  0.736609  0.874449  1
