# generated using pymatgen
data_Ho3Ga4Co5(Ni2B)2
_symmetry_space_group_name_H-M   'P 1'
_cell_length_a   5.17411024
_cell_length_b   5.17411005
_cell_length_c   10.47937800
_cell_angle_alpha   90.00000000
_cell_angle_beta   90.00000000
_cell_angle_gamma   119.58310400
_symmetry_Int_Tables_number   1
_chemical_formula_structural   Ho3Ga4Co5(Ni2B)2
_chemical_formula_sum   'Ho3 Ga4 Co5 Ni4 B2'
_cell_volume   243.97573090
_cell_formula_units_Z   1
loop_
 _symmetry_equiv_pos_site_id
 _symmetry_equiv_pos_as_xyz
  1  'x, y, z'
loop_
 _atom_site_type_symbol
 _atom_site_label
 _atom_site_symmetry_multiplicity
 _atom_site_fract_x
 _atom_site_fract_y
 _atom_site_fract_z
 _atom_site_occupancy
  Ho  Ho0  1  0.000000  0.000000  0.999515  1
  Ho  Ho1  1  0.000000  0.000000  0.677893  1
  Ho  Ho2  1  0.000000  0.000000  0.329588  1
  Ga  Ga3  1  0.665642  0.334358  0.685690  1
  Ga  Ga4  1  0.334358  0.665642  0.685690  1
  Ga  Ga5  1  0.332147  0.667853  0.313933  1
  Ga  Ga6  1  0.667853  0.332147  0.313933  1
  Co  Co7  1  0.500000  0.500000  0.871795  1
  Co  Co8  1  0.500000  0.000000  0.869938  1
  Co  Co9  1  0.000000  0.500000  0.869938  1
  Co  Co10  1  0.500000  0.000000  0.128735  1
  Co  Co11  1  0.000000  0.500000  0.128735  1
  Ni  Ni12  1  0.500000  0.500000  0.498924  1
  Ni  Ni13  1  0.500000  0.000000  0.500251  1
  Ni  Ni14  1  0.000000  0.500000  0.500251  1
  Ni  Ni15  1  0.500000  0.500000  0.128608  1
  B  B16  1  0.670590  0.329410  0.998291  1
  B  B17  1  0.329410  0.670590  0.998291  1
