# generated using pymatgen
data_PrEu2Ho(Mo2O7)2
_symmetry_space_group_name_H-M   'P 1'
_cell_length_a   7.38135036
_cell_length_b   7.47988969
_cell_length_c   7.38135000
_cell_angle_alpha   60.24799464
_cell_angle_beta   59.63877595
_cell_angle_gamma   60.24799060
_symmetry_Int_Tables_number   1
_chemical_formula_structural   PrEu2Ho(Mo2O7)2
_chemical_formula_sum   'Pr1 Eu2 Ho1 Mo4 O14'
_cell_volume   288.44380560
_cell_formula_units_Z   1
loop_
 _symmetry_equiv_pos_site_id
 _symmetry_equiv_pos_as_xyz
  1  'x, y, z'
loop_
 _atom_site_type_symbol
 _atom_site_label
 _atom_site_symmetry_multiplicity
 _atom_site_fract_x
 _atom_site_fract_y
 _atom_site_fract_z
 _atom_site_occupancy
  Pr  Pr0  1  0.125000  0.625000  0.125000  1
  Eu  Eu1  1  0.625000  0.125000  0.125000  1
  Eu  Eu2  1  0.125000  0.125000  0.625000  1
  Ho  Ho3  1  0.125000  0.125000  0.125000  1
  Mo  Mo4  1  0.625000  0.625000  0.625000  1
  Mo  Mo5  1  0.125000  0.625000  0.625000  1
  Mo  Mo6  1  0.625000  0.625000  0.125000  1
  Mo  Mo7  1  0.625000  0.125000  0.625000  1
  O  O8  1  0.005582  0.003410  0.005582  1
  O  O9  1  0.244418  0.246590  0.244418  1
  O  O10  1  0.298279  0.290953  0.711393  1
  O  O11  1  0.545596  0.537619  0.959347  1
  O  O12  1  0.702487  0.291847  0.702487  1
  O  O13  1  0.711393  0.290953  0.298279  1
  O  O14  1  0.290653  0.712381  0.704404  1
  O  O15  1  0.288693  0.725257  0.288693  1
  O  O16  1  0.704404  0.712381  0.290653  1
  O  O17  1  0.959347  0.537619  0.545596  1
  O  O18  1  0.538607  0.959047  0.951721  1
  O  O19  1  0.951721  0.959047  0.538607  1
  O  O20  1  0.961307  0.524743  0.961307  1
  O  O21  1  0.547513  0.958153  0.547513  1
