# generated using pymatgen
data_Tc4MoPt2W
_symmetry_space_group_name_H-M   'P 1'
_cell_length_a   5.63128600
_cell_length_b   5.60209539
_cell_length_c   4.43508500
_cell_angle_alpha   90.00000000
_cell_angle_beta   90.00000000
_cell_angle_gamma   120.17251741
_symmetry_Int_Tables_number   1
_chemical_formula_structural   Tc4MoPt2W
_chemical_formula_sum   'Tc4 Mo1 Pt2 W1'
_cell_volume   120.95757141
_cell_formula_units_Z   1
loop_
 _symmetry_equiv_pos_site_id
 _symmetry_equiv_pos_as_xyz
  1  'x, y, z'
loop_
 _atom_site_type_symbol
 _atom_site_label
 _atom_site_symmetry_multiplicity
 _atom_site_fract_x
 _atom_site_fract_y
 _atom_site_fract_z
 _atom_site_occupancy
  Tc  Tc0  1  0.684481  0.846202  0.250000  1
  Tc  Tc1  1  0.161721  0.846202  0.250000  1
  Tc  Tc2  1  0.315483  0.155370  0.750000  1
  Tc  Tc3  1  0.839889  0.155370  0.750000  1
  Mo  Mo4  1  0.158681  0.317363  0.250000  1
  Pt  Pt5  1  0.333522  0.667047  0.750000  1
  Pt  Pt6  1  0.665947  0.331893  0.250000  1
  W  W7  1  0.840277  0.680553  0.750000  1
