# generated using pymatgen
data_Li3Nd4As8Au
_symmetry_space_group_name_H-M   'P 1'
_cell_length_a   3.99830200
_cell_length_b   4.03897106
_cell_length_c   21.28704830
_cell_angle_alpha   89.98023968
_cell_angle_beta   90.00000000
_cell_angle_gamma   90.00000000
_symmetry_Int_Tables_number   1
_chemical_formula_structural   Li3Nd4As8Au
_chemical_formula_sum   'Li3 Nd4 As8 Au1'
_cell_volume   343.76507772
_cell_formula_units_Z   1
loop_
 _symmetry_equiv_pos_site_id
 _symmetry_equiv_pos_as_xyz
  1  'x, y, z'
loop_
 _atom_site_type_symbol
 _atom_site_label
 _atom_site_symmetry_multiplicity
 _atom_site_fract_x
 _atom_site_fract_y
 _atom_site_fract_z
 _atom_site_occupancy
  Li  Li0  1  0.750000  0.225886  0.249998  1
  Li  Li1  1  0.250000  0.725873  0.250052  1
  Li  Li2  1  0.750000  0.274218  0.750006  1
  Nd  Nd3  1  0.250000  0.228769  0.116127  1
  Nd  Nd4  1  0.750000  0.728481  0.383984  1
  Nd  Nd5  1  0.250000  0.271413  0.616665  1
  Nd  Nd6  1  0.750000  0.772975  0.883082  1
  As  As7  1  0.250000  0.708140  0.000624  1
  As  As8  1  0.750000  0.725488  0.170047  1
  As  As9  1  0.250000  0.225710  0.329937  1
  As  As10  1  0.750000  0.209641  0.499368  1
  As  As11  1  0.250000  0.790049  0.502335  1
  As  As12  1  0.750000  0.772790  0.665957  1
  As  As13  1  0.250000  0.274300  0.833911  1
  As  As14  1  0.750000  0.290850  0.997608  1
  Au  Au15  1  0.250000  0.775416  0.750300  1
