# generated using pymatgen
data_Dy4Ho5Zn4
_symmetry_space_group_name_H-M   'P 1'
_cell_length_a   8.56502388
_cell_length_b   8.56502455
_cell_length_c   8.56702579
_cell_angle_alpha   94.95888194
_cell_angle_beta   94.94144204
_cell_angle_gamma   145.83069162
_symmetry_Int_Tables_number   1
_chemical_formula_structural   Dy4Ho5Zn4
_chemical_formula_sum   'Dy4 Ho5 Zn4'
_cell_volume   337.40742314
_cell_formula_units_Z   1
loop_
 _symmetry_equiv_pos_site_id
 _symmetry_equiv_pos_as_xyz
  1  'x, y, z'
loop_
 _atom_site_type_symbol
 _atom_site_label
 _atom_site_symmetry_multiplicity
 _atom_site_fract_x
 _atom_site_fract_y
 _atom_site_fract_z
 _atom_site_occupancy
  Dy  Dy0  1  0.500494  0.500153  0.000649  1
  Dy  Dy1  1  0.116363  0.597857  0.714223  1
  Dy  Dy2  1  0.886607  0.817895  0.704504  1
  Dy  Dy3  1  0.817945  0.113768  0.931714  1
  Ho  Ho4  1  0.182370  0.886827  0.069199  1
  Ho  Ho5  1  0.113506  0.182248  0.295754  1
  Ho  Ho6  1  0.883704  0.401918  0.285622  1
  Ho  Ho7  1  0.597743  0.883380  0.481124  1
  Ho  Ho8  1  0.401506  0.115907  0.517412  1
  Zn  Zn9  1  0.394212  0.736671  0.130884  1
  Zn  Zn10  1  0.736401  0.605671  0.342072  1
  Zn  Zn11  1  0.263713  0.393680  0.657394  1
  Zn  Zn12  1  0.605431  0.264016  0.869448  1
