# generated using pymatgen
data_Zr4Re7W
_symmetry_space_group_name_H-M   'P 1'
_cell_length_a   5.31499302
_cell_length_b   5.34377260
_cell_length_c   8.71612800
_cell_angle_alpha   90.00000000
_cell_angle_beta   90.00000000
_cell_angle_gamma   120.17927923
_symmetry_Int_Tables_number   1
_chemical_formula_structural   Zr4Re7W
_chemical_formula_sum   'Zr4 Re7 W1'
_cell_volume   214.00183226
_cell_formula_units_Z   1
loop_
 _symmetry_equiv_pos_site_id
 _symmetry_equiv_pos_as_xyz
  1  'x, y, z'
loop_
 _atom_site_type_symbol
 _atom_site_label
 _atom_site_symmetry_multiplicity
 _atom_site_fract_x
 _atom_site_fract_y
 _atom_site_fract_z
 _atom_site_occupancy
  Zr  Zr0  1  0.335148  0.667574  0.435310  1
  Zr  Zr1  1  0.664808  0.332403  0.936007  1
  Zr  Zr2  1  0.664808  0.332403  0.563993  1
  Zr  Zr3  1  0.335148  0.667574  0.064690  1
  Re  Re4  1  0.342273  0.171136  0.250000  1
  Re  Re5  1  0.830245  0.172788  0.250000  1
  Re  Re6  1  0.167691  0.341108  0.750000  1
  Re  Re7  1  0.167691  0.826583  0.750000  1
  Re  Re8  1  0.830245  0.657457  0.250000  1
  Re  Re9  1  0.000924  0.000462  0.497497  1
  Re  Re10  1  0.000924  0.000462  0.002503  1
  W  W11  1  0.660096  0.830048  0.750000  1
