# generated using pymatgen
data_CaDy6Sn23Rh6
_symmetry_space_group_name_H-M   'P 1'
_cell_length_a   9.88378000
_cell_length_b   9.88378124
_cell_length_c   10.09979200
_cell_angle_alpha   90.00000000
_cell_angle_beta   90.00000000
_cell_angle_gamma   119.99999584
_symmetry_Int_Tables_number   1
_chemical_formula_structural   CaDy6Sn23Rh6
_chemical_formula_sum   'Ca1 Dy6 Sn23 Rh6'
_cell_volume   854.45515510
_cell_formula_units_Z   1
loop_
 _symmetry_equiv_pos_site_id
 _symmetry_equiv_pos_as_xyz
  1  'x, y, z'
loop_
 _atom_site_type_symbol
 _atom_site_label
 _atom_site_symmetry_multiplicity
 _atom_site_fract_x
 _atom_site_fract_y
 _atom_site_fract_z
 _atom_site_occupancy
  Ca  Ca0  1  0.000000  0.000000  0.000000  1
  Dy  Dy1  1  0.479282  0.520718  0.307621  1
  Dy  Dy2  1  0.520718  0.479282  0.692379  1
  Dy  Dy3  1  0.479282  0.958563  0.307621  1
  Dy  Dy4  1  0.520718  0.041437  0.692379  1
  Dy  Dy5  1  0.041437  0.520718  0.307621  1
  Dy  Dy6  1  0.958563  0.479282  0.692379  1
  Sn  Sn7  1  0.351005  0.000000  0.000000  1
  Sn  Sn8  1  0.648995  0.000000  0.000000  1
  Sn  Sn9  1  0.000000  0.351005  0.000000  1
  Sn  Sn10  1  0.000000  0.648995  0.000000  1
  Sn  Sn11  1  0.648995  0.648995  0.000000  1
  Sn  Sn12  1  0.351005  0.351005  0.000000  1
  Sn  Sn13  1  0.333333  0.666667  0.818011  1
  Sn  Sn14  1  0.666667  0.333333  0.181989  1
  Sn  Sn15  1  0.000000  0.000000  0.500000  1
  Sn  Sn16  1  0.778554  0.221446  0.455656  1
  Sn  Sn17  1  0.221446  0.778554  0.544344  1
  Sn  Sn18  1  0.778554  0.557108  0.455656  1
  Sn  Sn19  1  0.221446  0.442892  0.544344  1
  Sn  Sn20  1  0.442892  0.221446  0.455656  1
  Sn  Sn21  1  0.557108  0.778554  0.544344  1
  Sn  Sn22  1  0.333333  0.666667  0.120620  1
  Sn  Sn23  1  0.666667  0.333333  0.879380  1
  Sn  Sn24  1  0.119013  0.880987  0.280217  1
  Sn  Sn25  1  0.880987  0.119013  0.719783  1
  Sn  Sn26  1  0.119013  0.238026  0.280217  1
  Sn  Sn27  1  0.880987  0.761974  0.719783  1
  Sn  Sn28  1  0.761974  0.880987  0.280217  1
  Sn  Sn29  1  0.238026  0.119013  0.719783  1
  Rh  Rh30  1  0.830566  0.169434  0.199616  1
  Rh  Rh31  1  0.169434  0.830566  0.800384  1
  Rh  Rh32  1  0.830566  0.661130  0.199616  1
  Rh  Rh33  1  0.169434  0.338870  0.800384  1
  Rh  Rh34  1  0.338870  0.169434  0.199616  1
  Rh  Rh35  1  0.661130  0.830566  0.800384  1
