# generated using pymatgen
data_Ho7Lu(CdRu)2
_symmetry_space_group_name_H-M   'P 1'
_cell_length_a   9.59538009
_cell_length_b   9.56131197
_cell_length_c   9.56131252
_cell_angle_alpha   59.74324305
_cell_angle_beta   59.88206063
_cell_angle_gamma   59.88206372
_symmetry_Int_Tables_number   1
_chemical_formula_structural   Ho7Lu(CdRu)2
_chemical_formula_sum   'Ho14 Lu2 Cd4 Ru4'
_cell_volume   617.95789565
_cell_formula_units_Z   2
loop_
 _symmetry_equiv_pos_site_id
 _symmetry_equiv_pos_as_xyz
  1  'x, y, z'
loop_
 _atom_site_type_symbol
 _atom_site_label
 _atom_site_symmetry_multiplicity
 _atom_site_fract_x
 _atom_site_fract_y
 _atom_site_fract_z
 _atom_site_occupancy
  Ho  Ho0  1  0.561431  0.560668  0.938935  1
  Ho  Ho1  1  0.938967  0.560668  0.938935  1
  Ho  Ho2  1  0.561709  0.938291  0.938291  1
  Ho  Ho3  1  0.938967  0.938935  0.560668  1
  Ho  Ho4  1  0.561431  0.938935  0.560668  1
  Ho  Ho5  1  0.942003  0.557997  0.557997  1
  Ho  Ho6  1  0.190252  0.188788  0.810292  1
  Ho  Ho7  1  0.810668  0.188788  0.810292  1
  Ho  Ho8  1  0.188258  0.811742  0.811741  1
  Ho  Ho9  1  0.810668  0.810293  0.188788  1
  Ho  Ho10  1  0.190251  0.810292  0.188787  1
  Ho  Ho11  1  0.810503  0.189497  0.189497  1
  Ho  Ho12  1  0.345662  0.346130  0.962547  1
  Ho  Ho13  1  0.345662  0.962547  0.346130  1
  Lu  Lu14  1  0.960097  0.345779  0.345779  1
  Lu  Lu15  1  0.348344  0.345779  0.345779  1
  Cd  Cd16  1  0.581238  0.579519  0.258005  1
  Cd  Cd17  1  0.581238  0.258005  0.579519  1
  Cd  Cd18  1  0.258901  0.579935  0.579935  1
  Cd  Cd19  1  0.581228  0.579935  0.579935  1
  Ru  Ru20  1  0.137820  0.146224  0.578134  1
  Ru  Ru21  1  0.137820  0.578134  0.146224  1
  Ru  Ru22  1  0.580754  0.141558  0.141558  1
  Ru  Ru23  1  0.136128  0.141558  0.141558  1
