# generated using pymatgen
data_Y10Sn5BiSe2
_symmetry_space_group_name_H-M   'P 1'
_cell_length_a   9.15422510
_cell_length_b   9.15422459
_cell_length_c   6.73361400
_cell_angle_alpha   90.00000000
_cell_angle_beta   90.00000000
_cell_angle_gamma   120.13228615
_symmetry_Int_Tables_number   1
_chemical_formula_structural   Y10Sn5BiSe2
_chemical_formula_sum   'Y10 Sn5 Bi1 Se2'
_cell_volume   488.02440314
_cell_formula_units_Z   1
loop_
 _symmetry_equiv_pos_site_id
 _symmetry_equiv_pos_as_xyz
  1  'x, y, z'
loop_
 _atom_site_type_symbol
 _atom_site_label
 _atom_site_symmetry_multiplicity
 _atom_site_fract_x
 _atom_site_fract_y
 _atom_site_fract_z
 _atom_site_occupancy
  Y  Y0  1  0.669500  0.332526  0.001855  1
  Y  Y1  1  0.332526  0.669500  0.001855  1
  Y  Y2  1  0.332526  0.669500  0.498145  1
  Y  Y3  1  0.669500  0.332526  0.498145  1
  Y  Y4  1  0.749483  0.749483  0.750000  1
  Y  Y5  1  0.251094  0.994749  0.750000  1
  Y  Y6  1  0.994749  0.251094  0.750000  1
  Y  Y7  1  0.252026  0.252026  0.250000  1
  Y  Y8  1  0.746392  0.999912  0.250000  1
  Y  Y9  1  0.999912  0.746392  0.250000  1
  Sn  Sn10  1  0.602756  0.000195  0.750000  1
  Sn  Sn11  1  0.000195  0.602756  0.750000  1
  Sn  Sn12  1  0.604128  0.604128  0.250000  1
  Sn  Sn13  1  0.396991  0.000732  0.250000  1
  Sn  Sn14  1  0.000732  0.396991  0.250000  1
  Bi  Bi15  1  0.395730  0.395730  0.750000  1
  Se  Se16  1  0.000880  0.000880  0.999661  1
  Se  Se17  1  0.000880  0.000880  0.500339  1
