# generated using pymatgen
data_AcNd3Zn10SiSn
_symmetry_space_group_name_H-M   'P 1'
_cell_length_a   8.52546950
_cell_length_b   8.52547028
_cell_length_c   9.01148138
_cell_angle_alpha   89.18760378
_cell_angle_beta   90.81239520
_cell_angle_gamma   149.25486309
_symmetry_Int_Tables_number   1
_chemical_formula_structural   AcNd3Zn10SiSn
_chemical_formula_sum   'Ac1 Nd3 Zn10 Si1 Sn1'
_cell_volume   334.80646620
_cell_formula_units_Z   1
loop_
 _symmetry_equiv_pos_site_id
 _symmetry_equiv_pos_as_xyz
  1  'x, y, z'
loop_
 _atom_site_type_symbol
 _atom_site_label
 _atom_site_symmetry_multiplicity
 _atom_site_fract_x
 _atom_site_fract_y
 _atom_site_fract_z
 _atom_site_occupancy
  Ac  Ac0  1  0.000671  0.999329  0.488983  1
  Nd  Nd1  1  0.204058  0.795942  0.246472  1
  Nd  Nd2  1  0.793385  0.206615  0.753594  1
  Nd  Nd3  1  0.000841  0.999159  0.013127  1
  Zn  Zn4  1  0.809711  0.190289  0.393735  1
  Zn  Zn5  1  0.189077  0.810923  0.605199  1
  Zn  Zn6  1  0.816086  0.183914  0.113595  1
  Zn  Zn7  1  0.183123  0.816877  0.888763  1
  Zn  Zn8  1  0.653215  0.346785  0.472754  1
  Zn  Zn9  1  0.343219  0.656781  0.515364  1
  Zn  Zn10  1  0.652768  0.347232  0.021761  1
  Zn  Zn11  1  0.340983  0.659017  0.987971  1
  Zn  Zn12  1  0.405502  0.594498  0.248289  1
  Zn  Zn13  1  0.604131  0.395869  0.748959  1
  Si  Si14  1  0.560864  0.439136  0.241494  1
  Sn  Sn15  1  0.442367  0.557633  0.759941  1
