# generated using pymatgen
data_CaLaPrDy(Pt2O7)2
_symmetry_space_group_name_H-M   'P 1'
_cell_length_a   7.33677523
_cell_length_b   7.37740951
_cell_length_c   7.33677300
_cell_angle_alpha   59.92988932
_cell_angle_beta   59.74449823
_cell_angle_gamma   59.92989358
_symmetry_Int_Tables_number   1
_chemical_formula_structural   CaLaPrDy(Pt2O7)2
_chemical_formula_sum   'Ca1 La1 Pr1 Dy1 Pt4 O14'
_cell_volume   279.95891827
_cell_formula_units_Z   1
loop_
 _symmetry_equiv_pos_site_id
 _symmetry_equiv_pos_as_xyz
  1  'x, y, z'
loop_
 _atom_site_type_symbol
 _atom_site_label
 _atom_site_symmetry_multiplicity
 _atom_site_fract_x
 _atom_site_fract_y
 _atom_site_fract_z
 _atom_site_occupancy
  Ca  Ca0  1  0.625000  0.125000  0.125000  1
  La  La1  1  0.125000  0.125000  0.625000  1
  Pr  Pr2  1  0.125000  0.625000  0.125000  1
  Dy  Dy3  1  0.125000  0.125000  0.125000  1
  Pt  Pt4  1  0.625000  0.625000  0.125000  1
  Pt  Pt5  1  0.625000  0.125000  0.625000  1
  Pt  Pt6  1  0.125000  0.625000  0.625000  1
  Pt  Pt7  1  0.625000  0.625000  0.625000  1
  O  O8  1  0.251967  0.243183  0.243358  1
  O  O9  1  0.998033  0.006817  0.006642  1
  O  O10  1  0.288332  0.718606  0.288230  1
  O  O11  1  0.546264  0.957057  0.540553  1
  O  O12  1  0.289580  0.290466  0.719637  1
  O  O13  1  0.717389  0.291813  0.290772  1
  O  O14  1  0.290656  0.707008  0.710388  1
  O  O15  1  0.707239  0.709299  0.290784  1
  O  O16  1  0.703736  0.292943  0.709447  1
  O  O17  1  0.959344  0.542992  0.539612  1
  O  O18  1  0.532611  0.958187  0.959228  1
  O  O19  1  0.961668  0.531394  0.961770  1
  O  O20  1  0.542761  0.540701  0.959216  1
  O  O21  1  0.960420  0.959534  0.530363  1
