# generated using pymatgen
data_HoEr3(SiRh2)8
_symmetry_space_group_name_H-M   'P 1'
_cell_length_a   4.11721300
_cell_length_b   9.07763517
_cell_length_c   11.28366821
_cell_angle_alpha   90.02231008
_cell_angle_beta   90.00000000
_cell_angle_gamma   90.00000000
_symmetry_Int_Tables_number   1
_chemical_formula_structural   HoEr3(SiRh2)8
_chemical_formula_sum   'Ho1 Er3 Si8 Rh16'
_cell_volume   421.72207495
_cell_formula_units_Z   1
loop_
 _symmetry_equiv_pos_site_id
 _symmetry_equiv_pos_as_xyz
  1  'x, y, z'
loop_
 _atom_site_type_symbol
 _atom_site_label
 _atom_site_symmetry_multiplicity
 _atom_site_fract_x
 _atom_site_fract_y
 _atom_site_fract_z
 _atom_site_occupancy
  Ho  Ho0  1  0.250000  0.148268  0.825230  1
  Er  Er1  1  0.250000  0.351870  0.325184  1
  Er  Er2  1  0.750000  0.851754  0.174860  1
  Er  Er3  1  0.750000  0.648182  0.674769  1
  Si  Si4  1  0.250000  0.412239  0.637187  1
  Si  Si5  1  0.250000  0.087912  0.137400  1
  Si  Si6  1  0.750000  0.587928  0.362627  1
  Si  Si7  1  0.750000  0.911835  0.862724  1
  Si  Si8  1  0.250000  0.616471  0.058391  1
  Si  Si9  1  0.250000  0.883459  0.558362  1
  Si  Si10  1  0.750000  0.383527  0.941705  1
  Si  Si11  1  0.750000  0.116452  0.441655  1
  Rh  Rh12  1  0.250000  0.615303  0.500743  1
  Rh  Rh13  1  0.250000  0.884499  0.000824  1
  Rh  Rh14  1  0.750000  0.384766  0.498967  1
  Rh  Rh15  1  0.750000  0.114869  0.999823  1
  Rh  Rh16  1  0.250000  0.684470  0.268667  1
  Rh  Rh17  1  0.250000  0.815216  0.768660  1
  Rh  Rh18  1  0.750000  0.316321  0.731004  1
  Rh  Rh19  1  0.750000  0.184644  0.231586  1
  Rh  Rh20  1  0.250000  0.173134  0.558861  1
  Rh  Rh21  1  0.250000  0.327053  0.059315  1
  Rh  Rh22  1  0.750000  0.826975  0.440721  1
  Rh  Rh23  1  0.750000  0.672913  0.940930  1
  Rh  Rh24  1  0.250000  0.006741  0.344122  1
  Rh  Rh25  1  0.250000  0.493383  0.844274  1
  Rh  Rh26  1  0.750000  0.992977  0.655618  1
  Rh  Rh27  1  0.750000  0.506836  0.155791  1
