# generated using pymatgen
data_Sr5Cd2Rh
_symmetry_space_group_name_H-M   'P 1'
_cell_length_a   10.02009580
_cell_length_b   10.02009596
_cell_length_c   10.02009519
_cell_angle_alpha   129.71306926
_cell_angle_beta   129.36921914
_cell_angle_gamma   74.14173568
_symmetry_Int_Tables_number   1
_chemical_formula_structural   Sr5Cd2Rh
_chemical_formula_sum   'Sr10 Cd4 Rh2'
_cell_volume   583.35108794
_cell_formula_units_Z   2
loop_
 _symmetry_equiv_pos_site_id
 _symmetry_equiv_pos_as_xyz
  1  'x, y, z'
loop_
 _atom_site_type_symbol
 _atom_site_label
 _atom_site_symmetry_multiplicity
 _atom_site_fract_x
 _atom_site_fract_y
 _atom_site_fract_z
 _atom_site_occupancy
  Sr  Sr0  1  0.985921  0.468099  0.176054  1
  Sr  Sr1  1  0.451337  0.306045  0.487503  1
  Sr  Sr2  1  0.707955  0.190133  0.176054  1
  Sr  Sr3  1  0.016318  0.007000  0.023318  1
  Sr  Sr4  1  0.181458  0.036167  0.487503  1
  Sr  Sr5  1  0.792045  0.968099  0.482178  1
  Sr  Sr6  1  0.318542  0.806045  0.854708  1
  Sr  Sr7  1  0.514079  0.690133  0.482178  1
  Sr  Sr8  1  0.483682  0.507000  0.990682  1
  Sr  Sr9  1  0.048663  0.536167  0.854708  1
  Cd  Cd10  1  0.612714  0.116163  0.728877  1
  Cd  Cd11  1  0.750000  0.743569  0.993569  1
  Cd  Cd12  1  0.887286  0.616163  0.503450  1
  Cd  Cd13  1  0.250000  0.243569  0.993569  1
  Rh  Rh14  1  0.116544  0.382824  0.499368  1
  Rh  Rh15  1  0.383456  0.882824  0.266279  1
