# generated using pymatgen
data_Tb3Ce(MgIr)4
_symmetry_space_group_name_H-M   'P 1'
_cell_length_a   7.10156658
_cell_length_b   4.10138800
_cell_length_c   8.61464161
_cell_angle_alpha   90.00000000
_cell_angle_beta   90.64651935
_cell_angle_gamma   90.00000000
_symmetry_Int_Tables_number   1
_chemical_formula_structural   Tb3Ce(MgIr)4
_chemical_formula_sum   'Tb3 Ce1 Mg4 Ir4'
_cell_volume   250.89648954
_cell_formula_units_Z   1
loop_
 _symmetry_equiv_pos_site_id
 _symmetry_equiv_pos_as_xyz
  1  'x, y, z'
loop_
 _atom_site_type_symbol
 _atom_site_label
 _atom_site_symmetry_multiplicity
 _atom_site_fract_x
 _atom_site_fract_y
 _atom_site_fract_z
 _atom_site_occupancy
  Tb  Tb0  1  0.959111  0.250000  0.176604  1
  Tb  Tb1  1  0.462586  0.250000  0.320068  1
  Tb  Tb2  1  0.036932  0.750000  0.826506  1
  Ce  Ce3  1  0.536114  0.750000  0.679652  1
  Mg  Mg4  1  0.869509  0.250000  0.559499  1
  Mg  Mg5  1  0.361067  0.250000  0.943634  1
  Mg  Mg6  1  0.136686  0.750000  0.437766  1
  Mg  Mg7  1  0.634526  0.750000  0.061024  1
  Ir  Ir8  1  0.744594  0.250000  0.863969  1
  Ir  Ir9  1  0.261018  0.250000  0.628441  1
  Ir  Ir10  1  0.246675  0.750000  0.128617  1
  Ir  Ir11  1  0.751183  0.750000  0.374221  1
