# generated using pymatgen
data_Sc24Tc7Hg
_symmetry_space_group_name_H-M   'P 1'
_cell_length_a   5.84507791
_cell_length_b   8.62627500
_cell_length_c   13.87137936
_cell_angle_alpha   90.00000000
_cell_angle_beta   90.52158914
_cell_angle_gamma   90.00000000
_symmetry_Int_Tables_number   1
_chemical_formula_structural   Sc24Tc7Hg
_chemical_formula_sum   'Sc24 Tc7 Hg1'
_cell_volume   699.38329824
_cell_formula_units_Z   1
loop_
 _symmetry_equiv_pos_site_id
 _symmetry_equiv_pos_as_xyz
  1  'x, y, z'
loop_
 _atom_site_type_symbol
 _atom_site_label
 _atom_site_symmetry_multiplicity
 _atom_site_fract_x
 _atom_site_fract_y
 _atom_site_fract_z
 _atom_site_occupancy
  Sc  Sc0  1  0.536389  0.750000  0.353589  1
  Sc  Sc1  1  0.029652  0.250000  0.147614  1
  Sc  Sc2  1  0.473179  0.250000  0.646139  1
  Sc  Sc3  1  0.964160  0.750000  0.862146  1
  Sc  Sc4  1  0.792339  0.750000  0.111888  1
  Sc  Sc5  1  0.297708  0.250000  0.384272  1
  Sc  Sc6  1  0.201849  0.250000  0.889240  1
  Sc  Sc7  1  0.688433  0.750000  0.608824  1
  Sc  Sc8  1  0.444495  0.945619  0.795568  1
  Sc  Sc9  1  0.926670  0.070301  0.707948  1
  Sc  Sc10  1  0.561419  0.438029  0.211080  1
  Sc  Sc11  1  0.064372  0.563491  0.289889  1
  Sc  Sc12  1  0.561419  0.061971  0.211080  1
  Sc  Sc13  1  0.064372  0.936509  0.289889  1
  Sc  Sc14  1  0.444495  0.554381  0.795568  1
  Sc  Sc15  1  0.926670  0.429699  0.707948  1
  Sc  Sc16  1  0.250341  0.954308  0.523777  1
  Sc  Sc17  1  0.746880  0.061707  0.969732  1
  Sc  Sc18  1  0.752927  0.438512  0.465698  1
  Sc  Sc19  1  0.254342  0.558160  0.034623  1
  Sc  Sc20  1  0.752927  0.061488  0.465698  1
  Sc  Sc21  1  0.254342  0.941840  0.034623  1
  Sc  Sc22  1  0.250341  0.545692  0.523777  1
  Sc  Sc23  1  0.746880  0.438293  0.969732  1
  Tc  Tc24  1  0.935634  0.750000  0.448930  1
  Tc  Tc25  1  0.427620  0.250000  0.058435  1
  Tc  Tc26  1  0.077017  0.250000  0.555896  1
  Tc  Tc27  1  0.566517  0.750000  0.941348  1
  Tc  Tc28  1  0.353220  0.750000  0.180360  1
  Tc  Tc29  1  0.856466  0.250000  0.319487  1
  Tc  Tc30  1  0.645855  0.250000  0.820537  1
  Hg  Hg31  1  0.151067  0.750000  0.674665  1
