# generated using pymatgen
data_Y12TlInFe4
_symmetry_space_group_name_H-M   'P 1'
_cell_length_a   8.44883553
_cell_length_b   8.44883623
_cell_length_c   8.44883500
_cell_angle_alpha   111.28082075
_cell_angle_beta   110.33869390
_cell_angle_gamma   106.82752512
_symmetry_Int_Tables_number   1
_chemical_formula_structural   Y12TlInFe4
_chemical_formula_sum   'Y12 Tl1 In1 Fe4'
_cell_volume   463.49800055
_cell_formula_units_Z   1
loop_
 _symmetry_equiv_pos_site_id
 _symmetry_equiv_pos_as_xyz
  1  'x, y, z'
loop_
 _atom_site_type_symbol
 _atom_site_label
 _atom_site_symmetry_multiplicity
 _atom_site_fract_x
 _atom_site_fract_y
 _atom_site_fract_z
 _atom_site_occupancy
  Y  Y0  1  0.441893  0.229742  0.212151  1
  Y  Y1  1  0.558107  0.770258  0.787849  1
  Y  Y2  1  0.017592  0.229742  0.787849  1
  Y  Y3  1  0.982408  0.770258  0.212151  1
  Y  Y4  1  0.189339  0.290944  0.480284  1
  Y  Y5  1  0.810661  0.709056  0.519716  1
  Y  Y6  1  0.189339  0.709056  0.898395  1
  Y  Y7  1  0.810661  0.290944  0.101605  1
  Y  Y8  1  0.312217  0.611144  0.298927  1
  Y  Y9  1  0.687783  0.388856  0.701073  1
  Y  Y10  1  0.312217  0.013292  0.701073  1
  Y  Y11  1  0.687783  0.986708  0.298927  1
  Tl  Tl12  1  0.000000  0.000000  0.000000  1
  In  In13  1  0.500000  0.500000  0.000000  1
  Fe  Fe14  1  0.386634  0.000000  0.386634  1
  Fe  Fe15  1  0.613366  0.000000  0.613366  1
  Fe  Fe16  1  0.106859  0.606859  0.500000  1
  Fe  Fe17  1  0.893141  0.393141  0.500000  1
