# generated using pymatgen
data_Nd7Gd(Se3N2)2
_symmetry_space_group_name_H-M   'P 1'
_cell_length_a   8.32585964
_cell_length_b   8.32949434
_cell_length_c   6.48065672
_cell_angle_alpha   89.81090960
_cell_angle_beta   90.12585904
_cell_angle_gamma   75.45891409
_symmetry_Int_Tables_number   1
_chemical_formula_structural   Nd7Gd(Se3N2)2
_chemical_formula_sum   'Nd7 Gd1 Se6 N4'
_cell_volume   435.03398530
_cell_formula_units_Z   1
loop_
 _symmetry_equiv_pos_site_id
 _symmetry_equiv_pos_as_xyz
  1  'x, y, z'
loop_
 _atom_site_type_symbol
 _atom_site_label
 _atom_site_symmetry_multiplicity
 _atom_site_fract_x
 _atom_site_fract_y
 _atom_site_fract_z
 _atom_site_occupancy
  Nd  Nd0  1  0.915098  0.755808  0.928425  1
  Nd  Nd1  1  0.753829  0.914806  0.428097  1
  Nd  Nd2  1  0.086858  0.243182  0.072689  1
  Nd  Nd3  1  0.811399  0.441805  0.529976  1
  Nd  Nd4  1  0.556555  0.189723  0.966167  1
  Nd  Nd5  1  0.190577  0.556010  0.471546  1
  Nd  Nd6  1  0.441408  0.811713  0.027665  1
  Gd  Gd7  1  0.243161  0.088109  0.573663  1
  Se  Se8  1  0.746777  0.483506  0.035480  1
  Se  Se9  1  0.098190  0.905755  0.253709  1
  Se  Se10  1  0.513531  0.251895  0.465607  1
  Se  Se11  1  0.253961  0.516196  0.966999  1
  Se  Se12  1  0.906157  0.095426  0.748777  1
  Se  Se13  1  0.481179  0.750096  0.536036  1
  N  N14  1  0.085044  0.325028  0.419835  1
  N  N15  1  0.327851  0.082896  0.906491  1
  N  N16  1  0.918449  0.669562  0.584880  1
  N  N17  1  0.669977  0.918485  0.083959  1
