# generated using pymatgen
data_Li6Mg2Zn(Sn3O8)3
_symmetry_space_group_name_H-M   'P 1'
_cell_length_a   10.66585926
_cell_length_b   10.66857789
_cell_length_c   10.03344100
_cell_angle_alpha   90.00000000
_cell_angle_beta   90.00000000
_cell_angle_gamma   120.04655722
_symmetry_Int_Tables_number   1
_chemical_formula_structural   Li6Mg2Zn(Sn3O8)3
_chemical_formula_sum   'Li12 Mg4 Zn2 Sn18 O48'
_cell_volume   988.27765769
_cell_formula_units_Z   2
loop_
 _symmetry_equiv_pos_site_id
 _symmetry_equiv_pos_as_xyz
  1  'x, y, z'
loop_
 _atom_site_type_symbol
 _atom_site_label
 _atom_site_symmetry_multiplicity
 _atom_site_fract_x
 _atom_site_fract_y
 _atom_site_fract_z
 _atom_site_occupancy
  Li  Li0  1  0.334355  0.833318  0.009359  1
  Li  Li1  1  0.693973  0.333460  0.781174  1
  Li  Li2  1  0.306028  0.666541  0.281173  1
  Li  Li3  1  0.333614  0.691787  0.781341  1
  Li  Li4  1  0.666387  0.308214  0.281340  1
  Li  Li5  1  0.981204  0.981901  0.783894  1
  Li  Li6  1  0.018795  0.018098  0.283895  1
  Li  Li7  1  0.165448  0.165693  0.509077  1
  Li  Li8  1  0.834552  0.834307  0.009078  1
  Li  Li9  1  0.166659  0.665485  0.509426  1
  Li  Li10  1  0.833342  0.334516  0.009426  1
  Li  Li11  1  0.665646  0.166683  0.509359  1
  Mg  Mg12  1  0.666715  0.666597  0.690360  1
  Mg  Mg13  1  0.333286  0.333404  0.190360  1
  Mg  Mg14  1  0.334018  0.000278  0.695713  1
  Mg  Mg15  1  0.665983  0.999723  0.195712  1
  Zn  Zn16  1  0.999942  0.334037  0.694960  1
  Zn  Zn17  1  0.000059  0.665964  0.194959  1
  Sn  Sn18  1  0.015650  0.840298  0.504066  1
  Sn  Sn19  1  0.984349  0.159702  0.004067  1
  Sn  Sn20  1  0.840997  0.016076  0.503840  1
  Sn  Sn21  1  0.159003  0.983923  0.003841  1
  Sn  Sn22  1  0.839353  0.494223  0.503031  1
  Sn  Sn23  1  0.160648  0.505778  0.003032  1
  Sn  Sn24  1  0.495413  0.839803  0.503580  1
  Sn  Sn25  1  0.504588  0.160198  0.003581  1
  Sn  Sn26  1  0.491063  0.319294  0.503579  1
  Sn  Sn27  1  0.508937  0.680706  0.003579  1
  Sn  Sn28  1  0.318756  0.491426  0.503215  1
  Sn  Sn29  1  0.681244  0.508574  0.003215  1
  Sn  Sn30  1  0.004299  0.667261  0.782308  1
  Sn  Sn31  1  0.995702  0.332740  0.282307  1
  Sn  Sn32  1  0.666979  0.004142  0.782241  1
  Sn  Sn33  1  0.333022  0.995859  0.282240  1
  Sn  Sn34  1  0.329055  0.328976  0.782683  1
  Sn  Sn35  1  0.670945  0.671024  0.282685  1
  O  O36  1  0.849732  0.668231  0.628919  1
  O  O37  1  0.150266  0.331768  0.128918  1
  O  O38  1  0.669387  0.850201  0.629200  1
  O  O39  1  0.330612  0.149797  0.129199  1
  O  O40  1  0.339324  0.184399  0.643468  1
  O  O41  1  0.660675  0.815600  0.143468  1
  O  O42  1  0.183833  0.338233  0.642748  1
  O  O43  1  0.816166  0.661766  0.142748  1
  O  O44  1  0.151209  0.822009  0.641100  1
  O  O45  1  0.848791  0.177991  0.141100  1
  O  O46  1  0.821295  0.151768  0.640318  1
  O  O47  1  0.178705  0.848232  0.140318  1
  O  O48  1  0.992049  0.510094  0.641011  1
  O  O49  1  0.007952  0.489906  0.141011  1
  O  O50  1  0.509534  0.990800  0.641846  1
  O  O51  1  0.490466  0.009201  0.141846  1
  O  O52  1  0.665517  0.335730  0.602008  1
  O  O53  1  0.334482  0.664269  0.102008  1
  O  O54  1  0.336048  0.665934  0.601909  1
  O  O55  1  0.663951  0.334065  0.101909  1
  O  O56  1  0.841958  0.841818  0.387656  1
  O  O57  1  0.158042  0.158182  0.887657  1
  O  O58  1  0.166852  0.999831  0.384149  1
  O  O59  1  0.833148  0.000169  0.884148  1
  O  O60  1  0.000209  0.166286  0.383358  1
  O  O61  1  0.999791  0.833714  0.883357  1
  O  O62  1  0.337686  0.337936  0.391910  1
  O  O63  1  0.662313  0.662063  0.891908  1
  O  O64  1  0.664955  0.495469  0.389359  1
  O  O65  1  0.335045  0.504531  0.889359  1
  O  O66  1  0.495627  0.665049  0.389559  1
  O  O67  1  0.504373  0.334951  0.889559  1
  O  O68  1  0.830190  0.334270  0.383536  1
  O  O69  1  0.169810  0.665731  0.883535  1
  O  O70  1  0.335490  0.831190  0.384122  1
  O  O71  1  0.664511  0.168810  0.884121  1
  O  O72  1  0.497542  0.168464  0.383092  1
  O  O73  1  0.502459  0.831537  0.883091  1
  O  O74  1  0.168363  0.497739  0.382386  1
  O  O75  1  0.831638  0.502262  0.882385  1
  O  O76  1  0.997310  0.666561  0.396578  1
  O  O77  1  0.002691  0.333440  0.896578  1
  O  O78  1  0.667194  0.996381  0.395669  1
  O  O79  1  0.332807  0.003620  0.895669  1
  O  O80  1  0.998020  0.997888  0.602633  1
  O  O81  1  0.001980  0.002112  0.102635  1
  O  O82  1  0.482305  0.482769  0.631623  1
  O  O83  1  0.517696  0.517232  0.131622  1
