# generated using pymatgen
data_DyTm3(Al3Pt4)2
_symmetry_space_group_name_H-M   'P 1'
_cell_length_a   8.10026963
_cell_length_b   8.10027006
_cell_length_c   7.60280703
_cell_angle_alpha   90.00961808
_cell_angle_beta   89.99037996
_cell_angle_gamma   139.98384638
_symmetry_Int_Tables_number   1
_chemical_formula_structural   DyTm3(Al3Pt4)2
_chemical_formula_sum   'Dy1 Tm3 Al6 Pt8'
_cell_volume   320.76450971
_cell_formula_units_Z   1
loop_
 _symmetry_equiv_pos_site_id
 _symmetry_equiv_pos_as_xyz
  1  'x, y, z'
loop_
 _atom_site_type_symbol
 _atom_site_label
 _atom_site_symmetry_multiplicity
 _atom_site_fract_x
 _atom_site_fract_y
 _atom_site_fract_z
 _atom_site_occupancy
  Dy  Dy0  1  0.105978  0.894022  0.592476  1
  Tm  Tm1  1  0.605993  0.394007  0.907837  1
  Tm  Tm2  1  0.394234  0.605766  0.092746  1
  Tm  Tm3  1  0.893776  0.106224  0.407620  1
  Al  Al4  1  0.499319  0.500681  0.499269  1
  Al  Al5  1  0.999810  0.000190  0.999790  1
  Al  Al6  1  0.522647  0.977578  0.750591  1
  Al  Al7  1  0.977846  0.521951  0.249954  1
  Al  Al8  1  0.478049  0.022154  0.249954  1
  Al  Al9  1  0.022422  0.477353  0.750591  1
  Pt  Pt10  1  0.690511  0.808808  0.750353  1
  Pt  Pt11  1  0.808212  0.690912  0.248897  1
  Pt  Pt12  1  0.309088  0.191788  0.248897  1
  Pt  Pt13  1  0.191192  0.309489  0.750353  1
  Pt  Pt14  1  0.683898  0.316102  0.528852  1
  Pt  Pt15  1  0.316806  0.683194  0.471159  1
  Pt  Pt16  1  0.816736  0.183264  0.028918  1
  Pt  Pt17  1  0.183487  0.816513  0.971744  1
