# generated using pymatgen
data_Ca8Be2FeN8
_symmetry_space_group_name_H-M   'P 1'
_cell_length_a   9.07981724
_cell_length_b   4.93985306
_cell_length_c   7.08135068
_cell_angle_alpha   90.00001223
_cell_angle_beta   74.76264801
_cell_angle_gamma   74.21527422
_symmetry_Int_Tables_number   1
_chemical_formula_structural   Ca8Be2FeN8
_chemical_formula_sum   'Ca8 Be2 Fe1 N8'
_cell_volume   294.02199651
_cell_formula_units_Z   1
loop_
 _symmetry_equiv_pos_site_id
 _symmetry_equiv_pos_as_xyz
  1  'x, y, z'
loop_
 _atom_site_type_symbol
 _atom_site_label
 _atom_site_symmetry_multiplicity
 _atom_site_fract_x
 _atom_site_fract_y
 _atom_site_fract_z
 _atom_site_occupancy
  Ca  Ca0  1  0.081698  0.959151  0.744042  1
  Ca  Ca1  1  0.951136  0.024432  0.252982  1
  Ca  Ca2  1  0.644841  0.677580  0.482648  1
  Ca  Ca3  1  0.327062  0.336469  0.520907  1
  Ca  Ca4  1  0.801128  0.599437  0.948730  1
  Ca  Ca5  1  0.183973  0.408013  0.044578  1
  Ca  Ca6  1  0.599885  0.200058  0.807915  1
  Ca  Ca7  1  0.403825  0.798087  0.171266  1
  Be  Be8  1  0.994117  0.502941  0.509103  1
  Be  Be9  1  0.377201  0.811399  0.793402  1
  Fe  Fe10  1  0.626057  0.186973  0.207143  1
  N  N11  1  0.208960  0.895520  0.997018  1
  N  N12  1  0.793381  0.103309  0.007918  1
  N  N13  1  0.354158  0.822921  0.563474  1
  N  N14  1  0.648677  0.175662  0.439587  1
  N  N15  1  0.565467  0.717267  0.828851  1
  N  N16  1  0.438511  0.280744  0.168449  1
  N  N17  1  0.044416  0.477793  0.702246  1
  N  N18  1  0.955507  0.522246  0.309739  1
