# generated using pymatgen
data_HoCdCu3Ir
_symmetry_space_group_name_H-M   'P 1'
_cell_length_a   5.07752283
_cell_length_b   5.07752272
_cell_length_c   5.21420830
_cell_angle_alpha   60.86343956
_cell_angle_beta   60.86343724
_cell_angle_gamma   59.99999911
_symmetry_Int_Tables_number   1
_chemical_formula_structural   HoCdCu3Ir
_chemical_formula_sum   'Ho1 Cd1 Cu3 Ir1'
_cell_volume   96.27719937
_cell_formula_units_Z   1
loop_
 _symmetry_equiv_pos_site_id
 _symmetry_equiv_pos_as_xyz
  1  'x, y, z'
loop_
 _atom_site_type_symbol
 _atom_site_label
 _atom_site_symmetry_multiplicity
 _atom_site_fract_x
 _atom_site_fract_y
 _atom_site_fract_z
 _atom_site_occupancy
  Ho  Ho0  1  0.747687  0.747687  0.756940  1
  Cd  Cd1  1  0.998542  0.998542  0.004374  1
  Cu  Cu2  1  0.375779  0.876809  0.371633  1
  Cu  Cu3  1  0.375779  0.375779  0.371633  1
  Cu  Cu4  1  0.876809  0.375779  0.371633  1
  Ir  Ir5  1  0.375405  0.375405  0.873785  1
