# generated using pymatgen
data_HoU2(PaTc2)3
_symmetry_space_group_name_H-M   'P 1'
_cell_length_a   5.84132300
_cell_length_b   5.84132179
_cell_length_c   7.96109500
_cell_angle_alpha   90.00000000
_cell_angle_beta   90.00000000
_cell_angle_gamma   120.00000120
_symmetry_Int_Tables_number   1
_chemical_formula_structural   HoU2(PaTc2)3
_chemical_formula_sum   'Ho1 U2 Pa3 Tc6'
_cell_volume   235.24791657
_cell_formula_units_Z   1
loop_
 _symmetry_equiv_pos_site_id
 _symmetry_equiv_pos_as_xyz
  1  'x, y, z'
loop_
 _atom_site_type_symbol
 _atom_site_label
 _atom_site_symmetry_multiplicity
 _atom_site_fract_x
 _atom_site_fract_y
 _atom_site_fract_z
 _atom_site_occupancy
  Ho  Ho0  1  0.333333  0.666667  0.067712  1
  U  U1  1  0.000000  0.000000  0.496096  1
  U  U2  1  0.000000  0.000000  0.999278  1
  Pa  Pa3  1  0.333333  0.666667  0.447784  1
  Pa  Pa4  1  0.666667  0.333333  0.565305  1
  Pa  Pa5  1  0.666667  0.333333  0.935704  1
  Tc  Tc6  1  0.833145  0.166855  0.251108  1
  Tc  Tc7  1  0.833145  0.666289  0.251108  1
  Tc  Tc8  1  0.333711  0.166855  0.251108  1
  Tc  Tc9  1  0.165513  0.834487  0.744932  1
  Tc  Tc10  1  0.165513  0.331026  0.744932  1
  Tc  Tc11  1  0.668974  0.834487  0.744932  1
