# generated using pymatgen
data_Nd8Y12Sn9Sb7
_symmetry_space_group_name_H-M   'P 1'
_cell_length_a   8.28758908
_cell_length_b   8.30084690
_cell_length_c   15.76934500
_cell_angle_alpha   89.92959549
_cell_angle_beta   90.02929226
_cell_angle_gamma   89.95436971
_symmetry_Int_Tables_number   1
_chemical_formula_structural   Nd8Y12Sn9Sb7
_chemical_formula_sum   'Nd8 Y12 Sn9 Sb7'
_cell_volume   1084.83514352
_cell_formula_units_Z   1
loop_
 _symmetry_equiv_pos_site_id
 _symmetry_equiv_pos_as_xyz
  1  'x, y, z'
loop_
 _atom_site_type_symbol
 _atom_site_label
 _atom_site_symmetry_multiplicity
 _atom_site_fract_x
 _atom_site_fract_y
 _atom_site_fract_z
 _atom_site_occupancy
  Nd  Nd0  1  0.464573  0.822064  0.898156  1
  Nd  Nd1  1  0.961551  0.675168  0.603033  1
  Nd  Nd2  1  0.538135  0.175214  0.396697  1
  Nd  Nd3  1  0.035928  0.326143  0.102383  1
  Nd  Nd4  1  0.536817  0.177046  0.102844  1
  Nd  Nd5  1  0.038182  0.325404  0.396731  1
  Nd  Nd6  1  0.461265  0.825757  0.603481  1
  Nd  Nd7  1  0.960843  0.673426  0.897391  1
  Y  Y8  1  0.624441  0.340034  0.878671  1
  Y  Y9  1  0.123763  0.160056  0.622224  1
  Y  Y10  1  0.376904  0.660850  0.378571  1
  Y  Y11  1  0.875718  0.838903  0.121344  1
  Y  Y12  1  0.378280  0.660227  0.121738  1
  Y  Y13  1  0.877258  0.839689  0.378215  1
  Y  Y14  1  0.622917  0.339565  0.621396  1
  Y  Y15  1  0.123174  0.159758  0.878623  1
  Y  Y16  1  0.290853  0.500004  0.750335  1
  Y  Y17  1  0.790699  0.999202  0.750559  1
  Y  Y18  1  0.709075  0.500086  0.248394  1
  Y  Y19  1  0.209152  0.000780  0.249045  1
  Sn  Sn20  1  0.716873  0.532856  0.044429  1
  Sn  Sn21  1  0.654284  0.641702  0.749636  1
  Sn  Sn22  1  0.154410  0.857224  0.750549  1
  Sn  Sn23  1  0.344607  0.358734  0.250332  1
  Sn  Sn24  1  0.845195  0.141860  0.249906  1
  Sn  Sn25  1  0.426025  0.127991  0.750681  1
  Sn  Sn26  1  0.925620  0.371616  0.749783  1
  Sn  Sn27  1  0.574388  0.872660  0.250425  1
  Sn  Sn28  1  0.075098  0.628625  0.250245  1
  Sb  Sb29  1  0.218183  0.968229  0.045392  1
  Sb  Sb30  1  0.717789  0.531705  0.454003  1
  Sb  Sb31  1  0.782382  0.031515  0.545714  1
  Sb  Sb32  1  0.283565  0.466789  0.954718  1
  Sb  Sb33  1  0.782592  0.031477  0.954180  1
  Sb  Sb34  1  0.281630  0.468533  0.545860  1
  Sb  Sb35  1  0.217826  0.969102  0.454316  1
