# generated using pymatgen
data_Pr2Gd3(TcO6)2
_symmetry_space_group_name_H-M   'P 1'
_cell_length_a   7.02220011
_cell_length_b   7.02220131
_cell_length_c   7.77461173
_cell_angle_alpha   73.49865627
_cell_angle_beta   73.49865660
_cell_angle_gamma   48.26998685
_symmetry_Int_Tables_number   1
_chemical_formula_structural   Pr2Gd3(TcO6)2
_chemical_formula_sum   'Pr2 Gd3 Tc2 O12'
_cell_volume   271.89850402
_cell_formula_units_Z   1
loop_
 _symmetry_equiv_pos_site_id
 _symmetry_equiv_pos_as_xyz
  1  'x, y, z'
loop_
 _atom_site_type_symbol
 _atom_site_label
 _atom_site_symmetry_multiplicity
 _atom_site_fract_x
 _atom_site_fract_y
 _atom_site_fract_z
 _atom_site_occupancy
  Pr  Pr0  1  0.314267  0.314267  0.828795  1
  Pr  Pr1  1  0.000383  0.000383  0.498843  1
  Gd  Gd2  1  0.306583  0.306583  0.355458  1
  Gd  Gd3  1  0.693438  0.693438  0.640533  1
  Gd  Gd4  1  0.685678  0.685678  0.172383  1
  Tc  Tc5  1  0.786179  0.214155  0.001315  1
  Tc  Tc6  1  0.214155  0.786179  0.001315  1
  O  O7  1  0.091985  0.589741  0.571652  1
  O  O8  1  0.000205  0.000205  0.198380  1
  O  O9  1  0.413142  0.903191  0.420367  1
  O  O10  1  0.498289  0.498289  0.175037  1
  O  O11  1  0.084428  0.594489  0.083764  1
  O  O12  1  0.903191  0.413142  0.420367  1
  O  O13  1  0.000264  0.000264  0.802261  1
  O  O14  1  0.589741  0.091984  0.571652  1
  O  O15  1  0.503207  0.503207  0.828811  1
  O  O16  1  0.594489  0.084428  0.083764  1
  O  O17  1  0.413791  0.906585  0.922652  1
  O  O18  1  0.906585  0.413791  0.922652  1
