# generated using pymatgen
data_SrLa5Cd23As
_symmetry_space_group_name_H-M   'P 1'
_cell_length_a   10.22590464
_cell_length_b   10.22590382
_cell_length_c   10.17533400
_cell_angle_alpha   60.16345372
_cell_angle_beta   60.16345634
_cell_angle_gamma   59.67309210
_symmetry_Int_Tables_number   1
_chemical_formula_structural   SrLa5Cd23As
_chemical_formula_sum   'Sr1 La5 Cd23 As1'
_cell_volume   752.34317733
_cell_formula_units_Z   1
loop_
 _symmetry_equiv_pos_site_id
 _symmetry_equiv_pos_as_xyz
  1  'x, y, z'
loop_
 _atom_site_type_symbol
 _atom_site_label
 _atom_site_symmetry_multiplicity
 _atom_site_fract_x
 _atom_site_fract_y
 _atom_site_fract_z
 _atom_site_occupancy
  Sr  Sr0  1  0.790942  0.790942  0.209058  1
  La  La1  1  0.209729  0.790353  0.209647  1
  La  La2  1  0.790353  0.209729  0.209647  1
  La  La3  1  0.211102  0.211102  0.788898  1
  La  La4  1  0.790353  0.209729  0.790271  1
  La  La5  1  0.209729  0.790353  0.790271  1
  Cd  Cd6  1  0.832269  0.832269  0.505321  1
  Cd  Cd7  1  0.830498  0.504787  0.832359  1
  Cd  Cd8  1  0.504787  0.830498  0.832359  1
  Cd  Cd9  1  0.832269  0.832269  0.830144  1
  Cd  Cd10  1  0.167641  0.167641  0.495213  1
  Cd  Cd11  1  0.169856  0.494679  0.167731  1
  Cd  Cd12  1  0.494679  0.169856  0.167731  1
  Cd  Cd13  1  0.167641  0.167641  0.169502  1
  Cd  Cd14  1  0.621557  0.621557  0.133572  1
  Cd  Cd15  1  0.621261  0.134109  0.622315  1
  Cd  Cd16  1  0.134109  0.621261  0.622315  1
  Cd  Cd17  1  0.621557  0.621557  0.623313  1
  Cd  Cd18  1  0.377685  0.377685  0.865891  1
  Cd  Cd19  1  0.376687  0.866428  0.378443  1
  Cd  Cd20  1  0.866428  0.376687  0.378443  1
  Cd  Cd21  1  0.377685  0.377685  0.378739  1
  Cd  Cd22  1  0.999600  0.999600  0.500400  1
  Cd  Cd23  1  0.498116  0.000825  0.501884  1
  Cd  Cd24  1  0.000825  0.498116  0.501884  1
  Cd  Cd25  1  0.499600  0.499600  0.000400  1
  Cd  Cd26  1  0.000825  0.498116  0.999175  1
  Cd  Cd27  1  0.498116  0.000825  0.999175  1
  Cd  Cd28  1  0.499698  0.499698  0.500302  1
  As  As29  1  0.004399  0.004399  0.995601  1
