# generated using pymatgen
data_Lu3ThCo3
_symmetry_space_group_name_H-M   'P 1'
_cell_length_a   3.73403600
_cell_length_b   5.81016560
_cell_length_c   14.18863500
_cell_angle_alpha   90.00000000
_cell_angle_beta   90.00000000
_cell_angle_gamma   71.25623289
_symmetry_Int_Tables_number   1
_chemical_formula_structural   Lu3ThCo3
_chemical_formula_sum   'Lu6 Th2 Co6'
_cell_volume   291.50203963
_cell_formula_units_Z   2
loop_
 _symmetry_equiv_pos_site_id
 _symmetry_equiv_pos_as_xyz
  1  'x, y, z'
loop_
 _atom_site_type_symbol
 _atom_site_label
 _atom_site_symmetry_multiplicity
 _atom_site_fract_x
 _atom_site_fract_y
 _atom_site_fract_z
 _atom_site_occupancy
  Lu  Lu0  1  0.219334  0.561335  0.120417  1
  Lu  Lu1  1  0.497960  0.004081  0.250000  1
  Lu  Lu2  1  0.219334  0.561335  0.379582  1
  Lu  Lu3  1  0.780666  0.438666  0.620418  1
  Lu  Lu4  1  0.502042  0.995919  0.750000  1
  Lu  Lu5  1  0.780666  0.438666  0.879583  1
  Th  Th6  1  0.500001  0.000000  0.000000  1
  Th  Th7  1  0.500001  0.000000  0.500000  1
  Co  Co8  1  0.918424  0.163150  0.114092  1
  Co  Co9  1  0.792728  0.414544  0.250000  1
  Co  Co10  1  0.918424  0.163150  0.385908  1
  Co  Co11  1  0.081576  0.836851  0.614092  1
  Co  Co12  1  0.207272  0.585456  0.750000  1
  Co  Co13  1  0.081576  0.836851  0.885908  1
