# generated using pymatgen
data_YEr5Al16Os7
_symmetry_space_group_name_H-M   'P 1'
_cell_length_a   8.92232468
_cell_length_b   8.92232523
_cell_length_c   8.93094200
_cell_angle_alpha   59.96805538
_cell_angle_beta   59.96805336
_cell_angle_gamma   60.06390519
_symmetry_Int_Tables_number   1
_chemical_formula_structural   YEr5Al16Os7
_chemical_formula_sum   'Y1 Er5 Al16 Os7'
_cell_volume   502.73321412
_cell_formula_units_Z   1
loop_
 _symmetry_equiv_pos_site_id
 _symmetry_equiv_pos_as_xyz
  1  'x, y, z'
loop_
 _atom_site_type_symbol
 _atom_site_label
 _atom_site_symmetry_multiplicity
 _atom_site_fract_x
 _atom_site_fract_y
 _atom_site_fract_z
 _atom_site_occupancy
  Y  Y0  1  0.710964  0.710964  0.289036  1
  Er  Er1  1  0.288235  0.711545  0.288455  1
  Er  Er2  1  0.711545  0.288235  0.288455  1
  Er  Er3  1  0.288635  0.288635  0.711365  1
  Er  Er4  1  0.711545  0.288235  0.711765  1
  Er  Er5  1  0.288235  0.711545  0.711765  1
  Al  Al6  1  0.879249  0.879249  0.362902  1
  Al  Al7  1  0.879171  0.362764  0.879032  1
  Al  Al8  1  0.362764  0.879171  0.879032  1
  Al  Al9  1  0.879249  0.879249  0.878599  1
  Al  Al10  1  0.120968  0.120968  0.637236  1
  Al  Al11  1  0.121401  0.637098  0.120751  1
  Al  Al12  1  0.637098  0.121401  0.120751  1
  Al  Al13  1  0.120968  0.120968  0.120829  1
  Al  Al14  1  0.667258  0.667258  0.997872  1
  Al  Al15  1  0.667163  0.998294  0.667272  1
  Al  Al16  1  0.998294  0.667163  0.667272  1
  Al  Al17  1  0.667258  0.667258  0.667614  1
  Al  Al18  1  0.332728  0.332728  0.001706  1
  Al  Al19  1  0.332386  0.002128  0.332742  1
  Al  Al20  1  0.002128  0.332386  0.332742  1
  Al  Al21  1  0.332728  0.332728  0.332837  1
  Os  Os22  1  0.000029  0.000029  0.999971  1
  Os  Os23  1  0.999927  0.999927  0.500073  1
  Os  Os24  1  0.499605  0.000468  0.500395  1
  Os  Os25  1  0.000468  0.499605  0.500395  1
  Os  Os26  1  0.499927  0.499927  0.000073  1
  Os  Os27  1  0.000468  0.499605  0.999532  1
  Os  Os28  1  0.499605  0.000468  0.999532  1
