# generated using pymatgen
data_Sr2GaPbF9
_symmetry_space_group_name_H-M   'P 1'
_cell_length_a   5.73476725
_cell_length_b   5.73411935
_cell_length_c   12.89471110
_cell_angle_alpha   91.37707296
_cell_angle_beta   100.97428016
_cell_angle_gamma   92.53107934
_symmetry_Int_Tables_number   1
_chemical_formula_structural   Sr2GaPbF9
_chemical_formula_sum   'Sr4 Ga2 Pb2 F18'
_cell_volume   415.63965999
_cell_formula_units_Z   2
loop_
 _symmetry_equiv_pos_site_id
 _symmetry_equiv_pos_as_xyz
  1  'x, y, z'
loop_
 _atom_site_type_symbol
 _atom_site_label
 _atom_site_symmetry_multiplicity
 _atom_site_fract_x
 _atom_site_fract_y
 _atom_site_fract_z
 _atom_site_occupancy
  Sr  Sr0  1  0.955051  0.241216  0.382870  1
  Sr  Sr1  1  0.044949  0.758784  0.617130  1
  Sr  Sr2  1  0.551313  0.263877  0.617321  1
  Sr  Sr3  1  0.448687  0.736123  0.382679  1
  Ga  Ga4  1  0.794744  0.793250  0.178113  1
  Ga  Ga5  1  0.205256  0.206750  0.821887  1
  Pb  Pb6  1  0.749461  0.698162  0.897546  1
  Pb  Pb7  1  0.250539  0.301838  0.102454  1
  F  F8  1  0.135747  0.955616  0.907014  1
  F  F9  1  0.864253  0.044384  0.092986  1
  F  F10  1  0.258735  0.445862  0.725293  1
  F  F11  1  0.741265  0.554138  0.274707  1
  F  F12  1  0.625890  0.001045  0.258383  1
  F  F13  1  0.374110  0.998955  0.741617  1
  F  F14  1  0.960146  0.590218  0.095085  1
  F  F15  1  0.039854  0.409782  0.904915  1
  F  F16  1  0.079050  0.889837  0.278451  1
  F  F17  1  0.920950  0.110163  0.721549  1
  F  F18  1  0.503423  0.687524  0.089447  1
  F  F19  1  0.496577  0.312476  0.910553  1
  F  F20  1  0.748109  0.995755  0.499780  1
  F  F21  1  0.251891  0.004245  0.500220  1
  F  F22  1  0.749436  0.492961  0.496108  1
  F  F23  1  0.250564  0.507039  0.503892  1
  F  F24  1  0.746008  0.616145  0.719288  1
  F  F25  1  0.253992  0.383855  0.280712  1
