# generated using pymatgen
data_HoZnGa3Ni
_symmetry_space_group_name_H-M   'P 1'
_cell_length_a   7.91110167
_cell_length_b   7.91110102
_cell_length_c   6.50173400
_cell_angle_alpha   90.00000000
_cell_angle_beta   90.00000000
_cell_angle_gamma   150.04439770
_symmetry_Int_Tables_number   1
_chemical_formula_structural   HoZnGa3Ni
_chemical_formula_sum   'Ho2 Zn2 Ga6 Ni2'
_cell_volume   203.18408674
_cell_formula_units_Z   2
loop_
 _symmetry_equiv_pos_site_id
 _symmetry_equiv_pos_as_xyz
  1  'x, y, z'
loop_
 _atom_site_type_symbol
 _atom_site_label
 _atom_site_symmetry_multiplicity
 _atom_site_fract_x
 _atom_site_fract_y
 _atom_site_fract_z
 _atom_site_occupancy
  Ho  Ho0  1  0.875979  0.124021  0.250000  1
  Ho  Ho1  1  0.124021  0.875979  0.750000  1
  Zn  Zn2  1  0.500000  0.500000  0.000000  1
  Zn  Zn3  1  0.500000  0.500000  0.500000  1
  Ga  Ga4  1  0.317135  0.682865  0.550444  1
  Ga  Ga5  1  0.068118  0.931882  0.250000  1
  Ga  Ga6  1  0.682865  0.317135  0.449556  1
  Ga  Ga7  1  0.682865  0.317135  0.050444  1
  Ga  Ga8  1  0.317135  0.682865  0.949556  1
  Ga  Ga9  1  0.931882  0.068118  0.750000  1
  Ni  Ni10  1  0.776851  0.223149  0.750000  1
  Ni  Ni11  1  0.223149  0.776851  0.250000  1
