# generated using pymatgen
data_Yb(AsPd2)2
_symmetry_space_group_name_H-M   'P 1'
_cell_length_a   7.92265900
_cell_length_b   7.92265900
_cell_length_c   3.93405300
_cell_angle_alpha   90.00000000
_cell_angle_beta   90.00000000
_cell_angle_gamma   90.00000000
_symmetry_Int_Tables_number   1
_chemical_formula_structural   Yb(AsPd2)2
_chemical_formula_sum   'Yb2 As4 Pd8'
_cell_volume   246.93470656
_cell_formula_units_Z   2
loop_
 _symmetry_equiv_pos_site_id
 _symmetry_equiv_pos_as_xyz
  1  'x, y, z'
loop_
 _atom_site_type_symbol
 _atom_site_label
 _atom_site_symmetry_multiplicity
 _atom_site_fract_x
 _atom_site_fract_y
 _atom_site_fract_z
 _atom_site_occupancy
  Yb  Yb0  1  0.500000  0.500000  0.000000  1
  Yb  Yb1  1  0.000000  0.000000  0.500000  1
  As  As2  1  0.721941  0.721941  0.500000  1
  As  As3  1  0.278059  0.278059  0.500000  1
  As  As4  1  0.221941  0.778059  0.000000  1
  As  As5  1  0.778059  0.221941  0.000000  1
  Pd  Pd6  1  0.583401  0.166360  0.500000  1
  Pd  Pd7  1  0.416599  0.833640  0.500000  1
  Pd  Pd8  1  0.083401  0.333640  0.000000  1
  Pd  Pd9  1  0.916599  0.666360  0.000000  1
  Pd  Pd10  1  0.166360  0.583401  0.500000  1
  Pd  Pd11  1  0.833640  0.416599  0.500000  1
  Pd  Pd12  1  0.333640  0.083401  0.000000  1
  Pd  Pd13  1  0.666360  0.916599  0.000000  1
