# generated using pymatgen
data_ErH7Os
_symmetry_space_group_name_H-M   'P 1'
_cell_length_a   4.65183908
_cell_length_b   4.59560190
_cell_length_c   7.64626400
_cell_angle_alpha   90.00000000
_cell_angle_beta   90.00000000
_cell_angle_gamma   63.36953889
_symmetry_Int_Tables_number   1
_chemical_formula_structural   ErH7Os
_chemical_formula_sum   'Er2 H14 Os2'
_cell_volume   146.12116018
_cell_formula_units_Z   2
loop_
 _symmetry_equiv_pos_site_id
 _symmetry_equiv_pos_as_xyz
  1  'x, y, z'
loop_
 _atom_site_type_symbol
 _atom_site_label
 _atom_site_symmetry_multiplicity
 _atom_site_fract_x
 _atom_site_fract_y
 _atom_site_fract_z
 _atom_site_occupancy
  Er  Er0  1  0.000000  0.000000  0.000000  1
  Er  Er1  1  0.000000  0.000000  0.500000  1
  H  H2  1  0.794457  0.925182  0.250000  1
  H  H3  1  0.205543  0.074818  0.750000  1
  H  H4  1  0.710697  0.688458  0.464180  1
  H  H5  1  0.289303  0.311542  0.964180  1
  H  H6  1  0.289303  0.311542  0.535820  1
  H  H7  1  0.710697  0.688458  0.035820  1
  H  H8  1  0.497465  0.443961  0.360838  1
  H  H9  1  0.502535  0.556039  0.860838  1
  H  H10  1  0.502535  0.556039  0.639162  1
  H  H11  1  0.497465  0.443961  0.139162  1
  H  H12  1  0.296298  0.969899  0.250000  1
  H  H13  1  0.703702  0.030101  0.750000  1
  H  H14  1  0.037109  0.339889  0.250000  1
  H  H15  1  0.962891  0.660111  0.750000  1
  Os  Os16  1  0.659287  0.637989  0.250000  1
  Os  Os17  1  0.340713  0.362011  0.750000  1
