# generated using pymatgen
data_Nd8Ge8PdPt7
_symmetry_space_group_name_H-M   'P 1'
_cell_length_a   4.49341000
_cell_length_b   7.70408236
_cell_length_c   14.62370115
_cell_angle_alpha   89.99073816
_cell_angle_beta   90.00000000
_cell_angle_gamma   90.00000000
_symmetry_Int_Tables_number   1
_chemical_formula_structural   Nd8Ge8PdPt7
_chemical_formula_sum   'Nd8 Ge8 Pd1 Pt7'
_cell_volume   506.23744065
_cell_formula_units_Z   1
loop_
 _symmetry_equiv_pos_site_id
 _symmetry_equiv_pos_as_xyz
  1  'x, y, z'
loop_
 _atom_site_type_symbol
 _atom_site_label
 _atom_site_symmetry_multiplicity
 _atom_site_fract_x
 _atom_site_fract_y
 _atom_site_fract_z
 _atom_site_occupancy
  Nd  Nd0  1  0.500000  0.789305  0.748802  1
  Nd  Nd1  1  0.000000  0.209496  0.751412  1
  Nd  Nd2  1  0.500000  0.789540  0.251697  1
  Nd  Nd3  1  0.000000  0.210337  0.248168  1
  Nd  Nd4  1  0.500000  0.710765  0.000050  1
  Nd  Nd5  1  0.000000  0.287336  0.500048  1
  Nd  Nd6  1  0.500000  0.704625  0.499548  1
  Nd  Nd7  1  0.000000  0.296121  0.999760  1
  Ge  Ge8  1  0.500000  0.409421  0.646130  1
  Ge  Ge9  1  0.000000  0.589468  0.854488  1
  Ge  Ge10  1  0.500000  0.411003  0.351060  1
  Ge  Ge11  1  0.000000  0.589160  0.147588  1
  Ge  Ge12  1  0.500000  0.089357  0.095130  1
  Ge  Ge13  1  0.000000  0.911000  0.404719  1
  Ge  Ge14  1  0.500000  0.089998  0.904333  1
  Ge  Ge15  1  0.000000  0.910959  0.595025  1
  Pd  Pd16  1  0.000000  0.580637  0.654011  1
  Pt  Pt17  1  0.500000  0.075996  0.609202  1
  Pt  Pt18  1  0.000000  0.923378  0.890509  1
  Pt  Pt19  1  0.500000  0.077084  0.390837  1
  Pt  Pt20  1  0.000000  0.922954  0.109258  1
  Pt  Pt21  1  0.500000  0.420816  0.151935  1
  Pt  Pt22  1  0.000000  0.579242  0.350127  1
  Pt  Pt23  1  0.500000  0.422003  0.846159  1
