# generated using pymatgen
data_Tm6Sc4InSb5
_symmetry_space_group_name_H-M   'P 1'
_cell_length_a   8.69946300
_cell_length_b   8.69863798
_cell_length_c   6.10337200
_cell_angle_alpha   90.00000000
_cell_angle_beta   90.00000000
_cell_angle_gamma   120.00314130
_symmetry_Int_Tables_number   1
_chemical_formula_structural   Tm6Sc4InSb5
_chemical_formula_sum   'Tm6 Sc4 In1 Sb5'
_cell_volume   399.97277090
_cell_formula_units_Z   1
loop_
 _symmetry_equiv_pos_site_id
 _symmetry_equiv_pos_as_xyz
  1  'x, y, z'
loop_
 _atom_site_type_symbol
 _atom_site_label
 _atom_site_symmetry_multiplicity
 _atom_site_fract_x
 _atom_site_fract_y
 _atom_site_fract_z
 _atom_site_occupancy
  Tm  Tm0  1  0.241707  0.000000  0.250000  1
  Tm  Tm1  1  0.759989  0.000000  0.750000  1
  Tm  Tm2  1  0.996355  0.239875  0.250000  1
  Tm  Tm3  1  0.756480  0.760125  0.250000  1
  Tm  Tm4  1  0.244402  0.242376  0.750000  1
  Tm  Tm5  1  0.002027  0.757624  0.750000  1
  Sc  Sc6  1  0.333408  0.667009  0.999532  1
  Sc  Sc7  1  0.666400  0.332991  0.500468  1
  Sc  Sc8  1  0.666400  0.332991  0.999532  1
  Sc  Sc9  1  0.333408  0.667009  0.500468  1
  In  In10  1  0.599958  0.000000  0.250000  1
  Sb  Sb11  1  0.398619  0.000000  0.750000  1
  Sb  Sb12  1  0.999459  0.604541  0.250000  1
  Sb  Sb13  1  0.394919  0.395459  0.250000  1
  Sb  Sb14  1  0.605429  0.604390  0.750000  1
  Sb  Sb15  1  0.001039  0.395610  0.750000  1
