# generated using pymatgen
data_Sc3Si2Tc3Ge
_symmetry_space_group_name_H-M   'P 1'
_cell_length_a   7.01111400
_cell_length_b   7.01111451
_cell_length_c   3.42519000
_cell_angle_alpha   90.00000000
_cell_angle_beta   90.00000000
_cell_angle_gamma   119.99998815
_symmetry_Int_Tables_number   1
_chemical_formula_structural   Sc3Si2Tc3Ge
_chemical_formula_sum   'Sc3 Si2 Tc3 Ge1'
_cell_volume   145.81071517
_cell_formula_units_Z   1
loop_
 _symmetry_equiv_pos_site_id
 _symmetry_equiv_pos_as_xyz
  1  'x, y, z'
loop_
 _atom_site_type_symbol
 _atom_site_label
 _atom_site_symmetry_multiplicity
 _atom_site_fract_x
 _atom_site_fract_y
 _atom_site_fract_z
 _atom_site_occupancy
  Sc  Sc0  1  0.387433  0.389353  0.500000  1
  Sc  Sc1  1  0.610647  0.998080  0.500000  1
  Sc  Sc2  1  0.001920  0.612567  0.500000  1
  Si  Si3  1  0.333333  0.666667  0.000000  1
  Si  Si4  1  0.000000  0.000000  0.500000  1
  Tc  Tc5  1  0.739726  0.745530  0.000000  1
  Tc  Tc6  1  0.254470  0.994195  0.000000  1
  Tc  Tc7  1  0.005805  0.260274  0.000000  1
  Ge  Ge8  1  0.666667  0.333333  0.000000  1
