# generated using pymatgen
data_K2FeCu4Se5
_symmetry_space_group_name_H-M   'P 1'
_cell_length_a   9.45721342
_cell_length_b   9.46752250
_cell_length_c   9.43249172
_cell_angle_alpha   124.17451221
_cell_angle_beta   124.36334782
_cell_angle_gamma   82.58772785
_symmetry_Int_Tables_number   1
_chemical_formula_structural   K2FeCu4Se5
_chemical_formula_sum   'K4 Fe2 Cu8 Se10'
_cell_volume   554.48262572
_cell_formula_units_Z   2
loop_
 _symmetry_equiv_pos_site_id
 _symmetry_equiv_pos_as_xyz
  1  'x, y, z'
loop_
 _atom_site_type_symbol
 _atom_site_label
 _atom_site_symmetry_multiplicity
 _atom_site_fract_x
 _atom_site_fract_y
 _atom_site_fract_z
 _atom_site_occupancy
  K  K0  1  0.375060  0.806388  0.181988  1
  K  K1  1  0.803312  0.618962  0.430020  1
  K  K2  1  0.194575  0.379145  0.574993  1
  K  K3  1  0.622788  0.194956  0.815867  1
  Fe  Fe4  1  0.845243  0.945173  0.299479  1
  Fe  Fe5  1  0.245280  0.745557  0.499452  1
  Cu  Cu6  1  0.949631  0.647534  0.093876  1
  Cu  Cu7  1  0.350253  0.445309  0.295184  1
  Cu  Cu8  1  0.749462  0.254050  0.504041  1
  Cu  Cu9  1  0.154691  0.057718  0.706952  1
  Cu  Cu10  1  0.549628  0.849340  0.899988  1
  Cu  Cu11  1  0.649711  0.545324  0.696149  1
  Cu  Cu12  1  0.056240  0.354403  0.899211  1
  Cu  Cu13  1  0.450808  0.155168  0.104295  1
  Se  Se14  1  0.954717  0.556603  0.796383  1
  Se  Se15  1  0.363639  0.359353  0.001586  1
  Se  Se16  1  0.758395  0.147085  0.203774  1
  Se  Se17  1  0.150472  0.950423  0.397778  1
  Se  Se18  1  0.542617  0.753757  0.594396  1
  Se  Se19  1  0.648252  0.649133  0.006788  1
  Se  Se20  1  0.050661  0.449509  0.204698  1
  Se  Se21  1  0.444182  0.243568  0.401462  1
  Se  Se22  1  0.845922  0.046097  0.596458  1
  Se  Se23  1  0.244464  0.845446  0.795182  1
