# generated using pymatgen
data_Sm3Tm5(Si4W3)4
_symmetry_space_group_name_H-M   'P 1'
_cell_length_a   6.78144222
_cell_length_b   6.94275936
_cell_length_c   12.91291283
_cell_angle_alpha   89.91649210
_cell_angle_beta   89.99288909
_cell_angle_gamma   89.95173860
_symmetry_Int_Tables_number   1
_chemical_formula_structural   Sm3Tm5(Si4W3)4
_chemical_formula_sum   'Sm3 Tm5 Si16 W12'
_cell_volume   607.96388115
_cell_formula_units_Z   1
loop_
 _symmetry_equiv_pos_site_id
 _symmetry_equiv_pos_as_xyz
  1  'x, y, z'
loop_
 _atom_site_type_symbol
 _atom_site_label
 _atom_site_symmetry_multiplicity
 _atom_site_fract_x
 _atom_site_fract_y
 _atom_site_fract_z
 _atom_site_occupancy
  Sm  Sm0  1  0.003609  0.166648  0.093225  1
  Sm  Sm1  1  0.496392  0.666417  0.907781  1
  Sm  Sm2  1  0.996790  0.832805  0.591493  1
  Tm  Tm3  1  0.495218  0.668131  0.593569  1
  Tm  Tm4  1  0.994811  0.832140  0.905614  1
  Tm  Tm5  1  0.505360  0.331833  0.094381  1
  Tm  Tm6  1  0.005340  0.168444  0.405488  1
  Tm  Tm7  1  0.505140  0.332423  0.406940  1
  Si  Si8  1  0.661375  0.958972  0.452302  1
  Si  Si9  1  0.162235  0.544591  0.047746  1
  Si  Si10  1  0.337599  0.044379  0.952911  1
  Si  Si11  1  0.836081  0.455287  0.545961  1
  Si  Si12  1  0.341217  0.043232  0.546122  1
  Si  Si13  1  0.840996  0.458266  0.952786  1
  Si  Si14  1  0.659132  0.958009  0.047716  1
  Si  Si15  1  0.162797  0.539526  0.451910  1
  Si  Si16  1  0.463823  0.369822  0.748905  1
  Si  Si17  1  0.963598  0.130484  0.750441  1
  Si  Si18  1  0.535261  0.628139  0.250056  1
  Si  Si19  1  0.035775  0.868980  0.251794  1
  Si  Si20  1  0.696501  0.867979  0.749554  1
  Si  Si21  1  0.196827  0.632455  0.749640  1
  Si  Si22  1  0.305225  0.134605  0.251440  1
  Si  Si23  1  0.800946  0.367039  0.251206  1
  W  W24  1  0.667523  0.164424  0.625267  1
  W  W25  1  0.168125  0.337003  0.873554  1
  W  W26  1  0.331685  0.836913  0.127155  1
  W  W27  1  0.829579  0.661649  0.374480  1
  W  W28  1  0.332813  0.836209  0.374763  1
  W  W29  1  0.831941  0.663310  0.126134  1
  W  W30  1  0.667612  0.163858  0.874622  1
  W  W31  1  0.168222  0.336588  0.624487  1
  W  W32  1  0.834285  0.498725  0.749393  1
  W  W33  1  0.333880  0.001431  0.749743  1
  W  W34  1  0.166557  0.499615  0.250614  1
  W  W35  1  0.665731  0.999668  0.250805  1
