# generated using pymatgen
data_La12MnSiBr17
_symmetry_space_group_name_H-M   'P 1'
_cell_length_a   9.55402671
_cell_length_b   11.59960424
_cell_length_c   11.68861325
_cell_angle_alpha   72.65534576
_cell_angle_beta   73.86329192
_cell_angle_gamma   66.68327457
_symmetry_Int_Tables_number   1
_chemical_formula_structural   La12MnSiBr17
_chemical_formula_sum   'La12 Mn1 Si1 Br17'
_cell_volume   1116.42455341
_cell_formula_units_Z   1
loop_
 _symmetry_equiv_pos_site_id
 _symmetry_equiv_pos_as_xyz
  1  'x, y, z'
loop_
 _atom_site_type_symbol
 _atom_site_label
 _atom_site_symmetry_multiplicity
 _atom_site_fract_x
 _atom_site_fract_y
 _atom_site_fract_z
 _atom_site_occupancy
  La  La0  1  0.456625  0.472629  0.329167  1
  La  La1  1  0.567044  0.671038  0.993431  1
  La  La2  1  0.276381  0.002671  0.090208  1
  La  La3  1  0.846193  0.284378  0.849342  1
  La  La4  1  0.405419  0.237988  0.722258  1
  La  La5  1  0.722002  0.992690  0.911078  1
  La  La6  1  0.546876  0.530894  0.671880  1
  La  La7  1  0.424270  0.327996  0.009039  1
  La  La8  1  0.614818  0.765670  0.280289  1
  La  La9  1  0.843328  0.190346  0.569103  1
  La  La10  1  0.164813  0.809898  0.430555  1
  La  La11  1  0.121628  0.713341  0.138878  1
  Mn  Mn12  1  0.648002  0.264203  0.794208  1
  Si  Si13  1  0.366679  0.738124  0.213233  1
  Br  Br14  1  0.062687  0.094273  0.319146  1
  Br  Br15  1  0.467163  0.945528  0.833360  1
  Br  Br16  1  0.421004  0.822889  0.526755  1
  Br  Br17  1  0.582040  0.180078  0.473298  1
  Br  Br18  1  0.852836  0.687258  0.050328  1
  Br  Br19  1  0.209861  0.425695  0.251552  1
  Br  Br20  1  0.671958  0.375075  0.101306  1
  Br  Br21  1  0.533360  0.052762  0.167547  1
  Br  Br22  1  0.734288  0.478349  0.415188  1
  Br  Br23  1  0.891904  0.782471  0.367246  1
  Br  Br24  1  0.938008  0.903829  0.677247  1
  Br  Br25  1  0.146326  0.303054  0.947982  1
  Br  Br26  1  0.319004  0.627749  0.899488  1
  Br  Br27  1  0.998378  0.998669  0.000567  1
  Br  Br28  1  0.112397  0.217486  0.631657  1
  Br  Br29  1  0.786838  0.579312  0.750620  1
  Br  Br30  1  0.267871  0.523658  0.584043  1
