# generated using pymatgen
data_Dy4Tm3LuC14
_symmetry_space_group_name_H-M   'P 1'
_cell_length_a   13.71393352
_cell_length_b   3.67072725
_cell_length_c   6.42861006
_cell_angle_alpha   74.37043369
_cell_angle_beta   89.94614033
_cell_angle_gamma   89.89121053
_symmetry_Int_Tables_number   1
_chemical_formula_structural   Dy4Tm3LuC14
_chemical_formula_sum   'Dy4 Tm3 Lu1 C14'
_cell_volume   311.65017476
_cell_formula_units_Z   1
loop_
 _symmetry_equiv_pos_site_id
 _symmetry_equiv_pos_as_xyz
  1  'x, y, z'
loop_
 _atom_site_type_symbol
 _atom_site_label
 _atom_site_symmetry_multiplicity
 _atom_site_fract_x
 _atom_site_fract_y
 _atom_site_fract_z
 _atom_site_occupancy
  Dy  Dy0  1  0.943303  0.367133  0.261389  1
  Dy  Dy1  1  0.444004  0.633975  0.238795  1
  Dy  Dy2  1  0.056124  0.634683  0.738462  1
  Dy  Dy3  1  0.556601  0.365160  0.761478  1
  Tm  Tm4  1  0.660685  0.059700  0.336894  1
  Tm  Tm5  1  0.159853  0.939758  0.162728  1
  Tm  Tm6  1  0.340086  0.939651  0.662958  1
  Lu  Lu7  1  0.841203  0.061918  0.838052  1
  C  C8  1  0.500065  0.000051  0.499977  1
  C  C9  1  0.999224  0.999841  0.999944  1
  C  C10  1  0.783906  0.467102  0.062766  1
  C  C11  1  0.283231  0.535946  0.433279  1
  C  C12  1  0.216262  0.536015  0.933066  1
  C  C13  1  0.716703  0.459072  0.567502  1
  C  C14  1  0.196187  0.374988  0.457509  1
  C  C15  1  0.696517  0.626680  0.040757  1
  C  C16  1  0.395773  0.267093  0.944357  1
  C  C17  1  0.895244  0.734110  0.557737  1
  C  C18  1  0.604170  0.731819  0.056474  1
  C  C19  1  0.103901  0.268067  0.443834  1
  C  C20  1  0.303508  0.375023  0.957479  1
  C  C21  1  0.803450  0.622217  0.544563  1
