# generated using pymatgen
data_LaHoBiSbO7
_symmetry_space_group_name_H-M   'P 1'
_cell_length_a   6.62003955
_cell_length_b   6.62004053
_cell_length_c   7.69535200
_cell_angle_alpha   90.00000000
_cell_angle_beta   90.00000000
_cell_angle_gamma   109.72784178
_symmetry_Int_Tables_number   1
_chemical_formula_structural   LaHoBiSbO7
_chemical_formula_sum   'La2 Ho2 Bi2 Sb2 O14'
_cell_volume   317.45402642
_cell_formula_units_Z   2
loop_
 _symmetry_equiv_pos_site_id
 _symmetry_equiv_pos_as_xyz
  1  'x, y, z'
loop_
 _atom_site_type_symbol
 _atom_site_label
 _atom_site_symmetry_multiplicity
 _atom_site_fract_x
 _atom_site_fract_y
 _atom_site_fract_z
 _atom_site_occupancy
  La  La0  1  0.006242  0.993758  0.500000  1
  La  La1  1  0.006242  0.993758  0.000000  1
  Ho  Ho2  1  0.496377  0.954378  0.750000  1
  Ho  Ho3  1  0.045622  0.503623  0.250000  1
  Bi  Bi4  1  0.517373  0.038791  0.250000  1
  Bi  Bi5  1  0.961209  0.482627  0.750000  1
  Sb  Sb6  1  0.497993  0.502007  0.500000  1
  Sb  Sb7  1  0.497993  0.502007  0.000000  1
  O  O8  1  0.436829  0.189017  0.542341  1
  O  O9  1  0.810983  0.563171  0.457659  1
  O  O10  1  0.436829  0.189017  0.957659  1
  O  O11  1  0.810983  0.563171  0.042341  1
  O  O12  1  0.558443  0.823110  0.473172  1
  O  O13  1  0.176890  0.441557  0.526828  1
  O  O14  1  0.558443  0.823110  0.026828  1
  O  O15  1  0.176890  0.441557  0.973172  1
  O  O16  1  0.161546  0.863264  0.250000  1
  O  O17  1  0.136736  0.838454  0.750000  1
  O  O18  1  0.850539  0.099993  0.750000  1
  O  O19  1  0.900007  0.149461  0.250000  1
  O  O20  1  0.398515  0.442685  0.250000  1
  O  O21  1  0.557315  0.601485  0.750000  1
