# generated using pymatgen
data_Ac2DyMg3Sn2Au
_symmetry_space_group_name_H-M   'P 1'
_cell_length_a   7.88311805
_cell_length_b   7.88311880
_cell_length_c   4.64835800
_cell_angle_alpha   90.00000000
_cell_angle_beta   90.00000000
_cell_angle_gamma   119.30252094
_symmetry_Int_Tables_number   1
_chemical_formula_structural   Ac2DyMg3Sn2Au
_chemical_formula_sum   'Ac2 Dy1 Mg3 Sn2 Au1'
_cell_volume   251.90450299
_cell_formula_units_Z   1
loop_
 _symmetry_equiv_pos_site_id
 _symmetry_equiv_pos_as_xyz
  1  'x, y, z'
loop_
 _atom_site_type_symbol
 _atom_site_label
 _atom_site_symmetry_multiplicity
 _atom_site_fract_x
 _atom_site_fract_y
 _atom_site_fract_z
 _atom_site_occupancy
  Ac  Ac0  1  0.590710  0.997207  0.000000  1
  Ac  Ac1  1  0.997207  0.590710  0.000000  1
  Dy  Dy2  1  0.400012  0.400012  0.000000  1
  Mg  Mg3  1  0.234069  0.006375  0.500000  1
  Mg  Mg4  1  0.006375  0.234069  0.500000  1
  Mg  Mg5  1  0.763678  0.763678  0.500000  1
  Sn  Sn6  1  0.339929  0.652335  0.500000  1
  Sn  Sn7  1  0.652335  0.339929  0.500000  1
  Au  Au8  1  0.015684  0.015684  0.000000  1
