# generated using pymatgen
data_La2Y10ZnCo4Sn
_symmetry_space_group_name_H-M   'P 1'
_cell_length_a   8.54050338
_cell_length_b   8.32175025
_cell_length_c   8.32175068
_cell_angle_alpha   111.68700737
_cell_angle_beta   108.61991233
_cell_angle_gamma   107.15914749
_symmetry_Int_Tables_number   1
_chemical_formula_structural   La2Y10ZnCo4Sn
_chemical_formula_sum   'La2 Y10 Zn1 Co4 Sn1'
_cell_volume   459.97279673
_cell_formula_units_Z   1
loop_
 _symmetry_equiv_pos_site_id
 _symmetry_equiv_pos_as_xyz
  1  'x, y, z'
loop_
 _atom_site_type_symbol
 _atom_site_label
 _atom_site_symmetry_multiplicity
 _atom_site_fract_x
 _atom_site_fract_y
 _atom_site_fract_z
 _atom_site_occupancy
  La  La0  1  0.424554  0.216892  0.207662  1
  La  La1  1  0.575446  0.783108  0.792338  1
  Y  Y2  1  0.030845  0.232012  0.798832  1
  Y  Y3  1  0.969155  0.767988  0.201168  1
  Y  Y4  1  0.178630  0.286205  0.465278  1
  Y  Y5  1  0.821370  0.713795  0.534722  1
  Y  Y6  1  0.178630  0.713353  0.892425  1
  Y  Y7  1  0.821370  0.286647  0.107575  1
  Y  Y8  1  0.316690  0.638453  0.303641  1
  Y  Y9  1  0.683310  0.361547  0.696359  1
  Y  Y10  1  0.316690  0.013049  0.678237  1
  Y  Y11  1  0.683310  0.986951  0.321763  1
  Zn  Zn12  1  0.000000  0.000000  0.000000  1
  Co  Co13  1  0.342462  0.002330  0.340132  1
  Co  Co14  1  0.657538  0.997670  0.659868  1
  Co  Co15  1  0.099867  0.612438  0.487429  1
  Co  Co16  1  0.900133  0.387562  0.512571  1
  Sn  Sn17  1  0.500000  0.500000  0.000000  1
