# generated using pymatgen
data_Th2ZnSi4PdPt2
_symmetry_space_group_name_H-M   'P 1'
_cell_length_a   4.26192900
_cell_length_b   4.26192900
_cell_length_c   9.98603300
_cell_angle_alpha   90.00000000
_cell_angle_beta   90.00000000
_cell_angle_gamma   90.00000000
_symmetry_Int_Tables_number   1
_chemical_formula_structural   Th2ZnSi4PdPt2
_chemical_formula_sum   'Th2 Zn1 Si4 Pd1 Pt2'
_cell_volume   181.38669088
_cell_formula_units_Z   1
loop_
 _symmetry_equiv_pos_site_id
 _symmetry_equiv_pos_as_xyz
  1  'x, y, z'
loop_
 _atom_site_type_symbol
 _atom_site_label
 _atom_site_symmetry_multiplicity
 _atom_site_fract_x
 _atom_site_fract_y
 _atom_site_fract_z
 _atom_site_occupancy
  Th  Th0  1  0.000000  0.500000  0.254134  1
  Th  Th1  1  0.500000  0.000000  0.745866  1
  Zn  Zn2  1  0.000000  0.000000  0.000000  1
  Si  Si3  1  0.000000  0.000000  0.500000  1
  Si  Si4  1  0.500000  0.500000  0.500000  1
  Si  Si5  1  0.000000  0.500000  0.864937  1
  Si  Si6  1  0.500000  0.000000  0.135063  1
  Pd  Pd7  1  0.500000  0.500000  0.000000  1
  Pt  Pt8  1  0.000000  0.500000  0.619308  1
  Pt  Pt9  1  0.500000  0.000000  0.380692  1
