# generated using pymatgen
data_Lu8Sc12Si13Ir3
_symmetry_space_group_name_H-M   'P 1'
_cell_length_a   6.95297610
_cell_length_b   7.44986391
_cell_length_c   13.87189700
_cell_angle_alpha   90.00000000
_cell_angle_beta   90.00000000
_cell_angle_gamma   90.17470258
_symmetry_Int_Tables_number   1
_chemical_formula_structural   Lu8Sc12Si13Ir3
_chemical_formula_sum   'Lu8 Sc12 Si13 Ir3'
_cell_volume   718.54324788
_cell_formula_units_Z   1
loop_
 _symmetry_equiv_pos_site_id
 _symmetry_equiv_pos_as_xyz
  1  'x, y, z'
loop_
 _atom_site_type_symbol
 _atom_site_label
 _atom_site_symmetry_multiplicity
 _atom_site_fract_x
 _atom_site_fract_y
 _atom_site_fract_z
 _atom_site_occupancy
  Lu  Lu0  1  0.005303  0.177452  0.095150  1
  Lu  Lu1  1  0.993097  0.824534  0.907278  1
  Lu  Lu2  1  0.490838  0.679285  0.906878  1
  Lu  Lu3  1  0.993097  0.824534  0.592722  1
  Lu  Lu4  1  0.506158  0.322495  0.096026  1
  Lu  Lu5  1  0.005303  0.177452  0.404850  1
  Lu  Lu6  1  0.506158  0.322495  0.403974  1
  Lu  Lu7  1  0.490838  0.679285  0.593122  1
  Sc  Sc8  1  0.157372  0.506064  0.750000  1
  Sc  Sc9  1  0.828774  0.499316  0.250000  1
  Sc  Sc10  1  0.328514  0.002058  0.250000  1
  Sc  Sc11  1  0.671011  0.993992  0.750000  1
  Sc  Sc12  1  0.320488  0.173749  0.626674  1
  Sc  Sc13  1  0.678442  0.832477  0.372435  1
  Sc  Sc14  1  0.178550  0.668736  0.371464  1
  Sc  Sc15  1  0.678442  0.832477  0.127565  1
  Sc  Sc16  1  0.833972  0.320525  0.626699  1
  Sc  Sc17  1  0.320488  0.173749  0.873326  1
  Sc  Sc18  1  0.833972  0.320525  0.873301  1
  Sc  Sc19  1  0.178550  0.668736  0.128536  1
  Si  Si20  1  0.530410  0.393091  0.750000  1
  Si  Si21  1  0.286967  0.861528  0.750000  1
  Si  Si22  1  0.716668  0.138044  0.250000  1
  Si  Si23  1  0.215208  0.364824  0.250000  1
  Si  Si24  1  0.778475  0.628660  0.750000  1
  Si  Si25  1  0.160695  0.468633  0.539198  1
  Si  Si26  1  0.840161  0.533144  0.463116  1
  Si  Si27  1  0.339403  0.969090  0.461990  1
  Si  Si28  1  0.840161  0.533144  0.036884  1
  Si  Si29  1  0.655438  0.033956  0.540164  1
  Si  Si30  1  0.160695  0.468633  0.960802  1
  Si  Si31  1  0.655438  0.033956  0.959836  1
  Si  Si32  1  0.339403  0.969090  0.038010  1
  Ir  Ir33  1  0.029229  0.102806  0.750000  1
  Ir  Ir34  1  0.975048  0.896105  0.250000  1
  Ir  Ir35  1  0.477235  0.605358  0.250000  1
