# generated using pymatgen
data_SmSc4Si7Pt9
_symmetry_space_group_name_H-M   'P 1'
_cell_length_a   10.06161700
_cell_length_b   10.06161595
_cell_length_c   3.96193000
_cell_angle_alpha   90.00000000
_cell_angle_beta   90.00000000
_cell_angle_gamma   120.00000017
_symmetry_Int_Tables_number   1
_chemical_formula_structural   SmSc4Si7Pt9
_chemical_formula_sum   'Sm1 Sc4 Si7 Pt9'
_cell_volume   347.35451399
_cell_formula_units_Z   1
loop_
 _symmetry_equiv_pos_site_id
 _symmetry_equiv_pos_as_xyz
  1  'x, y, z'
loop_
 _atom_site_type_symbol
 _atom_site_label
 _atom_site_symmetry_multiplicity
 _atom_site_fract_x
 _atom_site_fract_y
 _atom_site_fract_z
 _atom_site_occupancy
  Sm  Sm0  1  0.333333  0.666667  0.500000  1
  Sc  Sc1  1  0.000000  0.000000  0.000000  1
  Sc  Sc2  1  0.895350  0.458218  0.500000  1
  Sc  Sc3  1  0.562868  0.104650  0.500000  1
  Sc  Sc4  1  0.541782  0.437132  0.500000  1
  Si  Si5  1  0.239912  0.189716  0.500000  1
  Si  Si6  1  0.810284  0.050197  0.500000  1
  Si  Si7  1  0.949803  0.760088  0.500000  1
  Si  Si8  1  0.558432  0.647899  0.000000  1
  Si  Si9  1  0.352101  0.910532  0.000000  1
  Si  Si10  1  0.089468  0.441568  0.000000  1
  Si  Si11  1  0.666667  0.333333  0.000000  1
  Pt  Pt12  1  0.217105  0.936397  0.500000  1
  Pt  Pt13  1  0.063603  0.280709  0.500000  1
  Pt  Pt14  1  0.719291  0.782895  0.500000  1
  Pt  Pt15  1  0.314968  0.412426  0.000000  1
  Pt  Pt16  1  0.587574  0.902541  0.000000  1
  Pt  Pt17  1  0.097459  0.685032  0.000000  1
  Pt  Pt18  1  0.382879  0.171802  0.000000  1
  Pt  Pt19  1  0.828198  0.211078  0.000000  1
  Pt  Pt20  1  0.788922  0.617121  0.000000  1
