# generated using pymatgen
data_CaNd4GaSi2
_symmetry_space_group_name_H-M   'P 1'
_cell_length_a   8.94822775
_cell_length_b   8.94822763
_cell_length_c   8.94822660
_cell_angle_alpha   127.99117725
_cell_angle_beta   127.92150934
_cell_angle_gamma   76.69577339
_symmetry_Int_Tables_number   1
_chemical_formula_structural   CaNd4GaSi2
_chemical_formula_sum   'Ca2 Nd8 Ga2 Si4'
_cell_volume   432.60534972
_cell_formula_units_Z   2
loop_
 _symmetry_equiv_pos_site_id
 _symmetry_equiv_pos_as_xyz
  1  'x, y, z'
loop_
 _atom_site_type_symbol
 _atom_site_label
 _atom_site_symmetry_multiplicity
 _atom_site_fract_x
 _atom_site_fract_y
 _atom_site_fract_z
 _atom_site_occupancy
  Ca  Ca0  1  0.496652  0.501389  0.998041  1
  Ca  Ca1  1  0.003348  0.001389  0.004737  1
  Nd  Nd2  1  0.680059  0.176854  0.153236  1
  Nd  Nd3  1  0.523618  0.676854  0.496795  1
  Nd  Nd4  1  0.029840  0.527007  0.851205  1
  Nd  Nd5  1  0.819941  0.973177  0.496795  1
  Nd  Nd6  1  0.324199  0.821365  0.851205  1
  Nd  Nd7  1  0.175801  0.027007  0.497167  1
  Nd  Nd8  1  0.470160  0.321365  0.497167  1
  Nd  Nd9  1  0.976382  0.473177  0.153236  1
  Ga  Ga10  1  0.884111  0.616778  0.500889  1
  Ga  Ga11  1  0.615889  0.116778  0.732667  1
  Si  Si12  1  0.383390  0.884638  0.268028  1
  Si  Si13  1  0.116610  0.384638  0.501248  1
  Si  Si14  1  0.750000  0.748792  0.998792  1
  Si  Si15  1  0.250000  0.248792  0.998792  1
