# generated using pymatgen
data_K3In(SeO4)3
_symmetry_space_group_name_H-M   'P 1'
_cell_length_a   9.43807902
_cell_length_b   9.43807762
_cell_length_c   9.43807800
_cell_angle_alpha   107.96629157
_cell_angle_beta   107.96628881
_cell_angle_gamma   107.96630332
_symmetry_Int_Tables_number   1
_chemical_formula_structural   K3In(SeO4)3
_chemical_formula_sum   'K6 In2 Se6 O24'
_cell_volume   680.86018852
_cell_formula_units_Z   2
loop_
 _symmetry_equiv_pos_site_id
 _symmetry_equiv_pos_as_xyz
  1  'x, y, z'
loop_
 _atom_site_type_symbol
 _atom_site_label
 _atom_site_symmetry_multiplicity
 _atom_site_fract_x
 _atom_site_fract_y
 _atom_site_fract_z
 _atom_site_occupancy
  K  K0  1  0.101306  0.632131  0.246226  1
  K  K1  1  0.246226  0.101306  0.632131  1
  K  K2  1  0.632131  0.246226  0.101306  1
  K  K3  1  0.308792  0.701975  0.846077  1
  K  K4  1  0.846077  0.308792  0.701975  1
  K  K5  1  0.701975  0.846077  0.308792  1
  In  In6  1  0.469818  0.469818  0.469818  1
  In  In7  1  0.968483  0.968483  0.968483  1
  Se  Se8  1  0.901684  0.702776  0.565429  1
  Se  Se9  1  0.565429  0.901684  0.702776  1
  Se  Se10  1  0.702776  0.565429  0.901684  1
  Se  Se11  1  0.370655  0.036161  0.236301  1
  Se  Se12  1  0.236301  0.370655  0.036161  1
  Se  Se13  1  0.036161  0.236301  0.370655  1
  O  O14  1  0.973584  0.757594  0.440934  1
  O  O15  1  0.440934  0.973584  0.757594  1
  O  O16  1  0.757594  0.440934  0.973584  1
  O  O17  1  0.690245  0.605503  0.449362  1
  O  O18  1  0.449362  0.690245  0.605503  1
  O  O19  1  0.605503  0.449362  0.690245  1
  O  O20  1  0.887672  0.720149  0.953258  1
  O  O21  1  0.953258  0.887672  0.720149  1
  O  O22  1  0.720149  0.953258  0.887672  1
  O  O23  1  0.635441  0.971778  0.586132  1
  O  O24  1  0.586132  0.635441  0.971778  1
  O  O25  1  0.971778  0.586132  0.635441  1
  O  O26  1  0.247150  0.329814  0.485205  1
  O  O27  1  0.485205  0.247150  0.329814  1
  O  O28  1  0.329814  0.485205  0.247150  1
  O  O29  1  0.049584  0.215439  0.980485  1
  O  O30  1  0.980485  0.049584  0.215439  1
  O  O31  1  0.215439  0.980485  0.049584  1
  O  O32  1  0.963352  0.183799  0.495510  1
  O  O33  1  0.495510  0.963352  0.183799  1
  O  O34  1  0.183799  0.495510  0.963352  1
  O  O35  1  0.299767  0.968697  0.353830  1
  O  O36  1  0.353830  0.299767  0.968697  1
  O  O37  1  0.968697  0.353830  0.299767  1
