# generated using pymatgen
data_Tb6Y2In3Pt
_symmetry_space_group_name_H-M   'P 1'
_cell_length_a   10.53987200
_cell_length_b   10.53927036
_cell_length_c   7.04956700
_cell_angle_alpha   90.00000000
_cell_angle_beta   90.00000000
_cell_angle_gamma   119.99955829
_symmetry_Int_Tables_number   1
_chemical_formula_structural   Tb6Y2In3Pt
_chemical_formula_sum   'Tb12 Y4 In6 Pt2'
_cell_volume   678.17361547
_cell_formula_units_Z   2
loop_
 _symmetry_equiv_pos_site_id
 _symmetry_equiv_pos_as_xyz
  1  'x, y, z'
loop_
 _atom_site_type_symbol
 _atom_site_label
 _atom_site_symmetry_multiplicity
 _atom_site_fract_x
 _atom_site_fract_y
 _atom_site_fract_z
 _atom_site_occupancy
  Tb  Tb0  1  0.468574  0.531466  0.479133  1
  Tb  Tb1  1  0.062882  0.531455  0.479139  1
  Tb  Tb2  1  0.468561  0.937108  0.479107  1
  Tb  Tb3  1  0.531426  0.468534  0.979133  1
  Tb  Tb4  1  0.937118  0.468545  0.979139  1
  Tb  Tb5  1  0.531439  0.062892  0.979107  1
  Tb  Tb6  1  0.825014  0.175017  0.272163  1
  Tb  Tb7  1  0.350017  0.175018  0.272158  1
  Tb  Tb8  1  0.825010  0.650007  0.272159  1
  Tb  Tb9  1  0.174986  0.824983  0.772163  1
  Tb  Tb10  1  0.649983  0.824982  0.772158  1
  Tb  Tb11  1  0.174990  0.349993  0.772159  1
  Y  Y12  1  0.333325  0.666658  0.105308  1
  Y  Y13  1  0.666675  0.333342  0.605308  1
  Y  Y14  1  0.000010  0.000012  0.498384  1
  Y  Y15  1  0.999990  0.999988  0.998384  1
  In  In16  1  0.163274  0.836688  0.236404  1
  In  In17  1  0.673435  0.836698  0.236413  1
  In  In18  1  0.163299  0.326595  0.236394  1
  In  In19  1  0.836726  0.163312  0.736404  1
  In  In20  1  0.326565  0.163302  0.736413  1
  In  In21  1  0.836701  0.673405  0.736394  1
  Pt  Pt22  1  0.333347  0.666684  0.705517  1
  Pt  Pt23  1  0.666653  0.333316  0.205517  1
