# generated using pymatgen
data_Pr2Y2PBr6
_symmetry_space_group_name_H-M   'P 1'
_cell_length_a   4.10846300
_cell_length_b   13.52274800
_cell_length_c   14.19242100
_cell_angle_alpha   90.00000000
_cell_angle_beta   90.00000000
_cell_angle_gamma   90.00000000
_symmetry_Int_Tables_number   1
_chemical_formula_structural   Pr2Y2PBr6
_chemical_formula_sum   'Pr4 Y4 P2 Br12'
_cell_volume   788.49840751
_cell_formula_units_Z   2
loop_
 _symmetry_equiv_pos_site_id
 _symmetry_equiv_pos_as_xyz
  1  'x, y, z'
loop_
 _atom_site_type_symbol
 _atom_site_label
 _atom_site_symmetry_multiplicity
 _atom_site_fract_x
 _atom_site_fract_y
 _atom_site_fract_z
 _atom_site_occupancy
  Pr  Pr0  1  0.000000  0.118629  0.579481  1
  Pr  Pr1  1  0.000000  0.881371  0.420519  1
  Pr  Pr2  1  0.000000  0.618629  0.920519  1
  Pr  Pr3  1  0.000000  0.381371  0.079481  1
  Y  Y4  1  0.500000  0.115776  0.344524  1
  Y  Y5  1  0.500000  0.884224  0.655476  1
  Y  Y6  1  0.500000  0.615776  0.155476  1
  Y  Y7  1  0.500000  0.384224  0.844524  1
  P  P8  1  0.500000  0.000000  0.500000  1
  P  P9  1  0.500000  0.500000  0.000000  1
  Br  Br10  1  0.500000  0.236933  0.168677  1
  Br  Br11  1  0.500000  0.763067  0.831323  1
  Br  Br12  1  0.500000  0.736933  0.331323  1
  Br  Br13  1  0.500000  0.263067  0.668677  1
  Br  Br14  1  0.000000  0.252595  0.406361  1
  Br  Br15  1  0.000000  0.747405  0.593639  1
  Br  Br16  1  0.000000  0.752595  0.093639  1
  Br  Br17  1  0.000000  0.247405  0.906361  1
  Br  Br18  1  0.000000  0.007678  0.243087  1
  Br  Br19  1  0.000000  0.992322  0.756913  1
  Br  Br20  1  0.000000  0.507678  0.256913  1
  Br  Br21  1  0.000000  0.492322  0.743087  1
