# generated using pymatgen
data_Nb3Fe(SeI)4
_symmetry_space_group_name_H-M   'P 1'
_cell_length_a   7.78779454
_cell_length_b   7.78779468
_cell_length_c   7.78779411
_cell_angle_alpha   59.25849566
_cell_angle_beta   59.25849506
_cell_angle_gamma   59.25849811
_symmetry_Int_Tables_number   1
_chemical_formula_structural   Nb3Fe(SeI)4
_chemical_formula_sum   'Nb3 Fe1 Se4 I4'
_cell_volume   328.34568542
_cell_formula_units_Z   1
loop_
 _symmetry_equiv_pos_site_id
 _symmetry_equiv_pos_as_xyz
  1  'x, y, z'
loop_
 _atom_site_type_symbol
 _atom_site_label
 _atom_site_symmetry_multiplicity
 _atom_site_fract_x
 _atom_site_fract_y
 _atom_site_fract_z
 _atom_site_occupancy
  Nb  Nb0  1  0.399468  0.797646  0.399468  1
  Nb  Nb1  1  0.797646  0.399468  0.399468  1
  Nb  Nb2  1  0.399468  0.399468  0.797646  1
  Fe  Fe3  1  0.414576  0.414576  0.414576  1
  Se  Se4  1  0.628531  0.112425  0.628531  1
  Se  Se5  1  0.628531  0.628531  0.112425  1
  Se  Se6  1  0.112425  0.628531  0.628531  1
  Se  Se7  1  0.629170  0.629170  0.629170  1
  I  I8  1  0.125784  0.125784  0.125784  1
  I  I9  1  0.614269  0.125065  0.125065  1
  I  I10  1  0.125065  0.614269  0.125065  1
  I  I11  1  0.125065  0.125065  0.614269  1
