# generated using pymatgen
data_Nd8Si13Sb
_symmetry_space_group_name_H-M   'P 1'
_cell_length_a   8.12488300
_cell_length_b   8.00137591
_cell_length_c   8.61826600
_cell_angle_alpha   90.00000000
_cell_angle_beta   90.00000000
_cell_angle_gamma   120.52627174
_symmetry_Int_Tables_number   1
_chemical_formula_structural   Nd8Si13Sb
_chemical_formula_sum   'Nd8 Si13 Sb1'
_cell_volume   482.61932885
_cell_formula_units_Z   1
loop_
 _symmetry_equiv_pos_site_id
 _symmetry_equiv_pos_as_xyz
  1  'x, y, z'
loop_
 _atom_site_type_symbol
 _atom_site_label
 _atom_site_symmetry_multiplicity
 _atom_site_fract_x
 _atom_site_fract_y
 _atom_site_fract_z
 _atom_site_occupancy
  Nd  Nd0  1  0.262732  0.253988  0.991856  1
  Nd  Nd1  1  0.749202  0.752755  0.002252  1
  Nd  Nd2  1  0.749202  0.752755  0.497748  1
  Nd  Nd3  1  0.262732  0.253988  0.508144  1
  Nd  Nd4  1  0.251844  0.748061  0.495021  1
  Nd  Nd5  1  0.740746  0.254169  0.512963  1
  Nd  Nd6  1  0.740746  0.254169  0.987037  1
  Nd  Nd7  1  0.251844  0.748061  0.004979  1
  Si  Si8  1  0.941473  0.631289  0.750000  1
  Si  Si9  1  0.586271  0.420618  0.250000  1
  Si  Si10  1  0.414754  0.585096  0.750000  1
  Si  Si11  1  0.416356  0.590617  0.250000  1
  Si  Si12  1  0.593430  0.421836  0.750000  1
  Si  Si13  1  0.072827  0.936998  0.250000  1
  Si  Si14  1  0.932863  0.071512  0.750000  1
  Si  Si15  1  0.618114  0.940063  0.250000  1
  Si  Si16  1  0.385536  0.062848  0.750000  1
  Si  Si17  1  0.925228  0.590742  0.250000  1
  Si  Si18  1  0.072506  0.417027  0.750000  1
  Si  Si19  1  0.415386  0.077232  0.250000  1
  Si  Si20  1  0.589451  0.927160  0.750000  1
  Sb  Sb21  1  0.026755  0.309013  0.250000  1
