# generated using pymatgen
data_Hf3ZrMn4SiAs3
_symmetry_space_group_name_H-M   'P 1'
_cell_length_a   3.70524100
_cell_length_b   6.58228078
_cell_length_c   7.72946031
_cell_angle_alpha   89.68274491
_cell_angle_beta   90.00000000
_cell_angle_gamma   90.00000000
_symmetry_Int_Tables_number   1
_chemical_formula_structural   Hf3ZrMn4SiAs3
_chemical_formula_sum   'Hf3 Zr1 Mn4 Si1 As3'
_cell_volume   188.51042784
_cell_formula_units_Z   1
loop_
 _symmetry_equiv_pos_site_id
 _symmetry_equiv_pos_as_xyz
  1  'x, y, z'
loop_
 _atom_site_type_symbol
 _atom_site_label
 _atom_site_symmetry_multiplicity
 _atom_site_fract_x
 _atom_site_fract_y
 _atom_site_fract_z
 _atom_site_occupancy
  Hf  Hf0  1  0.250000  0.960799  0.320121  1
  Hf  Hf1  1  0.250000  0.471765  0.174001  1
  Hf  Hf2  1  0.750000  0.536568  0.828433  1
  Zr  Zr3  1  0.750000  0.034989  0.676419  1
  Mn  Mn4  1  0.250000  0.365904  0.561275  1
  Mn  Mn5  1  0.250000  0.861424  0.943759  1
  Mn  Mn6  1  0.750000  0.637526  0.434177  1
  Mn  Mn7  1  0.750000  0.130318  0.063413  1
  Si  Si8  1  0.750000  0.765180  0.125308  1
  As  As9  1  0.250000  0.735827  0.629281  1
  As  As10  1  0.250000  0.236731  0.874174  1
  As  As11  1  0.750000  0.262967  0.369639  1
