# generated using pymatgen
data_ZnNi(WO3)4
_symmetry_space_group_name_H-M   'P 1'
_cell_length_a   6.63927833
_cell_length_b   6.61892429
_cell_length_c   10.70732148
_cell_angle_alpha   71.99337953
_cell_angle_beta   71.93523254
_cell_angle_gamma   89.99509405
_symmetry_Int_Tables_number   1
_chemical_formula_structural   ZnNi(WO3)4
_chemical_formula_sum   'Zn2 Ni2 W8 O24'
_cell_volume   423.03414449
_cell_formula_units_Z   2
loop_
 _symmetry_equiv_pos_site_id
 _symmetry_equiv_pos_as_xyz
  1  'x, y, z'
loop_
 _atom_site_type_symbol
 _atom_site_label
 _atom_site_symmetry_multiplicity
 _atom_site_fract_x
 _atom_site_fract_y
 _atom_site_fract_z
 _atom_site_occupancy
  Zn  Zn0  1  0.499996  0.499922  0.999985  1
  Zn  Zn1  1  0.000029  0.000069  0.000001  1
  Ni  Ni2  1  0.250026  0.749973  0.500002  1
  Ni  Ni3  1  0.749969  0.250034  0.500012  1
  W  W4  1  0.417603  0.917524  0.164803  1
  W  W5  1  0.917551  0.417665  0.164800  1
  W  W6  1  0.082432  0.582455  0.835201  1
  W  W7  1  0.582424  0.082328  0.835215  1
  W  W8  1  0.168448  0.168448  0.663128  1
  W  W9  1  0.668475  0.668422  0.663126  1
  W  W10  1  0.331521  0.331549  0.336854  1
  W  W11  1  0.831565  0.831603  0.336871  1
  O  O12  1  0.558471  0.749981  0.500014  1
  O  O13  1  0.058435  0.250020  0.500004  1
  O  O14  1  0.941570  0.749991  0.499991  1
  O  O15  1  0.441535  0.250037  0.499985  1
  O  O16  1  0.499977  0.190973  0.000001  1
  O  O17  1  0.999981  0.691093  0.999997  1
  O  O18  1  0.500017  0.808896  0.000010  1
  O  O19  1  0.999989  0.309017  0.999997  1
  O  O20  1  0.704492  0.912146  0.175787  1
  O  O21  1  0.204459  0.412078  0.175775  1
  O  O22  1  0.119731  0.912093  0.175779  1
  O  O23  1  0.619699  0.412198  0.175762  1
  O  O24  1  0.795523  0.587872  0.824222  1
  O  O25  1  0.295529  0.087806  0.824207  1
  O  O26  1  0.380281  0.587931  0.824222  1
  O  O27  1  0.880284  0.087870  0.824229  1
  O  O28  1  0.163772  0.869705  0.672425  1
  O  O29  1  0.663742  0.369669  0.672489  1
  O  O30  1  0.163794  0.457817  0.672484  1
  O  O31  1  0.663842  0.957831  0.672442  1
  O  O32  1  0.336223  0.630285  0.327561  1
  O  O33  1  0.836117  0.130344  0.327543  1
  O  O34  1  0.336221  0.042159  0.327533  1
  O  O35  1  0.836278  0.542195  0.327544  1
