# generated using pymatgen
data_Na6Hf(PaBr9)2
_symmetry_space_group_name_H-M   'P 1'
_cell_length_a   12.61488439
_cell_length_b   12.61537723
_cell_length_c   6.70633211
_cell_angle_alpha   89.99950188
_cell_angle_beta   89.99864328
_cell_angle_gamma   119.99984377
_symmetry_Int_Tables_number   1
_chemical_formula_structural   Na6Hf(PaBr9)2
_chemical_formula_sum   'Na6 Hf1 Pa2 Br18'
_cell_volume   924.27219480
_cell_formula_units_Z   1
loop_
 _symmetry_equiv_pos_site_id
 _symmetry_equiv_pos_as_xyz
  1  'x, y, z'
loop_
 _atom_site_type_symbol
 _atom_site_label
 _atom_site_symmetry_multiplicity
 _atom_site_fract_x
 _atom_site_fract_y
 _atom_site_fract_z
 _atom_site_occupancy
  Na  Na0  1  0.999993  0.334466  0.000008  1
  Na  Na1  1  0.665518  0.665519  0.000015  1
  Na  Na2  1  0.334477  0.999998  0.000007  1
  Na  Na3  1  0.000001  0.665527  0.000003  1
  Na  Na4  1  0.334483  0.334484  0.999997  1
  Na  Na5  1  0.665517  0.999995  0.000005  1
  Hf  Hf6  1  0.000000  0.999996  0.000006  1
  Pa  Pa7  1  0.333342  0.666680  0.494660  1
  Pa  Pa8  1  0.666667  0.333342  0.505370  1
  Br  Br9  1  0.438826  0.561182  0.250925  1
  Br  Br10  1  0.772997  0.226969  0.268862  1
  Br  Br11  1  0.226973  0.773026  0.731074  1
  Br  Br12  1  0.773039  0.546044  0.268847  1
  Br  Br13  1  0.197085  0.098540  0.774051  1
  Br  Br14  1  0.453885  0.226957  0.268809  1
  Br  Br15  1  0.546135  0.773068  0.731100  1
  Br  Br16  1  0.901443  0.802900  0.774029  1
  Br  Br17  1  0.561203  0.438815  0.749123  1
  Br  Br18  1  0.561187  0.122379  0.749139  1
  Br  Br19  1  0.877657  0.438817  0.749156  1
  Br  Br20  1  0.122316  0.561156  0.250874  1
  Br  Br21  1  0.438814  0.877646  0.250896  1
  Br  Br22  1  0.226967  0.453939  0.731070  1
  Br  Br23  1  0.098558  0.197100  0.225994  1
  Br  Br24  1  0.098554  0.901459  0.225998  1
  Br  Br25  1  0.802918  0.901464  0.225966  1
  Br  Br26  1  0.901444  0.098532  0.774015  1
