# generated using pymatgen
data_Tb9Pr7Mg2(HgIr2)2
_symmetry_space_group_name_H-M   'P 1'
_cell_length_a   9.82447640
_cell_length_b   9.82447752
_cell_length_c   9.81748100
_cell_angle_alpha   60.02355836
_cell_angle_beta   60.02355459
_cell_angle_gamma   60.58529808
_symmetry_Int_Tables_number   1
_chemical_formula_structural   Tb9Pr7Mg2(HgIr2)2
_chemical_formula_sum   'Tb9 Pr7 Mg2 Hg2 Ir4'
_cell_volume   673.20009500
_cell_formula_units_Z   1
loop_
 _symmetry_equiv_pos_site_id
 _symmetry_equiv_pos_as_xyz
  1  'x, y, z'
loop_
 _atom_site_type_symbol
 _atom_site_label
 _atom_site_symmetry_multiplicity
 _atom_site_fract_x
 _atom_site_fract_y
 _atom_site_fract_z
 _atom_site_occupancy
  Tb  Tb0  1  0.346268  0.346268  0.344659  1
  Tb  Tb1  1  0.346268  0.346268  0.962805  1
  Tb  Tb2  1  0.345047  0.959820  0.347567  1
  Tb  Tb3  1  0.959820  0.345047  0.347567  1
  Tb  Tb4  1  0.811214  0.188114  0.188376  1
  Tb  Tb5  1  0.188114  0.811214  0.812296  1
  Tb  Tb6  1  0.188114  0.811214  0.188376  1
  Tb  Tb7  1  0.811214  0.188114  0.812296  1
  Tb  Tb8  1  0.185844  0.185844  0.814156  1
  Pr  Pr9  1  0.807741  0.807741  0.192259  1
  Pr  Pr10  1  0.941485  0.556663  0.560872  1
  Pr  Pr11  1  0.556663  0.941485  0.940979  1
  Pr  Pr12  1  0.556663  0.941485  0.560872  1
  Pr  Pr13  1  0.941485  0.556663  0.940979  1
  Pr  Pr14  1  0.558612  0.558612  0.941388  1
  Pr  Pr15  1  0.939753  0.939753  0.560247  1
  Mg  Mg16  1  0.579950  0.275056  0.572498  1
  Mg  Mg17  1  0.275056  0.579950  0.572498  1
  Hg  Hg18  1  0.579297  0.579297  0.587899  1
  Hg  Hg19  1  0.579297  0.579297  0.253508  1
  Ir  Ir20  1  0.141086  0.141086  0.141363  1
  Ir  Ir21  1  0.141086  0.141086  0.576465  1
  Ir  Ir22  1  0.145536  0.574388  0.140037  1
  Ir  Ir23  1  0.574388  0.145536  0.140037  1
