# generated using pymatgen
data_Tb16CdNi4AgHg2
_symmetry_space_group_name_H-M   'P 1'
_cell_length_a   9.51160255
_cell_length_b   9.52003929
_cell_length_c   9.52003815
_cell_angle_alpha   60.21904060
_cell_angle_beta   60.18278384
_cell_angle_gamma   60.18279356
_symmetry_Int_Tables_number   1
_chemical_formula_structural   Tb16CdNi4AgHg2
_chemical_formula_sum   'Tb16 Cd1 Ni4 Ag1 Hg2'
_cell_volume   612.24922747
_cell_formula_units_Z   1
loop_
 _symmetry_equiv_pos_site_id
 _symmetry_equiv_pos_as_xyz
  1  'x, y, z'
loop_
 _atom_site_type_symbol
 _atom_site_label
 _atom_site_symmetry_multiplicity
 _atom_site_fract_x
 _atom_site_fract_y
 _atom_site_fract_z
 _atom_site_occupancy
  Tb  Tb0  1  0.347961  0.347702  0.347702  1
  Tb  Tb1  1  0.350509  0.350105  0.949298  1
  Tb  Tb2  1  0.350509  0.949298  0.350105  1
  Tb  Tb3  1  0.947271  0.350889  0.350889  1
  Tb  Tb4  1  0.811536  0.190939  0.190939  1
  Tb  Tb5  1  0.187982  0.811599  0.811599  1
  Tb  Tb6  1  0.189528  0.812078  0.190897  1
  Tb  Tb7  1  0.810989  0.188887  0.811059  1
  Tb  Tb8  1  0.189528  0.190897  0.812078  1
  Tb  Tb9  1  0.810989  0.811059  0.188887  1
  Tb  Tb10  1  0.935204  0.563291  0.563291  1
  Tb  Tb11  1  0.561159  0.936954  0.936954  1
  Tb  Tb12  1  0.562501  0.936226  0.563044  1
  Tb  Tb13  1  0.936155  0.562178  0.937068  1
  Tb  Tb14  1  0.562501  0.563044  0.936226  1
  Tb  Tb15  1  0.936155  0.937068  0.562178  1
  Cd  Cd16  1  0.259133  0.581018  0.581018  1
  Ni  Ni17  1  0.143571  0.144095  0.144095  1
  Ni  Ni18  1  0.141782  0.142489  0.571642  1
  Ni  Ni19  1  0.141782  0.571642  0.142489  1
  Ni  Ni20  1  0.571747  0.142537  0.142537  1
  Ag  Ag21  1  0.581655  0.583290  0.583290  1
  Hg  Hg22  1  0.584925  0.586523  0.246189  1
  Hg  Hg23  1  0.584925  0.246189  0.586523  1
