# generated using pymatgen
data_Lu3AlSiRh2
_symmetry_space_group_name_H-M   'P 1'
_cell_length_a   5.46450600
_cell_length_b   7.77421500
_cell_length_c   13.10790600
_cell_angle_alpha   90.00000000
_cell_angle_beta   90.00000000
_cell_angle_gamma   90.00000000
_symmetry_Int_Tables_number   1
_chemical_formula_structural   Lu3AlSiRh2
_chemical_formula_sum   'Lu12 Al4 Si4 Rh8'
_cell_volume   556.85326774
_cell_formula_units_Z   4
loop_
 _symmetry_equiv_pos_site_id
 _symmetry_equiv_pos_as_xyz
  1  'x, y, z'
loop_
 _atom_site_type_symbol
 _atom_site_label
 _atom_site_symmetry_multiplicity
 _atom_site_fract_x
 _atom_site_fract_y
 _atom_site_fract_z
 _atom_site_occupancy
  Lu  Lu0  1  0.147185  0.601282  0.102472  1
  Lu  Lu1  1  0.147185  0.898718  0.897528  1
  Lu  Lu2  1  0.852815  0.101282  0.397528  1
  Lu  Lu3  1  0.852815  0.398718  0.602472  1
  Lu  Lu4  1  0.852815  0.398718  0.897528  1
  Lu  Lu5  1  0.852815  0.101282  0.102472  1
  Lu  Lu6  1  0.147185  0.898718  0.602472  1
  Lu  Lu7  1  0.147185  0.601282  0.397528  1
  Lu  Lu8  1  0.368842  0.240295  0.250000  1
  Lu  Lu9  1  0.368842  0.259705  0.750000  1
  Lu  Lu10  1  0.631158  0.740295  0.250000  1
  Lu  Lu11  1  0.631158  0.759705  0.750000  1
  Al  Al12  1  0.366956  0.250000  0.000000  1
  Al  Al13  1  0.633044  0.750000  0.500000  1
  Al  Al14  1  0.633044  0.750000  0.000000  1
  Al  Al15  1  0.366956  0.250000  0.500000  1
  Si  Si16  1  0.871327  0.386775  0.250000  1
  Si  Si17  1  0.871327  0.113225  0.750000  1
  Si  Si18  1  0.128673  0.886775  0.250000  1
  Si  Si19  1  0.128673  0.613225  0.750000  1
  Rh  Rh20  1  0.644299  0.468028  0.094885  1
  Rh  Rh21  1  0.644299  0.031972  0.905115  1
  Rh  Rh22  1  0.355701  0.968028  0.405115  1
  Rh  Rh23  1  0.355701  0.531972  0.594885  1
  Rh  Rh24  1  0.355701  0.531972  0.905115  1
  Rh  Rh25  1  0.355701  0.968028  0.094885  1
  Rh  Rh26  1  0.644299  0.031972  0.594885  1
  Rh  Rh27  1  0.644299  0.468028  0.405115  1
