# generated using pymatgen
data_Ho12Ir2OsPt
_symmetry_space_group_name_H-M   'P 1'
_cell_length_a   6.37443396
_cell_length_b   7.23794089
_cell_length_c   9.16859300
_cell_angle_alpha   90.00000000
_cell_angle_beta   90.00000000
_cell_angle_gamma   90.08633266
_symmetry_Int_Tables_number   1
_chemical_formula_structural   Ho12Ir2OsPt
_chemical_formula_sum   'Ho12 Ir2 Os1 Pt1'
_cell_volume   423.01801175
_cell_formula_units_Z   1
loop_
 _symmetry_equiv_pos_site_id
 _symmetry_equiv_pos_as_xyz
  1  'x, y, z'
loop_
 _atom_site_type_symbol
 _atom_site_label
 _atom_site_symmetry_multiplicity
 _atom_site_fract_x
 _atom_site_fract_y
 _atom_site_fract_z
 _atom_site_occupancy
  Ho  Ho0  1  0.331500  0.674024  0.061176  1
  Ho  Ho1  1  0.175086  0.181842  0.439822  1
  Ho  Ho2  1  0.670379  0.322225  0.560260  1
  Ho  Ho3  1  0.825416  0.822653  0.936036  1
  Ho  Ho4  1  0.670379  0.322225  0.939740  1
  Ho  Ho5  1  0.825416  0.822653  0.563964  1
  Ho  Ho6  1  0.331500  0.674024  0.438824  1
  Ho  Ho7  1  0.175086  0.181842  0.060178  1
  Ho  Ho8  1  0.870602  0.528948  0.250000  1
  Ho  Ho9  1  0.624910  0.037338  0.250000  1
  Ho  Ho10  1  0.127357  0.465667  0.750000  1
  Ho  Ho11  1  0.368846  0.964370  0.750000  1
  Ir  Ir12  1  0.955640  0.116635  0.750000  1
  Ir  Ir13  1  0.544022  0.616477  0.750000  1
  Os  Os14  1  0.456587  0.383530  0.250000  1
  Pt  Pt15  1  0.047275  0.885545  0.250000  1
