# generated using pymatgen
data_Sr12Pr8Si15Pt
_symmetry_space_group_name_H-M   'P 1'
_cell_length_a   8.19106113
_cell_length_b   8.16980935
_cell_length_c   15.48696154
_cell_angle_alpha   89.78814088
_cell_angle_beta   89.53878982
_cell_angle_gamma   90.04595214
_symmetry_Int_Tables_number   1
_chemical_formula_structural   Sr12Pr8Si15Pt
_chemical_formula_sum   'Sr12 Pr8 Si15 Pt1'
_cell_volume   1036.33727519
_cell_formula_units_Z   1
loop_
 _symmetry_equiv_pos_site_id
 _symmetry_equiv_pos_as_xyz
  1  'x, y, z'
loop_
 _atom_site_type_symbol
 _atom_site_label
 _atom_site_symmetry_multiplicity
 _atom_site_fract_x
 _atom_site_fract_y
 _atom_site_fract_z
 _atom_site_occupancy
  Sr  Sr0  1  0.312646  0.311581  0.000876  1
  Sr  Sr1  1  0.187326  0.809326  0.249419  1
  Sr  Sr2  1  0.816890  0.189452  0.748544  1
  Sr  Sr3  1  0.686558  0.686229  0.500667  1
  Sr  Sr4  1  0.367068  0.010534  0.452328  1
  Sr  Sr5  1  0.486049  0.871921  0.703379  1
  Sr  Sr6  1  0.513276  0.131935  0.206208  1
  Sr  Sr7  1  0.867114  0.486482  0.294625  1
  Sr  Sr8  1  0.133074  0.513368  0.794553  1
  Sr  Sr9  1  0.632097  0.990355  0.954408  1
  Sr  Sr10  1  0.008302  0.362982  0.543304  1
  Sr  Sr11  1  0.988432  0.632205  0.045104  1
  Pr  Pr12  1  0.135470  0.993238  0.874513  1
  Pr  Pr13  1  0.511622  0.629644  0.124333  1
  Pr  Pr14  1  0.484643  0.361241  0.627471  1
  Pr  Pr15  1  0.634639  0.510976  0.876395  1
  Pr  Pr16  1  0.369334  0.489144  0.375926  1
  Pr  Pr17  1  0.867669  0.009366  0.374696  1
  Pr  Pr18  1  0.990367  0.129806  0.125655  1
  Pr  Pr19  1  0.013261  0.878407  0.622268  1
  Si  Si20  1  0.347713  0.709953  0.945360  1
  Si  Si21  1  0.650297  0.289333  0.445213  1
  Si  Si22  1  0.713336  0.348455  0.056167  1
  Si  Si23  1  0.285513  0.653003  0.554978  1
  Si  Si24  1  0.789169  0.847424  0.195730  1
  Si  Si25  1  0.152831  0.209274  0.304108  1
  Si  Si26  1  0.851603  0.793342  0.800331  1
  Si  Si27  1  0.276584  0.913360  0.054037  1
  Si  Si28  1  0.584539  0.775979  0.304339  1
  Si  Si29  1  0.424013  0.219498  0.809804  1
  Si  Si30  1  0.772756  0.586359  0.695565  1
  Si  Si31  1  0.224477  0.414545  0.196315  1
  Si  Si32  1  0.710805  0.080357  0.553157  1
  Si  Si33  1  0.916682  0.277573  0.946107  1
  Si  Si34  1  0.083645  0.723981  0.445797  1
  Pt  Pt35  1  0.210202  0.159369  0.698320  1
