# generated using pymatgen
data_Tb3Y5Sc11Si16Ru
_symmetry_space_group_name_H-M   'P 1'
_cell_length_a   7.02198602
_cell_length_b   7.36938763
_cell_length_c   13.92778406
_cell_angle_alpha   90.00491247
_cell_angle_beta   89.99095867
_cell_angle_gamma   90.04694847
_symmetry_Int_Tables_number   1
_chemical_formula_structural   Tb3Y5Sc11Si16Ru
_chemical_formula_sum   'Tb3 Y5 Sc11 Si16 Ru1'
_cell_volume   720.73105205
_cell_formula_units_Z   1
loop_
 _symmetry_equiv_pos_site_id
 _symmetry_equiv_pos_as_xyz
  1  'x, y, z'
loop_
 _atom_site_type_symbol
 _atom_site_label
 _atom_site_symmetry_multiplicity
 _atom_site_fract_x
 _atom_site_fract_y
 _atom_site_fract_z
 _atom_site_occupancy
  Tb  Tb0  1  0.011884  0.177204  0.406444  1
  Tb  Tb1  1  0.511577  0.323949  0.404818  1
  Tb  Tb2  1  0.488152  0.672479  0.598365  1
  Y  Y3  1  0.011874  0.177212  0.093571  1
  Y  Y4  1  0.993155  0.818887  0.900540  1
  Y  Y5  1  0.488121  0.672474  0.901646  1
  Y  Y6  1  0.993158  0.818890  0.599478  1
  Y  Y7  1  0.511572  0.323930  0.095204  1
  Sc  Sc8  1  0.841165  0.496208  0.250002  1
  Sc  Sc9  1  0.341459  0.002574  0.249994  1
  Sc  Sc10  1  0.658420  0.997325  0.750013  1
  Sc  Sc11  1  0.326131  0.177838  0.627058  1
  Sc  Sc12  1  0.671956  0.824762  0.374647  1
  Sc  Sc13  1  0.172147  0.674483  0.376396  1
  Sc  Sc14  1  0.671937  0.824736  0.125339  1
  Sc  Sc15  1  0.826751  0.331036  0.627911  1
  Sc  Sc16  1  0.326153  0.177866  0.872932  1
  Sc  Sc17  1  0.826708  0.330992  0.872080  1
  Sc  Sc18  1  0.172122  0.674502  0.123578  1
  Si  Si19  1  0.030203  0.120141  0.750021  1
  Si  Si20  1  0.971480  0.883885  0.249995  1
  Si  Si21  1  0.468381  0.617246  0.249991  1
  Si  Si22  1  0.517990  0.392748  0.750024  1
  Si  Si23  1  0.286338  0.869221  0.750002  1
  Si  Si24  1  0.715839  0.127255  0.249967  1
  Si  Si25  1  0.214536  0.372905  0.249971  1
  Si  Si26  1  0.794490  0.627656  0.750018  1
  Si  Si27  1  0.155784  0.464956  0.546552  1
  Si  Si28  1  0.844037  0.536160  0.462972  1
  Si  Si29  1  0.345828  0.964429  0.462996  1
  Si  Si30  1  0.843945  0.536126  0.037042  1
  Si  Si31  1  0.657831  0.034347  0.540025  1
  Si  Si32  1  0.155886  0.464942  0.953423  1
  Si  Si33  1  0.657850  0.034357  0.959951  1
  Si  Si34  1  0.345798  0.964410  0.037022  1
  Ru  Ru35  1  0.149341  0.491869  0.750013  1
