# generated using pymatgen
data_Li4MgIn7Ir4
_symmetry_space_group_name_H-M   'P 1'
_cell_length_a   6.39471801
_cell_length_b   4.66583700
_cell_length_c   9.31160056
_cell_angle_alpha   90.00000000
_cell_angle_beta   90.01680537
_cell_angle_gamma   90.00000000
_symmetry_Int_Tables_number   1
_chemical_formula_structural   Li4MgIn7Ir4
_chemical_formula_sum   'Li4 Mg1 In7 Ir4'
_cell_volume   277.82753128
_cell_formula_units_Z   1
loop_
 _symmetry_equiv_pos_site_id
 _symmetry_equiv_pos_as_xyz
  1  'x, y, z'
loop_
 _atom_site_type_symbol
 _atom_site_label
 _atom_site_symmetry_multiplicity
 _atom_site_fract_x
 _atom_site_fract_y
 _atom_site_fract_z
 _atom_site_occupancy
  Li  Li0  1  0.251184  0.250000  0.122823  1
  Li  Li1  1  0.750906  0.750001  0.375050  1
  Li  Li2  1  0.247233  0.250000  0.623018  1
  Li  Li3  1  0.751047  0.750001  0.878027  1
  Mg  Mg4  1  0.002386  0.750001  0.125910  1
  In  In5  1  0.497703  0.750001  0.125539  1
  In  In6  1  0.000379  0.250000  0.368682  1
  In  In7  1  0.498537  0.250000  0.373928  1
  In  In8  1  0.502669  0.750001  0.626274  1
  In  In9  1  0.998166  0.750001  0.625735  1
  In  In10  1  0.499439  0.250000  0.874927  1
  In  In11  1  0.001350  0.250000  0.879184  1
  Ir  Ir12  1  0.747340  0.250000  0.124105  1
  Ir  Ir13  1  0.251708  0.750001  0.377217  1
  Ir  Ir14  1  0.748226  0.250000  0.624420  1
  Ir  Ir15  1  0.251727  0.750001  0.875161  1
