# generated using pymatgen
data_Er5AuSe4
_symmetry_space_group_name_H-M   'P 1'
_cell_length_a   7.06273928
_cell_length_b   7.06279607
_cell_length_c   7.06264964
_cell_angle_alpha   99.64225010
_cell_angle_beta   99.64037301
_cell_angle_gamma   131.68387950
_symmetry_Int_Tables_number   1
_chemical_formula_structural   Er5AuSe4
_chemical_formula_sum   'Er5 Au1 Se4'
_cell_volume   240.06930916
_cell_formula_units_Z   1
loop_
 _symmetry_equiv_pos_site_id
 _symmetry_equiv_pos_as_xyz
  1  'x, y, z'
loop_
 _atom_site_type_symbol
 _atom_site_label
 _atom_site_symmetry_multiplicity
 _atom_site_fract_x
 _atom_site_fract_y
 _atom_site_fract_z
 _atom_site_occupancy
  Er  Er0  1  0.400753  0.795122  0.195881  1
  Er  Er1  1  0.000000  0.000000  0.000000  1
  Er  Er2  1  0.599247  0.204878  0.804119  1
  Er  Er3  1  0.204866  0.400758  0.605620  1
  Er  Er4  1  0.795134  0.599242  0.394380  1
  Au  Au5  1  0.500000  0.500000  0.000000  1
  Se  Se6  1  0.095396  0.695820  0.791217  1
  Se  Se7  1  0.695820  0.904609  0.600423  1
  Se  Se8  1  0.304180  0.095391  0.399577  1
  Se  Se9  1  0.904604  0.304180  0.208783  1
