# generated using pymatgen
data_Li4Tm4Co5P12Rh11
_symmetry_space_group_name_H-M   'P 1'
_cell_length_a   3.79740200
_cell_length_b   10.66022635
_cell_length_c   12.49728206
_cell_angle_alpha   89.99078085
_cell_angle_beta   90.00000000
_cell_angle_gamma   90.00000000
_symmetry_Int_Tables_number   1
_chemical_formula_structural   Li4Tm4Co5P12Rh11
_chemical_formula_sum   'Li4 Tm4 Co5 P12 Rh11'
_cell_volume   505.90452892
_cell_formula_units_Z   1
loop_
 _symmetry_equiv_pos_site_id
 _symmetry_equiv_pos_as_xyz
  1  'x, y, z'
loop_
 _atom_site_type_symbol
 _atom_site_label
 _atom_site_symmetry_multiplicity
 _atom_site_fract_x
 _atom_site_fract_y
 _atom_site_fract_z
 _atom_site_occupancy
  Li  Li0  1  0.250000  0.703185  0.987047  1
  Li  Li1  1  0.250000  0.794688  0.489533  1
  Li  Li2  1  0.750000  0.294686  0.007437  1
  Li  Li3  1  0.750000  0.207963  0.512305  1
  Tm  Tm4  1  0.250000  0.575951  0.709833  1
  Tm  Tm5  1  0.250000  0.921713  0.207908  1
  Tm  Tm6  1  0.750000  0.421952  0.292435  1
  Tm  Tm7  1  0.750000  0.081151  0.793011  1
  Co  Co8  1  0.750000  0.379096  0.804870  1
  Co  Co9  1  0.250000  0.461232  0.932897  1
  Co  Co10  1  0.250000  0.036016  0.436597  1
  Co  Co11  1  0.750000  0.534933  0.061893  1
  Co  Co12  1  0.750000  0.965681  0.565557  1
  P  P13  1  0.250000  0.428024  0.107469  1
  P  P14  1  0.250000  0.073922  0.609851  1
  P  P15  1  0.750000  0.563319  0.886136  1
  P  P16  1  0.750000  0.927944  0.392122  1
  P  P17  1  0.250000  0.272398  0.860368  1
  P  P18  1  0.250000  0.232568  0.363638  1
  P  P19  1  0.750000  0.732398  0.136490  1
  P  P20  1  0.750000  0.767803  0.637638  1
  P  P21  1  0.250000  0.599880  0.389016  1
  P  P22  1  0.250000  0.900068  0.888720  1
  P  P23  1  0.750000  0.401445  0.619068  1
  P  P24  1  0.750000  0.100578  0.110947  1
  Rh  Rh25  1  0.250000  0.403965  0.476836  1
  Rh  Rh26  1  0.250000  0.097323  0.975545  1
  Rh  Rh27  1  0.750000  0.595328  0.524955  1
  Rh  Rh28  1  0.750000  0.904187  0.022543  1
  Rh  Rh29  1  0.250000  0.227148  0.172627  1
  Rh  Rh30  1  0.250000  0.277326  0.674816  1
  Rh  Rh31  1  0.750000  0.769495  0.827350  1
  Rh  Rh32  1  0.750000  0.726034  0.327578  1
  Rh  Rh33  1  0.250000  0.880533  0.696400  1
  Rh  Rh34  1  0.250000  0.620107  0.193938  1
  Rh  Rh35  1  0.750000  0.119961  0.304633  1
