# generated using pymatgen
data_Nb3Ni2SbN
_symmetry_space_group_name_H-M   'P 1'
_cell_length_a   8.27154157
_cell_length_b   8.27154205
_cell_length_c   8.27154200
_cell_angle_alpha   60.00000020
_cell_angle_beta   59.99999827
_cell_angle_gamma   60.00000309
_symmetry_Int_Tables_number   1
_chemical_formula_structural   Nb3Ni2SbN
_chemical_formula_sum   'Nb12 Ni8 Sb4 N4'
_cell_volume   400.16990574
_cell_formula_units_Z   4
loop_
 _symmetry_equiv_pos_site_id
 _symmetry_equiv_pos_as_xyz
  1  'x, y, z'
loop_
 _atom_site_type_symbol
 _atom_site_label
 _atom_site_symmetry_multiplicity
 _atom_site_fract_x
 _atom_site_fract_y
 _atom_site_fract_z
 _atom_site_occupancy
  Nb  Nb0  1  0.817906  0.817906  0.182094  1
  Nb  Nb1  1  0.182094  0.182094  0.817906  1
  Nb  Nb2  1  0.817906  0.182094  0.817906  1
  Nb  Nb3  1  0.182094  0.817906  0.182094  1
  Nb  Nb4  1  0.182094  0.817906  0.817906  1
  Nb  Nb5  1  0.817906  0.182094  0.182094  1
  Nb  Nb6  1  0.432094  0.432094  0.067906  1
  Nb  Nb7  1  0.067906  0.067906  0.432094  1
  Nb  Nb8  1  0.432094  0.067906  0.432094  1
  Nb  Nb9  1  0.067906  0.432094  0.067906  1
  Nb  Nb10  1  0.067906  0.432094  0.432094  1
  Nb  Nb11  1  0.432094  0.067906  0.067906  1
  Ni  Ni12  1  0.752486  0.415838  0.415838  1
  Ni  Ni13  1  0.415838  0.752486  0.415838  1
  Ni  Ni14  1  0.415838  0.415838  0.752486  1
  Ni  Ni15  1  0.415838  0.415838  0.415838  1
  Ni  Ni16  1  0.497514  0.834162  0.834162  1
  Ni  Ni17  1  0.834162  0.497514  0.834162  1
  Ni  Ni18  1  0.834162  0.834162  0.497514  1
  Ni  Ni19  1  0.834162  0.834162  0.834162  1
  Sb  Sb20  1  0.125000  0.625000  0.625000  1
  Sb  Sb21  1  0.625000  0.125000  0.625000  1
  Sb  Sb22  1  0.625000  0.625000  0.125000  1
  Sb  Sb23  1  0.625000  0.625000  0.625000  1
  N  N24  1  0.625000  0.125000  0.125000  1
  N  N25  1  0.125000  0.625000  0.125000  1
  N  N26  1  0.125000  0.125000  0.625000  1
  N  N27  1  0.125000  0.125000  0.125000  1
