# generated using pymatgen
data_Ce5NdAl20(SiOs2)4
_symmetry_space_group_name_H-M   'P 1'
_cell_length_a   8.80540265
_cell_length_b   8.80540295
_cell_length_c   9.59134100
_cell_angle_alpha   90.00000000
_cell_angle_beta   90.00000000
_cell_angle_gamma   119.95582579
_symmetry_Int_Tables_number   1
_chemical_formula_structural   Ce5NdAl20(SiOs2)4
_chemical_formula_sum   'Ce5 Nd1 Al20 Si4 Os8'
_cell_volume   644.31992755
_cell_formula_units_Z   1
loop_
 _symmetry_equiv_pos_site_id
 _symmetry_equiv_pos_as_xyz
  1  'x, y, z'
loop_
 _atom_site_type_symbol
 _atom_site_label
 _atom_site_symmetry_multiplicity
 _atom_site_fract_x
 _atom_site_fract_y
 _atom_site_fract_z
 _atom_site_occupancy
  Ce  Ce0  1  0.193606  0.388037  0.250000  1
  Ce  Ce1  1  0.805606  0.612216  0.750000  1
  Ce  Ce2  1  0.611963  0.806394  0.250000  1
  Ce  Ce3  1  0.387784  0.194394  0.750000  1
  Ce  Ce4  1  0.194033  0.805967  0.250000  1
  Nd  Nd5  1  0.806995  0.193005  0.750000  1
  Al  Al6  1  0.163813  0.327346  0.575375  1
  Al  Al7  1  0.836341  0.673140  0.423627  1
  Al  Al8  1  0.672654  0.836187  0.575375  1
  Al  Al9  1  0.836341  0.673140  0.076373  1
  Al  Al10  1  0.326860  0.163659  0.423627  1
  Al  Al11  1  0.163813  0.327346  0.924625  1
  Al  Al12  1  0.163310  0.836690  0.576742  1
  Al  Al13  1  0.326860  0.163659  0.076373  1
  Al  Al14  1  0.836363  0.163637  0.422800  1
  Al  Al15  1  0.672654  0.836187  0.924625  1
  Al  Al16  1  0.836363  0.163637  0.077200  1
  Al  Al17  1  0.163310  0.836690  0.923258  1
  Al  Al18  1  0.564389  0.128986  0.250000  1
  Al  Al19  1  0.435567  0.871798  0.750000  1
  Al  Al20  1  0.871014  0.435611  0.250000  1
  Al  Al21  1  0.128202  0.564433  0.750000  1
  Al  Al22  1  0.564256  0.435744  0.250000  1
  Al  Al23  1  0.435569  0.564431  0.750000  1
  Al  Al24  1  0.999833  0.000167  0.250000  1
  Al  Al25  1  0.001090  0.998910  0.750000  1
  Si  Si26  1  0.333585  0.666415  0.030914  1
  Si  Si27  1  0.667229  0.332771  0.969470  1
  Si  Si28  1  0.667229  0.332771  0.530530  1
  Si  Si29  1  0.333585  0.666415  0.469086  1
  Os  Os30  1  0.498412  0.998369  0.001927  1
  Os  Os31  1  0.001631  0.501588  0.001927  1
  Os  Os32  1  0.498412  0.998369  0.498073  1
  Os  Os33  1  0.500035  0.499965  0.000165  1
  Os  Os34  1  0.001631  0.501588  0.498073  1
  Os  Os35  1  0.500035  0.499965  0.499835  1
  Os  Os36  1  0.999814  0.000186  0.000041  1
  Os  Os37  1  0.999814  0.000186  0.499959  1
