# generated using pymatgen
data_NdHo(Cu3Ni2)2
_symmetry_space_group_name_H-M   'P 1'
_cell_length_a   4.04633500
_cell_length_b   4.95405300
_cell_length_c   8.61825300
_cell_angle_alpha   90.00000000
_cell_angle_beta   90.00000000
_cell_angle_gamma   90.00000000
_symmetry_Int_Tables_number   1
_chemical_formula_structural   NdHo(Cu3Ni2)2
_chemical_formula_sum   'Nd1 Ho1 Cu6 Ni4'
_cell_volume   172.75941442
_cell_formula_units_Z   1
loop_
 _symmetry_equiv_pos_site_id
 _symmetry_equiv_pos_as_xyz
  1  'x, y, z'
loop_
 _atom_site_type_symbol
 _atom_site_label
 _atom_site_symmetry_multiplicity
 _atom_site_fract_x
 _atom_site_fract_y
 _atom_site_fract_z
 _atom_site_occupancy
  Nd  Nd0  1  0.000000  0.500000  0.506103  1
  Ho  Ho1  1  0.000000  0.000000  0.994056  1
  Cu  Cu2  1  0.000000  0.000000  0.327246  1
  Cu  Cu3  1  0.500000  0.000000  0.500898  1
  Cu  Cu4  1  0.500000  0.250315  0.244368  1
  Cu  Cu5  1  0.500000  0.751217  0.755149  1
  Cu  Cu6  1  0.500000  0.749685  0.244368  1
  Cu  Cu7  1  0.500000  0.248783  0.755149  1
  Ni  Ni8  1  0.000000  0.500000  0.842182  1
  Ni  Ni9  1  0.000000  0.500000  0.160170  1
  Ni  Ni10  1  0.000000  0.000000  0.669980  1
  Ni  Ni11  1  0.500000  0.500000  0.000330  1
