# generated using pymatgen
data_Nd4Er2Ga3Si
_symmetry_space_group_name_H-M   'P 1'
_cell_length_a   7.68807305
_cell_length_b   7.68807305
_cell_length_c   4.50311900
_cell_angle_alpha   90.00000000
_cell_angle_beta   90.00000000
_cell_angle_gamma   90.60190084
_symmetry_Int_Tables_number   1
_chemical_formula_structural   Nd4Er2Ga3Si
_chemical_formula_sum   'Nd4 Er2 Ga3 Si1'
_cell_volume   266.14876939
_cell_formula_units_Z   1
loop_
 _symmetry_equiv_pos_site_id
 _symmetry_equiv_pos_as_xyz
  1  'x, y, z'
loop_
 _atom_site_type_symbol
 _atom_site_label
 _atom_site_symmetry_multiplicity
 _atom_site_fract_x
 _atom_site_fract_y
 _atom_site_fract_z
 _atom_site_occupancy
  Nd  Nd0  1  0.328116  0.174735  0.500000  1
  Nd  Nd1  1  0.821206  0.321206  0.500000  1
  Nd  Nd2  1  0.175435  0.675435  0.500000  1
  Nd  Nd3  1  0.674735  0.828116  0.500000  1
  Er  Er4  1  0.996395  0.000006  0.000000  1
  Er  Er5  1  0.500006  0.496395  0.000000  1
  Ga  Ga6  1  0.120143  0.380311  0.000000  1
  Ga  Ga7  1  0.880312  0.620143  0.000000  1
  Ga  Ga8  1  0.383036  0.883037  0.000000  1
  Si  Si9  1  0.620612  0.120612  0.000000  1
