# generated using pymatgen
data_YbCr2O4
_symmetry_space_group_name_H-M   'P 1'
_cell_length_a   3.01541800
_cell_length_b   9.08576600
_cell_length_c   10.70772300
_cell_angle_alpha   90.00070248
_cell_angle_beta   90.00008289
_cell_angle_gamma   89.99980459
_symmetry_Int_Tables_number   1
_chemical_formula_structural   YbCr2O4
_chemical_formula_sum   'Yb4 Cr8 O16'
_cell_volume   293.36358102
_cell_formula_units_Z   4
loop_
 _symmetry_equiv_pos_site_id
 _symmetry_equiv_pos_as_xyz
  1  'x, y, z'
loop_
 _atom_site_type_symbol
 _atom_site_label
 _atom_site_symmetry_multiplicity
 _atom_site_fract_x
 _atom_site_fract_y
 _atom_site_fract_z
 _atom_site_occupancy
  Yb  Yb0  1  0.750007  0.240167  0.340718  1
  Yb  Yb1  1  0.250006  0.759833  0.659280  1
  Yb  Yb2  1  0.750004  0.740161  0.159276  1
  Yb  Yb3  1  0.250004  0.259838  0.840726  1
  Cr  Cr4  1  0.750013  0.059706  0.113330  1
  Cr  Cr5  1  0.250001  0.940294  0.886667  1
  Cr  Cr6  1  0.750015  0.584150  0.899072  1
  Cr  Cr7  1  0.249963  0.415841  0.100929  1
  Cr  Cr8  1  0.750022  0.559741  0.386687  1
  Cr  Cr9  1  0.249998  0.440260  0.613309  1
  Cr  Cr10  1  0.749915  0.084159  0.600932  1
  Cr  Cr11  1  0.250020  0.915853  0.399073  1
  O  O12  1  0.750008  0.798016  0.835082  1
  O  O13  1  0.250004  0.201981  0.164920  1
  O  O14  1  0.749996  0.298010  0.664917  1
  O  O15  1  0.250012  0.701991  0.335083  1
  O  O16  1  0.750000  0.880105  0.526404  1
  O  O17  1  0.249987  0.119906  0.473594  1
  O  O18  1  0.749997  0.380096  0.973595  1
  O  O19  1  0.250004  0.619898  0.026408  1
  O  O20  1  0.749991  0.471446  0.214340  1
  O  O21  1  0.250015  0.528549  0.785660  1
  O  O22  1  0.750012  0.971445  0.285665  1
  O  O23  1  0.249975  0.028561  0.714334  1
  O  O24  1  0.750007  0.584591  0.574569  1
  O  O25  1  0.250011  0.415406  0.425427  1
  O  O26  1  0.750002  0.084593  0.925430  1
  O  O27  1  0.250011  0.915404  0.074569  1
