# generated using pymatgen
data_TiGaRh3S8
_symmetry_space_group_name_H-M   'P 1'
_cell_length_a   6.89965395
_cell_length_b   6.89965384
_cell_length_c   6.89965440
_cell_angle_alpha   62.27325891
_cell_angle_beta   62.27325382
_cell_angle_gamma   62.27325958
_symmetry_Int_Tables_number   1
_chemical_formula_structural   TiGaRh3S8
_chemical_formula_sum   'Ti1 Ga1 Rh3 S8'
_cell_volume   244.04199329
_cell_formula_units_Z   1
loop_
 _symmetry_equiv_pos_site_id
 _symmetry_equiv_pos_as_xyz
  1  'x, y, z'
loop_
 _atom_site_type_symbol
 _atom_site_label
 _atom_site_symmetry_multiplicity
 _atom_site_fract_x
 _atom_site_fract_y
 _atom_site_fract_z
 _atom_site_occupancy
  Ti  Ti0  1  0.596067  0.596067  0.596067  1
  Ga  Ga1  1  0.009272  0.009272  0.009272  1
  Rh  Rh2  1  0.624734  0.624734  0.140028  1
  Rh  Rh3  1  0.624734  0.140028  0.624734  1
  Rh  Rh4  1  0.140028  0.624734  0.624734  1
  S  S5  1  0.368944  0.368944  0.871274  1
  S  S6  1  0.368944  0.871274  0.368944  1
  S  S7  1  0.871274  0.368944  0.368944  1
  S  S8  1  0.388978  0.388978  0.388978  1
  S  S9  1  0.862262  0.862262  0.414088  1
  S  S10  1  0.862262  0.414088  0.862262  1
  S  S11  1  0.414088  0.862262  0.862262  1
  S  S12  1  0.868411  0.868411  0.868411  1
