# generated using pymatgen
data_Cs2BiSb3Te7
_symmetry_space_group_name_H-M   'P 1'
_cell_length_a   4.46393100
_cell_length_b   14.10227124
_cell_length_c   16.52479715
_cell_angle_alpha   85.06450276
_cell_angle_beta   90.00000000
_cell_angle_gamma   90.00000000
_symmetry_Int_Tables_number   1
_chemical_formula_structural   Cs2BiSb3Te7
_chemical_formula_sum   'Cs4 Bi2 Sb6 Te14'
_cell_volume   1036.40475628
_cell_formula_units_Z   2
loop_
 _symmetry_equiv_pos_site_id
 _symmetry_equiv_pos_as_xyz
  1  'x, y, z'
loop_
 _atom_site_type_symbol
 _atom_site_label
 _atom_site_symmetry_multiplicity
 _atom_site_fract_x
 _atom_site_fract_y
 _atom_site_fract_z
 _atom_site_occupancy
  Cs  Cs0  1  0.250000  0.570176  0.809358  1
  Cs  Cs1  1  0.750000  0.429824  0.190642  1
  Cs  Cs2  1  0.750000  0.824574  0.626408  1
  Cs  Cs3  1  0.250000  0.175426  0.373592  1
  Bi  Bi4  1  0.750000  0.610568  0.427791  1
  Bi  Bi5  1  0.250000  0.389432  0.572209  1
  Sb  Sb6  1  0.250000  0.952198  0.879875  1
  Sb  Sb7  1  0.750000  0.047802  0.120125  1
  Sb  Sb8  1  0.250000  0.831655  0.269992  1
  Sb  Sb9  1  0.750000  0.168345  0.730008  1
  Sb  Sb10  1  0.750000  0.735675  0.049361  1
  Sb  Sb11  1  0.250000  0.264325  0.950639  1
  Te  Te12  1  0.250000  0.458511  0.389570  1
  Te  Te13  1  0.750000  0.541489  0.610430  1
  Te  Te14  1  0.250000  0.598499  0.037168  1
  Te  Te15  1  0.750000  0.401501  0.962832  1
  Te  Te16  1  0.750000  0.985348  0.294171  1
  Te  Te17  1  0.250000  0.014652  0.705829  1
  Te  Te18  1  0.750000  0.800509  0.866567  1
  Te  Te19  1  0.250000  0.199491  0.133433  1
  Te  Te20  1  0.250000  0.764646  0.448999  1
  Te  Te21  1  0.750000  0.235354  0.551001  1
  Te  Te22  1  0.750000  0.691559  0.238952  1
  Te  Te23  1  0.250000  0.308441  0.761048  1
  Te  Te24  1  0.250000  0.901058  0.083151  1
  Te  Te25  1  0.750000  0.098942  0.916849  1
