# generated using pymatgen
data_Sm3ZnIn3Pt2
_symmetry_space_group_name_H-M   'P 1'
_cell_length_a   7.78217000
_cell_length_b   7.78216971
_cell_length_c   3.95760700
_cell_angle_alpha   90.00000000
_cell_angle_beta   90.00000000
_cell_angle_gamma   120.00000975
_symmetry_Int_Tables_number   1
_chemical_formula_structural   Sm3ZnIn3Pt2
_chemical_formula_sum   'Sm3 Zn1 In3 Pt2'
_cell_volume   207.57003829
_cell_formula_units_Z   1
loop_
 _symmetry_equiv_pos_site_id
 _symmetry_equiv_pos_as_xyz
  1  'x, y, z'
loop_
 _atom_site_type_symbol
 _atom_site_label
 _atom_site_symmetry_multiplicity
 _atom_site_fract_x
 _atom_site_fract_y
 _atom_site_fract_z
 _atom_site_occupancy
  Sm  Sm0  1  0.587982  0.000000  0.000000  1
  Sm  Sm1  1  0.000000  0.587982  0.000000  1
  Sm  Sm2  1  0.412018  0.412018  0.000000  1
  Zn  Zn3  1  0.000000  0.000000  0.000000  1
  In  In4  1  0.255624  0.000000  0.500000  1
  In  In5  1  0.000000  0.255624  0.500000  1
  In  In6  1  0.744376  0.744376  0.500000  1
  Pt  Pt7  1  0.333333  0.666667  0.500000  1
  Pt  Pt8  1  0.666667  0.333333  0.500000  1
