# generated using pymatgen
data_Tb2Y2GaSb5Rh7
_symmetry_space_group_name_H-M   'P 1'
_cell_length_a   7.57833025
_cell_length_b   7.57832991
_cell_length_c   7.58133407
_cell_angle_alpha   109.05168294
_cell_angle_beta   109.67657717
_cell_angle_gamma   109.67022353
_symmetry_Int_Tables_number   1
_chemical_formula_structural   Tb2Y2GaSb5Rh7
_chemical_formula_sum   'Tb2 Y2 Ga1 Sb5 Rh7'
_cell_volume   335.22726920
_cell_formula_units_Z   1
loop_
 _symmetry_equiv_pos_site_id
 _symmetry_equiv_pos_as_xyz
  1  'x, y, z'
loop_
 _atom_site_type_symbol
 _atom_site_label
 _atom_site_symmetry_multiplicity
 _atom_site_fract_x
 _atom_site_fract_y
 _atom_site_fract_z
 _atom_site_occupancy
  Tb  Tb0  1  0.000001  0.007682  0.490475  1
  Tb  Tb1  1  0.482792  0.490474  0.490475  1
  Y  Y2  1  0.517211  0.007558  0.007547  1
  Y  Y3  1  0.999989  0.490338  0.007547  1
  Ga  Ga4  1  0.999905  0.328025  0.327930  1
  Sb  Sb5  1  0.683829  0.998276  0.682105  1
  Sb  Sb6  1  0.683795  0.681896  0.998094  1
  Sb  Sb7  1  0.000072  0.679874  0.679946  1
  Sb  Sb8  1  0.316240  0.997917  0.314157  1
  Sb  Sb9  1  0.316198  0.314299  0.998094  1
  Rh  Rh10  1  0.000029  0.018073  0.018102  1
  Rh  Rh11  1  0.499932  0.749127  0.249059  1
  Rh  Rh12  1  0.751480  0.496840  0.248321  1
  Rh  Rh13  1  0.248503  0.745302  0.496860  1
  Rh  Rh14  1  0.248422  0.496809  0.745231  1
  Rh  Rh15  1  0.500045  0.249150  0.749195  1
  Rh  Rh16  1  0.751558  0.248358  0.496860  1
