# generated using pymatgen
data_TbHo3(Pa2Ga5)4
_symmetry_space_group_name_H-M   'P 1'
_cell_length_a   6.07233501
_cell_length_b   9.54028600
_cell_length_c   11.65985001
_cell_angle_alpha   90.00000000
_cell_angle_beta   90.00534757
_cell_angle_gamma   90.00000000
_symmetry_Int_Tables_number   1
_chemical_formula_structural   TbHo3(Pa2Ga5)4
_chemical_formula_sum   'Tb1 Ho3 Pa8 Ga20'
_cell_volume   675.47624353
_cell_formula_units_Z   1
loop_
 _symmetry_equiv_pos_site_id
 _symmetry_equiv_pos_as_xyz
  1  'x, y, z'
loop_
 _atom_site_type_symbol
 _atom_site_label
 _atom_site_symmetry_multiplicity
 _atom_site_fract_x
 _atom_site_fract_y
 _atom_site_fract_z
 _atom_site_occupancy
  Tb  Tb0  1  0.357498  0.250000  0.427083  1
  Ho  Ho1  1  0.857150  0.750000  0.072980  1
  Ho  Ho2  1  0.642718  0.750000  0.573377  1
  Ho  Ho3  1  0.142857  0.250000  0.926711  1
  Pa  Pa4  1  0.882341  0.504303  0.352434  1
  Pa  Pa5  1  0.617619  0.995774  0.852419  1
  Pa  Pa6  1  0.117506  0.003971  0.647858  1
  Pa  Pa7  1  0.382458  0.495923  0.147401  1
  Pa  Pa8  1  0.117506  0.496029  0.647858  1
  Pa  Pa9  1  0.382458  0.004077  0.147401  1
  Pa  Pa10  1  0.882341  0.995697  0.352434  1
  Pa  Pa11  1  0.617619  0.504226  0.852419  1
  Ga  Ga12  1  0.872243  0.051871  0.090440  1
  Ga  Ga13  1  0.628059  0.448354  0.590900  1
  Ga  Ga14  1  0.127672  0.551845  0.909447  1
  Ga  Ga15  1  0.372249  0.946978  0.409301  1
  Ga  Ga16  1  0.127672  0.948155  0.909447  1
  Ga  Ga17  1  0.372249  0.553022  0.409301  1
  Ga  Ga18  1  0.872243  0.448129  0.090440  1
  Ga  Ga19  1  0.628059  0.051646  0.590900  1
  Ga  Ga20  1  0.158467  0.750000  0.263315  1
  Ga  Ga21  1  0.341675  0.750000  0.763409  1
  Ga  Ga22  1  0.841568  0.250000  0.736793  1
  Ga  Ga23  1  0.659334  0.250000  0.235956  1
  Ga  Ga24  1  0.389303  0.750000  0.995416  1
  Ga  Ga25  1  0.110486  0.750000  0.495586  1
  Ga  Ga26  1  0.610799  0.250000  0.004374  1
  Ga  Ga27  1  0.888101  0.250000  0.504792  1
  Ga  Ga28  1  0.597917  0.750000  0.293212  1
  Ga  Ga29  1  0.902061  0.750000  0.793302  1
  Ga  Ga30  1  0.402237  0.250000  0.707190  1
  Ga  Ga31  1  0.097534  0.250000  0.206105  1
