# generated using pymatgen
data_Na3Sm2Ga2P10Ir19
_symmetry_space_group_name_H-M   'P 1'
_cell_length_a   12.85733900
_cell_length_b   12.78839085
_cell_length_c   3.98869900
_cell_angle_alpha   90.00000000
_cell_angle_beta   90.00000000
_cell_angle_gamma   120.10186267
_symmetry_Int_Tables_number   1
_chemical_formula_structural   Na3Sm2Ga2P10Ir19
_chemical_formula_sum   'Na3 Sm2 Ga2 P10 Ir19'
_cell_volume   567.39068367
_cell_formula_units_Z   1
loop_
 _symmetry_equiv_pos_site_id
 _symmetry_equiv_pos_as_xyz
  1  'x, y, z'
loop_
 _atom_site_type_symbol
 _atom_site_label
 _atom_site_symmetry_multiplicity
 _atom_site_fract_x
 _atom_site_fract_y
 _atom_site_fract_z
 _atom_site_occupancy
  Na  Na0  1  0.002461  0.815716  0.500000  1
  Na  Na1  1  0.335464  0.667785  0.000000  1
  Na  Na2  1  0.664135  0.333280  0.000000  1
  Sm  Sm3  1  0.180273  0.180254  0.500000  1
  Sm  Sm4  1  0.818062  0.997975  0.500000  1
  Ga  Ga5  1  0.509960  0.679093  0.500000  1
  Ga  Ga6  1  0.322382  0.829072  0.500000  1
  P  P7  1  0.994160  0.180853  0.000000  1
  P  P8  1  0.824313  0.814460  0.000000  1
  P  P9  1  0.180280  0.995101  0.000000  1
  P  P10  1  0.172360  0.485756  0.500000  1
  P  P11  1  0.485883  0.179872  0.500000  1
  P  P12  1  0.693177  0.513598  0.500000  1
  P  P13  1  0.819806  0.311973  0.500000  1
  P  P14  1  0.003024  0.637051  0.000000  1
  P  P15  1  0.364846  0.367906  0.000000  1
  P  P16  1  0.632739  0.996013  0.000000  1
  Ir  Ir17  1  0.991896  0.289262  0.500000  1
  Ir  Ir18  1  0.721161  0.709417  0.500000  1
  Ir  Ir19  1  0.291390  0.010723  0.500000  1
  Ir  Ir20  1  0.638275  0.810368  0.000000  1
  Ir  Ir21  1  0.188482  0.816278  0.000000  1
  Ir  Ir22  1  0.169535  0.375447  0.000000  1
  Ir  Ir23  1  0.376903  0.186851  0.000000  1
  Ir  Ir24  1  0.806252  0.616755  0.000000  1
  Ir  Ir25  1  0.812259  0.190592  0.000000  1
  Ir  Ir26  1  0.537643  0.889744  0.500000  1
  Ir  Ir27  1  0.122208  0.632963  0.500000  1
  Ir  Ir28  1  0.344128  0.464074  0.500000  1
  Ir  Ir29  1  0.496443  0.366375  0.500000  1
  Ir  Ir30  1  0.870652  0.508616  0.500000  1
  Ir  Ir31  1  0.636947  0.136990  0.500000  1
  Ir  Ir32  1  0.001907  0.004700  0.000000  1
  Ir  Ir33  1  0.991536  0.451026  0.000000  1
  Ir  Ir34  1  0.543667  0.548613  0.000000  1
  Ir  Ir35  1  0.455390  0.005444  0.000000  1
