# generated using pymatgen
data_Ba3Pd2
_symmetry_space_group_name_H-M   'P 1'
_cell_length_a   8.54447764
_cell_length_b   8.54447757
_cell_length_c   8.54447686
_cell_angle_alpha   71.63427663
_cell_angle_beta   71.63427817
_cell_angle_gamma   71.63427972
_symmetry_Int_Tables_number   1
_chemical_formula_structural   Ba3Pd2
_chemical_formula_sum   'Ba9 Pd6'
_cell_volume   545.52040016
_cell_formula_units_Z   3
loop_
 _symmetry_equiv_pos_site_id
 _symmetry_equiv_pos_as_xyz
  1  'x, y, z'
loop_
 _atom_site_type_symbol
 _atom_site_label
 _atom_site_symmetry_multiplicity
 _atom_site_fract_x
 _atom_site_fract_y
 _atom_site_fract_z
 _atom_site_occupancy
  Ba  Ba0  1  0.000000  0.000000  0.000000  1
  Ba  Ba1  1  0.797690  0.797690  0.797690  1
  Ba  Ba2  1  0.202310  0.202310  0.202310  1
  Ba  Ba3  1  0.324128  0.609445  0.843819  1
  Ba  Ba4  1  0.843819  0.324128  0.609445  1
  Ba  Ba5  1  0.609445  0.843819  0.324128  1
  Ba  Ba6  1  0.675872  0.390555  0.156181  1
  Ba  Ba7  1  0.156181  0.675872  0.390555  1
  Ba  Ba8  1  0.390555  0.156181  0.675872  1
  Pd  Pd9  1  0.148558  0.960374  0.588108  1
  Pd  Pd10  1  0.588108  0.148558  0.960374  1
  Pd  Pd11  1  0.960374  0.588108  0.148558  1
  Pd  Pd12  1  0.851442  0.039626  0.411892  1
  Pd  Pd13  1  0.411892  0.851442  0.039626  1
  Pd  Pd14  1  0.039626  0.411892  0.851442  1
