# generated using pymatgen
data_Ho10Tm2Ni4SnAu
_symmetry_space_group_name_H-M   'P 1'
_cell_length_a   8.30135582
_cell_length_b   8.34051711
_cell_length_c   8.34051109
_cell_angle_alpha   112.74676495
_cell_angle_beta   109.32556297
_cell_angle_gamma   106.57685035
_symmetry_Int_Tables_number   1
_chemical_formula_structural   Ho10Tm2Ni4SnAu
_chemical_formula_sum   'Ho10 Tm2 Ni4 Sn1 Au1'
_cell_volume   442.27578017
_cell_formula_units_Z   1
loop_
 _symmetry_equiv_pos_site_id
 _symmetry_equiv_pos_as_xyz
  1  'x, y, z'
loop_
 _atom_site_type_symbol
 _atom_site_label
 _atom_site_symmetry_multiplicity
 _atom_site_fract_x
 _atom_site_fract_y
 _atom_site_fract_z
 _atom_site_occupancy
  Ho  Ho0  1  0.025524  0.223324  0.802201  1
  Ho  Ho1  1  0.974476  0.776676  0.197799  1
  Ho  Ho2  1  0.181126  0.293146  0.472857  1
  Ho  Ho3  1  0.818874  0.706854  0.527143  1
  Ho  Ho4  1  0.181126  0.708270  0.887981  1
  Ho  Ho5  1  0.818874  0.291730  0.112019  1
  Ho  Ho6  1  0.325599  0.631962  0.309247  1
  Ho  Ho7  1  0.674401  0.368038  0.690753  1
  Ho  Ho8  1  0.325599  0.016352  0.693637  1
  Ho  Ho9  1  0.674401  0.983648  0.306363  1
  Tm  Tm10  1  0.420818  0.223139  0.197678  1
  Tm  Tm11  1  0.579182  0.776861  0.802322  1
  Ni  Ni12  1  0.358640  0.000459  0.358181  1
  Ni  Ni13  1  0.641360  0.999541  0.641819  1
  Ni  Ni14  1  0.125391  0.625141  0.500248  1
  Ni  Ni15  1  0.874609  0.374859  0.499752  1
  Sn  Sn16  1  0.500000  0.500000  0.000000  1
  Au  Au17  1  0.000000  0.000000  0.000000  1
