# generated using pymatgen
data_Y5HoFe8(Co5P6)2
_symmetry_space_group_name_H-M   'P 1'
_cell_length_a   3.70199400
_cell_length_b   10.50467409
_cell_length_c   12.09946711
_cell_angle_alpha   90.01525601
_cell_angle_beta   90.00000000
_cell_angle_gamma   90.00000000
_symmetry_Int_Tables_number   1
_chemical_formula_structural   Y5HoFe8(Co5P6)2
_chemical_formula_sum   'Y5 Ho1 Fe8 Co10 P12'
_cell_volume   470.52696968
_cell_formula_units_Z   1
loop_
 _symmetry_equiv_pos_site_id
 _symmetry_equiv_pos_as_xyz
  1  'x, y, z'
loop_
 _atom_site_type_symbol
 _atom_site_label
 _atom_site_symmetry_multiplicity
 _atom_site_fract_x
 _atom_site_fract_y
 _atom_site_fract_z
 _atom_site_occupancy
  Y  Y0  1  0.000000  0.499946  0.522979  1
  Y  Y1  1  0.500000  0.000044  0.477168  1
  Y  Y2  1  0.500000  0.818808  0.205246  1
  Y  Y3  1  0.500000  0.181235  0.205360  1
  Y  Y4  1  0.000000  0.681053  0.794692  1
  Ho  Ho5  1  0.000000  0.318849  0.794738  1
  Fe  Fe6  1  0.000000  0.499725  0.986970  1
  Fe  Fe7  1  0.500000  0.000263  0.012490  1
  Fe  Fe8  1  0.500000  0.298284  0.429186  1
  Fe  Fe9  1  0.500000  0.701761  0.429019  1
  Fe  Fe10  1  0.000000  0.202019  0.571437  1
  Fe  Fe11  1  0.000000  0.798209  0.571108  1
  Fe  Fe12  1  0.500000  0.499873  0.155270  1
  Fe  Fe13  1  0.000000  0.000121  0.844558  1
  Co  Co14  1  0.500000  0.880867  0.711599  1
  Co  Co15  1  0.500000  0.119551  0.711847  1
  Co  Co16  1  0.000000  0.619162  0.288424  1
  Co  Co17  1  0.000000  0.380809  0.288474  1
  Co  Co18  1  0.500000  0.332006  0.993800  1
  Co  Co19  1  0.500000  0.667795  0.993967  1
  Co  Co20  1  0.000000  0.168131  0.005558  1
  Co  Co21  1  0.000000  0.832067  0.005815  1
  Co  Co22  1  0.500000  0.499350  0.700123  1
  Co  Co23  1  0.000000  0.000066  0.300131  1
  P  P24  1  0.500000  0.307350  0.615087  1
  P  P25  1  0.500000  0.692510  0.614569  1
  P  P26  1  0.000000  0.192738  0.385664  1
  P  P27  1  0.000000  0.807349  0.385523  1
  P  P28  1  0.500000  0.499521  0.883249  1
  P  P29  1  0.000000  0.000104  0.116365  1
  P  P30  1  0.500000  0.848235  0.894127  1
  P  P31  1  0.500000  0.152250  0.893882  1
  P  P32  1  0.000000  0.651616  0.105703  1
  P  P33  1  0.000000  0.348301  0.105792  1
  P  P34  1  0.500000  0.500004  0.342377  1
  P  P35  1  0.000000  0.000031  0.657699  1
