# generated using pymatgen
data_Pr3Sm3Ta2(Co4P3)4
_symmetry_space_group_name_H-M   'P 1'
_cell_length_a   3.75742100
_cell_length_b   10.73770714
_cell_length_c   12.44964416
_cell_angle_alpha   89.98145857
_cell_angle_beta   90.00000000
_cell_angle_gamma   90.00000000
_symmetry_Int_Tables_number   1
_chemical_formula_structural   Pr3Sm3Ta2(Co4P3)4
_chemical_formula_sum   'Pr3 Sm3 Ta2 Co16 P12'
_cell_volume   502.29439153
_cell_formula_units_Z   1
loop_
 _symmetry_equiv_pos_site_id
 _symmetry_equiv_pos_as_xyz
  1  'x, y, z'
loop_
 _atom_site_type_symbol
 _atom_site_label
 _atom_site_symmetry_multiplicity
 _atom_site_fract_x
 _atom_site_fract_y
 _atom_site_fract_z
 _atom_site_occupancy
  Pr  Pr0  1  0.000000  0.500236  0.525893  1
  Pr  Pr1  1  0.500000  0.999855  0.473641  1
  Pr  Pr2  1  0.000000  0.320400  0.794700  1
  Sm  Sm3  1  0.500000  0.819810  0.204781  1
  Sm  Sm4  1  0.500000  0.179942  0.204512  1
  Sm  Sm5  1  0.000000  0.680662  0.795474  1
  Ta  Ta6  1  0.500000  0.500185  0.153343  1
  Ta  Ta7  1  0.000000  0.999354  0.846979  1
  Co  Co8  1  0.500000  0.502200  0.704078  1
  Co  Co9  1  0.000000  0.999800  0.295389  1
  Co  Co10  1  0.000000  0.501049  0.988063  1
  Co  Co11  1  0.500000  0.999023  0.013391  1
  Co  Co12  1  0.500000  0.332783  0.994033  1
  Co  Co13  1  0.500000  0.668185  0.993431  1
  Co  Co14  1  0.000000  0.166676  0.007890  1
  Co  Co15  1  0.000000  0.832483  0.007491  1
  Co  Co16  1  0.500000  0.295371  0.430245  1
  Co  Co17  1  0.500000  0.704658  0.431070  1
  Co  Co18  1  0.000000  0.204053  0.567438  1
  Co  Co19  1  0.000000  0.795552  0.568733  1
  Co  Co20  1  0.500000  0.879201  0.708193  1
  Co  Co21  1  0.500000  0.119047  0.706977  1
  Co  Co22  1  0.000000  0.620500  0.291992  1
  Co  Co23  1  0.000000  0.379534  0.291623  1
  P  P24  1  0.500000  0.501824  0.885969  1
  P  P25  1  0.000000  0.999600  0.115690  1
  P  P26  1  0.500000  0.500014  0.350401  1
  P  P27  1  0.000000  0.999989  0.649529  1
  P  P28  1  0.500000  0.305394  0.613094  1
  P  P29  1  0.500000  0.694152  0.615463  1
  P  P30  1  0.000000  0.193514  0.383796  1
  P  P31  1  0.000000  0.806168  0.384457  1
  P  P32  1  0.500000  0.842297  0.895369  1
  P  P33  1  0.500000  0.156193  0.896872  1
  P  P34  1  0.000000  0.657893  0.105292  1
  P  P35  1  0.000000  0.342404  0.104708  1
