# generated using pymatgen
data_Sr4CaDy(RhO6)2
_symmetry_space_group_name_H-M   'P 1'
_cell_length_a   5.91144379
_cell_length_b   5.79379147
_cell_length_c   10.03401470
_cell_angle_alpha   55.25505431
_cell_angle_beta   90.08776695
_cell_angle_gamma   89.99476772
_symmetry_Int_Tables_number   1
_chemical_formula_structural   Sr4CaDy(RhO6)2
_chemical_formula_sum   'Sr4 Ca1 Dy1 Rh2 O12'
_cell_volume   282.38535124
_cell_formula_units_Z   1
loop_
 _symmetry_equiv_pos_site_id
 _symmetry_equiv_pos_as_xyz
  1  'x, y, z'
loop_
 _atom_site_type_symbol
 _atom_site_label
 _atom_site_symmetry_multiplicity
 _atom_site_fract_x
 _atom_site_fract_y
 _atom_site_fract_z
 _atom_site_occupancy
  Sr  Sr0  1  0.543054  0.734738  0.753507  1
  Sr  Sr1  1  0.045470  0.257408  0.753739  1
  Sr  Sr2  1  0.954530  0.742592  0.246261  1
  Sr  Sr3  1  0.456946  0.265262  0.246493  1
  Ca  Ca4  1  0.500000  0.000000  0.000000  1
  Dy  Dy5  1  0.000000  0.000000  0.500000  1
  Rh  Rh6  1  0.000000  0.500000  0.000000  1
  Rh  Rh7  1  0.500000  0.500000  0.500000  1
  O  O8  1  0.522198  0.807530  0.271231  1
  O  O9  1  0.023171  0.185108  0.235552  1
  O  O10  1  0.477802  0.192470  0.728769  1
  O  O11  1  0.976829  0.814892  0.764448  1
  O  O12  1  0.773533  0.650625  0.544917  1
  O  O13  1  0.270041  0.356107  0.955915  1
  O  O14  1  0.226467  0.349375  0.455083  1
  O  O15  1  0.729959  0.643893  0.044085  1
  O  O16  1  0.191520  0.731523  0.039413  1
  O  O17  1  0.698619  0.267378  0.459183  1
  O  O18  1  0.808480  0.268477  0.960587  1
  O  O19  1  0.301381  0.732622  0.540817  1
