# generated using pymatgen
data_ErTm7Tc3OsC8
_symmetry_space_group_name_H-M   'P 1'
_cell_length_a   5.02155700
_cell_length_b   6.48430627
_cell_length_c   9.73143912
_cell_angle_alpha   89.78907837
_cell_angle_beta   90.00000000
_cell_angle_gamma   90.00000000
_symmetry_Int_Tables_number   1
_chemical_formula_structural   ErTm7Tc3OsC8
_chemical_formula_sum   'Er1 Tm7 Tc3 Os1 C8'
_cell_volume   316.86629337
_cell_formula_units_Z   1
loop_
 _symmetry_equiv_pos_site_id
 _symmetry_equiv_pos_as_xyz
  1  'x, y, z'
loop_
 _atom_site_type_symbol
 _atom_site_label
 _atom_site_symmetry_multiplicity
 _atom_site_fract_x
 _atom_site_fract_y
 _atom_site_fract_z
 _atom_site_occupancy
  Er  Er0  1  0.250000  0.031848  0.283430  1
  Tm  Tm1  1  0.250000  0.675958  0.557785  1
  Tm  Tm2  1  0.750000  0.323533  0.441834  1
  Tm  Tm3  1  0.750000  0.824295  0.057992  1
  Tm  Tm4  1  0.250000  0.175358  0.942436  1
  Tm  Tm5  1  0.250000  0.532283  0.216879  1
  Tm  Tm6  1  0.750000  0.465842  0.783141  1
  Tm  Tm7  1  0.750000  0.967472  0.714748  1
  Tc  Tc8  1  0.250000  0.716676  0.867729  1
  Tc  Tc9  1  0.750000  0.283670  0.131272  1
  Tc  Tc10  1  0.750000  0.782625  0.368543  1
  Os  Os11  1  0.250000  0.217002  0.632316  1
  C  C12  1  0.250000  0.449881  0.758647  1
  C  C13  1  0.750000  0.550418  0.241316  1
  C  C14  1  0.750000  0.050456  0.259369  1
  C  C15  1  0.250000  0.951058  0.741363  1
  C  C16  1  0.250000  0.824675  0.052232  1
  C  C17  1  0.750000  0.175646  0.946488  1
  C  C18  1  0.750000  0.675056  0.554274  1
  C  C19  1  0.250000  0.326245  0.448205  1
