# generated using pymatgen
data_Th3GaRh3Pb2
_symmetry_space_group_name_H-M   'P 1'
_cell_length_a   7.58732700
_cell_length_b   7.63643411
_cell_length_c   4.09408800
_cell_angle_alpha   90.00000000
_cell_angle_beta   90.00000000
_cell_angle_gamma   119.78750771
_symmetry_Int_Tables_number   1
_chemical_formula_structural   Th3GaRh3Pb2
_chemical_formula_sum   'Th3 Ga1 Rh3 Pb2'
_cell_volume   205.87004330
_cell_formula_units_Z   1
loop_
 _symmetry_equiv_pos_site_id
 _symmetry_equiv_pos_as_xyz
  1  'x, y, z'
loop_
 _atom_site_type_symbol
 _atom_site_label
 _atom_site_symmetry_multiplicity
 _atom_site_fract_x
 _atom_site_fract_y
 _atom_site_fract_z
 _atom_site_occupancy
  Th  Th0  1  0.985119  0.395920  0.500000  1
  Th  Th1  1  0.589198  0.604080  0.500000  1
  Th  Th2  1  0.428898  0.000000  0.500000  1
  Ga  Ga3  1  0.748414  0.000000  0.000000  1
  Rh  Rh4  1  0.353221  0.680445  0.000000  1
  Rh  Rh5  1  0.672777  0.319555  0.000000  1
  Rh  Rh6  1  0.971219  0.000000  0.500000  1
  Pb  Pb7  1  0.999907  0.748660  0.000000  1
  Pb  Pb8  1  0.251247  0.251340  0.000000  1
