# generated using pymatgen
data_TbEr3(Zn5Sn)2
_symmetry_space_group_name_H-M   'P 1'
_cell_length_a   8.33919953
_cell_length_b   8.33920003
_cell_length_c   8.99906573
_cell_angle_alpha   89.93135089
_cell_angle_beta   90.06864934
_cell_angle_gamma   149.77175550
_symmetry_Int_Tables_number   1
_chemical_formula_structural   TbEr3(Zn5Sn)2
_chemical_formula_sum   'Tb1 Er3 Zn10 Sn2'
_cell_volume   315.06393071
_cell_formula_units_Z   1
loop_
 _symmetry_equiv_pos_site_id
 _symmetry_equiv_pos_as_xyz
  1  'x, y, z'
loop_
 _atom_site_type_symbol
 _atom_site_label
 _atom_site_symmetry_multiplicity
 _atom_site_fract_x
 _atom_site_fract_y
 _atom_site_fract_z
 _atom_site_occupancy
  Tb  Tb0  1  0.000000  0.000000  0.500000  1
  Er  Er1  1  0.202848  0.797152  0.249877  1
  Er  Er2  1  0.797152  0.202848  0.750123  1
  Er  Er3  1  0.000000  0.000000  0.000000  1
  Zn  Zn4  1  0.813155  0.186845  0.390935  1
  Zn  Zn5  1  0.186845  0.813155  0.609065  1
  Zn  Zn6  1  0.813305  0.186695  0.109235  1
  Zn  Zn7  1  0.186695  0.813305  0.890765  1
  Zn  Zn8  1  0.656193  0.343807  0.481205  1
  Zn  Zn9  1  0.343807  0.656193  0.518795  1
  Zn  Zn10  1  0.656106  0.343894  0.018707  1
  Zn  Zn11  1  0.343894  0.656106  0.981293  1
  Zn  Zn12  1  0.391772  0.608228  0.250016  1
  Zn  Zn13  1  0.608228  0.391772  0.749984  1
  Sn  Sn14  1  0.553680  0.446320  0.249538  1
  Sn  Sn15  1  0.446320  0.553680  0.750462  1
