# generated using pymatgen
data_UIn(I2Br)2
_symmetry_space_group_name_H-M   'P 1'
_cell_length_a   8.11960306
_cell_length_b   8.26213395
_cell_length_c   8.54052898
_cell_angle_alpha   89.59283800
_cell_angle_beta   118.28054022
_cell_angle_gamma   119.72622864
_symmetry_Int_Tables_number   1
_chemical_formula_structural   UIn(I2Br)2
_chemical_formula_sum   'U1 In1 I4 Br2'
_cell_volume   418.26402065
_cell_formula_units_Z   1
loop_
 _symmetry_equiv_pos_site_id
 _symmetry_equiv_pos_as_xyz
  1  'x, y, z'
loop_
 _atom_site_type_symbol
 _atom_site_label
 _atom_site_symmetry_multiplicity
 _atom_site_fract_x
 _atom_site_fract_y
 _atom_site_fract_z
 _atom_site_occupancy
  U  U0  1  0.588581  0.296055  0.877293  1
  In  In1  1  0.246102  0.624879  0.864592  1
  I  I2  1  0.465034  0.069592  0.116142  1
  I  I3  1  0.131650  0.212122  0.639191  1
  I  I4  1  0.716630  0.509359  0.633083  1
  I  I5  1  0.438127  0.929334  0.644453  1
  Br  Br6  1  0.697032  0.617355  0.086944  1
  Br  Br7  1  0.015843  0.390803  0.086803  1
