# generated using pymatgen
data_Ho5Tm3Ti11Si16Rh
_symmetry_space_group_name_H-M   'P 1'
_cell_length_a   7.01916960
_cell_length_b   7.01942561
_cell_length_c   12.83936884
_cell_angle_alpha   90.09746270
_cell_angle_beta   89.90031082
_cell_angle_gamma   89.78188197
_symmetry_Int_Tables_number   1
_chemical_formula_structural   Ho5Tm3Ti11Si16Rh
_chemical_formula_sum   'Ho5 Tm3 Ti11 Si16 Rh1'
_cell_volume   632.59615820
_cell_formula_units_Z   1
loop_
 _symmetry_equiv_pos_site_id
 _symmetry_equiv_pos_as_xyz
  1  'x, y, z'
loop_
 _atom_site_type_symbol
 _atom_site_label
 _atom_site_symmetry_multiplicity
 _atom_site_fract_x
 _atom_site_fract_y
 _atom_site_fract_z
 _atom_site_occupancy
  Ho  Ho0  1  0.841550  0.496423  0.282161  1
  Ho  Ho1  1  0.158667  0.501126  0.785115  1
  Ho  Ho2  1  0.657032  0.998396  0.968083  1
  Ho  Ho3  1  0.004187  0.340250  0.532672  1
  Ho  Ho4  1  0.998310  0.657173  0.031806  1
  Tm  Tm5  1  0.341059  0.003410  0.467344  1
  Tm  Tm6  1  0.497053  0.842178  0.717745  1
  Tm  Tm7  1  0.500425  0.158160  0.214904  1
  Ti  Ti8  1  0.175893  0.827062  0.248641  1
  Ti  Ti9  1  0.826367  0.175312  0.751339  1
  Ti  Ti10  1  0.673125  0.673946  0.500089  1
  Ti  Ti11  1  0.149613  0.002568  0.875720  1
  Ti  Ti12  1  0.494271  0.655555  0.124972  1
  Ti  Ti13  1  0.506008  0.349879  0.627522  1
  Ti  Ti14  1  0.655372  0.494217  0.874971  1
  Ti  Ti15  1  0.350005  0.506290  0.372355  1
  Ti  Ti16  1  0.849233  0.994470  0.374872  1
  Ti  Ti17  1  0.002842  0.149258  0.124156  1
  Ti  Ti18  1  0.994483  0.849444  0.625094  1
  Si  Si19  1  0.203201  0.132630  0.684775  1
  Si  Si20  1  0.372010  0.703793  0.933327  1
  Si  Si21  1  0.630702  0.294610  0.433475  1
  Si  Si22  1  0.702989  0.371346  0.066711  1
  Si  Si23  1  0.295807  0.632422  0.566559  1
  Si  Si24  1  0.795812  0.868649  0.183756  1
  Si  Si25  1  0.134426  0.201964  0.315183  1
  Si  Si26  1  0.867359  0.796468  0.816066  1
  Si  Si27  1  0.287050  0.950840  0.064177  1
  Si  Si28  1  0.546484  0.793414  0.315752  1
  Si  Si29  1  0.449254  0.209134  0.817190  1
  Si  Si30  1  0.791912  0.547515  0.684359  1
  Si  Si31  1  0.210367  0.448534  0.182593  1
  Si  Si32  1  0.707353  0.047347  0.565578  1
  Si  Si33  1  0.950206  0.286601  0.936065  1
  Si  Si34  1  0.048474  0.708892  0.434526  1
  Rh  Rh35  1  0.331102  0.330725  0.000348  1
