# generated using pymatgen
data_Zr12Mn3Al(Ir2N)4
_symmetry_space_group_name_H-M   'P 1'
_cell_length_a   8.55138465
_cell_length_b   8.55138549
_cell_length_c   8.55138471
_cell_angle_alpha   60.26651756
_cell_angle_beta   60.26651359
_cell_angle_gamma   60.26651431
_symmetry_Int_Tables_number   1
_chemical_formula_structural   Zr12Mn3Al(Ir2N)4
_chemical_formula_sum   'Zr12 Mn3 Al1 Ir8 N4'
_cell_volume   444.84253886
_cell_formula_units_Z   1
loop_
 _symmetry_equiv_pos_site_id
 _symmetry_equiv_pos_as_xyz
  1  'x, y, z'
loop_
 _atom_site_type_symbol
 _atom_site_label
 _atom_site_symmetry_multiplicity
 _atom_site_fract_x
 _atom_site_fract_y
 _atom_site_fract_z
 _atom_site_occupancy
  Zr  Zr0  1  0.808652  0.808652  0.191029  1
  Zr  Zr1  1  0.192237  0.192237  0.807630  1
  Zr  Zr2  1  0.808652  0.191029  0.808652  1
  Zr  Zr3  1  0.192237  0.807630  0.192237  1
  Zr  Zr4  1  0.191029  0.808652  0.808652  1
  Zr  Zr5  1  0.807630  0.192237  0.192237  1
  Zr  Zr6  1  0.441348  0.441348  0.058971  1
  Zr  Zr7  1  0.057763  0.057763  0.442370  1
  Zr  Zr8  1  0.441348  0.058971  0.441348  1
  Zr  Zr9  1  0.057763  0.442370  0.057763  1
  Zr  Zr10  1  0.058971  0.441348  0.441348  1
  Zr  Zr11  1  0.442370  0.057763  0.057763  1
  Mn  Mn12  1  0.125000  0.625000  0.625000  1
  Mn  Mn13  1  0.625000  0.125000  0.625000  1
  Mn  Mn14  1  0.625000  0.625000  0.125000  1
  Al  Al15  1  0.625000  0.625000  0.625000  1
  Ir  Ir16  1  0.748731  0.416793  0.416793  1
  Ir  Ir17  1  0.416793  0.748731  0.416793  1
  Ir  Ir18  1  0.416793  0.416793  0.748731  1
  Ir  Ir19  1  0.417262  0.417262  0.417262  1
  Ir  Ir20  1  0.501269  0.833207  0.833207  1
  Ir  Ir21  1  0.833207  0.501269  0.833207  1
  Ir  Ir22  1  0.833207  0.833207  0.501269  1
  Ir  Ir23  1  0.832738  0.832738  0.832738  1
  N  N24  1  0.625000  0.125000  0.125000  1
  N  N25  1  0.125000  0.625000  0.125000  1
  N  N26  1  0.125000  0.125000  0.625000  1
  N  N27  1  0.125000  0.125000  0.125000  1
