# generated using pymatgen
data_Cs3Rb3(HoBi2)2
_symmetry_space_group_name_H-M   'P 1'
_cell_length_a   10.70378795
_cell_length_b   10.70378958
_cell_length_c   10.59050000
_cell_angle_alpha   129.92048266
_cell_angle_beta   68.57835674
_cell_angle_gamma   136.58802830
_symmetry_Int_Tables_number   1
_chemical_formula_structural   Cs3Rb3(HoBi2)2
_chemical_formula_sum   'Cs3 Rb3 Ho2 Bi4'
_cell_volume   627.68906333
_cell_formula_units_Z   1
loop_
 _symmetry_equiv_pos_site_id
 _symmetry_equiv_pos_as_xyz
  1  'x, y, z'
loop_
 _atom_site_type_symbol
 _atom_site_label
 _atom_site_symmetry_multiplicity
 _atom_site_fract_x
 _atom_site_fract_y
 _atom_site_fract_z
 _atom_site_occupancy
  Cs  Cs0  1  0.185570  0.292314  0.477885  1
  Cs  Cs1  1  0.813939  0.706021  0.519960  1
  Cs  Cs2  1  0.685951  0.210397  0.896350  1
  Rb  Rb3  1  0.249492  0.248789  0.998034  1
  Rb  Rb4  1  0.749245  0.748542  0.998034  1
  Rb  Rb5  1  0.314214  0.803065  0.117277  1
  Ho  Ho6  1  0.750497  0.249123  0.499273  1
  Ho  Ho7  1  0.250150  0.748774  0.499272  1
  Bi  Bi8  1  0.904336  0.301671  0.206007  1
  Bi  Bi9  1  0.594513  0.804945  0.399459  1
  Bi  Bi10  1  0.404124  0.189833  0.593956  1
  Bi  Bi11  1  0.097967  0.696527  0.794493  1
