# generated using pymatgen
data_Er3Cd5Pt
_symmetry_space_group_name_H-M   'P 1'
_cell_length_a   8.05247200
_cell_length_b   8.05247296
_cell_length_c   3.75769800
_cell_angle_alpha   90.00000000
_cell_angle_beta   90.00000000
_cell_angle_gamma   119.99999496
_symmetry_Int_Tables_number   1
_chemical_formula_structural   Er3Cd5Pt
_chemical_formula_sum   'Er3 Cd5 Pt1'
_cell_volume   211.01388133
_cell_formula_units_Z   1
loop_
 _symmetry_equiv_pos_site_id
 _symmetry_equiv_pos_as_xyz
  1  'x, y, z'
loop_
 _atom_site_type_symbol
 _atom_site_label
 _atom_site_symmetry_multiplicity
 _atom_site_fract_x
 _atom_site_fract_y
 _atom_site_fract_z
 _atom_site_occupancy
  Er  Er0  1  0.574638  0.960906  0.000000  1
  Er  Er1  1  0.039094  0.613732  0.000000  1
  Er  Er2  1  0.386268  0.425362  0.000000  1
  Cd  Cd3  1  0.278547  0.009450  0.500000  1
  Cd  Cd4  1  0.990550  0.269097  0.500000  1
  Cd  Cd5  1  0.730903  0.721453  0.500000  1
  Cd  Cd6  1  0.666667  0.333333  0.500000  1
  Cd  Cd7  1  0.000000  0.000000  0.000000  1
  Pt  Pt8  1  0.333333  0.666667  0.500000  1
