# generated using pymatgen
data_La12AlGe11Pd12
_symmetry_space_group_name_H-M   'P 1'
_cell_length_a   4.57067400
_cell_length_b   7.75400908
_cell_length_c   22.51505938
_cell_angle_alpha   89.86969133
_cell_angle_beta   90.00000000
_cell_angle_gamma   90.00000000
_symmetry_Int_Tables_number   1
_chemical_formula_structural   La12AlGe11Pd12
_chemical_formula_sum   'La12 Al1 Ge11 Pd12'
_cell_volume   797.95522916
_cell_formula_units_Z   1
loop_
 _symmetry_equiv_pos_site_id
 _symmetry_equiv_pos_as_xyz
  1  'x, y, z'
loop_
 _atom_site_type_symbol
 _atom_site_label
 _atom_site_symmetry_multiplicity
 _atom_site_fract_x
 _atom_site_fract_y
 _atom_site_fract_z
 _atom_site_occupancy
  La  La0  1  0.250000  0.712295  0.333025  1
  La  La1  1  0.750000  0.289804  0.666536  1
  La  La2  1  0.750000  0.211988  0.166877  1
  La  La3  1  0.250000  0.792173  0.832462  1
  La  La4  1  0.250000  0.792670  0.166675  1
  La  La5  1  0.750000  0.204099  0.831445  1
  La  La6  1  0.750000  0.292767  0.333348  1
  La  La7  1  0.250000  0.703570  0.666431  1
  La  La8  1  0.250000  0.720287  0.004160  1
  La  La9  1  0.750000  0.283034  0.998639  1
  La  La10  1  0.750000  0.215430  0.497124  1
  La  La11  1  0.250000  0.782362  0.502304  1
  Al  Al12  1  0.250000  0.414488  0.895856  1
  Ge  Ge13  1  0.250000  0.090678  0.071294  1
  Ge  Ge14  1  0.750000  0.912731  0.928692  1
  Ge  Ge15  1  0.750000  0.589300  0.428945  1
  Ge  Ge16  1  0.250000  0.409445  0.568896  1
  Ge  Ge17  1  0.250000  0.085362  0.270400  1
  Ge  Ge18  1  0.750000  0.913028  0.728015  1
  Ge  Ge19  1  0.750000  0.585587  0.229628  1
  Ge  Ge20  1  0.250000  0.412972  0.770875  1
  Ge  Ge21  1  0.250000  0.084845  0.395901  1
  Ge  Ge22  1  0.750000  0.915077  0.603953  1
  Ge  Ge23  1  0.750000  0.585336  0.105344  1
  Pd  Pd24  1  0.250000  0.419332  0.238779  1
  Pd  Pd25  1  0.750000  0.581522  0.761782  1
  Pd  Pd26  1  0.750000  0.919652  0.261612  1
  Pd  Pd27  1  0.250000  0.077266  0.736907  1
  Pd  Pd28  1  0.250000  0.416622  0.434104  1
  Pd  Pd29  1  0.750000  0.582399  0.566059  1
  Pd  Pd30  1  0.750000  0.916147  0.068219  1
  Pd  Pd31  1  0.250000  0.085188  0.934000  1
  Pd  Pd32  1  0.250000  0.421767  0.093575  1
  Pd  Pd33  1  0.750000  0.581387  0.908233  1
  Pd  Pd34  1  0.750000  0.920398  0.406822  1
  Pd  Pd35  1  0.250000  0.078994  0.593080  1
