# generated using pymatgen
data_Hf2Pa(Co3B2)3
_symmetry_space_group_name_H-M   'P 1'
_cell_length_a   5.74303699
_cell_length_b   5.74303680
_cell_length_c   5.74303628
_cell_angle_alpha   94.17659342
_cell_angle_beta   94.17659091
_cell_angle_gamma   94.17659205
_symmetry_Int_Tables_number   1
_chemical_formula_structural   Hf2Pa(Co3B2)3
_chemical_formula_sum   'Hf2 Pa1 Co9 B6'
_cell_volume   187.83260194
_cell_formula_units_Z   1
loop_
 _symmetry_equiv_pos_site_id
 _symmetry_equiv_pos_as_xyz
  1  'x, y, z'
loop_
 _atom_site_type_symbol
 _atom_site_label
 _atom_site_symmetry_multiplicity
 _atom_site_fract_x
 _atom_site_fract_y
 _atom_site_fract_z
 _atom_site_occupancy
  Hf  Hf0  1  0.667088  0.667088  0.667088  1
  Hf  Hf1  1  0.332912  0.332912  0.332912  1
  Pa  Pa2  1  0.000000  0.000000  0.000000  1
  Co  Co3  1  0.500000  0.000000  0.000000  1
  Co  Co4  1  0.000000  0.500000  0.000000  1
  Co  Co5  1  0.000000  0.000000  0.500000  1
  Co  Co6  1  0.691135  0.198626  0.691135  1
  Co  Co7  1  0.691135  0.691135  0.198626  1
  Co  Co8  1  0.198626  0.691135  0.691135  1
  Co  Co9  1  0.308865  0.801374  0.308865  1
  Co  Co10  1  0.308865  0.308865  0.801374  1
  Co  Co11  1  0.801374  0.308865  0.308865  1
  B  B12  1  0.376718  0.000000  0.623282  1
  B  B13  1  0.623282  0.376718  0.000000  1
  B  B14  1  0.000000  0.623282  0.376718  1
  B  B15  1  0.623282  0.000000  0.376718  1
  B  B16  1  0.376718  0.623282  0.000000  1
  B  B17  1  0.000000  0.376718  0.623282  1
