# generated using pymatgen
data_Li3LaNdEuPt3
_symmetry_space_group_name_H-M   'P 1'
_cell_length_a   7.41228045
_cell_length_b   7.40436587
_cell_length_c   4.19073100
_cell_angle_alpha   90.00000000
_cell_angle_beta   90.00000000
_cell_angle_gamma   120.12864729
_symmetry_Int_Tables_number   1
_chemical_formula_structural   Li3LaNdEuPt3
_chemical_formula_sum   'Li3 La1 Nd1 Eu1 Pt3'
_cell_volume   198.92789059
_cell_formula_units_Z   1
loop_
 _symmetry_equiv_pos_site_id
 _symmetry_equiv_pos_as_xyz
  1  'x, y, z'
loop_
 _atom_site_type_symbol
 _atom_site_label
 _atom_site_symmetry_multiplicity
 _atom_site_fract_x
 _atom_site_fract_y
 _atom_site_fract_z
 _atom_site_occupancy
  Li  Li0  1  0.770085  0.764602  0.500000  1
  Li  Li1  1  0.225059  0.999039  0.500000  1
  Li  Li2  1  0.005503  0.233981  0.500000  1
  La  La3  1  0.592077  0.999957  0.000000  1
  Nd  Nd4  1  0.999925  0.591422  0.000000  1
  Eu  Eu5  1  0.412297  0.412659  0.000000  1
  Pt  Pt6  1  0.992009  0.991948  0.000000  1
  Pt  Pt7  1  0.674095  0.330714  0.500000  1
  Pt  Pt8  1  0.328949  0.675674  0.500000  1
