# generated using pymatgen
data_TbY3Al18Ir5Pd
_symmetry_space_group_name_H-M   'P 1'
_cell_length_a   7.58054199
_cell_length_b   7.58031295
_cell_length_c   9.49087200
_cell_angle_alpha   89.96797217
_cell_angle_beta   89.97090044
_cell_angle_gamma   119.60699032
_symmetry_Int_Tables_number   1
_chemical_formula_structural   TbY3Al18Ir5Pd
_chemical_formula_sum   'Tb1 Y3 Al18 Ir5 Pd1'
_cell_volume   474.16578672
_cell_formula_units_Z   1
loop_
 _symmetry_equiv_pos_site_id
 _symmetry_equiv_pos_as_xyz
  1  'x, y, z'
loop_
 _atom_site_type_symbol
 _atom_site_label
 _atom_site_symmetry_multiplicity
 _atom_site_fract_x
 _atom_site_fract_y
 _atom_site_fract_z
 _atom_site_occupancy
  Tb  Tb0  1  0.329376  0.004869  0.749149  1
  Y  Y1  1  0.995090  0.670611  0.250866  1
  Y  Y2  1  0.004848  0.329557  0.749191  1
  Y  Y3  1  0.670438  0.995115  0.250816  1
  Al  Al4  1  0.128517  0.127742  0.250466  1
  Al  Al5  1  0.872239  0.871478  0.749533  1
  Al  Al6  1  0.004618  0.335260  0.076049  1
  Al  Al7  1  0.002037  0.668585  0.924290  1
  Al  Al8  1  0.999500  0.664903  0.573711  1
  Al  Al9  1  0.335045  0.000468  0.426250  1
  Al  Al10  1  0.000604  0.334610  0.425488  1
  Al  Al11  1  0.665443  0.999402  0.574516  1
  Al  Al12  1  0.664801  0.995399  0.923934  1
  Al  Al13  1  0.331356  0.997932  0.075745  1
  Al  Al14  1  0.333239  0.333196  0.551066  1
  Al  Al15  1  0.666840  0.666756  0.448905  1
  Al  Al16  1  0.666239  0.669349  0.054611  1
  Al  Al17  1  0.330649  0.333796  0.945412  1
  Al  Al18  1  0.340055  0.548447  0.250365  1
  Al  Al19  1  0.660094  0.453161  0.747558  1
  Al  Al20  1  0.546858  0.339917  0.252443  1
  Al  Al21  1  0.451532  0.659928  0.749634  1
  Ir  Ir22  1  0.328286  0.671733  0.000005  1
  Ir  Ir23  1  0.328399  0.671613  0.499995  1
  Ir  Ir24  1  0.671850  0.328213  0.499992  1
  Ir  Ir25  1  0.999696  0.000265  0.000013  1
  Ir  Ir26  1  0.000122  0.999852  0.499987  1
  Pd  Pd27  1  0.672232  0.327845  0.000009  1
