# generated using pymatgen
data_Tb20Ir4RuAu7
_symmetry_space_group_name_H-M   'P 1'
_cell_length_a   11.36165196
_cell_length_b   11.34049062
_cell_length_c   6.33612231
_cell_angle_alpha   89.80058528
_cell_angle_beta   89.78777090
_cell_angle_gamma   90.36957456
_symmetry_Int_Tables_number   1
_chemical_formula_structural   Tb20Ir4RuAu7
_chemical_formula_sum   'Tb20 Ir4 Ru1 Au7'
_cell_volume   816.36090165
_cell_formula_units_Z   1
loop_
 _symmetry_equiv_pos_site_id
 _symmetry_equiv_pos_as_xyz
  1  'x, y, z'
loop_
 _atom_site_type_symbol
 _atom_site_label
 _atom_site_symmetry_multiplicity
 _atom_site_fract_x
 _atom_site_fract_y
 _atom_site_fract_z
 _atom_site_occupancy
  Tb  Tb0  1  0.299922  0.079364  0.353737  1
  Tb  Tb1  1  0.299949  0.905106  0.856944  1
  Tb  Tb2  1  0.697918  0.082820  0.852563  1
  Tb  Tb3  1  0.697260  0.915684  0.349550  1
  Tb  Tb4  1  0.576675  0.794107  0.853932  1
  Tb  Tb5  1  0.582437  0.201111  0.352539  1
  Tb  Tb6  1  0.410987  0.791977  0.366346  1
  Tb  Tb7  1  0.414509  0.195746  0.855283  1
  Tb  Tb8  1  0.208226  0.423998  0.646421  1
  Tb  Tb9  1  0.209231  0.589791  0.131251  1
  Tb  Tb10  1  0.797039  0.416448  0.145535  1
  Tb  Tb11  1  0.801658  0.585189  0.646336  1
  Tb  Tb12  1  0.920345  0.700928  0.145142  1
  Tb  Tb13  1  0.916560  0.299892  0.649534  1
  Tb  Tb14  1  0.096048  0.701616  0.642862  1
  Tb  Tb15  1  0.084903  0.301978  0.149761  1
  Tb  Tb16  1  0.998403  0.000398  0.500501  1
  Tb  Tb17  1  0.999224  0.002097  0.997347  1
  Tb  Tb18  1  0.494172  0.502932  0.998231  1
  Tb  Tb19  1  0.497605  0.505878  0.498885  1
  Ir  Ir20  1  0.348510  0.651421  0.749415  1
  Ir  Ir21  1  0.498647  0.999181  0.602590  1
  Ir  Ir22  1  0.000339  0.501286  0.900658  1
  Ir  Ir23  1  0.001016  0.500883  0.399664  1
  Ru  Ru24  1  0.499061  0.998572  0.106446  1
  Au  Au25  1  0.844116  0.155881  0.250318  1
  Au  Au26  1  0.840743  0.845405  0.751443  1
  Au  Au27  1  0.155127  0.159126  0.748581  1
  Au  Au28  1  0.154006  0.846675  0.249666  1
  Au  Au29  1  0.652785  0.346570  0.749448  1
  Au  Au30  1  0.658535  0.655797  0.247218  1
  Au  Au31  1  0.344046  0.342142  0.251851  1
