# generated using pymatgen
data_HoEr(Tm2Rh)6
_symmetry_space_group_name_H-M   'P 1'
_cell_length_a   9.67395479
_cell_length_b   9.68038633
_cell_length_c   6.11517807
_cell_angle_alpha   89.99999821
_cell_angle_beta   90.01472712
_cell_angle_gamma   120.02200228
_symmetry_Int_Tables_number   1
_chemical_formula_structural   HoEr(Tm2Rh)6
_chemical_formula_sum   'Ho1 Er1 Tm12 Rh6'
_cell_volume   495.83837285
_cell_formula_units_Z   1
loop_
 _symmetry_equiv_pos_site_id
 _symmetry_equiv_pos_as_xyz
  1  'x, y, z'
loop_
 _atom_site_type_symbol
 _atom_site_label
 _atom_site_symmetry_multiplicity
 _atom_site_fract_x
 _atom_site_fract_y
 _atom_site_fract_z
 _atom_site_occupancy
  Ho  Ho0  1  0.752928  0.876464  0.994261  1
  Er  Er1  1  0.333058  0.666529  0.788930  1
  Tm  Tm2  1  0.876263  0.124075  0.493492  1
  Tm  Tm3  1  0.541265  0.458402  0.796426  1
  Tm  Tm4  1  0.082235  0.541117  0.296189  1
  Tm  Tm5  1  0.458635  0.917743  0.296692  1
  Tm  Tm6  1  0.541265  0.082863  0.796426  1
  Tm  Tm7  1  0.917258  0.458629  0.795814  1
  Tm  Tm8  1  0.458635  0.540891  0.296692  1
  Tm  Tm9  1  0.124033  0.247697  0.993648  1
  Tm  Tm10  1  0.876263  0.752188  0.493492  1
  Tm  Tm11  1  0.247564  0.123782  0.493472  1
  Tm  Tm12  1  0.124033  0.876338  0.993648  1
  Tm  Tm13  1  0.666557  0.333278  0.288226  1
  Rh  Rh14  1  0.189359  0.810516  0.560938  1
  Rh  Rh15  1  0.379530  0.189765  0.061494  1
  Rh  Rh16  1  0.810562  0.619910  0.061599  1
  Rh  Rh17  1  0.189359  0.378845  0.560938  1
  Rh  Rh18  1  0.620632  0.810317  0.560022  1
  Rh  Rh19  1  0.810562  0.190653  0.061599  1
