# generated using pymatgen
data_Y3TmNi4(SnH)4
_symmetry_space_group_name_H-M   'P 1'
_cell_length_a   4.24320600
_cell_length_b   7.08235338
_cell_length_c   8.28457642
_cell_angle_alpha   90.03694693
_cell_angle_beta   90.00000000
_cell_angle_gamma   90.00000000
_symmetry_Int_Tables_number   1
_chemical_formula_structural   Y3TmNi4(SnH)4
_chemical_formula_sum   'Y3 Tm1 Ni4 Sn4 H4'
_cell_volume   248.96708065
_cell_formula_units_Z   1
loop_
 _symmetry_equiv_pos_site_id
 _symmetry_equiv_pos_as_xyz
  1  'x, y, z'
loop_
 _atom_site_type_symbol
 _atom_site_label
 _atom_site_symmetry_multiplicity
 _atom_site_fract_x
 _atom_site_fract_y
 _atom_site_fract_z
 _atom_site_occupancy
  Y  Y0  1  0.750000  0.515606  0.813279  1
  Y  Y1  1  0.250000  0.484140  0.185989  1
  Y  Y2  1  0.250000  0.984108  0.313427  1
  Tm  Tm3  1  0.750000  0.015732  0.684834  1
  Ni  Ni4  1  0.750000  0.273880  0.394631  1
  Ni  Ni5  1  0.250000  0.728955  0.608638  1
  Ni  Ni6  1  0.250000  0.223382  0.889830  1
  Ni  Ni7  1  0.750000  0.774543  0.108151  1
  Sn  Sn8  1  0.750000  0.155945  0.069895  1
  Sn  Sn9  1  0.250000  0.843717  0.927211  1
  Sn  Sn10  1  0.250000  0.342974  0.571767  1
  Sn  Sn11  1  0.750000  0.656689  0.429637  1
  H  H12  1  0.250000  0.951595  0.579860  1
  H  H13  1  0.750000  0.050994  0.423550  1
  H  H14  1  0.750000  0.551267  0.078582  1
  H  H15  1  0.250000  0.446474  0.920720  1
