# generated using pymatgen
data_PrEr2Lu17Sb12
_symmetry_space_group_name_H-M   'P 1'
_cell_length_a   8.05435325
_cell_length_b   9.12243300
_cell_length_c   11.67944400
_cell_angle_alpha   90.00000000
_cell_angle_beta   90.14904518
_cell_angle_gamma   90.00000000
_symmetry_Int_Tables_number   1
_chemical_formula_structural   PrEr2Lu17Sb12
_chemical_formula_sum   'Pr1 Er2 Lu17 Sb12'
_cell_volume   858.14772364
_cell_formula_units_Z   1
loop_
 _symmetry_equiv_pos_site_id
 _symmetry_equiv_pos_as_xyz
  1  'x, y, z'
loop_
 _atom_site_type_symbol
 _atom_site_label
 _atom_site_symmetry_multiplicity
 _atom_site_fract_x
 _atom_site_fract_y
 _atom_site_fract_z
 _atom_site_occupancy
  Pr  Pr0  1  0.824755  0.750000  0.771905  1
  Er  Er1  1  0.657584  0.250000  0.291103  1
  Er  Er2  1  0.175096  0.250000  0.228211  1
  Lu  Lu3  1  0.676030  0.750000  0.271059  1
  Lu  Lu4  1  0.308856  0.561071  0.433391  1
  Lu  Lu5  1  0.841325  0.250000  0.790273  1
  Lu  Lu6  1  0.189768  0.937787  0.933997  1
  Lu  Lu7  1  0.308856  0.938929  0.433391  1
  Lu  Lu8  1  0.691354  0.437929  0.565861  1
  Lu  Lu9  1  0.808891  0.438284  0.065214  1
  Lu  Lu10  1  0.975942  0.750000  0.494659  1
  Lu  Lu11  1  0.160483  0.750000  0.210733  1
  Lu  Lu12  1  0.323888  0.250000  0.728070  1
  Lu  Lu13  1  0.473669  0.250000  0.005341  1
  Lu  Lu14  1  0.808891  0.061716  0.065214  1
  Lu  Lu15  1  0.189768  0.562213  0.933997  1
  Lu  Lu16  1  0.025520  0.250000  0.504306  1
  Lu  Lu17  1  0.339722  0.750000  0.708344  1
  Lu  Lu18  1  0.691354  0.062071  0.565861  1
  Lu  Lu19  1  0.524812  0.750000  0.995308  1
  Sb  Sb20  1  0.097249  0.250000  0.973492  1
  Sb  Sb21  1  0.935682  0.491493  0.326332  1
  Sb  Sb22  1  0.436591  0.989870  0.174248  1
  Sb  Sb23  1  0.070872  0.994627  0.671855  1
  Sb  Sb24  1  0.436591  0.510130  0.174248  1
  Sb  Sb25  1  0.596007  0.750000  0.523678  1
  Sb  Sb26  1  0.402349  0.250000  0.475884  1
  Sb  Sb27  1  0.558926  0.487455  0.826424  1
  Sb  Sb28  1  0.070872  0.505373  0.671855  1
  Sb  Sb29  1  0.903684  0.750000  0.032993  1
  Sb  Sb30  1  0.558926  0.012545  0.826424  1
  Sb  Sb31  1  0.935682  0.008507  0.326332  1
