# generated using pymatgen
data_Tb3Ho7(SiPb3)2
_symmetry_space_group_name_H-M   'P 1'
_cell_length_a   9.31667511
_cell_length_b   9.32058250
_cell_length_c   6.52871600
_cell_angle_alpha   90.00000000
_cell_angle_beta   90.00000000
_cell_angle_gamma   119.96854201
_symmetry_Int_Tables_number   1
_chemical_formula_structural   Tb3Ho7(SiPb3)2
_chemical_formula_sum   'Tb3 Ho7 Si2 Pb6'
_cell_volume   491.13399407
_cell_formula_units_Z   1
loop_
 _symmetry_equiv_pos_site_id
 _symmetry_equiv_pos_as_xyz
  1  'x, y, z'
loop_
 _atom_site_type_symbol
 _atom_site_label
 _atom_site_symmetry_multiplicity
 _atom_site_fract_x
 _atom_site_fract_y
 _atom_site_fract_z
 _atom_site_occupancy
  Tb  Tb0  1  0.000249  0.751007  0.750000  1
  Tb  Tb1  1  0.750757  0.750892  0.250000  1
  Tb  Tb2  1  0.249256  0.249189  0.750000  1
  Ho  Ho3  1  0.248583  0.000005  0.250000  1
  Ho  Ho4  1  0.751743  0.000208  0.750000  1
  Ho  Ho5  1  0.999879  0.248527  0.250000  1
  Ho  Ho6  1  0.333312  0.666692  0.999960  1
  Ho  Ho7  1  0.666661  0.333117  0.999976  1
  Ho  Ho8  1  0.666661  0.333117  0.500024  1
  Ho  Ho9  1  0.333312  0.666692  0.500040  1
  Si  Si10  1  0.999958  0.000465  0.000569  1
  Si  Si11  1  0.999958  0.000465  0.499431  1
  Pb  Pb12  1  0.606300  0.000528  0.250000  1
  Pb  Pb13  1  0.394443  0.000090  0.750000  1
  Pb  Pb14  1  0.000432  0.606268  0.250000  1
  Pb  Pb15  1  0.999539  0.393160  0.750000  1
  Pb  Pb16  1  0.392829  0.392899  0.250000  1
  Pb  Pb17  1  0.606128  0.606677  0.750000  1
