# generated using pymatgen
data_Ho4Hf3AlRh4
_symmetry_space_group_name_H-M   'P 1'
_cell_length_a   4.46143200
_cell_length_b   7.04098929
_cell_length_c   8.16299296
_cell_angle_alpha   86.48862322
_cell_angle_beta   90.00000000
_cell_angle_gamma   90.00000000
_symmetry_Int_Tables_number   1
_chemical_formula_structural   Ho4Hf3AlRh4
_chemical_formula_sum   'Ho4 Hf3 Al1 Rh4'
_cell_volume   255.94184576
_cell_formula_units_Z   1
loop_
 _symmetry_equiv_pos_site_id
 _symmetry_equiv_pos_as_xyz
  1  'x, y, z'
loop_
 _atom_site_type_symbol
 _atom_site_label
 _atom_site_symmetry_multiplicity
 _atom_site_fract_x
 _atom_site_fract_y
 _atom_site_fract_z
 _atom_site_occupancy
  Ho  Ho0  1  0.250000  0.511074  0.162937  1
  Ho  Ho1  1  0.750000  0.459931  0.833059  1
  Ho  Ho2  1  0.750000  0.980841  0.685126  1
  Ho  Ho3  1  0.250000  0.033449  0.314388  1
  Hf  Hf4  1  0.250000  0.637490  0.572567  1
  Hf  Hf5  1  0.750000  0.369161  0.428020  1
  Hf  Hf6  1  0.750000  0.860543  0.063552  1
  Al  Al7  1  0.250000  0.139683  0.932057  1
  Rh  Rh8  1  0.250000  0.772155  0.885922  1
  Rh  Rh9  1  0.750000  0.226527  0.119240  1
  Rh  Rh10  1  0.750000  0.742295  0.399922  1
  Rh  Rh11  1  0.250000  0.266849  0.603209  1
