# generated using pymatgen
data_Y6Tm9Th(CdNi)4
_symmetry_space_group_name_H-M   'P 1'
_cell_length_a   9.48757146
_cell_length_b   9.48757037
_cell_length_c   9.48757098
_cell_angle_alpha   60.21876673
_cell_angle_beta   60.21876477
_cell_angle_gamma   60.21876926
_symmetry_Int_Tables_number   1
_chemical_formula_structural   Y6Tm9Th(CdNi)4
_chemical_formula_sum   'Y6 Tm9 Th1 Cd4 Ni4'
_cell_volume   606.87033297
_cell_formula_units_Z   1
loop_
 _symmetry_equiv_pos_site_id
 _symmetry_equiv_pos_as_xyz
  1  'x, y, z'
loop_
 _atom_site_type_symbol
 _atom_site_label
 _atom_site_symmetry_multiplicity
 _atom_site_fract_x
 _atom_site_fract_y
 _atom_site_fract_z
 _atom_site_occupancy
  Y  Y0  1  0.188075  0.813985  0.813985  1
  Y  Y1  1  0.811831  0.188552  0.188552  1
  Y  Y2  1  0.813985  0.188075  0.813985  1
  Y  Y3  1  0.188552  0.811831  0.188552  1
  Y  Y4  1  0.813985  0.813985  0.188075  1
  Y  Y5  1  0.188552  0.188552  0.811831  1
  Tm  Tm6  1  0.598760  0.598760  0.200299  1
  Tm  Tm7  1  0.598760  0.200299  0.598760  1
  Tm  Tm8  1  0.200299  0.598760  0.598760  1
  Tm  Tm9  1  0.064486  0.437600  0.437600  1
  Tm  Tm10  1  0.438415  0.064059  0.064059  1
  Tm  Tm11  1  0.437600  0.064486  0.437600  1
  Tm  Tm12  1  0.064059  0.438415  0.064059  1
  Tm  Tm13  1  0.437600  0.437600  0.064486  1
  Tm  Tm14  1  0.064059  0.064059  0.438415  1
  Th  Th15  1  0.594000  0.594000  0.594000  1
  Cd  Cd16  1  0.830390  0.830390  0.830390  1
  Cd  Cd17  1  0.831818  0.831818  0.506509  1
  Cd  Cd18  1  0.831818  0.506509  0.831818  1
  Cd  Cd19  1  0.506509  0.831818  0.831818  1
  Ni  Ni20  1  0.393407  0.393407  0.393407  1
  Ni  Ni21  1  0.390477  0.390477  0.822086  1
  Ni  Ni22  1  0.390477  0.822086  0.390477  1
  Ni  Ni23  1  0.822086  0.390477  0.390477  1
