# generated using pymatgen
data_Tm2UFe2Si4Ge3
_symmetry_space_group_name_H-M   'P 1'
_cell_length_a   12.30981386
_cell_length_b   12.30981591
_cell_length_c   4.05347000
_cell_angle_alpha   90.00000000
_cell_angle_beta   90.00000000
_cell_angle_gamma   160.66540954
_symmetry_Int_Tables_number   1
_chemical_formula_structural   Tm2UFe2Si4Ge3
_chemical_formula_sum   'Tm2 U1 Fe2 Si4 Ge3'
_cell_volume   203.36132380
_cell_formula_units_Z   1
loop_
 _symmetry_equiv_pos_site_id
 _symmetry_equiv_pos_as_xyz
  1  'x, y, z'
loop_
 _atom_site_type_symbol
 _atom_site_label
 _atom_site_symmetry_multiplicity
 _atom_site_fract_x
 _atom_site_fract_y
 _atom_site_fract_z
 _atom_site_occupancy
  Tm  Tm0  1  0.316603  0.683397  0.000000  1
  Tm  Tm1  1  0.683397  0.316603  0.000000  1
  U  U2  1  0.000000  0.000000  0.500000  1
  Fe  Fe3  1  0.124019  0.875981  0.500000  1
  Fe  Fe4  1  0.875981  0.124019  0.500000  1
  Si  Si5  1  0.086367  0.913633  0.000000  1
  Si  Si6  1  0.913633  0.086367  0.000000  1
  Si  Si7  1  0.412959  0.587041  0.500000  1
  Si  Si8  1  0.587041  0.412959  0.500000  1
  Ge  Ge9  1  0.220072  0.779928  0.500000  1
  Ge  Ge10  1  0.779928  0.220072  0.500000  1
  Ge  Ge11  1  0.500000  0.500000  0.000000  1
