# generated using pymatgen
data_CaAcB4(IrRu)2
_symmetry_space_group_name_H-M   'P 1'
_cell_length_a   7.01786505
_cell_length_b   6.11800420
_cell_length_c   5.65209669
_cell_angle_alpha   73.08177945
_cell_angle_beta   56.51664237
_cell_angle_gamma   50.25980696
_symmetry_Int_Tables_number   1
_chemical_formula_structural   CaAcB4(IrRu)2
_chemical_formula_sum   'Ca1 Ac1 B4 Ir2 Ru2'
_cell_volume   154.91532057
_cell_formula_units_Z   1
loop_
 _symmetry_equiv_pos_site_id
 _symmetry_equiv_pos_as_xyz
  1  'x, y, z'
loop_
 _atom_site_type_symbol
 _atom_site_label
 _atom_site_symmetry_multiplicity
 _atom_site_fract_x
 _atom_site_fract_y
 _atom_site_fract_z
 _atom_site_occupancy
  Ca  Ca0  1  0.248744  0.248744  0.251256  1
  Ac  Ac1  1  0.999258  0.999258  0.000742  1
  B  B2  1  0.328509  0.670448  0.323457  1
  B  B3  1  0.574368  0.928207  0.566467  1
  B  B4  1  0.670448  0.328509  0.677587  1
  B  B5  1  0.928207  0.574368  0.930958  1
  Ir  Ir6  1  0.618577  0.618577  0.881423  1
  Ir  Ir7  1  0.364294  0.364294  0.635706  1
  Ru  Ru8  1  0.634720  0.634720  0.365280  1
  Ru  Ru9  1  0.882875  0.882875  0.617125  1
