# generated using pymatgen
data_LiTb18NdIr12
_symmetry_space_group_name_H-M   'P 1'
_cell_length_a   10.93178363
_cell_length_b   10.92834216
_cell_length_c   6.34173688
_cell_angle_alpha   89.93261019
_cell_angle_beta   90.05705515
_cell_angle_gamma   90.02568176
_symmetry_Int_Tables_number   1
_chemical_formula_structural   LiTb18NdIr12
_chemical_formula_sum   'Li1 Tb18 Nd1 Ir12'
_cell_volume   757.62268765
_cell_formula_units_Z   1
loop_
 _symmetry_equiv_pos_site_id
 _symmetry_equiv_pos_as_xyz
  1  'x, y, z'
loop_
 _atom_site_type_symbol
 _atom_site_label
 _atom_site_symmetry_multiplicity
 _atom_site_fract_x
 _atom_site_fract_y
 _atom_site_fract_z
 _atom_site_occupancy
  Li  Li0  1  0.999059  0.999724  0.500390  1
  Tb  Tb1  1  0.291989  0.910608  0.881326  1
  Tb  Tb2  1  0.708436  0.088589  0.881237  1
  Tb  Tb3  1  0.720643  0.916859  0.381740  1
  Tb  Tb4  1  0.590461  0.791987  0.880890  1
  Tb  Tb5  1  0.587731  0.207905  0.379062  1
  Tb  Tb6  1  0.413878  0.791425  0.379124  1
  Tb  Tb7  1  0.410565  0.208324  0.880838  1
  Tb  Tb8  1  0.207655  0.413838  0.621259  1
  Tb  Tb9  1  0.207793  0.590121  0.118930  1
  Tb  Tb10  1  0.792160  0.409801  0.119008  1
  Tb  Tb11  1  0.792323  0.586685  0.620895  1
  Tb  Tb12  1  0.911681  0.708259  0.118683  1
  Tb  Tb13  1  0.916697  0.279694  0.618046  1
  Tb  Tb14  1  0.082995  0.720199  0.618550  1
  Tb  Tb15  1  0.087399  0.292787  0.118097  1
  Tb  Tb16  1  0.999512  0.999844  0.999495  1
  Tb  Tb17  1  0.499961  0.500130  0.999859  1
  Tb  Tb18  1  0.500207  0.500117  0.500396  1
  Nd  Nd19  1  0.276663  0.083944  0.379285  1
  Ir  Ir20  1  0.845236  0.156055  0.243646  1
  Ir  Ir21  1  0.844117  0.844905  0.756571  1
  Ir  Ir22  1  0.154814  0.155527  0.761829  1
  Ir  Ir23  1  0.153878  0.841723  0.241870  1
  Ir  Ir24  1  0.654275  0.345901  0.747658  1
  Ir  Ir25  1  0.654002  0.654348  0.252589  1
  Ir  Ir26  1  0.346513  0.347977  0.251480  1
  Ir  Ir27  1  0.345716  0.654193  0.747310  1
  Ir  Ir28  1  0.501682  0.999197  0.123547  1
  Ir  Ir29  1  0.502121  0.999218  0.619743  1
  Ir  Ir30  1  0.999886  0.499968  0.874429  1
  Ir  Ir31  1  0.999950  0.500152  0.382221  1
