# generated using pymatgen
data_Tb(S8Br)3
_symmetry_space_group_name_H-M   'P 1'
_cell_length_a   15.62698463
_cell_length_b   15.62698313
_cell_length_c   15.62698513
_cell_angle_alpha   119.23161224
_cell_angle_beta   119.23161368
_cell_angle_gamma   119.23160562
_symmetry_Int_Tables_number   1
_chemical_formula_structural   Tb(S8Br)3
_chemical_formula_sum   'Tb1 S24 Br3'
_cell_volume   867.30185508
_cell_formula_units_Z   1
loop_
 _symmetry_equiv_pos_site_id
 _symmetry_equiv_pos_as_xyz
  1  'x, y, z'
loop_
 _atom_site_type_symbol
 _atom_site_label
 _atom_site_symmetry_multiplicity
 _atom_site_fract_x
 _atom_site_fract_y
 _atom_site_fract_z
 _atom_site_occupancy
  Tb  Tb0  1  0.433400  0.433400  0.433400  1
  S  S1  1  0.013364  0.599450  0.599450  1
  S  S2  1  0.599450  0.599450  0.013364  1
  S  S3  1  0.599450  0.013364  0.599450  1
  S  S4  1  0.266949  0.865753  0.741024  1
  S  S5  1  0.865753  0.741024  0.266949  1
  S  S6  1  0.741024  0.266949  0.865753  1
  S  S7  1  0.865753  0.266949  0.741024  1
  S  S8  1  0.266949  0.741024  0.865753  1
  S  S9  1  0.741024  0.865753  0.266949  1
  S  S10  1  0.085105  0.602917  0.427931  1
  S  S11  1  0.602917  0.427931  0.085105  1
  S  S12  1  0.427931  0.085105  0.602917  1
  S  S13  1  0.602917  0.085105  0.427931  1
  S  S14  1  0.085105  0.427931  0.602917  1
  S  S15  1  0.427931  0.602917  0.085105  1
  S  S16  1  0.378893  0.761000  0.635020  1
  S  S17  1  0.761000  0.635020  0.378893  1
  S  S18  1  0.635020  0.378893  0.761000  1
  S  S19  1  0.761000  0.378893  0.635020  1
  S  S20  1  0.378893  0.635020  0.761000  1
  S  S21  1  0.635020  0.761000  0.378893  1
  S  S22  1  0.174155  0.449464  0.449464  1
  S  S23  1  0.449464  0.449464  0.174155  1
  S  S24  1  0.449464  0.174155  0.449464  1
  Br  Br25  1  0.021608  0.888782  0.888782  1
  Br  Br26  1  0.888782  0.888782  0.021608  1
  Br  Br27  1  0.888782  0.021608  0.888782  1
