# generated using pymatgen
data_Tb4GaRu7
_symmetry_space_group_name_H-M   'P 1'
_cell_length_a   5.37655000
_cell_length_b   5.37655010
_cell_length_c   8.67058900
_cell_angle_alpha   90.00000000
_cell_angle_beta   90.00000000
_cell_angle_gamma   119.99999939
_symmetry_Int_Tables_number   1
_chemical_formula_structural   Tb4GaRu7
_chemical_formula_sum   'Tb4 Ga1 Ru7'
_cell_volume   217.06340971
_cell_formula_units_Z   1
loop_
 _symmetry_equiv_pos_site_id
 _symmetry_equiv_pos_as_xyz
  1  'x, y, z'
loop_
 _atom_site_type_symbol
 _atom_site_label
 _atom_site_symmetry_multiplicity
 _atom_site_fract_x
 _atom_site_fract_y
 _atom_site_fract_z
 _atom_site_occupancy
  Tb  Tb0  1  0.666667  0.333333  0.070413  1
  Tb  Tb1  1  0.666667  0.333333  0.434863  1
  Tb  Tb2  1  0.333333  0.666667  0.565138  1
  Tb  Tb3  1  0.333333  0.666667  0.929587  1
  Ga  Ga4  1  0.000000  0.000000  0.000000  1
  Ru  Ru5  1  0.171233  0.342465  0.249293  1
  Ru  Ru6  1  0.171232  0.828766  0.249293  1
  Ru  Ru7  1  0.657535  0.828766  0.249293  1
  Ru  Ru8  1  0.000000  0.000000  0.500000  1
  Ru  Ru9  1  0.342464  0.171232  0.750706  1
  Ru  Ru10  1  0.828767  0.171232  0.750706  1
  Ru  Ru11  1  0.828767  0.657535  0.750706  1
