# generated using pymatgen
data_Pr6BiRhO12
_symmetry_space_group_name_H-M   'P 1'
_cell_length_a   6.89990502
_cell_length_b   6.89990601
_cell_length_c   6.89990500
_cell_angle_alpha   97.05918621
_cell_angle_beta   97.05917885
_cell_angle_gamma   97.05919019
_symmetry_Int_Tables_number   1
_chemical_formula_structural   Pr6BiRhO12
_chemical_formula_sum   'Pr6 Bi1 Rh1 O12'
_cell_volume   320.34265760
_cell_formula_units_Z   1
loop_
 _symmetry_equiv_pos_site_id
 _symmetry_equiv_pos_as_xyz
  1  'x, y, z'
loop_
 _atom_site_type_symbol
 _atom_site_label
 _atom_site_symmetry_multiplicity
 _atom_site_fract_x
 _atom_site_fract_y
 _atom_site_fract_z
 _atom_site_occupancy
  Pr  Pr0  1  0.721976  0.896679  0.412660  1
  Pr  Pr1  1  0.412660  0.721976  0.896679  1
  Pr  Pr2  1  0.103321  0.587340  0.278024  1
  Pr  Pr3  1  0.896679  0.412660  0.721976  1
  Pr  Pr4  1  0.587340  0.278024  0.103321  1
  Pr  Pr5  1  0.278024  0.103321  0.587340  1
  Bi  Bi6  1  0.000000  0.000000  0.000000  1
  Rh  Rh7  1  0.500000  0.500000  0.500000  1
  O  O8  1  0.062190  0.919256  0.323444  1
  O  O9  1  0.676556  0.937810  0.080744  1
  O  O10  1  0.439580  0.792429  0.570989  1
  O  O11  1  0.080744  0.676556  0.937810  1
  O  O12  1  0.792429  0.570989  0.439580  1
  O  O13  1  0.429011  0.560420  0.207571  1
  O  O14  1  0.570989  0.439580  0.792429  1
  O  O15  1  0.207571  0.429011  0.560420  1
  O  O16  1  0.919256  0.323444  0.062190  1
  O  O17  1  0.560420  0.207571  0.429011  1
  O  O18  1  0.323444  0.062190  0.919256  1
  O  O19  1  0.937810  0.080744  0.676556  1
