# generated using pymatgen
data_HoTm9(CoSb2)2
_symmetry_space_group_name_H-M   'P 1'
_cell_length_a   7.78967000
_cell_length_b   8.72361000
_cell_length_c   12.06783000
_cell_angle_alpha   90.00000000
_cell_angle_beta   90.00000000
_cell_angle_gamma   90.00000000
_symmetry_Int_Tables_number   1
_chemical_formula_structural   HoTm9(CoSb2)2
_chemical_formula_sum   'Ho2 Tm18 Co4 Sb8'
_cell_volume   820.05784005
_cell_formula_units_Z   2
loop_
 _symmetry_equiv_pos_site_id
 _symmetry_equiv_pos_as_xyz
  1  'x, y, z'
loop_
 _atom_site_type_symbol
 _atom_site_label
 _atom_site_symmetry_multiplicity
 _atom_site_fract_x
 _atom_site_fract_y
 _atom_site_fract_z
 _atom_site_occupancy
  Ho  Ho0  1  0.377510  0.250000  0.692315  1
  Ho  Ho1  1  0.877510  0.750000  0.807685  1
  Tm  Tm2  1  0.156947  0.750000  0.203698  1
  Tm  Tm3  1  0.656947  0.250000  0.296302  1
  Tm  Tm4  1  0.843220  0.250000  0.796329  1
  Tm  Tm5  1  0.343220  0.750000  0.703671  1
  Tm  Tm6  1  0.450500  0.750000  0.998133  1
  Tm  Tm7  1  0.950500  0.250000  0.501867  1
  Tm  Tm8  1  0.549172  0.250000  0.002045  1
  Tm  Tm9  1  0.049172  0.750000  0.497955  1
  Tm  Tm10  1  0.621889  0.750000  0.308336  1
  Tm  Tm11  1  0.121889  0.250000  0.191664  1
  Tm  Tm12  1  0.823889  0.963189  0.065577  1
  Tm  Tm13  1  0.323889  0.036811  0.434423  1
  Tm  Tm14  1  0.176360  0.462278  0.934851  1
  Tm  Tm15  1  0.676360  0.537722  0.565149  1
  Tm  Tm16  1  0.176360  0.037722  0.934851  1
  Tm  Tm17  1  0.676360  0.962278  0.565149  1
  Tm  Tm18  1  0.823889  0.536811  0.065577  1
  Tm  Tm19  1  0.323889  0.463189  0.434423  1
  Co  Co20  1  0.431366  0.750000  0.490355  1
  Co  Co21  1  0.931366  0.250000  0.009645  1
  Co  Co22  1  0.568911  0.250000  0.509239  1
  Co  Co23  1  0.068911  0.750000  0.990761  1
  Sb  Sb24  1  0.930949  0.991648  0.327399  1
  Sb  Sb25  1  0.430949  0.008352  0.172601  1
  Sb  Sb26  1  0.069045  0.491553  0.672406  1
  Sb  Sb27  1  0.569045  0.508447  0.827594  1
  Sb  Sb28  1  0.069045  0.008447  0.672406  1
  Sb  Sb29  1  0.569045  0.991553  0.827594  1
  Sb  Sb30  1  0.930949  0.508352  0.327399  1
  Sb  Sb31  1  0.430949  0.491648  0.172601  1
