# generated using pymatgen
data_Hf6Ta2Nb2CuSiSn6
_symmetry_space_group_name_H-M   'P 1'
_cell_length_a   8.48405400
_cell_length_b   8.48405461
_cell_length_c   5.70656700
_cell_angle_alpha   90.00000000
_cell_angle_beta   90.00000000
_cell_angle_gamma   119.99999761
_symmetry_Int_Tables_number   1
_chemical_formula_structural   Hf6Ta2Nb2CuSiSn6
_chemical_formula_sum   'Hf6 Ta2 Nb2 Cu1 Si1 Sn6'
_cell_volume   355.72340635
_cell_formula_units_Z   1
loop_
 _symmetry_equiv_pos_site_id
 _symmetry_equiv_pos_as_xyz
  1  'x, y, z'
loop_
 _atom_site_type_symbol
 _atom_site_label
 _atom_site_symmetry_multiplicity
 _atom_site_fract_x
 _atom_site_fract_y
 _atom_site_fract_z
 _atom_site_occupancy
  Hf  Hf0  1  0.263365  0.000000  0.248117  1
  Hf  Hf1  1  0.263365  0.263365  0.751883  1
  Hf  Hf2  1  0.000000  0.736635  0.751883  1
  Hf  Hf3  1  0.000000  0.263365  0.248117  1
  Hf  Hf4  1  0.736635  0.736635  0.248117  1
  Hf  Hf5  1  0.736635  0.000000  0.751883  1
  Ta  Ta6  1  0.333333  0.666667  0.000000  1
  Ta  Ta7  1  0.666667  0.333333  0.500000  1
  Nb  Nb8  1  0.666667  0.333333  0.000000  1
  Nb  Nb9  1  0.333333  0.666667  0.500000  1
  Cu  Cu10  1  0.000000  0.000000  0.500000  1
  Si  Si11  1  0.000000  0.000000  0.000000  1
  Sn  Sn12  1  0.608123  0.000000  0.252686  1
  Sn  Sn13  1  0.608123  0.608123  0.747314  1
  Sn  Sn14  1  0.000000  0.391877  0.747314  1
  Sn  Sn15  1  0.000000  0.608123  0.252686  1
  Sn  Sn16  1  0.391877  0.391877  0.252686  1
  Sn  Sn17  1  0.391877  0.000000  0.747314  1
