# generated using pymatgen
data_Tb10Pr6MgCd3Ir4
_symmetry_space_group_name_H-M   'P 1'
_cell_length_a   9.82831213
_cell_length_b   9.82831221
_cell_length_c   9.82831322
_cell_angle_alpha   59.90353086
_cell_angle_beta   59.90353116
_cell_angle_gamma   59.90352680
_symmetry_Int_Tables_number   1
_chemical_formula_structural   Tb10Pr6MgCd3Ir4
_chemical_formula_sum   'Tb10 Pr6 Mg1 Cd3 Ir4'
_cell_volume   669.83889069
_cell_formula_units_Z   1
loop_
 _symmetry_equiv_pos_site_id
 _symmetry_equiv_pos_as_xyz
  1  'x, y, z'
loop_
 _atom_site_type_symbol
 _atom_site_label
 _atom_site_symmetry_multiplicity
 _atom_site_fract_x
 _atom_site_fract_y
 _atom_site_fract_z
 _atom_site_occupancy
  Tb  Tb0  1  0.347362  0.347362  0.347362  1
  Tb  Tb1  1  0.347448  0.347448  0.959456  1
  Tb  Tb2  1  0.347448  0.959456  0.347448  1
  Tb  Tb3  1  0.959456  0.347448  0.347448  1
  Tb  Tb4  1  0.810939  0.188373  0.188373  1
  Tb  Tb5  1  0.185483  0.812987  0.812987  1
  Tb  Tb6  1  0.188373  0.810939  0.188373  1
  Tb  Tb7  1  0.812987  0.185483  0.812987  1
  Tb  Tb8  1  0.188373  0.188373  0.810939  1
  Tb  Tb9  1  0.812987  0.812987  0.185483  1
  Pr  Pr10  1  0.940816  0.559358  0.559358  1
  Pr  Pr11  1  0.557007  0.942322  0.942322  1
  Pr  Pr12  1  0.559358  0.940816  0.559358  1
  Pr  Pr13  1  0.942322  0.557007  0.942322  1
  Pr  Pr14  1  0.559358  0.559358  0.940816  1
  Pr  Pr15  1  0.942322  0.942322  0.557007  1
  Mg  Mg16  1  0.575151  0.575151  0.575151  1
  Cd  Cd17  1  0.579960  0.579960  0.260184  1
  Cd  Cd18  1  0.579960  0.260184  0.579960  1
  Cd  Cd19  1  0.260184  0.579960  0.579960  1
  Ir  Ir20  1  0.141433  0.141433  0.141433  1
  Ir  Ir21  1  0.142476  0.142476  0.576316  1
  Ir  Ir22  1  0.142476  0.576316  0.142476  1
  Ir  Ir23  1  0.576316  0.142476  0.142476  1
