# generated using pymatgen
data_SmFe3P12Ir
_symmetry_space_group_name_H-M   'P 1'
_cell_length_a   6.82979191
_cell_length_b   6.81443639
_cell_length_c   6.82979116
_cell_angle_alpha   109.42568487
_cell_angle_beta   109.51671495
_cell_angle_gamma   109.42568309
_symmetry_Int_Tables_number   1
_chemical_formula_structural   SmFe3P12Ir
_chemical_formula_sum   'Sm1 Fe3 P12 Ir1'
_cell_volume   244.83118016
_cell_formula_units_Z   1
loop_
 _symmetry_equiv_pos_site_id
 _symmetry_equiv_pos_as_xyz
  1  'x, y, z'
loop_
 _atom_site_type_symbol
 _atom_site_label
 _atom_site_symmetry_multiplicity
 _atom_site_fract_x
 _atom_site_fract_y
 _atom_site_fract_z
 _atom_site_occupancy
  Sm  Sm0  1  0.000000  0.000000  0.000000  1
  Fe  Fe1  1  0.000000  0.000000  0.500000  1
  Fe  Fe2  1  0.500000  0.000000  0.000000  1
  Fe  Fe3  1  0.500000  0.500000  0.500000  1
  P  P4  1  0.349838  0.198908  0.850095  1
  P  P5  1  0.650162  0.801092  0.149905  1
  P  P6  1  0.634141  0.499481  0.843824  1
  P  P7  1  0.365859  0.500519  0.156176  1
  P  P8  1  0.209683  0.865340  0.365859  1
  P  P9  1  0.790317  0.134660  0.634141  1
  P  P10  1  0.500257  0.849070  0.650162  1
  P  P11  1  0.499743  0.150930  0.349838  1
  P  P12  1  0.843824  0.344343  0.209683  1
  P  P13  1  0.156176  0.655657  0.790317  1
  P  P14  1  0.850095  0.651187  0.500257  1
  P  P15  1  0.149905  0.348813  0.499743  1
  Ir  Ir16  1  0.000000  0.500000  0.000000  1
