# generated using pymatgen
data_CaLa2Pr14Hg3Ir4
_symmetry_space_group_name_H-M   'P 1'
_cell_length_a   10.11192429
_cell_length_b   10.11192393
_cell_length_c   10.12278349
_cell_angle_alpha   60.22820626
_cell_angle_beta   60.22820762
_cell_angle_gamma   60.14062583
_symmetry_Int_Tables_number   1
_chemical_formula_structural   CaLa2Pr14Hg3Ir4
_chemical_formula_sum   'Ca1 La2 Pr14 Hg3 Ir4'
_cell_volume   735.19848496
_cell_formula_units_Z   1
loop_
 _symmetry_equiv_pos_site_id
 _symmetry_equiv_pos_as_xyz
  1  'x, y, z'
loop_
 _atom_site_type_symbol
 _atom_site_label
 _atom_site_symmetry_multiplicity
 _atom_site_fract_x
 _atom_site_fract_y
 _atom_site_fract_z
 _atom_site_occupancy
  Ca  Ca0  1  0.562618  0.562618  0.562884  1
  La  La1  1  0.348912  0.348912  0.349150  1
  La  La2  1  0.344854  0.344854  0.966982  1
  Pr  Pr3  1  0.345356  0.961978  0.347016  1
  Pr  Pr4  1  0.961978  0.345356  0.347016  1
  Pr  Pr5  1  0.809915  0.192386  0.192797  1
  Pr  Pr6  1  0.183757  0.816531  0.815065  1
  Pr  Pr7  1  0.192386  0.809915  0.192797  1
  Pr  Pr8  1  0.816531  0.183757  0.815065  1
  Pr  Pr9  1  0.193288  0.193288  0.809117  1
  Pr  Pr10  1  0.815428  0.815428  0.183758  1
  Pr  Pr11  1  0.938863  0.562671  0.562573  1
  Pr  Pr12  1  0.560510  0.940602  0.940264  1
  Pr  Pr13  1  0.562671  0.938863  0.562573  1
  Pr  Pr14  1  0.940602  0.560510  0.940264  1
  Pr  Pr15  1  0.563700  0.563700  0.938487  1
  Pr  Pr16  1  0.940161  0.940161  0.560714  1
  Hg  Hg17  1  0.590211  0.590211  0.230745  1
  Hg  Hg18  1  0.590914  0.230392  0.589191  1
  Hg  Hg19  1  0.230392  0.590914  0.589191  1
  Ir  Ir20  1  0.143034  0.143034  0.141921  1
  Ir  Ir21  1  0.144338  0.144338  0.575730  1
  Ir  Ir22  1  0.144281  0.575299  0.143351  1
  Ir  Ir23  1  0.575299  0.144281  0.143351  1
