# generated using pymatgen
data_Er6Zn22CuP
_symmetry_space_group_name_H-M   'P 1'
_cell_length_a   8.99197751
_cell_length_b   8.98460607
_cell_length_c   8.99208823
_cell_angle_alpha   60.02691234
_cell_angle_beta   59.89099699
_cell_angle_gamma   60.02807602
_symmetry_Int_Tables_number   1
_chemical_formula_structural   Er6Zn22CuP
_chemical_formula_sum   'Er6 Zn22 Cu1 P1'
_cell_volume   513.47680367
_cell_formula_units_Z   1
loop_
 _symmetry_equiv_pos_site_id
 _symmetry_equiv_pos_as_xyz
  1  'x, y, z'
loop_
 _atom_site_type_symbol
 _atom_site_label
 _atom_site_symmetry_multiplicity
 _atom_site_fract_x
 _atom_site_fract_y
 _atom_site_fract_z
 _atom_site_occupancy
  Er  Er0  1  0.712100  0.288185  0.287907  1
  Er  Er1  1  0.711926  0.288072  0.711926  1
  Er  Er2  1  0.712104  0.711824  0.287897  1
  Er  Er3  1  0.287900  0.711815  0.712093  1
  Er  Er4  1  0.288074  0.711928  0.288074  1
  Er  Er5  1  0.287896  0.288176  0.712103  1
  Zn  Zn6  1  0.624640  0.125248  0.124883  1
  Zn  Zn7  1  0.124032  0.624071  0.124013  1
  Zn  Zn8  1  0.124884  0.125234  0.624639  1
  Zn  Zn9  1  0.124016  0.127884  0.124034  1
  Zn  Zn10  1  0.375360  0.874752  0.875117  1
  Zn  Zn11  1  0.875968  0.375929  0.875987  1
  Zn  Zn12  1  0.875116  0.874766  0.375361  1
  Zn  Zn13  1  0.875984  0.872116  0.875966  1
  Zn  Zn14  1  0.500000  0.000000  0.000000  1
  Zn  Zn15  1  0.500000  0.000000  0.500000  1
  Zn  Zn16  1  0.500000  0.500000  0.000000  1
  Zn  Zn17  1  0.000000  0.500000  0.500000  1
  Zn  Zn18  1  0.000000  0.000000  0.500000  1
  Zn  Zn19  1  0.000000  0.000000  0.000000  1
  Zn  Zn20  1  0.010002  0.331386  0.327247  1
  Zn  Zn21  1  0.330552  0.008835  0.330525  1
  Zn  Zn22  1  0.327247  0.331368  0.010003  1
  Zn  Zn23  1  0.330527  0.330088  0.330547  1
  Zn  Zn24  1  0.989998  0.668614  0.672753  1
  Zn  Zn25  1  0.669448  0.991165  0.669475  1
  Zn  Zn26  1  0.672753  0.668632  0.989997  1
  Zn  Zn27  1  0.669473  0.669912  0.669453  1
  Cu  Cu28  1  0.000000  0.500000  0.000000  1
  P  P29  1  0.500000  0.500000  0.500000  1
