# generated using pymatgen
data_Pr2Fe3Co9P7
_symmetry_space_group_name_H-M   'P 1'
_cell_length_a   9.09837000
_cell_length_b   9.09837039
_cell_length_c   3.66894800
_cell_angle_alpha   90.00000000
_cell_angle_beta   90.00000000
_cell_angle_gamma   119.99999859
_symmetry_Int_Tables_number   1
_chemical_formula_structural   Pr2Fe3Co9P7
_chemical_formula_sum   'Pr2 Fe3 Co9 P7'
_cell_volume   263.02643651
_cell_formula_units_Z   1
loop_
 _symmetry_equiv_pos_site_id
 _symmetry_equiv_pos_as_xyz
  1  'x, y, z'
loop_
 _atom_site_type_symbol
 _atom_site_label
 _atom_site_symmetry_multiplicity
 _atom_site_fract_x
 _atom_site_fract_y
 _atom_site_fract_z
 _atom_site_occupancy
  Pr  Pr0  1  0.333333  0.666667  0.000000  1
  Pr  Pr1  1  0.666667  0.333333  0.500000  1
  Fe  Fe2  1  0.213886  0.119493  0.500000  1
  Fe  Fe3  1  0.880507  0.094394  0.500000  1
  Fe  Fe4  1  0.905606  0.786114  0.500000  1
  Co  Co5  1  0.428053  0.369718  0.000000  1
  Co  Co6  1  0.630282  0.058335  0.000000  1
  Co  Co7  1  0.941665  0.571947  0.000000  1
  Co  Co8  1  0.153507  0.882506  0.000000  1
  Co  Co9  1  0.117494  0.271001  0.000000  1
  Co  Co10  1  0.728999  0.846493  0.000000  1
  Co  Co11  1  0.382591  0.951799  0.500000  1
  Co  Co12  1  0.048201  0.430793  0.500000  1
  Co  Co13  1  0.569207  0.617409  0.500000  1
  P  P14  1  0.404806  0.106379  0.000000  1
  P  P15  1  0.893621  0.298427  0.000000  1
  P  P16  1  0.701573  0.595194  0.000000  1
  P  P17  1  0.105005  0.709708  0.500000  1
  P  P18  1  0.290292  0.395298  0.500000  1
  P  P19  1  0.604702  0.894995  0.500000  1
  P  P20  1  0.000000  0.000000  0.000000  1
