# generated using pymatgen
data_Cs4Na2YHoSb4
_symmetry_space_group_name_H-M   'P 1'
_cell_length_a   11.64663705
_cell_length_b   11.64663552
_cell_length_c   7.59112800
_cell_angle_alpha   90.00000000
_cell_angle_beta   90.00000000
_cell_angle_gamma   99.77398090
_symmetry_Int_Tables_number   1
_chemical_formula_structural   Cs4Na2YHoSb4
_chemical_formula_sum   'Cs8 Na4 Y2 Ho2 Sb8'
_cell_volume   1014.74611984
_cell_formula_units_Z   2
loop_
 _symmetry_equiv_pos_site_id
 _symmetry_equiv_pos_as_xyz
  1  'x, y, z'
loop_
 _atom_site_type_symbol
 _atom_site_label
 _atom_site_symmetry_multiplicity
 _atom_site_fract_x
 _atom_site_fract_y
 _atom_site_fract_z
 _atom_site_occupancy
  Cs  Cs0  1  0.070621  0.429379  0.250000  1
  Cs  Cs1  1  0.429379  0.070621  0.750000  1
  Cs  Cs2  1  0.929556  0.570444  0.750000  1
  Cs  Cs3  1  0.570444  0.929556  0.250000  1
  Cs  Cs4  1  0.677075  0.322826  0.212870  1
  Cs  Cs5  1  0.822925  0.177174  0.712870  1
  Cs  Cs6  1  0.322826  0.677075  0.787130  1
  Cs  Cs7  1  0.177174  0.822925  0.287130  1
  Na  Na8  1  0.381997  0.381997  0.000000  1
  Na  Na9  1  0.118003  0.118003  0.500000  1
  Na  Na10  1  0.617889  0.617889  0.000000  1
  Na  Na11  1  0.882111  0.882111  0.500000  1
  Y  Y12  1  0.869205  0.869205  0.000000  1
  Y  Y13  1  0.630795  0.630795  0.500000  1
  Ho  Ho14  1  0.130813  0.130813  0.000000  1
  Ho  Ho15  1  0.369187  0.369187  0.500000  1
  Sb  Sb16  1  0.842211  0.657788  0.250000  1
  Sb  Sb17  1  0.657788  0.842211  0.750000  1
  Sb  Sb18  1  0.158338  0.341661  0.750000  1
  Sb  Sb19  1  0.341661  0.158338  0.250000  1
  Sb  Sb20  1  0.905297  0.095613  0.210422  1
  Sb  Sb21  1  0.594703  0.404387  0.710422  1
  Sb  Sb22  1  0.095613  0.905297  0.789578  1
  Sb  Sb23  1  0.404387  0.594703  0.289578  1
