# generated using pymatgen
data_Ce2SnRh5
_symmetry_space_group_name_H-M   'P 1'
_cell_length_a   5.83920473
_cell_length_b   5.83920509
_cell_length_c   8.47439900
_cell_angle_alpha   90.00000000
_cell_angle_beta   90.00000000
_cell_angle_gamma   97.73057466
_symmetry_Int_Tables_number   1
_chemical_formula_structural   Ce2SnRh5
_chemical_formula_sum   'Ce4 Sn2 Rh10'
_cell_volume   286.31970274
_cell_formula_units_Z   2
loop_
 _symmetry_equiv_pos_site_id
 _symmetry_equiv_pos_as_xyz
  1  'x, y, z'
loop_
 _atom_site_type_symbol
 _atom_site_label
 _atom_site_symmetry_multiplicity
 _atom_site_fract_x
 _atom_site_fract_y
 _atom_site_fract_z
 _atom_site_occupancy
  Ce  Ce0  1  0.784725  0.215275  0.500000  1
  Ce  Ce1  1  0.215275  0.784725  0.000000  1
  Ce  Ce2  1  0.215275  0.784725  0.500000  1
  Ce  Ce3  1  0.784725  0.215275  0.000000  1
  Sn  Sn4  1  0.502492  0.502492  0.750000  1
  Sn  Sn5  1  0.497508  0.497508  0.250000  1
  Rh  Rh6  1  0.726846  0.726846  0.001155  1
  Rh  Rh7  1  0.726846  0.726846  0.498845  1
  Rh  Rh8  1  0.273154  0.273154  0.998845  1
  Rh  Rh9  1  0.273154  0.273154  0.501155  1
  Rh  Rh10  1  0.499994  0.000642  0.750000  1
  Rh  Rh11  1  0.500006  0.999358  0.250000  1
  Rh  Rh12  1  0.000379  0.000379  0.250000  1
  Rh  Rh13  1  0.999621  0.999621  0.750000  1
  Rh  Rh14  1  0.000642  0.499994  0.750000  1
  Rh  Rh15  1  0.999358  0.500006  0.250000  1
