# generated using pymatgen
data_Er2Co3Tc6Ni3P7
_symmetry_space_group_name_H-M   'P 1'
_cell_length_a   9.29555900
_cell_length_b   9.29555905
_cell_length_c   3.75929300
_cell_angle_alpha   90.00000000
_cell_angle_beta   90.00000000
_cell_angle_gamma   120.00000340
_symmetry_Int_Tables_number   1
_chemical_formula_structural   Er2Co3Tc6Ni3P7
_chemical_formula_sum   'Er2 Co3 Tc6 Ni3 P7'
_cell_volume   281.31171503
_cell_formula_units_Z   1
loop_
 _symmetry_equiv_pos_site_id
 _symmetry_equiv_pos_as_xyz
  1  'x, y, z'
loop_
 _atom_site_type_symbol
 _atom_site_label
 _atom_site_symmetry_multiplicity
 _atom_site_fract_x
 _atom_site_fract_y
 _atom_site_fract_z
 _atom_site_occupancy
  Er  Er0  1  0.000000  0.000000  0.000000  1
  Er  Er1  1  0.333333  0.666667  0.500000  1
  Co  Co2  1  0.824534  0.604195  0.000000  1
  Co  Co3  1  0.395805  0.220340  0.000000  1
  Co  Co4  1  0.779660  0.175466  0.000000  1
  Tc  Tc5  1  0.062929  0.772109  0.500000  1
  Tc  Tc6  1  0.227891  0.290821  0.500000  1
  Tc  Tc7  1  0.709179  0.937071  0.500000  1
  Tc  Tc8  1  0.876713  0.421197  0.500000  1
  Tc  Tc9  1  0.578803  0.455516  0.500000  1
  Tc  Tc10  1  0.544484  0.123287  0.500000  1
  Ni  Ni11  1  0.091130  0.400308  0.000000  1
  Ni  Ni12  1  0.599692  0.690822  0.000000  1
  Ni  Ni13  1  0.309178  0.908870  0.000000  1
  P  P14  1  0.791212  0.734660  0.500000  1
  P  P15  1  0.265340  0.056552  0.500000  1
  P  P16  1  0.943448  0.208788  0.500000  1
  P  P17  1  0.666667  0.333333  0.000000  1
  P  P18  1  0.077336  0.631904  0.000000  1
  P  P19  1  0.368096  0.445431  0.000000  1
  P  P20  1  0.554569  0.922664  0.000000  1
