# generated using pymatgen
data_Tb3Ho4Lu(Sc3Si4)4
_symmetry_space_group_name_H-M   'P 1'
_cell_length_a   7.09079620
_cell_length_b   7.38208885
_cell_length_c   13.98849332
_cell_angle_alpha   89.94641319
_cell_angle_beta   89.99311740
_cell_angle_gamma   89.97989274
_symmetry_Int_Tables_number   1
_chemical_formula_structural   Tb3Ho4Lu(Sc3Si4)4
_chemical_formula_sum   'Tb3 Ho4 Lu1 Sc12 Si16'
_cell_volume   732.22573930
_cell_formula_units_Z   1
loop_
 _symmetry_equiv_pos_site_id
 _symmetry_equiv_pos_as_xyz
  1  'x, y, z'
loop_
 _atom_site_type_symbol
 _atom_site_label
 _atom_site_symmetry_multiplicity
 _atom_site_fract_x
 _atom_site_fract_y
 _atom_site_fract_z
 _atom_site_occupancy
  Tb  Tb0  1  0.988343  0.824907  0.903883  1
  Tb  Tb1  1  0.487753  0.675094  0.904058  1
  Tb  Tb2  1  0.988012  0.824627  0.596461  1
  Ho  Ho3  1  0.512031  0.323534  0.097239  1
  Ho  Ho4  1  0.012110  0.175959  0.403180  1
  Ho  Ho5  1  0.511838  0.324024  0.402513  1
  Ho  Ho6  1  0.488089  0.675628  0.596770  1
  Lu  Lu7  1  0.011995  0.176883  0.097867  1
  Sc  Sc8  1  0.160956  0.502410  0.750012  1
  Sc  Sc9  1  0.839391  0.496970  0.249634  1
  Sc  Sc10  1  0.339013  0.003288  0.249754  1
  Sc  Sc11  1  0.660714  0.997732  0.749873  1
  Sc  Sc12  1  0.331217  0.176969  0.625114  1
  Sc  Sc13  1  0.668993  0.823327  0.374067  1
  Sc  Sc14  1  0.169202  0.676397  0.374118  1
  Sc  Sc15  1  0.669503  0.824310  0.125448  1
  Sc  Sc16  1  0.831077  0.323509  0.625087  1
  Sc  Sc17  1  0.330916  0.176645  0.874882  1
  Sc  Sc18  1  0.831516  0.322493  0.874888  1
  Sc  Sc19  1  0.168689  0.676851  0.125664  1
  Si  Si20  1  0.033582  0.117012  0.750010  1
  Si  Si21  1  0.967124  0.885135  0.249767  1
  Si  Si22  1  0.466954  0.616019  0.249785  1
  Si  Si23  1  0.533453  0.383419  0.749973  1
  Si  Si24  1  0.286065  0.873618  0.749730  1
  Si  Si25  1  0.715701  0.127740  0.249337  1
  Si  Si26  1  0.213979  0.371735  0.249408  1
  Si  Si27  1  0.784981  0.625931  0.749727  1
  Si  Si28  1  0.158629  0.464319  0.539007  1
  Si  Si29  1  0.841348  0.534651  0.460279  1
  Si  Si30  1  0.342468  0.964779  0.460314  1
  Si  Si31  1  0.842522  0.533124  0.040212  1
  Si  Si32  1  0.657171  0.035609  0.539043  1
  Si  Si33  1  0.156959  0.462506  0.961579  1
  Si  Si34  1  0.657869  0.036337  0.961200  1
  Si  Si35  1  0.339838  0.966508  0.040114  1
