# generated using pymatgen
data_Sr2Si6Ni3Pt7
_symmetry_space_group_name_H-M   'P 1'
_cell_length_a   6.51762768
_cell_length_b   6.51762697
_cell_length_c   12.57219047
_cell_angle_alpha   89.79427803
_cell_angle_beta   90.20572205
_cell_angle_gamma   145.81398699
_symmetry_Int_Tables_number   1
_chemical_formula_structural   Sr2Si6Ni3Pt7
_chemical_formula_sum   'Sr2 Si6 Ni3 Pt7'
_cell_volume   300.07625729
_cell_formula_units_Z   1
loop_
 _symmetry_equiv_pos_site_id
 _symmetry_equiv_pos_as_xyz
  1  'x, y, z'
loop_
 _atom_site_type_symbol
 _atom_site_label
 _atom_site_symmetry_multiplicity
 _atom_site_fract_x
 _atom_site_fract_y
 _atom_site_fract_z
 _atom_site_occupancy
  Sr  Sr0  1  0.159406  0.840594  0.251252  1
  Sr  Sr1  1  0.838660  0.161340  0.750216  1
  Si  Si2  1  0.890458  0.109542  0.251283  1
  Si  Si3  1  0.105619  0.894381  0.743566  1
  Si  Si4  1  0.386178  0.613822  0.960947  1
  Si  Si5  1  0.614859  0.385141  0.032233  1
  Si  Si6  1  0.614028  0.385972  0.469320  1
  Si  Si7  1  0.388549  0.611451  0.542909  1
  Ni  Ni8  1  0.997778  0.002222  0.510781  1
  Ni  Ni9  1  0.000277  0.999723  0.995908  1
  Ni  Ni10  1  0.549838  0.450162  0.639550  1
  Pt  Pt11  1  0.455561  0.544439  0.360267  1
  Pt  Pt12  1  0.457225  0.542775  0.142333  1
  Pt  Pt13  1  0.799592  0.200408  0.071653  1
  Pt  Pt14  1  0.200419  0.799581  0.925796  1
  Pt  Pt15  1  0.198654  0.801346  0.573892  1
  Pt  Pt16  1  0.799200  0.200800  0.430822  1
  Pt  Pt17  1  0.543695  0.456305  0.847271  1
