# generated using pymatgen
data_LaYb3Bi2Sb
_symmetry_space_group_name_H-M   'P 1'
_cell_length_a   8.38031740
_cell_length_b   8.37046727
_cell_length_c   8.39707140
_cell_angle_alpha   109.49203196
_cell_angle_beta   109.59880719
_cell_angle_gamma   109.41081715
_symmetry_Int_Tables_number   1
_chemical_formula_structural   LaYb3Bi2Sb
_chemical_formula_sum   'La2 Yb6 Bi4 Sb2'
_cell_volume   452.94212689
_cell_formula_units_Z   2
loop_
 _symmetry_equiv_pos_site_id
 _symmetry_equiv_pos_as_xyz
  1  'x, y, z'
loop_
 _atom_site_type_symbol
 _atom_site_label
 _atom_site_symmetry_multiplicity
 _atom_site_fract_x
 _atom_site_fract_y
 _atom_site_fract_z
 _atom_site_occupancy
  La  La0  1  0.859813  0.857245  0.858511  1
  La  La1  1  0.002568  0.142755  0.501266  1
  Yb  Yb2  1  0.148028  0.504196  0.005437  1
  Yb  Yb3  1  0.356494  0.352907  0.350789  1
  Yb  Yb4  1  0.643832  0.495804  0.001241  1
  Yb  Yb5  1  0.493054  0.000998  0.642579  1
  Yb  Yb6  1  0.492056  0.999002  0.141582  1
  Yb  Yb7  1  0.003588  0.647093  0.497883  1
  Bi  Bi8  1  0.751470  0.375183  0.625370  1
  Bi  Bi9  1  0.873033  0.250560  0.125529  1
  Bi  Bi10  1  0.622472  0.749440  0.374968  1
  Bi  Bi11  1  0.376288  0.624817  0.750188  1
  Sb  Sb12  1  0.251760  0.126217  0.875438  1
  Sb  Sb13  1  0.125543  0.873783  0.249220  1
