# generated using pymatgen
data_Dy2SiNi2(P3Ru5)2
_symmetry_space_group_name_H-M   'P 1'
_cell_length_a   9.42309621
_cell_length_b   9.30567296
_cell_length_c   3.87491300
_cell_angle_alpha   90.00000000
_cell_angle_beta   90.00000000
_cell_angle_gamma   119.24091188
_symmetry_Int_Tables_number   1
_chemical_formula_structural   Dy2SiNi2(P3Ru5)2
_chemical_formula_sum   'Dy2 Si1 Ni2 P6 Ru10'
_cell_volume   296.48681607
_cell_formula_units_Z   1
loop_
 _symmetry_equiv_pos_site_id
 _symmetry_equiv_pos_as_xyz
  1  'x, y, z'
loop_
 _atom_site_type_symbol
 _atom_site_label
 _atom_site_symmetry_multiplicity
 _atom_site_fract_x
 _atom_site_fract_y
 _atom_site_fract_z
 _atom_site_occupancy
  Dy  Dy0  1  0.665526  0.329007  0.000000  1
  Dy  Dy1  1  0.004667  0.003807  0.500000  1
  Si  Si2  1  0.327226  0.660362  0.000000  1
  Ni  Ni3  1  0.054596  0.554983  0.000000  1
  Ni  Ni4  1  0.450634  0.503187  0.000000  1
  P  P5  1  0.449958  0.067112  0.500000  1
  P  P6  1  0.934201  0.379760  0.500000  1
  P  P7  1  0.621225  0.551804  0.500000  1
  P  P8  1  0.753813  0.974689  0.000000  1
  P  P9  1  0.028424  0.780016  0.000000  1
  P  P10  1  0.223287  0.258375  0.000000  1
  Ru  Ru11  1  0.726169  0.104699  0.500000  1
  Ru  Ru12  1  0.896242  0.614322  0.500000  1
  Ru  Ru13  1  0.388959  0.283209  0.500000  1
  Ru  Ru14  1  0.757543  0.728502  0.000000  1
  Ru  Ru15  1  0.264069  0.031495  0.000000  1
  Ru  Ru16  1  0.972979  0.244804  0.000000  1
  Ru  Ru17  1  0.532050  0.746300  0.500000  1
  Ru  Ru18  1  0.244203  0.786922  0.500000  1
  Ru  Ru19  1  0.209930  0.453136  0.500000  1
  Ru  Ru20  1  0.494300  0.943506  0.000000  1
