# generated using pymatgen
data_Dy2TiAl3
_symmetry_space_group_name_H-M   'P 1'
_cell_length_a   5.57596420
_cell_length_b   5.57596426
_cell_length_c   5.57596460
_cell_angle_alpha   61.13381991
_cell_angle_beta   61.13382591
_cell_angle_gamma   61.13381692
_symmetry_Int_Tables_number   1
_chemical_formula_structural   Dy2TiAl3
_chemical_formula_sum   'Dy2 Ti1 Al3'
_cell_volume   125.71508248
_cell_formula_units_Z   1
loop_
 _symmetry_equiv_pos_site_id
 _symmetry_equiv_pos_as_xyz
  1  'x, y, z'
loop_
 _atom_site_type_symbol
 _atom_site_label
 _atom_site_symmetry_multiplicity
 _atom_site_fract_x
 _atom_site_fract_y
 _atom_site_fract_z
 _atom_site_occupancy
  Dy  Dy0  1  0.996952  0.996952  0.996952  1
  Dy  Dy1  1  0.253048  0.253048  0.253048  1
  Ti  Ti2  1  0.625000  0.625000  0.625000  1
  Al  Al3  1  0.125000  0.625000  0.625000  1
  Al  Al4  1  0.625000  0.125000  0.625000  1
  Al  Al5  1  0.625000  0.625000  0.125000  1
