# generated using pymatgen
data_Er12InCo2Ni2Ru
_symmetry_space_group_name_H-M   'P 1'
_cell_length_a   8.23526133
_cell_length_b   8.23526166
_cell_length_c   8.23526189
_cell_angle_alpha   111.08302817
_cell_angle_beta   111.14735550
_cell_angle_gamma   106.23106846
_symmetry_Int_Tables_number   1
_chemical_formula_structural   Er12InCo2Ni2Ru
_chemical_formula_sum   'Er12 In1 Co2 Ni2 Ru1'
_cell_volume   428.91851137
_cell_formula_units_Z   1
loop_
 _symmetry_equiv_pos_site_id
 _symmetry_equiv_pos_as_xyz
  1  'x, y, z'
loop_
 _atom_site_type_symbol
 _atom_site_label
 _atom_site_symmetry_multiplicity
 _atom_site_fract_x
 _atom_site_fract_y
 _atom_site_fract_z
 _atom_site_occupancy
  Er  Er0  1  0.184818  0.281851  0.466668  1
  Er  Er1  1  0.815182  0.718149  0.533332  1
  Er  Er2  1  0.184818  0.718149  0.902967  1
  Er  Er3  1  0.815182  0.281851  0.097033  1
  Er  Er4  1  0.317630  0.621698  0.304068  1
  Er  Er5  1  0.682370  0.378302  0.695932  1
  Er  Er6  1  0.317630  0.013563  0.695932  1
  Er  Er7  1  0.682370  0.986437  0.304068  1
  Er  Er8  1  0.410224  0.217441  0.192782  1
  Er  Er9  1  0.589776  0.782559  0.807218  1
  Er  Er10  1  0.024659  0.217441  0.807218  1
  Er  Er11  1  0.975341  0.782559  0.192782  1
  In  In12  1  0.500000  0.500000  0.000000  1
  Co  Co13  1  0.373822  0.000000  0.373822  1
  Co  Co14  1  0.626178  0.000000  0.626178  1
  Ni  Ni15  1  0.116394  0.616394  0.500000  1
  Ni  Ni16  1  0.883606  0.383606  0.500000  1
  Ru  Ru17  1  0.000000  0.000000  0.000000  1
