# generated using pymatgen
data_Y10ZnIn2Ru
_symmetry_space_group_name_H-M   'P 1'
_cell_length_a   9.75635360
_cell_length_b   9.72710335
_cell_length_c   9.62478700
_cell_angle_alpha   90.00000000
_cell_angle_beta   90.00000000
_cell_angle_gamma   119.90087066
_symmetry_Int_Tables_number   1
_chemical_formula_structural   Y10ZnIn2Ru
_chemical_formula_sum   'Y20 Zn2 In4 Ru2'
_cell_volume   791.81872726
_cell_formula_units_Z   2
loop_
 _symmetry_equiv_pos_site_id
 _symmetry_equiv_pos_as_xyz
  1  'x, y, z'
loop_
 _atom_site_type_symbol
 _atom_site_label
 _atom_site_symmetry_multiplicity
 _atom_site_fract_x
 _atom_site_fract_y
 _atom_site_fract_z
 _atom_site_occupancy
  Y  Y0  1  0.986641  0.993321  0.477770  1
  Y  Y1  1  0.986641  0.993321  0.022230  1
  Y  Y2  1  0.210181  0.792693  0.438926  1
  Y  Y3  1  0.210181  0.417489  0.438926  1
  Y  Y4  1  0.576653  0.788327  0.439317  1
  Y  Y5  1  0.792156  0.210859  0.559581  1
  Y  Y6  1  0.792156  0.581297  0.559581  1
  Y  Y7  1  0.418951  0.209475  0.559554  1
  Y  Y8  1  0.792156  0.210859  0.940419  1
  Y  Y9  1  0.792156  0.581297  0.940419  1
  Y  Y10  1  0.418951  0.209475  0.940446  1
  Y  Y11  1  0.210181  0.792693  0.061074  1
  Y  Y12  1  0.210181  0.417489  0.061074  1
  Y  Y13  1  0.576653  0.788327  0.060683  1
  Y  Y14  1  0.552480  0.468194  0.250000  1
  Y  Y15  1  0.552480  0.084287  0.250000  1
  Y  Y16  1  0.924405  0.462203  0.250000  1
  Y  Y17  1  0.459883  0.538555  0.750000  1
  Y  Y18  1  0.459883  0.921327  0.750000  1
  Y  Y19  1  0.083063  0.541531  0.750000  1
  Zn  Zn20  1  0.880362  0.127921  0.250000  1
  Zn  Zn21  1  0.880362  0.752442  0.250000  1
  In  In22  1  0.242446  0.121223  0.250000  1
  In  In23  1  0.112321  0.889161  0.750000  1
  In  In24  1  0.112321  0.223160  0.750000  1
  In  In25  1  0.770446  0.885223  0.750000  1
  Ru  Ru26  1  0.329769  0.664885  0.250000  1
  Ru  Ru27  1  0.665940  0.332970  0.750000  1
