# generated using pymatgen
data_Li(HoPb)4
_symmetry_space_group_name_H-M   'P 1'
_cell_length_a   7.65844700
_cell_length_b   15.70072400
_cell_length_c   8.27747200
_cell_angle_alpha   90.00000000
_cell_angle_beta   90.00000000
_cell_angle_gamma   90.00000000
_symmetry_Int_Tables_number   1
_chemical_formula_structural   Li(HoPb)4
_chemical_formula_sum   'Li4 Ho16 Pb16'
_cell_volume   995.30941174
_cell_formula_units_Z   4
loop_
 _symmetry_equiv_pos_site_id
 _symmetry_equiv_pos_as_xyz
  1  'x, y, z'
loop_
 _atom_site_type_symbol
 _atom_site_label
 _atom_site_symmetry_multiplicity
 _atom_site_fract_x
 _atom_site_fract_y
 _atom_site_fract_z
 _atom_site_occupancy
  Li  Li0  1  0.833562  0.750000  0.508374  1
  Li  Li1  1  0.333562  0.750000  0.991626  1
  Li  Li2  1  0.166438  0.250000  0.491626  1
  Li  Li3  1  0.666438  0.250000  0.008374  1
  Ho  Ho4  1  0.663641  0.628289  0.159545  1
  Ho  Ho5  1  0.163641  0.871711  0.340455  1
  Ho  Ho6  1  0.336359  0.128289  0.840455  1
  Ho  Ho7  1  0.836359  0.371711  0.659545  1
  Ho  Ho8  1  0.336359  0.371711  0.840455  1
  Ho  Ho9  1  0.836359  0.128289  0.659545  1
  Ho  Ho10  1  0.663641  0.871711  0.159545  1
  Ho  Ho11  1  0.163641  0.628289  0.340455  1
  Ho  Ho12  1  0.494414  0.589833  0.688195  1
  Ho  Ho13  1  0.994414  0.910167  0.811805  1
  Ho  Ho14  1  0.505586  0.089833  0.311805  1
  Ho  Ho15  1  0.005586  0.410167  0.188195  1
  Ho  Ho16  1  0.505586  0.410167  0.311805  1
  Ho  Ho17  1  0.005586  0.089833  0.188195  1
  Ho  Ho18  1  0.494414  0.910167  0.688195  1
  Ho  Ho19  1  0.994414  0.589833  0.811805  1
  Pb  Pb20  1  0.690287  0.458092  0.959430  1
  Pb  Pb21  1  0.190287  0.041908  0.540570  1
  Pb  Pb22  1  0.309713  0.958092  0.040570  1
  Pb  Pb23  1  0.809713  0.541908  0.459430  1
  Pb  Pb24  1  0.309713  0.541908  0.040570  1
  Pb  Pb25  1  0.809713  0.958092  0.459430  1
  Pb  Pb26  1  0.690287  0.041908  0.959430  1
  Pb  Pb27  1  0.190287  0.458092  0.540570  1
  Pb  Pb28  1  0.484049  0.750000  0.405323  1
  Pb  Pb29  1  0.984049  0.750000  0.094677  1
  Pb  Pb30  1  0.515951  0.250000  0.594677  1
  Pb  Pb31  1  0.015951  0.250000  0.905323  1
  Pb  Pb32  1  0.687813  0.750000  0.839640  1
  Pb  Pb33  1  0.187813  0.750000  0.660360  1
  Pb  Pb34  1  0.312187  0.250000  0.160360  1
  Pb  Pb35  1  0.812187  0.250000  0.339640  1
