# generated using pymatgen
data_MgMo3(PO4)4
_symmetry_space_group_name_H-M   'P 1'
_cell_length_a   4.85699424
_cell_length_b   6.86708570
_cell_length_c   8.92478951
_cell_angle_alpha   90.52699181
_cell_angle_beta   88.56755721
_cell_angle_gamma   91.28702020
_symmetry_Int_Tables_number   1
_chemical_formula_structural   MgMo3(PO4)4
_chemical_formula_sum   'Mg1 Mo3 P4 O16'
_cell_volume   297.49283328
_cell_formula_units_Z   1
loop_
 _symmetry_equiv_pos_site_id
 _symmetry_equiv_pos_as_xyz
  1  'x, y, z'
loop_
 _atom_site_type_symbol
 _atom_site_label
 _atom_site_symmetry_multiplicity
 _atom_site_fract_x
 _atom_site_fract_y
 _atom_site_fract_z
 _atom_site_occupancy
  Mg  Mg0  1  0.000000  0.000000  0.000000  1
  Mo  Mo1  1  0.500000  0.500000  0.500000  1
  Mo  Mo2  1  0.000000  0.500000  0.000000  1
  Mo  Mo3  1  0.500000  0.000000  0.500000  1
  P  P4  1  0.980467  0.749933  0.681557  1
  P  P5  1  0.479594  0.253212  0.826981  1
  P  P6  1  0.019533  0.250067  0.318443  1
  P  P7  1  0.520406  0.746788  0.173019  1
  O  O8  1  0.153410  0.439838  0.372361  1
  O  O9  1  0.665663  0.553718  0.124992  1
  O  O10  1  0.844992  0.936379  0.631960  1
  O  O11  1  0.336772  0.071981  0.884666  1
  O  O12  1  0.846590  0.560162  0.627639  1
  O  O13  1  0.334337  0.446282  0.875008  1
  O  O14  1  0.155008  0.063621  0.368040  1
  O  O15  1  0.663228  0.928019  0.115334  1
  O  O16  1  0.217225  0.725895  0.117630  1
  O  O17  1  0.709530  0.247978  0.380332  1
  O  O18  1  0.782775  0.274105  0.882370  1
  O  O19  1  0.290470  0.752022  0.619668  1
  O  O20  1  0.538276  0.748340  0.349566  1
  O  O21  1  0.034732  0.252513  0.141700  1
  O  O22  1  0.461724  0.251660  0.650434  1
  O  O23  1  0.965268  0.747487  0.858300  1
