# generated using pymatgen
data_Yb3Mn(Pt2O7)2
_symmetry_space_group_name_H-M   'P 1'
_cell_length_a   7.17077932
_cell_length_b   7.22612351
_cell_length_c   7.22612200
_cell_angle_alpha   59.99999775
_cell_angle_beta   59.74435769
_cell_angle_gamma   59.74436589
_symmetry_Int_Tables_number   1
_chemical_formula_structural   Yb3Mn(Pt2O7)2
_chemical_formula_sum   'Yb3 Mn1 Pt4 O14'
_cell_volume   263.73821898
_cell_formula_units_Z   1
loop_
 _symmetry_equiv_pos_site_id
 _symmetry_equiv_pos_as_xyz
  1  'x, y, z'
loop_
 _atom_site_type_symbol
 _atom_site_label
 _atom_site_symmetry_multiplicity
 _atom_site_fract_x
 _atom_site_fract_y
 _atom_site_fract_z
 _atom_site_occupancy
  Yb  Yb0  1  0.625000  0.625000  0.125000  1
  Yb  Yb1  1  0.625000  0.625000  0.625000  1
  Yb  Yb2  1  0.625000  0.125000  0.625000  1
  Mn  Mn3  1  0.125000  0.625000  0.625000  1
  Pt  Pt4  1  0.625000  0.125000  0.125000  1
  Pt  Pt5  1  0.125000  0.125000  0.125000  1
  Pt  Pt6  1  0.125000  0.625000  0.125000  1
  Pt  Pt7  1  0.125000  0.125000  0.625000  1
  O  O8  1  0.052413  0.458813  0.458813  1
  O  O9  1  0.788053  0.787761  0.212092  1
  O  O10  1  0.788053  0.212092  0.212092  1
  O  O11  1  0.052413  0.458813  0.029962  1
  O  O12  1  0.461947  0.037908  0.462239  1
  O  O13  1  0.797808  0.734064  0.734064  1
  O  O14  1  0.052413  0.029962  0.458813  1
  O  O15  1  0.788053  0.212092  0.787761  1
  O  O16  1  0.452192  0.515936  0.515936  1
  O  O17  1  0.197587  0.220038  0.791187  1
  O  O18  1  0.197587  0.791187  0.220038  1
  O  O19  1  0.461947  0.037908  0.037908  1
  O  O20  1  0.461947  0.462239  0.037908  1
  O  O21  1  0.197587  0.791187  0.791187  1
