# generated using pymatgen
data_Cs6Nb2Te7S
_symmetry_space_group_name_H-M   'P 1'
_cell_length_a   10.97998900
_cell_length_b   11.00734500
_cell_length_c   12.70132200
_cell_angle_alpha   90.00000000
_cell_angle_beta   90.00000000
_cell_angle_gamma   90.00000000
_symmetry_Int_Tables_number   1
_chemical_formula_structural   Cs6Nb2Te7S
_chemical_formula_sum   'Cs12 Nb4 Te14 S2'
_cell_volume   1535.08847076
_cell_formula_units_Z   2
loop_
 _symmetry_equiv_pos_site_id
 _symmetry_equiv_pos_as_xyz
  1  'x, y, z'
loop_
 _atom_site_type_symbol
 _atom_site_label
 _atom_site_symmetry_multiplicity
 _atom_site_fract_x
 _atom_site_fract_y
 _atom_site_fract_z
 _atom_site_occupancy
  Cs  Cs0  1  0.550905  0.207797  0.052480  1
  Cs  Cs1  1  0.050905  0.292203  0.447520  1
  Cs  Cs2  1  0.450893  0.793949  0.541910  1
  Cs  Cs3  1  0.950893  0.706051  0.958090  1
  Cs  Cs4  1  0.450893  0.793949  0.958090  1
  Cs  Cs5  1  0.950893  0.706051  0.541910  1
  Cs  Cs6  1  0.550905  0.207797  0.447520  1
  Cs  Cs7  1  0.050905  0.292203  0.052480  1
  Cs  Cs8  1  0.641393  0.407852  0.750000  1
  Cs  Cs9  1  0.141393  0.092148  0.750000  1
  Cs  Cs10  1  0.358019  0.577695  0.250000  1
  Cs  Cs11  1  0.858019  0.922305  0.250000  1
  Nb  Nb12  1  0.720509  0.984831  0.750000  1
  Nb  Nb13  1  0.220509  0.515169  0.750000  1
  Nb  Nb14  1  0.279834  0.027427  0.250000  1
  Nb  Nb15  1  0.779834  0.472573  0.250000  1
  Te  Te16  1  0.835490  0.052937  0.578214  1
  Te  Te17  1  0.335490  0.447063  0.921786  1
  Te  Te18  1  0.163954  0.955327  0.079241  1
  Te  Te19  1  0.663954  0.544673  0.420759  1
  Te  Te20  1  0.163954  0.955327  0.420759  1
  Te  Te21  1  0.663954  0.544673  0.079241  1
  Te  Te22  1  0.835490  0.052937  0.921786  1
  Te  Te23  1  0.335490  0.447063  0.578214  1
  Te  Te24  1  0.498758  0.076734  0.750000  1
  Te  Te25  1  0.998758  0.423266  0.750000  1
  Te  Te26  1  0.499822  0.926760  0.250000  1
  Te  Te27  1  0.999822  0.573240  0.250000  1
  Te  Te28  1  0.704706  0.746400  0.750000  1
  Te  Te29  1  0.204706  0.753600  0.750000  1
  S  S30  1  0.294474  0.233216  0.250000  1
  S  S31  1  0.794474  0.266784  0.250000  1
