# generated using pymatgen
data_Sc2Re2B4Os3
_symmetry_space_group_name_H-M   'P 1'
_cell_length_a   8.62241006
_cell_length_b   3.04349600
_cell_length_c   10.08115804
_cell_angle_alpha   90.00000000
_cell_angle_beta   90.00199267
_cell_angle_gamma   90.00000000
_symmetry_Int_Tables_number   1
_chemical_formula_structural   Sc2Re2B4Os3
_chemical_formula_sum   'Sc4 Re4 B8 Os6'
_cell_volume   264.55247636
_cell_formula_units_Z   2
loop_
 _symmetry_equiv_pos_site_id
 _symmetry_equiv_pos_as_xyz
  1  'x, y, z'
loop_
 _atom_site_type_symbol
 _atom_site_label
 _atom_site_symmetry_multiplicity
 _atom_site_fract_x
 _atom_site_fract_y
 _atom_site_fract_z
 _atom_site_occupancy
  Sc  Sc0  1  0.157844  0.500000  0.681786  1
  Sc  Sc1  1  0.842156  0.500000  0.318214  1
  Sc  Sc2  1  0.657861  0.500000  0.818264  1
  Sc  Sc3  1  0.342139  0.500000  0.181736  1
  Re  Re4  1  0.159777  0.000000  0.952885  1
  Re  Re5  1  0.840223  0.000000  0.047115  1
  Re  Re6  1  0.659808  0.000000  0.547068  1
  Re  Re7  1  0.340192  0.000000  0.452932  1
  B  B8  1  0.348655  0.500000  0.900643  1
  B  B9  1  0.651345  0.500000  0.099357  1
  B  B10  1  0.464446  0.500000  0.588517  1
  B  B11  1  0.535554  0.500000  0.411483  1
  B  B12  1  0.848641  0.500000  0.599315  1
  B  B13  1  0.151359  0.500000  0.400685  1
  B  B14  1  0.964343  0.500000  0.911494  1
  B  B15  1  0.035657  0.500000  0.088506  1
  Os  Os16  1  0.404674  0.000000  0.739069  1
  Os  Os17  1  0.595326  0.000000  0.260931  1
  Os  Os18  1  0.904647  0.000000  0.760918  1
  Os  Os19  1  0.095353  0.000000  0.239082  1
  Os  Os20  1  0.500000  0.000000  0.000000  1
  Os  Os21  1  0.000000  0.000000  0.500000  1
