# generated using pymatgen
data_TmCoNiO5
_symmetry_space_group_name_H-M   'P 1'
_cell_length_a   5.61027700
_cell_length_b   7.13481800
_cell_length_c   8.26331000
_cell_angle_alpha   90.00000000
_cell_angle_beta   90.00000000
_cell_angle_gamma   90.00000000
_symmetry_Int_Tables_number   1
_chemical_formula_structural   TmCoNiO5
_chemical_formula_sum   'Tm4 Co4 Ni4 O20'
_cell_volume   330.76629567
_cell_formula_units_Z   4
loop_
 _symmetry_equiv_pos_site_id
 _symmetry_equiv_pos_as_xyz
  1  'x, y, z'
loop_
 _atom_site_type_symbol
 _atom_site_label
 _atom_site_symmetry_multiplicity
 _atom_site_fract_x
 _atom_site_fract_y
 _atom_site_fract_z
 _atom_site_occupancy
  Tm  Tm0  1  0.500000  0.363182  0.328125  1
  Tm  Tm1  1  0.500000  0.636818  0.671875  1
  Tm  Tm2  1  0.500000  0.136818  0.828125  1
  Tm  Tm3  1  0.500000  0.863182  0.171875  1
  Co  Co4  1  0.244691  0.000000  0.500000  1
  Co  Co5  1  0.755309  0.000000  0.500000  1
  Co  Co6  1  0.755309  0.500000  0.000000  1
  Co  Co7  1  0.244691  0.500000  0.000000  1
  Ni  Ni8  1  0.000000  0.085617  0.151011  1
  Ni  Ni9  1  0.000000  0.914383  0.848989  1
  Ni  Ni10  1  0.000000  0.414383  0.651011  1
  Ni  Ni11  1  0.000000  0.585617  0.348989  1
  O  O12  1  0.500000  0.335098  0.055778  1
  O  O13  1  0.500000  0.664902  0.944222  1
  O  O14  1  0.500000  0.164902  0.555778  1
  O  O15  1  0.500000  0.835098  0.444222  1
  O  O16  1  0.229586  0.000000  0.000000  1
  O  O17  1  0.770414  0.000000  0.000000  1
  O  O18  1  0.770414  0.500000  0.500000  1
  O  O19  1  0.229586  0.500000  0.500000  1
  O  O20  1  0.258747  0.107531  0.293549  1
  O  O21  1  0.741253  0.892469  0.706451  1
  O  O22  1  0.258747  0.892469  0.706451  1
  O  O23  1  0.741253  0.392469  0.793549  1
  O  O24  1  0.741253  0.107531  0.293549  1
  O  O25  1  0.258747  0.607531  0.206451  1
  O  O26  1  0.741253  0.607531  0.206451  1
  O  O27  1  0.258747  0.392469  0.793549  1
  O  O28  1  0.000000  0.349502  0.073489  1
  O  O29  1  0.000000  0.650498  0.926511  1
  O  O30  1  0.000000  0.150498  0.573489  1
  O  O31  1  0.000000  0.849502  0.426511  1
