# generated using pymatgen
data_Tm4InPt
_symmetry_space_group_name_H-M   'P 1'
_cell_length_a   9.59480176
_cell_length_b   9.59480176
_cell_length_c   9.59480200
_cell_angle_alpha   59.99999917
_cell_angle_beta   59.99999918
_cell_angle_gamma   60.00000342
_symmetry_Int_Tables_number   1
_chemical_formula_structural   Tm4InPt
_chemical_formula_sum   'Tm16 In4 Pt4'
_cell_volume   624.58713873
_cell_formula_units_Z   4
loop_
 _symmetry_equiv_pos_site_id
 _symmetry_equiv_pos_as_xyz
  1  'x, y, z'
loop_
 _atom_site_type_symbol
 _atom_site_label
 _atom_site_symmetry_multiplicity
 _atom_site_fract_x
 _atom_site_fract_y
 _atom_site_fract_z
 _atom_site_occupancy
  Tm  Tm0  1  0.062719  0.062719  0.437281  1
  Tm  Tm1  1  0.437281  0.062719  0.437281  1
  Tm  Tm2  1  0.062719  0.437281  0.062719  1
  Tm  Tm3  1  0.055043  0.648319  0.648319  1
  Tm  Tm4  1  0.437281  0.437281  0.062719  1
  Tm  Tm5  1  0.648319  0.055043  0.648319  1
  Tm  Tm6  1  0.189480  0.810520  0.189480  1
  Tm  Tm7  1  0.189480  0.189480  0.810520  1
  Tm  Tm8  1  0.810520  0.810520  0.189480  1
  Tm  Tm9  1  0.437281  0.062719  0.062719  1
  Tm  Tm10  1  0.810520  0.189480  0.189480  1
  Tm  Tm11  1  0.062719  0.437281  0.437281  1
  Tm  Tm12  1  0.810520  0.189480  0.810520  1
  Tm  Tm13  1  0.189480  0.810520  0.810520  1
  Tm  Tm14  1  0.648319  0.648319  0.055043  1
  Tm  Tm15  1  0.648319  0.648319  0.648319  1
  In  In16  1  0.416363  0.416363  0.416363  1
  In  In17  1  0.750910  0.416363  0.416363  1
  In  In18  1  0.416363  0.750910  0.416363  1
  In  In19  1  0.416363  0.416363  0.750910  1
  Pt  Pt20  1  0.856934  0.856934  0.429199  1
  Pt  Pt21  1  0.856934  0.856934  0.856934  1
  Pt  Pt22  1  0.429199  0.856934  0.856934  1
  Pt  Pt23  1  0.856934  0.429199  0.856934  1
