# generated using pymatgen
data_YTm5Tc2
_symmetry_space_group_name_H-M   'P 1'
_cell_length_a   6.14285200
_cell_length_b   7.46643600
_cell_length_c   8.99129600
_cell_angle_alpha   90.00000000
_cell_angle_beta   90.00000000
_cell_angle_gamma   90.00000000
_symmetry_Int_Tables_number   1
_chemical_formula_structural   YTm5Tc2
_chemical_formula_sum   'Y2 Tm10 Tc4'
_cell_volume   412.38769104
_cell_formula_units_Z   2
loop_
 _symmetry_equiv_pos_site_id
 _symmetry_equiv_pos_as_xyz
  1  'x, y, z'
loop_
 _atom_site_type_symbol
 _atom_site_label
 _atom_site_symmetry_multiplicity
 _atom_site_fract_x
 _atom_site_fract_y
 _atom_site_fract_z
 _atom_site_occupancy
  Y  Y0  1  0.876998  0.538577  0.250000  1
  Y  Y1  1  0.623002  0.038577  0.250000  1
  Tm  Tm2  1  0.346287  0.675192  0.060751  1
  Tm  Tm3  1  0.153713  0.175192  0.439249  1
  Tm  Tm4  1  0.653053  0.325005  0.563918  1
  Tm  Tm5  1  0.846947  0.825005  0.936082  1
  Tm  Tm6  1  0.653053  0.325005  0.936082  1
  Tm  Tm7  1  0.846947  0.825005  0.563918  1
  Tm  Tm8  1  0.346287  0.675192  0.439249  1
  Tm  Tm9  1  0.153713  0.175192  0.060751  1
  Tm  Tm10  1  0.124358  0.459614  0.750000  1
  Tm  Tm11  1  0.375642  0.959614  0.750000  1
  Tc  Tc12  1  0.053269  0.884011  0.250000  1
  Tc  Tc13  1  0.446731  0.384011  0.250000  1
  Tc  Tc14  1  0.955708  0.117407  0.750000  1
  Tc  Tc15  1  0.544292  0.617407  0.750000  1
