# generated using pymatgen
data_Ba2US5
_symmetry_space_group_name_H-M   'P 1'
_cell_length_a   7.85413200
_cell_length_b   8.62446300
_cell_length_c   12.54510400
_cell_angle_alpha   90.00000000
_cell_angle_beta   90.00000000
_cell_angle_gamma   90.00000000
_symmetry_Int_Tables_number   1
_chemical_formula_structural   Ba2US5
_chemical_formula_sum   'Ba8 U4 S20'
_cell_volume   849.77612529
_cell_formula_units_Z   4
loop_
 _symmetry_equiv_pos_site_id
 _symmetry_equiv_pos_as_xyz
  1  'x, y, z'
loop_
 _atom_site_type_symbol
 _atom_site_label
 _atom_site_symmetry_multiplicity
 _atom_site_fract_x
 _atom_site_fract_y
 _atom_site_fract_z
 _atom_site_occupancy
  Ba  Ba0  1  0.437909  0.504857  0.670095  1
  Ba  Ba1  1  0.937909  0.495143  0.829905  1
  Ba  Ba2  1  0.562091  0.004857  0.329905  1
  Ba  Ba3  1  0.062091  0.995143  0.170095  1
  Ba  Ba4  1  0.937909  0.004857  0.829905  1
  Ba  Ba5  1  0.437909  0.995143  0.670095  1
  Ba  Ba6  1  0.062091  0.504857  0.170095  1
  Ba  Ba7  1  0.562091  0.495143  0.329905  1
  U  U8  1  0.944415  0.750000  0.502959  1
  U  U9  1  0.444415  0.250000  0.997041  1
  U  U10  1  0.055585  0.250000  0.497041  1
  U  U11  1  0.555585  0.750000  0.002959  1
  S  S12  1  0.336942  0.960631  0.931417  1
  S  S13  1  0.836942  0.039369  0.568583  1
  S  S14  1  0.663058  0.460631  0.068583  1
  S  S15  1  0.163058  0.539369  0.431417  1
  S  S16  1  0.663058  0.039369  0.068583  1
  S  S17  1  0.163058  0.960631  0.431417  1
  S  S18  1  0.336942  0.539369  0.931417  1
  S  S19  1  0.836942  0.460631  0.568583  1
  S  S20  1  0.383288  0.750000  0.179932  1
  S  S21  1  0.883288  0.250000  0.320068  1
  S  S22  1  0.616712  0.250000  0.820068  1
  S  S23  1  0.116712  0.750000  0.679932  1
  S  S24  1  0.101036  0.250000  0.986879  1
  S  S25  1  0.601036  0.750000  0.513121  1
  S  S26  1  0.898964  0.750000  0.013121  1
  S  S27  1  0.398964  0.250000  0.486879  1
  S  S28  1  0.645654  0.750000  0.806978  1
  S  S29  1  0.145654  0.250000  0.693022  1
  S  S30  1  0.354346  0.250000  0.193022  1
  S  S31  1  0.854346  0.750000  0.306978  1
