# generated using pymatgen
data_Dy4Ga18NiRu5
_symmetry_space_group_name_H-M   'P 1'
_cell_length_a   7.49914345
_cell_length_b   7.49914269
_cell_length_c   9.65165600
_cell_angle_alpha   90.26190623
_cell_angle_beta   90.26190497
_cell_angle_gamma   119.73414894
_symmetry_Int_Tables_number   1
_chemical_formula_structural   Dy4Ga18NiRu5
_chemical_formula_sum   'Dy4 Ga18 Ni1 Ru5'
_cell_volume   471.29729277
_cell_formula_units_Z   1
loop_
 _symmetry_equiv_pos_site_id
 _symmetry_equiv_pos_as_xyz
  1  'x, y, z'
loop_
 _atom_site_type_symbol
 _atom_site_label
 _atom_site_symmetry_multiplicity
 _atom_site_fract_x
 _atom_site_fract_y
 _atom_site_fract_z
 _atom_site_occupancy
  Dy  Dy0  1  0.997384  0.669046  0.250092  1
  Dy  Dy1  1  0.002616  0.330954  0.749908  1
  Dy  Dy2  1  0.669046  0.997384  0.250092  1
  Dy  Dy3  1  0.330954  0.002616  0.749908  1
  Ga  Ga4  1  0.126234  0.126234  0.248062  1
  Ga  Ga5  1  0.873766  0.873766  0.751938  1
  Ga  Ga6  1  0.005250  0.332003  0.076538  1
  Ga  Ga7  1  0.994750  0.667997  0.923462  1
  Ga  Ga8  1  0.994692  0.665097  0.576363  1
  Ga  Ga9  1  0.334903  0.005308  0.423637  1
  Ga  Ga10  1  0.005308  0.334903  0.423637  1
  Ga  Ga11  1  0.665097  0.994692  0.576363  1
  Ga  Ga12  1  0.667997  0.994750  0.923462  1
  Ga  Ga13  1  0.332003  0.005250  0.076538  1
  Ga  Ga14  1  0.337368  0.337368  0.559727  1
  Ga  Ga15  1  0.662632  0.662632  0.440273  1
  Ga  Ga16  1  0.664638  0.664638  0.060187  1
  Ga  Ga17  1  0.335362  0.335362  0.939813  1
  Ga  Ga18  1  0.337426  0.549351  0.249527  1
  Ga  Ga19  1  0.662574  0.450649  0.750473  1
  Ga  Ga20  1  0.549351  0.337426  0.249527  1
  Ga  Ga21  1  0.450649  0.662574  0.750473  1
  Ni  Ni22  1  0.000000  0.000000  0.000000  1
  Ru  Ru23  1  0.674773  0.325227  0.000000  1
  Ru  Ru24  1  0.325227  0.674773  0.000000  1
  Ru  Ru25  1  0.325460  0.674540  0.500000  1
  Ru  Ru26  1  0.674540  0.325460  0.500000  1
  Ru  Ru27  1  0.000000  0.000000  0.500000  1
