# generated using pymatgen
data_LuCoH3
_symmetry_space_group_name_H-M   'P 1'
_cell_length_a   5.72500308
_cell_length_b   5.72500284
_cell_length_c   4.46293200
_cell_angle_alpha   90.00000000
_cell_angle_beta   90.00000000
_cell_angle_gamma   144.00348871
_symmetry_Int_Tables_number   1
_chemical_formula_structural   LuCoH3
_chemical_formula_sum   'Lu2 Co2 H6'
_cell_volume   85.97139752
_cell_formula_units_Z   2
loop_
 _symmetry_equiv_pos_site_id
 _symmetry_equiv_pos_as_xyz
  1  'x, y, z'
loop_
 _atom_site_type_symbol
 _atom_site_label
 _atom_site_symmetry_multiplicity
 _atom_site_fract_x
 _atom_site_fract_y
 _atom_site_fract_z
 _atom_site_occupancy
  Lu  Lu0  1  0.869962  0.130040  0.249999  1
  Lu  Lu1  1  0.130040  0.869962  0.750000  1
  Co  Co2  1  0.580740  0.419263  0.249999  1
  Co  Co3  1  0.419263  0.580740  0.750000  1
  H  H4  1  0.684782  0.315221  0.005024  1
  H  H5  1  0.077363  0.922639  0.249999  1
  H  H6  1  0.684782  0.315221  0.494977  1
  H  H7  1  0.315221  0.684782  0.505024  1
  H  H8  1  0.922639  0.077363  0.750000  1
  H  H9  1  0.315221  0.684782  0.994975  1
