# generated using pymatgen
data_Ba16Pu6O37
_symmetry_space_group_name_H-M   'P 1'
_cell_length_a   11.24642878
_cell_length_b   11.24642797
_cell_length_c   16.23089800
_cell_angle_alpha   87.59165040
_cell_angle_beta   87.59165057
_cell_angle_gamma   31.55844386
_symmetry_Int_Tables_number   1
_chemical_formula_structural   Ba16Pu6O37
_chemical_formula_sum   'Ba16 Pu6 O37'
_cell_volume   1073.40724778
_cell_formula_units_Z   1
loop_
 _symmetry_equiv_pos_site_id
 _symmetry_equiv_pos_as_xyz
  1  'x, y, z'
loop_
 _atom_site_type_symbol
 _atom_site_label
 _atom_site_symmetry_multiplicity
 _atom_site_fract_x
 _atom_site_fract_y
 _atom_site_fract_z
 _atom_site_occupancy
  Ba  Ba0  1  0.542744  0.542744  0.861532  1
  Ba  Ba1  1  0.457256  0.457256  0.138468  1
  Ba  Ba2  1  0.188295  0.188295  0.957174  1
  Ba  Ba3  1  0.811705  0.811705  0.042826  1
  Ba  Ba4  1  0.422436  0.422436  0.645135  1
  Ba  Ba5  1  0.577564  0.577564  0.354865  1
  Ba  Ba6  1  0.909768  0.909768  0.795463  1
  Ba  Ba7  1  0.090232  0.090232  0.204537  1
  Ba  Ba8  1  0.610674  0.610674  0.597833  1
  Ba  Ba9  1  0.389326  0.389326  0.402167  1
  Ba  Ba10  1  0.733410  0.733410  0.796934  1
  Ba  Ba11  1  0.266590  0.266590  0.203066  1
  Ba  Ba12  1  0.233165  0.233165  0.600375  1
  Ba  Ba13  1  0.766835  0.766835  0.399625  1
  Ba  Ba14  1  0.000000  0.000000  0.000000  1
  Ba  Ba15  1  0.000000  0.000000  0.500000  1
  Pu  Pu16  1  0.362054  0.362054  0.924229  1
  Pu  Pu17  1  0.637946  0.637946  0.075771  1
  Pu  Pu18  1  0.080793  0.080793  0.740113  1
  Pu  Pu19  1  0.919207  0.919207  0.259887  1
  Pu  Pu20  1  0.826355  0.826355  0.607895  1
  Pu  Pu21  1  0.173645  0.173645  0.392105  1
  O  O22  1  0.345266  0.345266  0.048181  1
  O  O23  1  0.654734  0.654734  0.951819  1
  O  O24  1  0.918765  0.918765  0.623684  1
  O  O25  1  0.081235  0.081235  0.376316  1
  O  O26  1  0.733898  0.733898  0.605939  1
  O  O27  1  0.266102  0.266102  0.394061  1
  O  O28  1  0.386008  0.386008  0.808054  1
  O  O29  1  0.613992  0.613992  0.191946  1
  O  O30  1  0.059978  0.531338  0.911447  1
  O  O31  1  0.531338  0.059978  0.911447  1
  O  O32  1  0.940022  0.468662  0.088553  1
  O  O33  1  0.468662  0.940022  0.088553  1
  O  O34  1  0.073191  0.591906  0.523659  1
  O  O35  1  0.591906  0.073191  0.523659  1
  O  O36  1  0.926809  0.408094  0.476341  1
  O  O37  1  0.408094  0.926809  0.476341  1
  O  O38  1  0.778657  0.248930  0.740849  1
  O  O39  1  0.248930  0.778657  0.740849  1
  O  O40  1  0.221343  0.751070  0.259151  1
  O  O41  1  0.751070  0.221343  0.259151  1
  O  O42  1  0.076619  0.076619  0.866580  1
  O  O43  1  0.923381  0.923381  0.133420  1
  O  O44  1  0.087692  0.087692  0.617437  1
  O  O45  1  0.912308  0.912308  0.382563  1
  O  O46  1  0.908737  0.382189  0.740312  1
  O  O47  1  0.382189  0.908737  0.740312  1
  O  O48  1  0.091263  0.617811  0.259688  1
  O  O49  1  0.617811  0.091263  0.259688  1
  O  O50  1  0.197152  0.660113  0.934812  1
  O  O51  1  0.660113  0.197152  0.934812  1
  O  O52  1  0.802848  0.339887  0.065188  1
  O  O53  1  0.339887  0.802848  0.065188  1
  O  O54  1  0.500000  0.500000  0.500000  1
  O  O55  1  0.046670  0.590444  0.696523  1
  O  O56  1  0.590444  0.046670  0.696523  1
  O  O57  1  0.953330  0.409556  0.303477  1
  O  O58  1  0.409556  0.953330  0.303477  1
