# generated using pymatgen
data_NdErZn5Ge
_symmetry_space_group_name_H-M   'P 1'
_cell_length_a   8.27559207
_cell_length_b   8.27559248
_cell_length_c   8.82055900
_cell_angle_alpha   90.00000000
_cell_angle_beta   90.00000000
_cell_angle_gamma   149.56650890
_symmetry_Int_Tables_number   1
_chemical_formula_structural   NdErZn5Ge
_chemical_formula_sum   'Nd2 Er2 Zn10 Ge2'
_cell_volume   305.98925558
_cell_formula_units_Z   2
loop_
 _symmetry_equiv_pos_site_id
 _symmetry_equiv_pos_as_xyz
  1  'x, y, z'
loop_
 _atom_site_type_symbol
 _atom_site_label
 _atom_site_symmetry_multiplicity
 _atom_site_fract_x
 _atom_site_fract_y
 _atom_site_fract_z
 _atom_site_occupancy
  Nd  Nd0  1  0.000000  0.000000  0.500000  1
  Nd  Nd1  1  0.000000  0.000000  0.000000  1
  Er  Er2  1  0.201459  0.798541  0.250000  1
  Er  Er3  1  0.798541  0.201459  0.750000  1
  Zn  Zn4  1  0.812480  0.187520  0.391613  1
  Zn  Zn5  1  0.187520  0.812480  0.608387  1
  Zn  Zn6  1  0.812480  0.187520  0.108387  1
  Zn  Zn7  1  0.187520  0.812480  0.891613  1
  Zn  Zn8  1  0.654451  0.345549  0.476576  1
  Zn  Zn9  1  0.345549  0.654451  0.523424  1
  Zn  Zn10  1  0.654451  0.345549  0.023424  1
  Zn  Zn11  1  0.345549  0.654451  0.976576  1
  Zn  Zn12  1  0.400102  0.599898  0.250000  1
  Zn  Zn13  1  0.599898  0.400102  0.750000  1
  Ge  Ge14  1  0.557705  0.442295  0.250000  1
  Ge  Ge15  1  0.442295  0.557705  0.750000  1
