# generated using pymatgen
data_Tb2Ta2NbP7(RuRh2)3
_symmetry_space_group_name_H-M   'P 1'
_cell_length_a   3.86505000
_cell_length_b   9.69945469
_cell_length_c   9.69930300
_cell_angle_alpha   119.99958840
_cell_angle_beta   89.99939221
_cell_angle_gamma   90.00038659
_symmetry_Int_Tables_number   1
_chemical_formula_structural   Tb2Ta2NbP7(RuRh2)3
_chemical_formula_sum   'Tb2 Ta2 Nb1 P7 Ru3 Rh6'
_cell_volume   314.90198230
_cell_formula_units_Z   1
loop_
 _symmetry_equiv_pos_site_id
 _symmetry_equiv_pos_as_xyz
  1  'x, y, z'
loop_
 _atom_site_type_symbol
 _atom_site_label
 _atom_site_symmetry_multiplicity
 _atom_site_fract_x
 _atom_site_fract_y
 _atom_site_fract_z
 _atom_site_occupancy
  Tb  Tb0  1  0.261777  0.666811  0.333514  1
  Tb  Tb1  1  0.761873  0.333422  0.666970  1
  Ta  Ta2  1  0.761923  0.121603  0.221696  1
  Ta  Ta3  1  0.761922  0.778483  0.900004  1
  Nb  Nb4  1  0.761941  0.099380  0.877677  1
  P  P5  1  0.261960  0.000350  0.999938  1
  P  P6  1  0.761825  0.872624  0.588862  1
  P  P7  1  0.761824  0.411673  0.283294  1
  P  P8  1  0.761815  0.715814  0.127870  1
  P  P9  1  0.261889  0.114504  0.415470  1
  P  P10  1  0.261886  0.584386  0.698863  1
  P  P11  1  0.261887  0.301119  0.885741  1
  Ru  Ru12  1  0.261888  0.884347  0.159335  1
  Ru  Ru13  1  0.261938  0.839739  0.724596  1
  Ru  Ru14  1  0.262195  0.276690  0.117472  1
  Rh  Rh15  1  0.761923  0.608100  0.555280  1
  Rh  Rh16  1  0.761923  0.444977  0.053212  1
  Rh  Rh17  1  0.761919  0.946469  0.390886  1
  Rh  Rh18  1  0.261939  0.364811  0.437970  1
  Rh  Rh19  1  0.261944  0.562471  0.927302  1
  Rh  Rh20  1  0.261811  0.072227  0.634047  1
