# generated using pymatgen
data_LuPuTcB6
_symmetry_space_group_name_H-M   'P 1'
_cell_length_a   3.65434000
_cell_length_b   9.09910700
_cell_length_c   11.46961400
_cell_angle_alpha   90.00000000
_cell_angle_beta   90.00000000
_cell_angle_gamma   90.00000000
_symmetry_Int_Tables_number   1
_chemical_formula_structural   LuPuTcB6
_chemical_formula_sum   'Lu4 Pu4 Tc4 B24'
_cell_volume   381.37878086
_cell_formula_units_Z   4
loop_
 _symmetry_equiv_pos_site_id
 _symmetry_equiv_pos_as_xyz
  1  'x, y, z'
loop_
 _atom_site_type_symbol
 _atom_site_label
 _atom_site_symmetry_multiplicity
 _atom_site_fract_x
 _atom_site_fract_y
 _atom_site_fract_z
 _atom_site_occupancy
  Lu  Lu0  1  0.000000  0.944068  0.372045  1
  Lu  Lu1  1  0.000000  0.055932  0.627955  1
  Lu  Lu2  1  0.000000  0.444068  0.127955  1
  Lu  Lu3  1  0.000000  0.555932  0.872045  1
  Pu  Pu4  1  0.000000  0.322447  0.414103  1
  Pu  Pu5  1  0.000000  0.677553  0.585897  1
  Pu  Pu6  1  0.000000  0.822447  0.085897  1
  Pu  Pu7  1  0.000000  0.177553  0.914103  1
  Tc  Tc8  1  0.000000  0.639025  0.320668  1
  Tc  Tc9  1  0.000000  0.360975  0.679332  1
  Tc  Tc10  1  0.000000  0.139025  0.179332  1
  Tc  Tc11  1  0.000000  0.860975  0.820668  1
  B  B12  1  0.500000  0.553364  0.433155  1
  B  B13  1  0.500000  0.446636  0.566845  1
  B  B14  1  0.500000  0.053364  0.066845  1
  B  B15  1  0.500000  0.946636  0.933155  1
  B  B16  1  0.500000  0.749940  0.419743  1
  B  B17  1  0.500000  0.250060  0.580257  1
  B  B18  1  0.500000  0.249940  0.080257  1
  B  B19  1  0.500000  0.750060  0.919743  1
  B  B20  1  0.500000  0.793464  0.265170  1
  B  B21  1  0.500000  0.206536  0.734830  1
  B  B22  1  0.500000  0.293464  0.234830  1
  B  B23  1  0.500000  0.706536  0.765170  1
  B  B24  1  0.500000  0.631761  0.184474  1
  B  B25  1  0.500000  0.368239  0.815526  1
  B  B26  1  0.500000  0.131761  0.315526  1
  B  B27  1  0.500000  0.868239  0.684474  1
  B  B28  1  0.500000  0.981740  0.212903  1
  B  B29  1  0.500000  0.018260  0.787097  1
  B  B30  1  0.500000  0.481740  0.287097  1
  B  B31  1  0.500000  0.518260  0.712903  1
  B  B32  1  0.500000  0.604334  0.028901  1
  B  B33  1  0.500000  0.395666  0.971099  1
  B  B34  1  0.500000  0.104334  0.471099  1
  B  B35  1  0.500000  0.895666  0.528901  1
