# generated using pymatgen
data_V2GaBr6
_symmetry_space_group_name_H-M   'P 1'
_cell_length_a   7.30745400
_cell_length_b   7.30745417
_cell_length_c   12.50164500
_cell_angle_alpha   90.00000000
_cell_angle_beta   90.00000000
_cell_angle_gamma   119.99999922
_symmetry_Int_Tables_number   1
_chemical_formula_structural   V2GaBr6
_chemical_formula_sum   'V4 Ga2 Br12'
_cell_volume   578.13596642
_cell_formula_units_Z   2
loop_
 _symmetry_equiv_pos_site_id
 _symmetry_equiv_pos_as_xyz
  1  'x, y, z'
loop_
 _atom_site_type_symbol
 _atom_site_label
 _atom_site_symmetry_multiplicity
 _atom_site_fract_x
 _atom_site_fract_y
 _atom_site_fract_z
 _atom_site_occupancy
  V  V0  1  0.000000  0.000000  0.125597  1
  V  V1  1  0.000000  0.000000  0.375800  1
  V  V2  1  0.000000  0.000000  0.625597  1
  V  V3  1  0.000000  0.000000  0.875800  1
  Ga  Ga4  1  0.333333  0.666667  0.873888  1
  Ga  Ga5  1  0.666667  0.333333  0.373888  1
  Br  Br6  1  0.988450  0.713038  0.000608  1
  Br  Br7  1  0.273942  0.985925  0.250874  1
  Br  Br8  1  0.014075  0.288016  0.250874  1
  Br  Br9  1  0.286962  0.275412  0.000608  1
  Br  Br10  1  0.275412  0.286962  0.500608  1
  Br  Br11  1  0.724588  0.011550  0.000608  1
  Br  Br12  1  0.288016  0.014075  0.750874  1
  Br  Br13  1  0.711984  0.726058  0.250874  1
  Br  Br14  1  0.726058  0.711984  0.750874  1
  Br  Br15  1  0.011550  0.724588  0.500608  1
  Br  Br16  1  0.713038  0.988450  0.500608  1
  Br  Br17  1  0.985925  0.273942  0.750874  1
