# generated using pymatgen
data_LaNp(B2Ir3)3
_symmetry_space_group_name_H-M   'P 1'
_cell_length_a   5.71439400
_cell_length_b   5.71438392
_cell_length_c   8.65918100
_cell_angle_alpha   89.99962902
_cell_angle_beta   90.00053141
_cell_angle_gamma   120.00009309
_symmetry_Int_Tables_number   1
_chemical_formula_structural   LaNp(B2Ir3)3
_chemical_formula_sum   'La1 Np1 B6 Ir9'
_cell_volume   244.87623435
_cell_formula_units_Z   1
loop_
 _symmetry_equiv_pos_site_id
 _symmetry_equiv_pos_as_xyz
  1  'x, y, z'
loop_
 _atom_site_type_symbol
 _atom_site_label
 _atom_site_symmetry_multiplicity
 _atom_site_fract_x
 _atom_site_fract_y
 _atom_site_fract_z
 _atom_site_occupancy
  La  La0  1  0.999751  0.999812  0.707935  1
  Np  Np1  1  0.000545  0.000445  0.303345  1
  B  B2  1  0.333427  0.666732  0.999133  1
  B  B3  1  0.666743  0.333400  0.999135  1
  B  B4  1  0.333514  0.666808  0.331480  1
  B  B5  1  0.666850  0.333471  0.331459  1
  B  B6  1  0.666714  0.333368  0.667317  1
  B  B7  1  0.333370  0.666698  0.667300  1
  Ir  Ir8  1  0.499911  0.000028  0.163364  1
  Ir  Ir9  1  0.499861  0.499845  0.163386  1
  Ir  Ir10  1  0.000031  0.499969  0.163334  1
  Ir  Ir11  1  0.499923  0.000003  0.836162  1
  Ir  Ir12  1  0.499894  0.499902  0.836182  1
  Ir  Ir13  1  0.999992  0.499973  0.836133  1
  Ir  Ir14  1  0.499758  0.999930  0.498116  1
  Ir  Ir15  1  0.499702  0.499735  0.498138  1
  Ir  Ir16  1  0.999916  0.499881  0.498082  1
