# generated using pymatgen
data_Sr3Nd(Sn2Ir)8
_symmetry_space_group_name_H-M   'P 1'
_cell_length_a   4.54676600
_cell_length_b   7.29091351
_cell_length_c   18.79055730
_cell_angle_alpha   89.95732936
_cell_angle_beta   90.00000000
_cell_angle_gamma   90.00000000
_symmetry_Int_Tables_number   1
_chemical_formula_structural   Sr3Nd(Sn2Ir)8
_chemical_formula_sum   'Sr3 Nd1 Sn16 Ir8'
_cell_volume   622.90826066
_cell_formula_units_Z   1
loop_
 _symmetry_equiv_pos_site_id
 _symmetry_equiv_pos_as_xyz
  1  'x, y, z'
loop_
 _atom_site_type_symbol
 _atom_site_label
 _atom_site_symmetry_multiplicity
 _atom_site_fract_x
 _atom_site_fract_y
 _atom_site_fract_z
 _atom_site_occupancy
  Sr  Sr0  1  0.250000  0.003586  0.857600  1
  Sr  Sr1  1  0.750000  0.996757  0.142419  1
  Sr  Sr2  1  0.750000  0.503419  0.642407  1
  Nd  Nd3  1  0.250000  0.497673  0.357414  1
  Sn  Sn4  1  0.250000  0.277403  0.194102  1
  Sn  Sn5  1  0.750000  0.980294  0.567723  1
  Sn  Sn6  1  0.750000  0.303766  0.817692  1
  Sn  Sn7  1  0.250000  0.133263  0.031837  1
  Sn  Sn8  1  0.750000  0.197037  0.317327  1
  Sn  Sn9  1  0.250000  0.479129  0.931991  1
  Sn  Sn10  1  0.750000  0.866083  0.967751  1
  Sn  Sn11  1  0.250000  0.366004  0.532021  1
  Sn  Sn12  1  0.250000  0.695896  0.182335  1
  Sn  Sn13  1  0.750000  0.519919  0.068695  1
  Sn  Sn14  1  0.750000  0.722704  0.806037  1
  Sn  Sn15  1  0.250000  0.021807  0.432264  1
  Sn  Sn16  1  0.750000  0.777368  0.306172  1
  Sn  Sn17  1  0.750000  0.632415  0.467697  1
  Sn  Sn18  1  0.250000  0.221724  0.694092  1
  Sn  Sn19  1  0.250000  0.803545  0.682141  1
  Ir  Ir20  1  0.250000  0.516352  0.785898  1
  Ir  Ir21  1  0.250000  0.744610  0.035988  1
  Ir  Ir22  1  0.750000  0.247162  0.462799  1
  Ir  Ir23  1  0.250000  0.982591  0.287527  1
  Ir  Ir24  1  0.250000  0.754158  0.534233  1
  Ir  Ir25  1  0.750000  0.255103  0.964441  1
  Ir  Ir26  1  0.750000  0.016462  0.713529  1
  Ir  Ir27  1  0.750000  0.483768  0.215868  1
