# generated using pymatgen
data_CdAg(NO3)4
_symmetry_space_group_name_H-M   'P 1'
_cell_length_a   7.92663787
_cell_length_b   7.53377400
_cell_length_c   8.51222916
_cell_angle_alpha   90.00000000
_cell_angle_beta   85.84674931
_cell_angle_gamma   90.00000000
_symmetry_Int_Tables_number   1
_chemical_formula_structural   CdAg(NO3)4
_chemical_formula_sum   'Cd2 Ag2 N8 O24'
_cell_volume   506.99410861
_cell_formula_units_Z   2
loop_
 _symmetry_equiv_pos_site_id
 _symmetry_equiv_pos_as_xyz
  1  'x, y, z'
loop_
 _atom_site_type_symbol
 _atom_site_label
 _atom_site_symmetry_multiplicity
 _atom_site_fract_x
 _atom_site_fract_y
 _atom_site_fract_z
 _atom_site_occupancy
  Cd  Cd0  1  0.000000  0.500000  0.000000  1
  Cd  Cd1  1  0.000000  0.000000  0.500000  1
  Ag  Ag2  1  0.500000  0.500000  0.500000  1
  Ag  Ag3  1  0.500000  0.000000  0.000000  1
  N  N4  1  0.678350  0.170341  0.348484  1
  N  N5  1  0.678350  0.329659  0.848484  1
  N  N6  1  0.831296  0.829733  0.828086  1
  N  N7  1  0.831296  0.670267  0.328086  1
  N  N8  1  0.168704  0.170267  0.171914  1
  N  N9  1  0.168704  0.329733  0.671914  1
  N  N10  1  0.321650  0.670341  0.151516  1
  N  N11  1  0.321650  0.829659  0.651516  1
  O  O12  1  0.555658  0.220966  0.832410  1
  O  O13  1  0.555658  0.279034  0.332410  1
  O  O14  1  0.700862  0.453241  0.752873  1
  O  O15  1  0.700862  0.046759  0.252873  1
  O  O16  1  0.727476  0.683834  0.448704  1
  O  O17  1  0.727476  0.816166  0.948704  1
  O  O18  1  0.772062  0.305945  0.961903  1
  O  O19  1  0.772062  0.194055  0.461903  1
  O  O20  1  0.805429  0.939399  0.720855  1
  O  O21  1  0.805429  0.560601  0.220855  1
  O  O22  1  0.960831  0.730850  0.817944  1
  O  O23  1  0.960831  0.769150  0.317944  1
  O  O24  1  0.039169  0.230850  0.682056  1
  O  O25  1  0.039169  0.269150  0.182056  1
  O  O26  1  0.194571  0.439399  0.779145  1
  O  O27  1  0.194571  0.060601  0.279145  1
  O  O28  1  0.227938  0.694055  0.038097  1
  O  O29  1  0.227938  0.805945  0.538097  1
  O  O30  1  0.272524  0.183834  0.051296  1
  O  O31  1  0.272524  0.316166  0.551296  1
  O  O32  1  0.299138  0.546759  0.247127  1
  O  O33  1  0.299138  0.953241  0.747127  1
  O  O34  1  0.444342  0.720966  0.667590  1
  O  O35  1  0.444342  0.779034  0.167590  1
