# generated using pymatgen
data_Tb6Nd2CdAgPt2
_symmetry_space_group_name_H-M   'P 1'
_cell_length_a   9.76006259
_cell_length_b   9.75605946
_cell_length_c   9.74262783
_cell_angle_alpha   60.07271266
_cell_angle_beta   60.03190861
_cell_angle_gamma   59.99987741
_symmetry_Int_Tables_number   1
_chemical_formula_structural   Tb6Nd2CdAgPt2
_chemical_formula_sum   'Tb12 Nd4 Cd2 Ag2 Pt4'
_cell_volume   656.49372047
_cell_formula_units_Z   2
loop_
 _symmetry_equiv_pos_site_id
 _symmetry_equiv_pos_as_xyz
  1  'x, y, z'
loop_
 _atom_site_type_symbol
 _atom_site_label
 _atom_site_symmetry_multiplicity
 _atom_site_fract_x
 _atom_site_fract_y
 _atom_site_fract_z
 _atom_site_occupancy
  Tb  Tb0  1  0.350904  0.351980  0.350733  1
  Tb  Tb1  1  0.351980  0.350904  0.946381  1
  Tb  Tb2  1  0.354168  0.941333  0.351999  1
  Tb  Tb3  1  0.941333  0.354168  0.352501  1
  Tb  Tb4  1  0.811437  0.188513  0.190048  1
  Tb  Tb5  1  0.188513  0.811437  0.810000  1
  Tb  Tb6  1  0.188084  0.811846  0.189972  1
  Tb  Tb7  1  0.811846  0.188084  0.810097  1
  Tb  Tb8  1  0.189598  0.189598  0.810402  1
  Tb  Tb9  1  0.811087  0.811087  0.188913  1
  Tb  Tb10  1  0.936147  0.560064  0.562373  1
  Tb  Tb11  1  0.560064  0.936147  0.941416  1
  Nd  Nd12  1  0.564128  0.932870  0.566062  1
  Nd  Nd13  1  0.932870  0.564128  0.936939  1
  Nd  Nd14  1  0.563862  0.563862  0.936138  1
  Nd  Nd15  1  0.934905  0.934905  0.565095  1
  Cd  Cd16  1  0.580220  0.261663  0.579682  1
  Cd  Cd17  1  0.261663  0.580220  0.578436  1
  Ag  Ag18  1  0.585302  0.581639  0.581119  1
  Ag  Ag19  1  0.581639  0.585302  0.251940  1
  Pt  Pt20  1  0.145575  0.142358  0.143378  1
  Pt  Pt21  1  0.142358  0.145575  0.568691  1
  Pt  Pt22  1  0.141789  0.570528  0.144801  1
  Pt  Pt23  1  0.570528  0.141789  0.142881  1
