# generated using pymatgen
data_Sc3Al3ZnNiGe
_symmetry_space_group_name_H-M   'P 1'
_cell_length_a   6.67743200
_cell_length_b   6.67743136
_cell_length_c   3.98537000
_cell_angle_alpha   90.00000000
_cell_angle_beta   90.00000000
_cell_angle_gamma   120.00000319
_symmetry_Int_Tables_number   1
_chemical_formula_structural   Sc3Al3ZnNiGe
_chemical_formula_sum   'Sc3 Al3 Zn1 Ni1 Ge1'
_cell_volume   153.89275385
_cell_formula_units_Z   1
loop_
 _symmetry_equiv_pos_site_id
 _symmetry_equiv_pos_as_xyz
  1  'x, y, z'
loop_
 _atom_site_type_symbol
 _atom_site_label
 _atom_site_symmetry_multiplicity
 _atom_site_fract_x
 _atom_site_fract_y
 _atom_site_fract_z
 _atom_site_occupancy
  Sc  Sc0  1  0.409891  0.000884  0.000000  1
  Sc  Sc1  1  0.999116  0.409006  0.000000  1
  Sc  Sc2  1  0.590994  0.590108  0.000000  1
  Al  Al3  1  0.767942  0.007401  0.500001  1
  Al  Al4  1  0.239457  0.232057  0.500001  1
  Al  Al5  1  0.992599  0.760542  0.500001  1
  Zn  Zn6  1  0.666667  0.333334  0.500001  1
  Ni  Ni7  1  0.000000  0.000000  0.000000  1
  Ge  Ge8  1  0.333334  0.666667  0.500001  1
