# generated using pymatgen
data_Er20Si12Cl
_symmetry_space_group_name_H-M   'P 1'
_cell_length_a   6.27933433
_cell_length_b   8.39227101
_cell_length_c   14.61811500
_cell_angle_alpha   90.00000683
_cell_angle_beta   90.00000000
_cell_angle_gamma   89.97987631
_symmetry_Int_Tables_number   1
_chemical_formula_structural   Er20Si12Cl
_chemical_formula_sum   'Er20 Si12 Cl1'
_cell_volume   770.34355686
_cell_formula_units_Z   1
loop_
 _symmetry_equiv_pos_site_id
 _symmetry_equiv_pos_as_xyz
  1  'x, y, z'
loop_
 _atom_site_type_symbol
 _atom_site_label
 _atom_site_symmetry_multiplicity
 _atom_site_fract_x
 _atom_site_fract_y
 _atom_site_fract_z
 _atom_site_occupancy
  Er  Er0  1  0.500006  0.000005  0.333697  1
  Er  Er1  1  0.500002  0.499997  0.831244  1
  Er  Er2  1  0.500002  0.499997  0.168756  1
  Er  Er3  1  0.500006  0.000005  0.666303  1
  Er  Er4  1  0.000000  0.499997  0.167864  1
  Er  Er5  1  0.999998  0.000004  0.664572  1
  Er  Er6  1  0.999998  0.000004  0.335428  1
  Er  Er7  1  0.000000  0.499997  0.832136  1
  Er  Er8  1  0.762383  0.256897  0.000000  1
  Er  Er9  1  0.748885  0.743865  0.500000  1
  Er  Er10  1  0.751063  0.377334  0.379524  1
  Er  Er11  1  0.763587  0.871817  0.871785  1
  Er  Er12  1  0.763587  0.871817  0.128215  1
  Er  Er13  1  0.751063  0.377334  0.620476  1
  Er  Er14  1  0.237610  0.743098  0.000000  1
  Er  Er15  1  0.251106  0.256136  0.500000  1
  Er  Er16  1  0.236414  0.128177  0.128210  1
  Er  Er17  1  0.248949  0.622666  0.620475  1
  Er  Er18  1  0.248949  0.622666  0.379525  1
  Er  Er19  1  0.236414  0.128177  0.871790  1
  Si  Si20  1  0.751652  0.609771  0.000000  1
  Si  Si21  1  0.748402  0.106574  0.500000  1
  Si  Si22  1  0.754070  0.195556  0.196633  1
  Si  Si23  1  0.752239  0.694550  0.695171  1
  Si  Si24  1  0.752239  0.694550  0.304829  1
  Si  Si25  1  0.754070  0.195556  0.803367  1
  Si  Si26  1  0.248346  0.390224  0.000000  1
  Si  Si27  1  0.251605  0.893429  0.500000  1
  Si  Si28  1  0.247762  0.305452  0.304829  1
  Si  Si29  1  0.245932  0.804443  0.803366  1
  Si  Si30  1  0.245932  0.804443  0.196634  1
  Si  Si31  1  0.247762  0.305452  0.695171  1
  Cl  Cl32  1  0.499969  0.000010  0.000000  1
