# generated using pymatgen
data_Ce2ErTm(B6Os)2
_symmetry_space_group_name_H-M   'P 1'
_cell_length_a   3.68270300
_cell_length_b   9.17705207
_cell_length_c   11.55727709
_cell_angle_alpha   90.01406352
_cell_angle_beta   90.00000000
_cell_angle_gamma   90.00000000
_symmetry_Int_Tables_number   1
_chemical_formula_structural   Ce2ErTm(B6Os)2
_chemical_formula_sum   'Ce4 Er2 Tm2 B24 Os4'
_cell_volume   390.59385277
_cell_formula_units_Z   2
loop_
 _symmetry_equiv_pos_site_id
 _symmetry_equiv_pos_as_xyz
  1  'x, y, z'
loop_
 _atom_site_type_symbol
 _atom_site_label
 _atom_site_symmetry_multiplicity
 _atom_site_fract_x
 _atom_site_fract_y
 _atom_site_fract_z
 _atom_site_occupancy
  Ce  Ce0  1  0.000000  0.322842  0.413517  1
  Ce  Ce1  1  0.000000  0.677158  0.586483  1
  Ce  Ce2  1  0.000000  0.822655  0.086376  1
  Ce  Ce3  1  0.000000  0.177345  0.913624  1
  Er  Er4  1  0.000000  0.944608  0.374075  1
  Er  Er5  1  0.000000  0.055392  0.625926  1
  Tm  Tm6  1  0.000000  0.444700  0.125719  1
  Tm  Tm7  1  0.000000  0.555300  0.874280  1
  B  B8  1  0.500000  0.554479  0.431980  1
  B  B9  1  0.500000  0.445521  0.568020  1
  B  B10  1  0.500000  0.054541  0.067952  1
  B  B11  1  0.500000  0.945459  0.932048  1
  B  B12  1  0.500000  0.749394  0.419026  1
  B  B13  1  0.500000  0.250606  0.580974  1
  B  B14  1  0.500000  0.249792  0.080936  1
  B  B15  1  0.500000  0.750208  0.919064  1
  B  B16  1  0.500000  0.792134  0.266572  1
  B  B17  1  0.500000  0.207866  0.733428  1
  B  B18  1  0.500000  0.292535  0.233274  1
  B  B19  1  0.500000  0.707464  0.766726  1
  B  B20  1  0.500000  0.631770  0.184752  1
  B  B21  1  0.500000  0.368230  0.815248  1
  B  B22  1  0.500000  0.132132  0.315013  1
  B  B23  1  0.500000  0.867868  0.684987  1
  B  B24  1  0.500000  0.984344  0.214080  1
  B  B25  1  0.500000  0.015656  0.785920  1
  B  B26  1  0.500000  0.484110  0.285633  1
  B  B27  1  0.500000  0.515890  0.714367  1
  B  B28  1  0.500000  0.606144  0.029115  1
  B  B29  1  0.500000  0.393856  0.970885  1
  B  B30  1  0.500000  0.106780  0.470732  1
  B  B31  1  0.500000  0.893220  0.529268  1
  Os  Os32  1  0.000000  0.638877  0.320028  1
  Os  Os33  1  0.000000  0.361123  0.679972  1
  Os  Os34  1  0.000000  0.139459  0.179704  1
  Os  Os35  1  0.000000  0.860541  0.820296  1
