# generated using pymatgen
data_Gd3Ag(Rh2O7)2
_symmetry_space_group_name_H-M   'P 1'
_cell_length_a   7.30312048
_cell_length_b   7.14481642
_cell_length_c   7.30312000
_cell_angle_alpha   59.26432437
_cell_angle_beta   60.00000217
_cell_angle_gamma   59.26432632
_symmetry_Int_Tables_number   1
_chemical_formula_structural   Gd3Ag(Rh2O7)2
_chemical_formula_sum   'Gd3 Ag1 Rh4 O14'
_cell_volume   266.42389385
_cell_formula_units_Z   1
loop_
 _symmetry_equiv_pos_site_id
 _symmetry_equiv_pos_as_xyz
  1  'x, y, z'
loop_
 _atom_site_type_symbol
 _atom_site_label
 _atom_site_symmetry_multiplicity
 _atom_site_fract_x
 _atom_site_fract_y
 _atom_site_fract_z
 _atom_site_occupancy
  Gd  Gd0  1  0.125000  0.125000  0.125000  1
  Gd  Gd1  1  0.625000  0.125000  0.125000  1
  Gd  Gd2  1  0.125000  0.125000  0.625000  1
  Ag  Ag3  1  0.125000  0.625000  0.125000  1
  Rh  Rh4  1  0.625000  0.625000  0.625000  1
  Rh  Rh5  1  0.625000  0.625000  0.125000  1
  Rh  Rh6  1  0.125000  0.625000  0.625000  1
  Rh  Rh7  1  0.625000  0.125000  0.625000  1
  O  O8  1  0.246277  0.261169  0.246277  1
  O  O9  1  0.298375  0.708160  0.298375  1
  O  O10  1  0.957833  0.963501  0.539333  1
  O  O11  1  0.539333  0.963501  0.539333  1
  O  O12  1  0.695090  0.708160  0.298375  1
  O  O13  1  0.951625  0.541840  0.554910  1
  O  O14  1  0.710667  0.286499  0.710667  1
  O  O15  1  0.292167  0.286499  0.710667  1
  O  O16  1  0.710667  0.286499  0.292167  1
  O  O17  1  0.298375  0.708160  0.695090  1
  O  O18  1  0.951625  0.541840  0.951625  1
  O  O19  1  0.554910  0.541840  0.951625  1
  O  O20  1  0.003723  0.988831  0.003723  1
  O  O21  1  0.539333  0.963501  0.957833  1
