# generated using pymatgen
data_TbGd2Al3Ga2Cu
_symmetry_space_group_name_H-M   'P 1'
_cell_length_a   6.96702600
_cell_length_b   6.96702643
_cell_length_c   4.29545700
_cell_angle_alpha   90.00000000
_cell_angle_beta   90.00000000
_cell_angle_gamma   119.99999796
_symmetry_Int_Tables_number   1
_chemical_formula_structural   TbGd2Al3Ga2Cu
_chemical_formula_sum   'Tb1 Gd2 Al3 Ga2 Cu1'
_cell_volume   180.56555443
_cell_formula_units_Z   1
loop_
 _symmetry_equiv_pos_site_id
 _symmetry_equiv_pos_as_xyz
  1  'x, y, z'
loop_
 _atom_site_type_symbol
 _atom_site_label
 _atom_site_symmetry_multiplicity
 _atom_site_fract_x
 _atom_site_fract_y
 _atom_site_fract_z
 _atom_site_occupancy
  Tb  Tb0  1  0.000000  0.589898  0.500000  1
  Gd  Gd1  1  0.410102  0.410102  0.500000  1
  Gd  Gd2  1  0.589898  0.000000  0.500000  1
  Al  Al3  1  0.765157  0.765157  0.000000  1
  Al  Al4  1  0.234843  0.000000  0.000000  1
  Al  Al5  1  0.000000  0.234843  0.000000  1
  Ga  Ga6  1  0.666667  0.333333  0.000000  1
  Ga  Ga7  1  0.333333  0.666667  0.000000  1
  Cu  Cu8  1  0.000000  0.000000  0.500000  1
