# generated using pymatgen
data_Tb16In4CoOs3
_symmetry_space_group_name_H-M   'P 1'
_cell_length_a   9.59819630
_cell_length_b   9.73377612
_cell_length_c   9.73377500
_cell_angle_alpha   60.00000040
_cell_angle_beta   59.53162040
_cell_angle_gamma   59.53161883
_symmetry_Int_Tables_number   1
_chemical_formula_structural   Tb16In4CoOs3
_chemical_formula_sum   'Tb16 In4 Co1 Os3'
_cell_volume   638.44885870
_cell_formula_units_Z   1
loop_
 _symmetry_equiv_pos_site_id
 _symmetry_equiv_pos_as_xyz
  1  'x, y, z'
loop_
 _atom_site_type_symbol
 _atom_site_label
 _atom_site_symmetry_multiplicity
 _atom_site_fract_x
 _atom_site_fract_y
 _atom_site_fract_z
 _atom_site_occupancy
  Tb  Tb0  1  0.812960  0.805261  0.190890  1
  Tb  Tb1  1  0.812960  0.190890  0.805261  1
  Tb  Tb2  1  0.193094  0.188204  0.809352  1
  Tb  Tb3  1  0.646909  0.043072  0.655010  1
  Tb  Tb4  1  0.059149  0.057340  0.441756  1
  Tb  Tb5  1  0.444328  0.435711  0.059980  1
  Tb  Tb6  1  0.646909  0.655010  0.655010  1
  Tb  Tb7  1  0.812960  0.190890  0.190890  1
  Tb  Tb8  1  0.193094  0.809352  0.809352  1
  Tb  Tb9  1  0.041707  0.652764  0.652764  1
  Tb  Tb10  1  0.444328  0.059980  0.059980  1
  Tb  Tb11  1  0.444328  0.059980  0.435711  1
  Tb  Tb12  1  0.059149  0.441756  0.057340  1
  Tb  Tb13  1  0.646909  0.655010  0.043072  1
  Tb  Tb14  1  0.193094  0.809352  0.188204  1
  Tb  Tb15  1  0.059149  0.441756  0.441756  1
  In  In16  1  0.419315  0.417650  0.417650  1
  In  In17  1  0.419315  0.417650  0.745384  1
  In  In18  1  0.419315  0.745384  0.417650  1
  In  In19  1  0.745524  0.418158  0.418158  1
  Co  Co20  1  0.416442  0.861186  0.861186  1
  Os  Os21  1  0.856354  0.419670  0.861988  1
  Os  Os22  1  0.856354  0.861988  0.861988  1
  Os  Os23  1  0.856354  0.861988  0.419670  1
