# generated using pymatgen
data_SrEu3Be4F16
_symmetry_space_group_name_H-M   'P 1'
_cell_length_a   8.27185000
_cell_length_b   5.48107333
_cell_length_c   8.68707500
_cell_angle_alpha   52.55748427
_cell_angle_beta   90.00147982
_cell_angle_gamma   89.99834337
_symmetry_Int_Tables_number   1
_chemical_formula_structural   SrEu3Be4F16
_chemical_formula_sum   'Sr1 Eu3 Be4 F16'
_cell_volume   312.71051353
_cell_formula_units_Z   1
loop_
 _symmetry_equiv_pos_site_id
 _symmetry_equiv_pos_as_xyz
  1  'x, y, z'
loop_
 _atom_site_type_symbol
 _atom_site_label
 _atom_site_symmetry_multiplicity
 _atom_site_fract_x
 _atom_site_fract_y
 _atom_site_fract_z
 _atom_site_occupancy
  Sr  Sr0  1  0.193789  0.020315  0.172240  1
  Eu  Eu1  1  0.306223  0.020336  0.672231  1
  Eu  Eu2  1  0.806188  0.979660  0.827768  1
  Eu  Eu3  1  0.693779  0.979649  0.327778  1
  Be  Be4  1  0.956661  0.426398  0.318177  1
  Be  Be5  1  0.456694  0.573633  0.181819  1
  Be  Be6  1  0.043353  0.573612  0.681787  1
  Be  Be7  1  0.543277  0.426422  0.818187  1
  F  F8  1  0.084664  0.219593  0.821252  1
  F  F9  1  0.584667  0.780414  0.678796  1
  F  F10  1  0.915395  0.780409  0.178826  1
  F  F11  1  0.415334  0.219586  0.321167  1
  F  F12  1  0.376177  0.406631  0.906348  1
  F  F13  1  0.876186  0.593322  0.593678  1
  F  F14  1  0.623821  0.593306  0.093685  1
  F  F15  1  0.123796  0.406737  0.406284  1
  F  F16  1  0.180294  0.761280  0.530049  1
  F  F17  1  0.680338  0.238768  0.969883  1
  F  F18  1  0.819665  0.238759  0.469896  1
  F  F19  1  0.319669  0.761233  0.030162  1
  F  F20  1  0.036532  0.709453  0.797536  1
  F  F21  1  0.536543  0.290503  0.702488  1
  F  F22  1  0.963528  0.290430  0.202503  1
  F  F23  1  0.463429  0.709551  0.297459  1
