# generated using pymatgen
data_BaBr19
_symmetry_space_group_name_H-M   'P 1'
_cell_length_a   10.18347694
_cell_length_b   11.66466371
_cell_length_c   9.29317800
_cell_angle_alpha   64.35534572
_cell_angle_beta   77.94301946
_cell_angle_gamma   86.21201767
_symmetry_Int_Tables_number   1
_chemical_formula_structural   BaBr19
_chemical_formula_sum   'Ba1 Br19'
_cell_volume   972.84339877
_cell_formula_units_Z   1
loop_
 _symmetry_equiv_pos_site_id
 _symmetry_equiv_pos_as_xyz
  1  'x, y, z'
loop_
 _atom_site_type_symbol
 _atom_site_label
 _atom_site_symmetry_multiplicity
 _atom_site_fract_x
 _atom_site_fract_y
 _atom_site_fract_z
 _atom_site_occupancy
  Ba  Ba0  1  0.872587  0.673140  0.285086  1
  Br  Br1  1  0.398306  0.479659  0.505190  1
  Br  Br2  1  0.884930  0.546149  0.024819  1
  Br  Br3  1  0.645636  0.421027  0.516661  1
  Br  Br4  1  0.113725  0.617225  0.016304  1
  Br  Br5  1  0.083595  0.649548  0.511379  1
  Br  Br6  1  0.603268  0.285882  0.050578  1
  Br  Br7  1  0.894409  0.367762  0.524368  1
  Br  Br8  1  0.346003  0.708545  0.019398  1
  Br  Br9  1  0.148144  0.857677  0.504305  1
  Br  Br10  1  0.703460  0.087420  0.011179  1
  Br  Br11  1  0.835330  0.133685  0.469179  1
  Br  Br12  1  0.253801  0.915603  0.022481  1
  Br  Br13  1  0.215667  0.059994  0.526642  1
  Br  Br14  1  0.794002  0.900153  0.959232  1
  Br  Br15  1  0.734376  0.967659  0.434055  1
  Br  Br16  1  0.154209  0.121938  0.031594  1
  Br  Br17  1  0.636311  0.737036  0.528813  1
  Br  Br18  1  0.276142  0.297452  0.769889  1
  Br  Br19  1  0.406101  0.172448  0.288850  1
