# generated using pymatgen
data_La4Y12MgHg3Rh4
_symmetry_space_group_name_H-M   'P 1'
_cell_length_a   9.76226825
_cell_length_b   9.78877038
_cell_length_c   9.78877100
_cell_angle_alpha   60.00000128
_cell_angle_beta   59.91015732
_cell_angle_gamma   59.91015647
_symmetry_Int_Tables_number   1
_chemical_formula_structural   La4Y12MgHg3Rh4
_chemical_formula_sum   'La4 Y12 Mg1 Hg3 Rh4'
_cell_volume   660.54278621
_cell_formula_units_Z   1
loop_
 _symmetry_equiv_pos_site_id
 _symmetry_equiv_pos_as_xyz
  1  'x, y, z'
loop_
 _atom_site_type_symbol
 _atom_site_label
 _atom_site_symmetry_multiplicity
 _atom_site_fract_x
 _atom_site_fract_y
 _atom_site_fract_z
 _atom_site_occupancy
  La  La0  1  0.602786  0.600474  0.600474  1
  La  La1  1  0.602786  0.600474  0.196267  1
  La  La2  1  0.602786  0.196267  0.600474  1
  La  La3  1  0.185896  0.604702  0.604702  1
  Y  Y4  1  0.062761  0.436781  0.436781  1
  Y  Y5  1  0.433665  0.065649  0.065649  1
  Y  Y6  1  0.433665  0.065649  0.435036  1
  Y  Y7  1  0.062761  0.436781  0.063678  1
  Y  Y8  1  0.433665  0.435036  0.065649  1
  Y  Y9  1  0.062761  0.063678  0.436781  1
  Y  Y10  1  0.182427  0.816560  0.816560  1
  Y  Y11  1  0.815655  0.183766  0.183766  1
  Y  Y12  1  0.815655  0.183766  0.816813  1
  Y  Y13  1  0.182427  0.816560  0.184453  1
  Y  Y14  1  0.815655  0.816813  0.183766  1
  Y  Y15  1  0.182427  0.184453  0.816560  1
  Mg  Mg16  1  0.531010  0.822996  0.822996  1
  Hg  Hg17  1  0.832454  0.838948  0.838948  1
  Hg  Hg18  1  0.832454  0.838948  0.489648  1
  Hg  Hg19  1  0.832454  0.489648  0.838948  1
  Rh  Rh20  1  0.390175  0.392768  0.392768  1
  Rh  Rh21  1  0.390175  0.392768  0.824290  1
  Rh  Rh22  1  0.390175  0.824290  0.392768  1
  Rh  Rh23  1  0.823328  0.392224  0.392224  1
