# generated using pymatgen
data_Li2(Tm4Tc)3
_symmetry_space_group_name_H-M   'P 1'
_cell_length_a   8.35249371
_cell_length_b   8.35249418
_cell_length_c   8.35249384
_cell_angle_alpha   109.67108351
_cell_angle_beta   109.67109531
_cell_angle_gamma   109.07221311
_symmetry_Int_Tables_number   1
_chemical_formula_structural   Li2(Tm4Tc)3
_chemical_formula_sum   'Li2 Tm12 Tc3'
_cell_volume   448.54999624
_cell_formula_units_Z   1
loop_
 _symmetry_equiv_pos_site_id
 _symmetry_equiv_pos_as_xyz
  1  'x, y, z'
loop_
 _atom_site_type_symbol
 _atom_site_label
 _atom_site_symmetry_multiplicity
 _atom_site_fract_x
 _atom_site_fract_y
 _atom_site_fract_z
 _atom_site_occupancy
  Li  Li0  1  0.000000  0.500000  0.500000  1
  Li  Li1  1  0.500000  0.000000  0.500000  1
  Tm  Tm2  1  0.184844  0.428551  0.243707  1
  Tm  Tm3  1  0.815156  0.571449  0.756293  1
  Tm  Tm4  1  0.184844  0.941140  0.756293  1
  Tm  Tm5  1  0.941140  0.184844  0.756293  1
  Tm  Tm6  1  0.815156  0.058860  0.243707  1
  Tm  Tm7  1  0.058860  0.815156  0.243707  1
  Tm  Tm8  1  0.428551  0.184844  0.243707  1
  Tm  Tm9  1  0.571449  0.815156  0.756293  1
  Tm  Tm10  1  0.323122  0.323122  0.646243  1
  Tm  Tm11  1  0.676878  0.676878  0.353757  1
  Tm  Tm12  1  0.676878  0.323122  0.000000  1
  Tm  Tm13  1  0.323122  0.676878  0.000000  1
  Tc  Tc14  1  0.335688  0.335688  0.000000  1
  Tc  Tc15  1  0.664312  0.664312  0.000000  1
  Tc  Tc16  1  0.000000  0.000000  0.000000  1
