# generated using pymatgen
data_ErTm3In2HgAu3
_symmetry_space_group_name_H-M   'P 1'
_cell_length_a   8.00643941
_cell_length_b   8.00817888
_cell_length_c   3.69300300
_cell_angle_alpha   90.00000000
_cell_angle_beta   90.00000000
_cell_angle_gamma   89.99135399
_symmetry_Int_Tables_number   1
_chemical_formula_structural   ErTm3In2HgAu3
_chemical_formula_sum   'Er1 Tm3 In2 Hg1 Au3'
_cell_volume   236.78426698
_cell_formula_units_Z   1
loop_
 _symmetry_equiv_pos_site_id
 _symmetry_equiv_pos_as_xyz
  1  'x, y, z'
loop_
 _atom_site_type_symbol
 _atom_site_label
 _atom_site_symmetry_multiplicity
 _atom_site_fract_x
 _atom_site_fract_y
 _atom_site_fract_z
 _atom_site_occupancy
  Er  Er0  1  0.819942  0.666014  0.500000  1
  Tm  Tm1  1  0.670327  0.170433  0.500000  1
  Tm  Tm2  1  0.339532  0.839623  0.500000  1
  Tm  Tm3  1  0.165964  0.319798  0.500000  1
  In  In4  1  0.502620  0.498022  0.000000  1
  In  In5  1  0.998255  0.002929  0.000000  1
  Hg  Hg6  1  0.130125  0.629386  0.000000  1
  Au  Au7  1  0.871234  0.370452  0.000000  1
  Au  Au8  1  0.629860  0.872844  0.000000  1
  Au  Au9  1  0.372140  0.130498  0.000000  1
