# generated using pymatgen
data_Tb2Y2Hf3O12
_symmetry_space_group_name_H-M   'P 1'
_cell_length_a   6.33718846
_cell_length_b   6.38842539
_cell_length_c   6.60522127
_cell_angle_alpha   99.95456431
_cell_angle_beta   98.10983119
_cell_angle_gamma   99.80071290
_symmetry_Int_Tables_number   1
_chemical_formula_structural   Tb2Y2Hf3O12
_chemical_formula_sum   'Tb2 Y2 Hf3 O12'
_cell_volume   255.50447291
_cell_formula_units_Z   1
loop_
 _symmetry_equiv_pos_site_id
 _symmetry_equiv_pos_as_xyz
  1  'x, y, z'
loop_
 _atom_site_type_symbol
 _atom_site_label
 _atom_site_symmetry_multiplicity
 _atom_site_fract_x
 _atom_site_fract_y
 _atom_site_fract_z
 _atom_site_occupancy
  Tb  Tb0  1  0.697406  0.865525  0.389351  1
  Tb  Tb1  1  0.384738  0.699242  0.866947  1
  Y  Y2  1  0.302715  0.134531  0.610330  1
  Y  Y3  1  0.614893  0.300501  0.132966  1
  Hf  Hf4  1  0.000009  0.000176  0.000022  1
  Hf  Hf5  1  0.848118  0.398307  0.666752  1
  Hf  Hf6  1  0.151846  0.601493  0.333162  1
  O  O7  1  0.588369  0.416127  0.819255  1
  O  O8  1  0.831704  0.570484  0.426763  1
  O  O9  1  0.407153  0.809385  0.563510  1
  O  O10  1  0.411714  0.583259  0.181416  1
  O  O11  1  0.168668  0.428495  0.573243  1
  O  O12  1  0.592323  0.191678  0.436059  1
  O  O13  1  0.016582  0.680008  0.876120  1
  O  O14  1  0.920253  0.091237  0.701258  1
  O  O15  1  0.687528  0.934367  0.058409  1
  O  O16  1  0.983102  0.320081  0.123890  1
  O  O17  1  0.080021  0.908958  0.298891  1
  O  O18  1  0.312860  0.066145  0.941657  1
