# generated using pymatgen
data_Sr4TlAu6
_symmetry_space_group_name_H-M   'P 1'
_cell_length_a   16.35128800
_cell_length_b   16.35128825
_cell_length_c   4.39507000
_cell_angle_alpha   90.00000000
_cell_angle_beta   90.00000000
_cell_angle_gamma   164.44613102
_symmetry_Int_Tables_number   1
_chemical_formula_structural   Sr4TlAu6
_chemical_formula_sum   'Sr4 Tl1 Au6'
_cell_volume   315.09262264
_cell_formula_units_Z   1
loop_
 _symmetry_equiv_pos_site_id
 _symmetry_equiv_pos_as_xyz
  1  'x, y, z'
loop_
 _atom_site_type_symbol
 _atom_site_label
 _atom_site_symmetry_multiplicity
 _atom_site_fract_x
 _atom_site_fract_y
 _atom_site_fract_z
 _atom_site_occupancy
  Sr  Sr0  1  0.996983  0.003017  0.000000  1
  Sr  Sr1  1  0.619295  0.380705  0.000000  1
  Sr  Sr2  1  0.375398  0.624602  0.000000  1
  Sr  Sr3  1  0.203697  0.796302  0.500000  1
  Tl  Tl4  1  0.807657  0.192342  0.500000  1
  Au  Au5  1  0.719768  0.280232  0.000000  1
  Au  Au6  1  0.278006  0.721994  0.000000  1
  Au  Au7  1  0.902263  0.097737  0.500000  1
  Au  Au8  1  0.541899  0.458100  0.500000  1
  Au  Au9  1  0.456130  0.543869  0.500000  1
  Au  Au10  1  0.098900  0.901100  0.500000  1
