# generated using pymatgen
data_Sr2GdB18
_symmetry_space_group_name_H-M   'P 1'
_cell_length_a   4.16319400
_cell_length_b   4.16319400
_cell_length_c   12.50320800
_cell_angle_alpha   90.00000000
_cell_angle_beta   90.00000000
_cell_angle_gamma   90.00000000
_symmetry_Int_Tables_number   1
_chemical_formula_structural   Sr2GdB18
_chemical_formula_sum   'Sr2 Gd1 B18'
_cell_volume   216.70790517
_cell_formula_units_Z   1
loop_
 _symmetry_equiv_pos_site_id
 _symmetry_equiv_pos_as_xyz
  1  'x, y, z'
loop_
 _atom_site_type_symbol
 _atom_site_label
 _atom_site_symmetry_multiplicity
 _atom_site_fract_x
 _atom_site_fract_y
 _atom_site_fract_z
 _atom_site_occupancy
  Sr  Sr0  1  0.000000  0.000000  0.667127  1
  Sr  Sr1  1  0.000000  0.000000  0.999830  1
  Gd  Gd2  1  0.000000  0.000000  0.333180  1
  B  B3  1  0.200922  0.500000  0.169044  1
  B  B4  1  0.200936  0.500000  0.497322  1
  B  B5  1  0.202247  0.500000  0.833611  1
  B  B6  1  0.500000  0.500000  0.267450  1
  B  B7  1  0.500000  0.500000  0.597721  1
  B  B8  1  0.500000  0.500000  0.933218  1
  B  B9  1  0.500000  0.200922  0.169044  1
  B  B10  1  0.500000  0.200936  0.497322  1
  B  B11  1  0.500000  0.202247  0.833611  1
  B  B12  1  0.500000  0.500000  0.068896  1
  B  B13  1  0.500000  0.500000  0.398904  1
  B  B14  1  0.500000  0.500000  0.733762  1
  B  B15  1  0.500000  0.799078  0.169044  1
  B  B16  1  0.500000  0.799064  0.497322  1
  B  B17  1  0.500000  0.797753  0.833611  1
  B  B18  1  0.799078  0.500000  0.169044  1
  B  B19  1  0.799064  0.500000  0.497322  1
  B  B20  1  0.797753  0.500000  0.833611  1
