# generated using pymatgen
data_Tb3Y2RhPb3
_symmetry_space_group_name_H-M   'P 1'
_cell_length_a   9.25379400
_cell_length_b   9.25379377
_cell_length_c   6.85398800
_cell_angle_alpha   90.00000000
_cell_angle_beta   90.00000000
_cell_angle_gamma   119.99999366
_symmetry_Int_Tables_number   1
_chemical_formula_structural   Tb3Y2RhPb3
_chemical_formula_sum   'Tb6 Y4 Rh2 Pb6'
_cell_volume   508.29243168
_cell_formula_units_Z   2
loop_
 _symmetry_equiv_pos_site_id
 _symmetry_equiv_pos_as_xyz
  1  'x, y, z'
loop_
 _atom_site_type_symbol
 _atom_site_label
 _atom_site_symmetry_multiplicity
 _atom_site_fract_x
 _atom_site_fract_y
 _atom_site_fract_z
 _atom_site_occupancy
  Tb  Tb0  1  0.237664  0.237664  0.750000  1
  Tb  Tb1  1  0.000000  0.762336  0.750000  1
  Tb  Tb2  1  0.237664  0.000000  0.250000  1
  Tb  Tb3  1  0.762336  0.000000  0.750000  1
  Tb  Tb4  1  0.762336  0.762336  0.250000  1
  Tb  Tb5  1  0.000000  0.237664  0.250000  1
  Y  Y6  1  0.333333  0.666667  0.500000  1
  Y  Y7  1  0.666667  0.333333  0.500000  1
  Y  Y8  1  0.333333  0.666667  0.000000  1
  Y  Y9  1  0.666667  0.333333  0.000000  1
  Rh  Rh10  1  0.000000  0.000000  0.000000  1
  Rh  Rh11  1  0.000000  0.000000  0.500000  1
  Pb  Pb12  1  0.596151  0.000000  0.250000  1
  Pb  Pb13  1  0.000000  0.596151  0.250000  1
  Pb  Pb14  1  0.596151  0.596151  0.750000  1
  Pb  Pb15  1  0.403849  0.403849  0.250000  1
  Pb  Pb16  1  0.000000  0.403849  0.750000  1
  Pb  Pb17  1  0.403849  0.000000  0.750000  1
