# generated using pymatgen
data_Ca2PaMoO6
_symmetry_space_group_name_H-M   'P 1'
_cell_length_a   5.93677400
_cell_length_b   5.72326474
_cell_length_c   10.08966500
_cell_angle_alpha   54.99779044
_cell_angle_beta   90.00000000
_cell_angle_gamma   90.00000000
_symmetry_Int_Tables_number   1
_chemical_formula_structural   Ca2PaMoO6
_chemical_formula_sum   'Ca4 Pa2 Mo2 O12'
_cell_volume   280.81732010
_cell_formula_units_Z   2
loop_
 _symmetry_equiv_pos_site_id
 _symmetry_equiv_pos_as_xyz
  1  'x, y, z'
loop_
 _atom_site_type_symbol
 _atom_site_label
 _atom_site_symmetry_multiplicity
 _atom_site_fract_x
 _atom_site_fract_y
 _atom_site_fract_z
 _atom_site_occupancy
  Ca  Ca0  1  0.947578  0.262739  0.250333  1
  Ca  Ca1  1  0.447578  0.737261  0.249667  1
  Ca  Ca2  1  0.052422  0.737261  0.749667  1
  Ca  Ca3  1  0.552422  0.262739  0.750333  1
  Pa  Pa4  1  0.000000  0.500000  0.500000  1
  Pa  Pa5  1  0.500000  0.500000  0.000000  1
  Mo  Mo6  1  0.000000  0.000000  0.000000  1
  Mo  Mo7  1  0.500000  0.000000  0.500000  1
  O  O8  1  0.695810  0.369950  0.437397  1
  O  O9  1  0.195810  0.630050  0.062603  1
  O  O10  1  0.304190  0.630050  0.562603  1
  O  O11  1  0.804190  0.369950  0.937397  1
  O  O12  1  0.805277  0.748248  0.560309  1
  O  O13  1  0.305277  0.251752  0.939691  1
  O  O14  1  0.194723  0.251752  0.439691  1
  O  O15  1  0.694723  0.748248  0.060309  1
  O  O16  1  0.554441  0.130541  0.251718  1
  O  O17  1  0.054441  0.869459  0.248282  1
  O  O18  1  0.945559  0.130541  0.751718  1
  O  O19  1  0.445559  0.869459  0.748282  1
