# generated using pymatgen
data_Tb8Er12Si13Ir3
_symmetry_space_group_name_H-M   'P 1'
_cell_length_a   7.21727800
_cell_length_b   7.79811741
_cell_length_c   14.54133900
_cell_angle_alpha   90.00000000
_cell_angle_beta   90.00000000
_cell_angle_gamma   90.18444910
_symmetry_Int_Tables_number   1
_chemical_formula_structural   Tb8Er12Si13Ir3
_chemical_formula_sum   'Tb8 Er12 Si13 Ir3'
_cell_volume   818.39949452
_cell_formula_units_Z   1
loop_
 _symmetry_equiv_pos_site_id
 _symmetry_equiv_pos_as_xyz
  1  'x, y, z'
loop_
 _atom_site_type_symbol
 _atom_site_label
 _atom_site_symmetry_multiplicity
 _atom_site_fract_x
 _atom_site_fract_y
 _atom_site_fract_z
 _atom_site_occupancy
  Tb  Tb0  1  0.007779  0.180052  0.095578  1
  Tb  Tb1  1  0.990706  0.821591  0.908831  1
  Tb  Tb2  1  0.488727  0.681818  0.907109  1
  Tb  Tb3  1  0.990706  0.821591  0.591169  1
  Tb  Tb4  1  0.508685  0.322086  0.096062  1
  Tb  Tb5  1  0.007779  0.180052  0.404422  1
  Tb  Tb6  1  0.508685  0.322086  0.403938  1
  Tb  Tb7  1  0.488727  0.681818  0.592891  1
  Er  Er8  1  0.157231  0.516712  0.750000  1
  Er  Er9  1  0.829472  0.492296  0.250000  1
  Er  Er10  1  0.327461  0.010621  0.250000  1
  Er  Er11  1  0.673084  0.986145  0.750000  1
  Er  Er12  1  0.318587  0.175775  0.626750  1
  Er  Er13  1  0.681059  0.827966  0.371980  1
  Er  Er14  1  0.182066  0.672685  0.371416  1
  Er  Er15  1  0.681059  0.827966  0.128020  1
  Er  Er16  1  0.831992  0.317060  0.625437  1
  Er  Er17  1  0.318587  0.175775  0.873250  1
  Er  Er18  1  0.831992  0.317060  0.874563  1
  Er  Er19  1  0.182066  0.672685  0.128584  1
  Si  Si20  1  0.531323  0.398911  0.750000  1
  Si  Si21  1  0.277255  0.864846  0.750000  1
  Si  Si22  1  0.723561  0.135420  0.250000  1
  Si  Si23  1  0.220618  0.367302  0.250000  1
  Si  Si24  1  0.770421  0.623054  0.750000  1
  Si  Si25  1  0.158367  0.472225  0.538269  1
  Si  Si26  1  0.844040  0.531042  0.464119  1
  Si  Si27  1  0.343385  0.971455  0.462817  1
  Si  Si28  1  0.844040  0.531042  0.035881  1
  Si  Si29  1  0.650745  0.030631  0.538488  1
  Si  Si30  1  0.158367  0.472225  0.961731  1
  Si  Si31  1  0.650745  0.030631  0.961512  1
  Si  Si32  1  0.343385  0.971455  0.037183  1
  Ir  Ir33  1  0.028239  0.096325  0.750000  1
  Ir  Ir34  1  0.973169  0.903937  0.250000  1
  Ir  Ir35  1  0.475893  0.595655  0.250000  1
