# generated using pymatgen
data_ErTmB4Ir5
_symmetry_space_group_name_H-M   'P 1'
_cell_length_a   7.49639808
_cell_length_b   6.34162445
_cell_length_c   5.57158801
_cell_angle_alpha   77.69267219
_cell_angle_beta   55.74234195
_cell_angle_gamma   46.56498367
_symmetry_Int_Tables_number   1
_chemical_formula_structural   ErTmB4Ir5
_chemical_formula_sum   'Er1 Tm1 B4 Ir5'
_cell_volume   152.15214451
_cell_formula_units_Z   1
loop_
 _symmetry_equiv_pos_site_id
 _symmetry_equiv_pos_as_xyz
  1  'x, y, z'
loop_
 _atom_site_type_symbol
 _atom_site_label
 _atom_site_symmetry_multiplicity
 _atom_site_fract_x
 _atom_site_fract_y
 _atom_site_fract_z
 _atom_site_occupancy
  Er  Er0  1  0.639785  0.639786  0.360215  1
  Tm  Tm1  1  0.360192  0.360192  0.639808  1
  B  B2  1  0.287647  0.981084  0.018917  1
  B  B3  1  0.018943  0.712377  0.287624  1
  B  B4  1  0.981083  0.287647  0.712353  1
  B  B5  1  0.712376  0.018944  0.981057  1
  Ir  Ir6  1  0.999943  0.999943  0.000057  1
  Ir  Ir7  1  0.499961  0.499959  0.000040  1
  Ir  Ir8  1  0.250055  0.250053  0.249945  1
  Ir  Ir9  1  0.999960  0.999960  0.500039  1
  Ir  Ir10  1  0.750055  0.750054  0.749945  1
