# generated using pymatgen
data_Rb3NbF8
_symmetry_space_group_name_H-M   'P 1'
_cell_length_a   8.74548500
_cell_length_b   8.74548373
_cell_length_c   6.62286000
_cell_angle_alpha   90.00000000
_cell_angle_beta   90.00000000
_cell_angle_gamma   120.00000102
_symmetry_Int_Tables_number   1
_chemical_formula_structural   Rb3NbF8
_chemical_formula_sum   'Rb6 Nb2 F16'
_cell_volume   438.67606309
_cell_formula_units_Z   2
loop_
 _symmetry_equiv_pos_site_id
 _symmetry_equiv_pos_as_xyz
  1  'x, y, z'
loop_
 _atom_site_type_symbol
 _atom_site_label
 _atom_site_symmetry_multiplicity
 _atom_site_fract_x
 _atom_site_fract_y
 _atom_site_fract_z
 _atom_site_occupancy
  Rb  Rb0  1  0.155328  0.310655  0.246531  1
  Rb  Rb1  1  0.844672  0.689345  0.746532  1
  Rb  Rb2  1  0.689345  0.844672  0.246531  1
  Rb  Rb3  1  0.155328  0.844672  0.246531  1
  Rb  Rb4  1  0.844672  0.155328  0.746532  1
  Rb  Rb5  1  0.310655  0.155328  0.746532  1
  Nb  Nb6  1  0.333333  0.666667  0.738606  1
  Nb  Nb7  1  0.666667  0.333333  0.238606  1
  F  F8  1  0.000000  0.000000  0.003349  1
  F  F9  1  0.000000  0.000000  0.503349  1
  F  F10  1  0.433609  0.566391  0.540792  1
  F  F11  1  0.566391  0.433609  0.040792  1
  F  F12  1  0.433609  0.867217  0.540792  1
  F  F13  1  0.132783  0.566391  0.540792  1
  F  F14  1  0.867217  0.433609  0.040792  1
  F  F15  1  0.566391  0.132783  0.040792  1
  F  F16  1  0.333333  0.666667  0.040163  1
  F  F17  1  0.666667  0.333333  0.540163  1
  F  F18  1  0.206016  0.793984  0.813688  1
  F  F19  1  0.793984  0.206016  0.313688  1
  F  F20  1  0.206016  0.412031  0.813688  1
  F  F21  1  0.587969  0.793984  0.813688  1
  F  F22  1  0.412031  0.206016  0.313688  1
  F  F23  1  0.793984  0.587969  0.313688  1
