# generated using pymatgen
data_ErTm4Os2C7
_symmetry_space_group_name_H-M   'P 1'
_cell_length_a   8.07464311
_cell_length_b   8.07464352
_cell_length_c   3.47162300
_cell_angle_alpha   90.00000000
_cell_angle_beta   90.00000000
_cell_angle_gamma   121.56516803
_symmetry_Int_Tables_number   1
_chemical_formula_structural   ErTm4Os2C7
_chemical_formula_sum   'Er1 Tm4 Os2 C7'
_cell_volume   192.85990539
_cell_formula_units_Z   1
loop_
 _symmetry_equiv_pos_site_id
 _symmetry_equiv_pos_as_xyz
  1  'x, y, z'
loop_
 _atom_site_type_symbol
 _atom_site_label
 _atom_site_symmetry_multiplicity
 _atom_site_fract_x
 _atom_site_fract_y
 _atom_site_fract_z
 _atom_site_occupancy
  Er  Er0  1  0.500000  0.500000  0.000000  1
  Tm  Tm1  1  0.078114  0.338486  0.500000  1
  Tm  Tm2  1  0.921886  0.661514  0.500000  1
  Tm  Tm3  1  0.661514  0.921886  0.500000  1
  Tm  Tm4  1  0.338486  0.078114  0.500000  1
  Os  Os5  1  0.714479  0.285521  0.000000  1
  Os  Os6  1  0.285521  0.714479  0.000000  1
  C  C7  1  0.630165  0.369835  0.500000  1
  C  C8  1  0.369835  0.630165  0.500000  1
  C  C9  1  0.000000  0.000000  0.000000  1
  C  C10  1  0.172604  0.172604  0.000000  1
  C  C11  1  0.827396  0.827396  0.000000  1
  C  C12  1  0.000000  0.500000  0.000000  1
  C  C13  1  0.500000  0.000000  0.000000  1
