# generated using pymatgen
data_Ho3GeSe2
_symmetry_space_group_name_H-M   'P 1'
_cell_length_a   7.12617480
_cell_length_b   7.12617453
_cell_length_c   7.12617406
_cell_angle_alpha   146.41152899
_cell_angle_beta   132.25618036
_cell_angle_gamma   59.63682441
_symmetry_Int_Tables_number   1
_chemical_formula_structural   Ho3GeSe2
_chemical_formula_sum   'Ho3 Ge1 Se2'
_cell_volume   146.85158633
_cell_formula_units_Z   1
loop_
 _symmetry_equiv_pos_site_id
 _symmetry_equiv_pos_as_xyz
  1  'x, y, z'
loop_
 _atom_site_type_symbol
 _atom_site_label
 _atom_site_symmetry_multiplicity
 _atom_site_fract_x
 _atom_site_fract_y
 _atom_site_fract_z
 _atom_site_occupancy
  Ho  Ho0  1  0.342651  0.342651  0.000000  1
  Ho  Ho1  1  0.000000  0.000000  0.000000  1
  Ho  Ho2  1  0.657349  0.657349  0.000000  1
  Ge  Ge3  1  0.500000  0.000000  0.500000  1
  Se  Se4  1  0.168700  0.668700  0.500000  1
  Se  Se5  1  0.831300  0.331300  0.500000  1
