# generated using pymatgen
data_Zr7Nb3ZnSn7
_symmetry_space_group_name_H-M   'P 1'
_cell_length_a   5.82454100
_cell_length_b   8.67858637
_cell_length_c   8.67860200
_cell_angle_alpha   120.00020816
_cell_angle_beta   90.00077341
_cell_angle_gamma   89.99953553
_symmetry_Int_Tables_number   1
_chemical_formula_structural   Zr7Nb3ZnSn7
_chemical_formula_sum   'Zr7 Nb3 Zn1 Sn7'
_cell_volume   379.91827942
_cell_formula_units_Z   1
loop_
 _symmetry_equiv_pos_site_id
 _symmetry_equiv_pos_as_xyz
  1  'x, y, z'
loop_
 _atom_site_type_symbol
 _atom_site_label
 _atom_site_symmetry_multiplicity
 _atom_site_fract_x
 _atom_site_fract_y
 _atom_site_fract_z
 _atom_site_occupancy
  Zr  Zr0  1  0.000007  0.333331  0.666666  1
  Zr  Zr1  1  0.739486  0.277028  0.000755  1
  Zr  Zr2  1  0.739488  0.723731  0.722971  1
  Zr  Zr3  1  0.739493  0.999245  0.276270  1
  Zr  Zr4  1  0.260533  0.723707  0.000758  1
  Zr  Zr5  1  0.260541  0.277054  0.276294  1
  Zr  Zr6  1  0.260540  0.999237  0.722948  1
  Nb  Nb7  1  0.500013  0.333331  0.666661  1
  Nb  Nb8  1  0.500012  0.666666  0.333334  1
  Nb  Nb9  1  0.000019  0.666666  0.333331  1
  Zn  Zn10  1  0.499866  0.000000  0.000067  1
  Sn  Sn11  1  0.751744  0.614585  0.002814  1
  Sn  Sn12  1  0.751751  0.388230  0.385422  1
  Sn  Sn13  1  0.751729  0.997194  0.611740  1
  Sn  Sn14  1  0.248283  0.388272  0.002804  1
  Sn  Sn15  1  0.248272  0.614533  0.611731  1
  Sn  Sn16  1  0.248264  0.997190  0.385451  1
  Sn  Sn17  1  0.999956  0.000001  0.999983  1
