# generated using pymatgen
data_Pr3Th5Ir8
_symmetry_space_group_name_H-M   'P 1'
_cell_length_a   4.17713400
_cell_length_b   6.01451480
_cell_length_c   15.07092500
_cell_angle_alpha   89.66338797
_cell_angle_beta   90.00000000
_cell_angle_gamma   90.00000000
_symmetry_Int_Tables_number   1
_chemical_formula_structural   Pr3Th5Ir8
_chemical_formula_sum   'Pr3 Th5 Ir8'
_cell_volume   378.62685899
_cell_formula_units_Z   1
loop_
 _symmetry_equiv_pos_site_id
 _symmetry_equiv_pos_as_xyz
  1  'x, y, z'
loop_
 _atom_site_type_symbol
 _atom_site_label
 _atom_site_symmetry_multiplicity
 _atom_site_fract_x
 _atom_site_fract_y
 _atom_site_fract_z
 _atom_site_occupancy
  Pr  Pr0  1  0.250000  0.535685  0.284427  1
  Pr  Pr1  1  0.750000  0.469206  0.716762  1
  Pr  Pr2  1  0.250000  0.967811  0.783877  1
  Th  Th3  1  0.250000  0.750715  0.536426  1
  Th  Th4  1  0.250000  0.744113  0.036131  1
  Th  Th5  1  0.750000  0.245398  0.963618  1
  Th  Th6  1  0.750000  0.035794  0.216351  1
  Th  Th7  1  0.750000  0.253725  0.463473  1
  Ir  Ir8  1  0.250000  0.052606  0.352461  1
  Ir  Ir9  1  0.750000  0.552587  0.142269  1
  Ir  Ir10  1  0.750000  0.734265  0.406219  1
  Ir  Ir11  1  0.250000  0.447086  0.861628  1
  Ir  Ir12  1  0.750000  0.954345  0.638069  1
  Ir  Ir13  1  0.750000  0.770153  0.906433  1
  Ir  Ir14  1  0.250000  0.213655  0.099363  1
  Ir  Ir15  1  0.250000  0.272854  0.592492  1
