# generated using pymatgen
data_LaZn10Ir
_symmetry_space_group_name_H-M   'P 1'
_cell_length_a   8.34353201
_cell_length_b   8.34353142
_cell_length_c   8.34353168
_cell_angle_alpha   101.50267365
_cell_angle_beta   98.18589247
_cell_angle_gamma   131.16281931
_symmetry_Int_Tables_number   1
_chemical_formula_structural   LaZn10Ir
_chemical_formula_sum   'La2 Zn20 Ir2'
_cell_volume   397.92417988
_cell_formula_units_Z   2
loop_
 _symmetry_equiv_pos_site_id
 _symmetry_equiv_pos_as_xyz
  1  'x, y, z'
loop_
 _atom_site_type_symbol
 _atom_site_label
 _atom_site_symmetry_multiplicity
 _atom_site_fract_x
 _atom_site_fract_y
 _atom_site_fract_z
 _atom_site_occupancy
  La  La0  1  0.259088  0.759088  0.500000  1
  La  La1  1  0.990912  0.990912  0.000000  1
  Zn  Zn2  1  0.897321  0.568180  0.079671  1
  Zn  Zn3  1  0.424857  0.512190  0.326691  1
  Zn  Zn4  1  0.488509  0.568180  0.670859  1
  Zn  Zn5  1  0.424857  0.098166  0.912668  1
  Zn  Zn6  1  0.761491  0.181820  0.829141  1
  Zn  Zn7  1  0.488509  0.817650  0.920329  1
  Zn  Zn8  1  0.517389  0.517389  0.000000  1
  Zn  Zn9  1  0.761491  0.932350  0.579671  1
  Zn  Zn10  1  0.732611  0.232611  0.500000  1
  Zn  Zn11  1  0.064501  0.651834  0.826691  1
  Zn  Zn12  1  0.125000  0.375000  0.750000  1
  Zn  Zn13  1  0.352679  0.181820  0.420329  1
  Zn  Zn14  1  0.825143  0.651834  0.587332  1
  Zn  Zn15  1  0.897321  0.817650  0.329141  1
  Zn  Zn16  1  0.185499  0.098166  0.673309  1
  Zn  Zn17  1  0.064501  0.237810  0.412668  1
  Zn  Zn18  1  0.352679  0.932350  0.170859  1
  Zn  Zn19  1  0.825143  0.237810  0.173309  1
  Zn  Zn20  1  0.185499  0.512190  0.087332  1
  Zn  Zn21  1  0.625000  0.375000  0.250000  1
  Ir  Ir22  1  0.625000  0.875000  0.250000  1
  Ir  Ir23  1  0.625000  0.375000  0.750000  1
