# generated using pymatgen
data_Ho3LuCBr6
_symmetry_space_group_name_H-M   'P 1'
_cell_length_a   3.82574100
_cell_length_b   12.74299443
_cell_length_c   13.19224200
_cell_angle_alpha   89.75613127
_cell_angle_beta   90.00000000
_cell_angle_gamma   90.00000000
_symmetry_Int_Tables_number   1
_chemical_formula_structural   Ho3LuCBr6
_chemical_formula_sum   'Ho6 Lu2 C2 Br12'
_cell_volume   643.13439145
_cell_formula_units_Z   2
loop_
 _symmetry_equiv_pos_site_id
 _symmetry_equiv_pos_as_xyz
  1  'x, y, z'
loop_
 _atom_site_type_symbol
 _atom_site_label
 _atom_site_symmetry_multiplicity
 _atom_site_fract_x
 _atom_site_fract_y
 _atom_site_fract_z
 _atom_site_occupancy
  Ho  Ho0  1  0.000000  0.099309  0.078909  1
  Ho  Ho1  1  0.000000  0.900691  0.921091  1
  Ho  Ho2  1  0.500000  0.121624  0.857047  1
  Ho  Ho3  1  0.500000  0.878376  0.142953  1
  Ho  Ho4  1  0.500000  0.620678  0.641993  1
  Ho  Ho5  1  0.500000  0.379322  0.358007  1
  Lu  Lu6  1  0.000000  0.596782  0.423044  1
  Lu  Lu7  1  0.000000  0.403218  0.576956  1
  C  C8  1  0.500000  0.000000  0.000000  1
  C  C9  1  0.500000  0.500000  0.500000  1
  Br  Br10  1  0.500000  0.271658  0.679238  1
  Br  Br11  1  0.500000  0.728342  0.320762  1
  Br  Br12  1  0.500000  0.766841  0.817167  1
  Br  Br13  1  0.500000  0.233159  0.182833  1
  Br  Br14  1  0.000000  0.266331  0.932142  1
  Br  Br15  1  0.000000  0.733669  0.067858  1
  Br  Br16  1  0.000000  0.485648  0.236539  1
  Br  Br17  1  0.000000  0.514352  0.763461  1
  Br  Br18  1  0.000000  0.981921  0.265910  1
  Br  Br19  1  0.000000  0.018079  0.734090  1
  Br  Br20  1  0.000000  0.235341  0.435865  1
  Br  Br21  1  0.000000  0.764659  0.564135  1
