# generated using pymatgen
data_KRb3MgBr6
_symmetry_space_group_name_H-M   'P 1'
_cell_length_a   9.34819683
_cell_length_b   9.34819679
_cell_length_c   9.34819675
_cell_angle_alpha   90.77882220
_cell_angle_beta   90.77882076
_cell_angle_gamma   90.77882383
_symmetry_Int_Tables_number   1
_chemical_formula_structural   KRb3MgBr6
_chemical_formula_sum   'K2 Rb6 Mg2 Br12'
_cell_volume   816.69905843
_cell_formula_units_Z   2
loop_
 _symmetry_equiv_pos_site_id
 _symmetry_equiv_pos_as_xyz
  1  'x, y, z'
loop_
 _atom_site_type_symbol
 _atom_site_label
 _atom_site_symmetry_multiplicity
 _atom_site_fract_x
 _atom_site_fract_y
 _atom_site_fract_z
 _atom_site_occupancy
  K  K0  1  0.250000  0.250000  0.250000  1
  K  K1  1  0.750000  0.750000  0.750000  1
  Rb  Rb2  1  0.372532  0.127468  0.750000  1
  Rb  Rb3  1  0.127468  0.750000  0.372532  1
  Rb  Rb4  1  0.750000  0.372532  0.127468  1
  Rb  Rb5  1  0.627468  0.872532  0.250000  1
  Rb  Rb6  1  0.250000  0.627468  0.872532  1
  Rb  Rb7  1  0.872532  0.250000  0.627468  1
  Mg  Mg8  1  0.000000  0.000000  0.000000  1
  Mg  Mg9  1  0.500000  0.500000  0.500000  1
  Br  Br10  1  0.948266  0.071772  0.280194  1
  Br  Br11  1  0.071772  0.280194  0.948266  1
  Br  Br12  1  0.280194  0.948266  0.071772  1
  Br  Br13  1  0.571772  0.448266  0.780194  1
  Br  Br14  1  0.780194  0.571772  0.448266  1
  Br  Br15  1  0.448266  0.780194  0.571772  1
  Br  Br16  1  0.219806  0.428228  0.551734  1
  Br  Br17  1  0.428228  0.551734  0.219806  1
  Br  Br18  1  0.551734  0.219806  0.428228  1
  Br  Br19  1  0.928228  0.719806  0.051734  1
  Br  Br20  1  0.051734  0.928228  0.719806  1
  Br  Br21  1  0.719806  0.051734  0.928228  1
