# generated using pymatgen
data_Sr6Sn8AsAu
_symmetry_space_group_name_H-M   'P 1'
_cell_length_a   8.91848851
_cell_length_b   8.91848933
_cell_length_c   8.91848869
_cell_angle_alpha   120.37604623
_cell_angle_beta   120.37604597
_cell_angle_gamma   89.34989603
_symmetry_Int_Tables_number   1
_chemical_formula_structural   Sr6Sn8AsAu
_chemical_formula_sum   'Sr6 Sn8 As1 Au1'
_cell_volume   498.71561451
_cell_formula_units_Z   1
loop_
 _symmetry_equiv_pos_site_id
 _symmetry_equiv_pos_as_xyz
  1  'x, y, z'
loop_
 _atom_site_type_symbol
 _atom_site_label
 _atom_site_symmetry_multiplicity
 _atom_site_fract_x
 _atom_site_fract_y
 _atom_site_fract_z
 _atom_site_occupancy
  Sr  Sr0  1  0.240832  0.240832  0.000000  1
  Sr  Sr1  1  0.759168  0.759168  0.000000  1
  Sr  Sr2  1  0.154887  0.676542  0.831431  1
  Sr  Sr3  1  0.845113  0.323458  0.168569  1
  Sr  Sr4  1  0.676542  0.845113  0.521656  1
  Sr  Sr5  1  0.323458  0.154887  0.478344  1
  Sn  Sn6  1  0.826792  0.336080  0.785705  1
  Sn  Sn7  1  0.173208  0.663920  0.214295  1
  Sn  Sn8  1  0.550375  0.041088  0.214295  1
  Sn  Sn9  1  0.336080  0.550375  0.509288  1
  Sn  Sn10  1  0.958912  0.173208  0.509288  1
  Sn  Sn11  1  0.449625  0.958912  0.785705  1
  Sn  Sn12  1  0.663920  0.449625  0.490712  1
  Sn  Sn13  1  0.041088  0.826792  0.490712  1
  As  As14  1  0.000000  0.000000  0.000000  1
  Au  Au15  1  0.500000  0.500000  0.000000  1
