# generated using pymatgen
data_Ce9Nd(GeSb3)2
_symmetry_space_group_name_H-M   'P 1'
_cell_length_a   9.50012066
_cell_length_b   9.50011971
_cell_length_c   6.42948700
_cell_angle_alpha   90.00000000
_cell_angle_beta   90.00000000
_cell_angle_gamma   119.87496541
_symmetry_Int_Tables_number   1
_chemical_formula_structural   Ce9Nd(GeSb3)2
_chemical_formula_sum   'Ce9 Nd1 Ge2 Sb6'
_cell_volume   503.16561710
_cell_formula_units_Z   1
loop_
 _symmetry_equiv_pos_site_id
 _symmetry_equiv_pos_as_xyz
  1  'x, y, z'
loop_
 _atom_site_type_symbol
 _atom_site_label
 _atom_site_symmetry_multiplicity
 _atom_site_fract_x
 _atom_site_fract_y
 _atom_site_fract_z
 _atom_site_occupancy
  Ce  Ce0  1  0.666240  0.331925  0.999774  1
  Ce  Ce1  1  0.331925  0.666240  0.999774  1
  Ce  Ce2  1  0.331925  0.666240  0.500226  1
  Ce  Ce3  1  0.666240  0.331925  0.500226  1
  Ce  Ce4  1  0.262269  0.999551  0.750000  1
  Ce  Ce5  1  0.999551  0.262269  0.750000  1
  Ce  Ce6  1  0.261961  0.261961  0.250000  1
  Ce  Ce7  1  0.738791  0.000227  0.250000  1
  Ce  Ce8  1  0.000227  0.738791  0.250000  1
  Nd  Nd9  1  0.737924  0.737924  0.750000  1
  Ge  Ge10  1  0.002499  0.002499  0.000113  1
  Ge  Ge11  1  0.002499  0.002499  0.499887  1
  Sb  Sb12  1  0.383824  0.383824  0.750000  1
  Sb  Sb13  1  0.615422  0.999887  0.750000  1
  Sb  Sb14  1  0.999887  0.615422  0.750000  1
  Sb  Sb15  1  0.615171  0.615171  0.250000  1
  Sb  Sb16  1  0.384085  0.999564  0.250000  1
  Sb  Sb17  1  0.999564  0.384085  0.250000  1
