# generated using pymatgen
data_La17Pr3(IrPt2)4
_symmetry_space_group_name_H-M   'P 1'
_cell_length_a   11.60618000
_cell_length_b   11.60618000
_cell_length_c   6.64576000
_cell_angle_alpha   90.00000000
_cell_angle_beta   90.00000000
_cell_angle_gamma   90.00000000
_symmetry_Int_Tables_number   1
_chemical_formula_structural   La17Pr3(IrPt2)4
_chemical_formula_sum   'La17 Pr3 Ir4 Pt8'
_cell_volume   895.20656190
_cell_formula_units_Z   1
loop_
 _symmetry_equiv_pos_site_id
 _symmetry_equiv_pos_as_xyz
  1  'x, y, z'
loop_
 _atom_site_type_symbol
 _atom_site_label
 _atom_site_symmetry_multiplicity
 _atom_site_fract_x
 _atom_site_fract_y
 _atom_site_fract_z
 _atom_site_occupancy
  La  La0  1  0.295493  0.089455  0.375801  1
  La  La1  1  0.295362  0.910540  0.876097  1
  La  La2  1  0.704638  0.089460  0.876097  1
  La  La3  1  0.704507  0.910545  0.375801  1
  La  La4  1  0.589495  0.795235  0.876019  1
  La  La5  1  0.589315  0.204694  0.376152  1
  La  La6  1  0.410685  0.795306  0.376152  1
  La  La7  1  0.410505  0.204765  0.876019  1
  La  La8  1  0.204694  0.410685  0.623848  1
  La  La9  1  0.204765  0.589495  0.123981  1
  La  La10  1  0.795235  0.410505  0.123981  1
  La  La11  1  0.795306  0.589315  0.623848  1
  La  La12  1  0.910540  0.704638  0.123903  1
  La  La13  1  0.910545  0.295493  0.624199  1
  La  La14  1  0.089455  0.704507  0.624199  1
  La  La15  1  0.089460  0.295362  0.123903  1
  La  La16  1  0.000000  0.000000  0.500000  1
  Pr  Pr17  1  0.000000  0.000000  0.000000  1
  Pr  Pr18  1  0.500000  0.500000  0.000000  1
  Pr  Pr19  1  0.500000  0.500000  0.500000  1
  Ir  Ir20  1  0.500000  0.000000  0.114999  1
  Ir  Ir21  1  0.500000  0.000000  0.615009  1
  Ir  Ir22  1  0.000000  0.500000  0.885001  1
  Ir  Ir23  1  0.000000  0.500000  0.384991  1
  Pt  Pt24  1  0.846046  0.153985  0.250241  1
  Pt  Pt25  1  0.846015  0.846046  0.749759  1
  Pt  Pt26  1  0.153985  0.153954  0.749759  1
  Pt  Pt27  1  0.153954  0.846015  0.250241  1
  Pt  Pt28  1  0.653929  0.346017  0.750041  1
  Pt  Pt29  1  0.653983  0.653929  0.249959  1
  Pt  Pt30  1  0.346017  0.346071  0.249959  1
  Pt  Pt31  1  0.346071  0.653983  0.750041  1
