# generated using pymatgen
data_Eu3ZnNi3
_symmetry_space_group_name_H-M   'P 1'
_cell_length_a   5.58733439
_cell_length_b   5.58733449
_cell_length_c   13.27029900
_cell_angle_alpha   90.00000000
_cell_angle_beta   90.00000000
_cell_angle_gamma   135.37986056
_symmetry_Int_Tables_number   1
_chemical_formula_structural   Eu3ZnNi3
_chemical_formula_sum   'Eu6 Zn2 Ni6'
_cell_volume   290.98900429
_cell_formula_units_Z   2
loop_
 _symmetry_equiv_pos_site_id
 _symmetry_equiv_pos_as_xyz
  1  'x, y, z'
loop_
 _atom_site_type_symbol
 _atom_site_label
 _atom_site_symmetry_multiplicity
 _atom_site_fract_x
 _atom_site_fract_y
 _atom_site_fract_z
 _atom_site_occupancy
  Eu  Eu0  1  0.280624  0.719376  0.394678  1
  Eu  Eu1  1  0.719376  0.280624  0.605322  1
  Eu  Eu2  1  0.009092  0.990908  0.750000  1
  Eu  Eu3  1  0.990908  0.009092  0.250000  1
  Eu  Eu4  1  0.719376  0.280624  0.894678  1
  Eu  Eu5  1  0.280624  0.719376  0.105322  1
  Zn  Zn6  1  0.000000  0.000000  0.500000  1
  Zn  Zn7  1  0.000000  0.000000  0.000000  1
  Ni  Ni8  1  0.680785  0.319215  0.250000  1
  Ni  Ni9  1  0.319215  0.680785  0.750000  1
  Ni  Ni10  1  0.430362  0.569638  0.914330  1
  Ni  Ni11  1  0.569638  0.430362  0.085670  1
  Ni  Ni12  1  0.569638  0.430362  0.414330  1
  Ni  Ni13  1  0.430362  0.569638  0.585670  1
