# generated using pymatgen
data_Ho3Lu(CoSn)4
_symmetry_space_group_name_H-M   'P 1'
_cell_length_a   4.56718200
_cell_length_b   7.18965443
_cell_length_c   7.32018090
_cell_angle_alpha   90.21830010
_cell_angle_beta   90.00000000
_cell_angle_gamma   90.00000000
_symmetry_Int_Tables_number   1
_chemical_formula_structural   Ho3Lu(CoSn)4
_chemical_formula_sum   'Ho3 Lu1 Co4 Sn4'
_cell_volume   240.36708477
_cell_formula_units_Z   1
loop_
 _symmetry_equiv_pos_site_id
 _symmetry_equiv_pos_as_xyz
  1  'x, y, z'
loop_
 _atom_site_type_symbol
 _atom_site_label
 _atom_site_symmetry_multiplicity
 _atom_site_fract_x
 _atom_site_fract_y
 _atom_site_fract_z
 _atom_site_occupancy
  Ho  Ho0  1  0.250000  0.977506  0.798056  1
  Ho  Ho1  1  0.750000  0.021296  0.200823  1
  Ho  Ho2  1  0.750000  0.521995  0.300987  1
  Lu  Lu3  1  0.250000  0.475215  0.703989  1
  Co  Co4  1  0.750000  0.840810  0.561662  1
  Co  Co5  1  0.250000  0.163181  0.439380  1
  Co  Co6  1  0.750000  0.341178  0.938696  1
  Co  Co7  1  0.250000  0.659591  0.057744  1
  Sn  Sn8  1  0.750000  0.701401  0.890914  1
  Sn  Sn9  1  0.250000  0.795727  0.394874  1
  Sn  Sn10  1  0.250000  0.297655  0.106685  1
  Sn  Sn11  1  0.750000  0.204445  0.606192  1
