# generated using pymatgen
data_Tb19PrSn16
_symmetry_space_group_name_H-M   'P 1'
_cell_length_a   8.09568659
_cell_length_b   8.25108496
_cell_length_c   15.58852314
_cell_angle_alpha   90.01197946
_cell_angle_beta   89.80324629
_cell_angle_gamma   89.83185593
_symmetry_Int_Tables_number   1
_chemical_formula_structural   Tb19PrSn16
_chemical_formula_sum   'Tb19 Pr1 Sn16'
_cell_volume   1041.27460381
_cell_formula_units_Z   1
loop_
 _symmetry_equiv_pos_site_id
 _symmetry_equiv_pos_as_xyz
  1  'x, y, z'
loop_
 _atom_site_type_symbol
 _atom_site_label
 _atom_site_symmetry_multiplicity
 _atom_site_fract_x
 _atom_site_fract_y
 _atom_site_fract_z
 _atom_site_occupancy
  Tb  Tb0  1  0.367304  0.836312  0.878036  1
  Tb  Tb1  1  0.867703  0.663621  0.620497  1
  Tb  Tb2  1  0.631994  0.163349  0.378299  1
  Tb  Tb3  1  0.133631  0.337207  0.122047  1
  Tb  Tb4  1  0.633320  0.163713  0.122342  1
  Tb  Tb5  1  0.132258  0.336809  0.378462  1
  Tb  Tb6  1  0.368188  0.836126  0.620971  1
  Tb  Tb7  1  0.867140  0.663084  0.878582  1
  Tb  Tb8  1  0.519684  0.321148  0.901715  1
  Tb  Tb9  1  0.020058  0.180119  0.598412  1
  Tb  Tb10  1  0.480042  0.679718  0.401433  1
  Tb  Tb11  1  0.981223  0.819087  0.098665  1
  Tb  Tb12  1  0.480637  0.680106  0.098682  1
  Tb  Tb13  1  0.980356  0.820122  0.401609  1
  Tb  Tb14  1  0.519800  0.320506  0.597270  1
  Tb  Tb15  1  0.199146  0.502622  0.749370  1
  Tb  Tb16  1  0.699010  0.997159  0.749151  1
  Tb  Tb17  1  0.801160  0.497627  0.250281  1
  Tb  Tb18  1  0.301201  0.002210  0.250361  1
  Pr  Pr19  1  0.016804  0.180775  0.903321  1
  Sn  Sn20  1  0.295786  0.033473  0.043780  1
  Sn  Sn21  1  0.791244  0.464156  0.457846  1
  Sn  Sn22  1  0.708779  0.965268  0.541662  1
  Sn  Sn23  1  0.209725  0.538613  0.959126  1
  Sn  Sn24  1  0.702929  0.960262  0.959575  1
  Sn  Sn25  1  0.208646  0.535586  0.541498  1
  Sn  Sn26  1  0.291517  0.035313  0.457908  1
  Sn  Sn27  1  0.791411  0.464658  0.042275  1
  Sn  Sn28  1  0.565985  0.619418  0.749839  1
  Sn  Sn29  1  0.066209  0.879545  0.749425  1
  Sn  Sn30  1  0.434197  0.380923  0.250250  1
  Sn  Sn31  1  0.934523  0.119426  0.250201  1
  Sn  Sn32  1  0.329244  0.145378  0.748978  1
  Sn  Sn33  1  0.824206  0.356423  0.747919  1
  Sn  Sn34  1  0.672563  0.854364  0.250058  1
  Sn  Sn35  1  0.172376  0.645775  0.250152  1
