# generated using pymatgen
data_CeHoBRh6
_symmetry_space_group_name_H-M   'P 1'
_cell_length_a   5.83685190
_cell_length_b   5.83685223
_cell_length_c   5.83685300
_cell_angle_alpha   60.00000132
_cell_angle_beta   59.99999946
_cell_angle_gamma   60.00000150
_symmetry_Int_Tables_number   1
_chemical_formula_structural   CeHoBRh6
_chemical_formula_sum   'Ce1 Ho1 B1 Rh6'
_cell_volume   140.61159629
_cell_formula_units_Z   1
loop_
 _symmetry_equiv_pos_site_id
 _symmetry_equiv_pos_as_xyz
  1  'x, y, z'
loop_
 _atom_site_type_symbol
 _atom_site_label
 _atom_site_symmetry_multiplicity
 _atom_site_fract_x
 _atom_site_fract_y
 _atom_site_fract_z
 _atom_site_occupancy
  Ce  Ce0  1  0.749999  0.749999  0.749999  1
  Ho  Ho1  1  0.249999  0.249999  0.249999  1
  B  B2  1  0.000000  0.000000  0.000000  1
  Rh  Rh3  1  0.743526  0.256474  0.256474  1
  Rh  Rh4  1  0.743526  0.743526  0.256474  1
  Rh  Rh5  1  0.256474  0.743526  0.256474  1
  Rh  Rh6  1  0.256474  0.743526  0.743526  1
  Rh  Rh7  1  0.256474  0.256474  0.743526  1
  Rh  Rh8  1  0.743526  0.256474  0.743526  1
