# generated using pymatgen
data_YLu15(In3Pt)2
_symmetry_space_group_name_H-M   'P 1'
_cell_length_a   10.30217300
_cell_length_b   10.30217366
_cell_length_c   6.90458500
_cell_angle_alpha   90.00000000
_cell_angle_beta   90.00000000
_cell_angle_gamma   120.00000111
_symmetry_Int_Tables_number   1
_chemical_formula_structural   YLu15(In3Pt)2
_chemical_formula_sum   'Y1 Lu15 In6 Pt2'
_cell_volume   634.63776519
_cell_formula_units_Z   1
loop_
 _symmetry_equiv_pos_site_id
 _symmetry_equiv_pos_as_xyz
  1  'x, y, z'
loop_
 _atom_site_type_symbol
 _atom_site_label
 _atom_site_symmetry_multiplicity
 _atom_site_fract_x
 _atom_site_fract_y
 _atom_site_fract_z
 _atom_site_occupancy
  Y  Y0  1  0.000000  0.000000  0.998628  1
  Lu  Lu1  1  0.468300  0.531700  0.477795  1
  Lu  Lu2  1  0.063399  0.531700  0.477795  1
  Lu  Lu3  1  0.468300  0.936601  0.477795  1
  Lu  Lu4  1  0.531855  0.468145  0.978003  1
  Lu  Lu5  1  0.936288  0.468145  0.978003  1
  Lu  Lu6  1  0.531855  0.063712  0.978003  1
  Lu  Lu7  1  0.823740  0.176260  0.276398  1
  Lu  Lu8  1  0.352520  0.176260  0.276398  1
  Lu  Lu9  1  0.823740  0.647480  0.276398  1
  Lu  Lu10  1  0.176383  0.823617  0.774251  1
  Lu  Lu11  1  0.647233  0.823617  0.774251  1
  Lu  Lu12  1  0.176383  0.352767  0.774251  1
  Lu  Lu13  1  0.333333  0.666667  0.101938  1
  Lu  Lu14  1  0.666667  0.333333  0.601756  1
  Lu  Lu15  1  0.000000  0.000000  0.498930  1
  In  In16  1  0.162844  0.837156  0.236143  1
  In  In17  1  0.674310  0.837156  0.236143  1
  In  In18  1  0.162844  0.325690  0.236143  1
  In  In19  1  0.837291  0.162709  0.734347  1
  In  In20  1  0.325417  0.162709  0.734347  1
  In  In21  1  0.837291  0.674583  0.734347  1
  Pt  Pt22  1  0.333333  0.666667  0.706511  1
  Pt  Pt23  1  0.666667  0.333333  0.205971  1
