# generated using pymatgen
data_Nd4Dy3Y(B6Os)4
_symmetry_space_group_name_H-M   'P 1'
_cell_length_a   3.71101800
_cell_length_b   9.26262000
_cell_length_c   11.68470600
_cell_angle_alpha   90.00000490
_cell_angle_beta   90.00000000
_cell_angle_gamma   90.00000000
_symmetry_Int_Tables_number   1
_chemical_formula_structural   Nd4Dy3Y(B6Os)4
_chemical_formula_sum   'Nd4 Dy3 Y1 B24 Os4'
_cell_volume   401.64715758
_cell_formula_units_Z   1
loop_
 _symmetry_equiv_pos_site_id
 _symmetry_equiv_pos_as_xyz
  1  'x, y, z'
loop_
 _atom_site_type_symbol
 _atom_site_label
 _atom_site_symmetry_multiplicity
 _atom_site_fract_x
 _atom_site_fract_y
 _atom_site_fract_z
 _atom_site_occupancy
  Nd  Nd0  1  0.000000  0.322776  0.414014  1
  Nd  Nd1  1  0.000000  0.677208  0.585994  1
  Nd  Nd2  1  0.000000  0.822732  0.085975  1
  Nd  Nd3  1  0.000000  0.177256  0.914038  1
  Dy  Dy4  1  0.000000  0.055753  0.627762  1
  Dy  Dy5  1  0.000000  0.444283  0.127664  1
  Dy  Dy6  1  0.000000  0.555718  0.872300  1
  Y  Y7  1  0.000000  0.944392  0.372550  1
  B  B8  1  0.500000  0.556044  0.430561  1
  B  B9  1  0.500000  0.443947  0.569464  1
  B  B10  1  0.500000  0.056027  0.069429  1
  B  B11  1  0.500000  0.943947  0.930531  1
  B  B12  1  0.500000  0.748856  0.417692  1
  B  B13  1  0.500000  0.251036  0.582371  1
  B  B14  1  0.500000  0.249002  0.082331  1
  B  B15  1  0.500000  0.751024  0.917641  1
  B  B16  1  0.500000  0.790284  0.267119  1
  B  B17  1  0.500000  0.209684  0.732796  1
  B  B18  1  0.500000  0.290357  0.232799  1
  B  B19  1  0.500000  0.709679  0.767214  1
  B  B20  1  0.500000  0.631146  0.185660  1
  B  B21  1  0.500000  0.368822  0.814307  1
  B  B22  1  0.500000  0.131290  0.314273  1
  B  B23  1  0.500000  0.868819  0.685728  1
  B  B24  1  0.500000  0.985904  0.213846  1
  B  B25  1  0.500000  0.014078  0.786061  1
  B  B26  1  0.500000  0.485872  0.286030  1
  B  B27  1  0.500000  0.514070  0.713943  1
  B  B28  1  0.500000  0.604283  0.028620  1
  B  B29  1  0.500000  0.395726  0.971355  1
  B  B30  1  0.500000  0.104441  0.471393  1
  B  B31  1  0.500000  0.895612  0.528720  1
  Os  Os32  1  0.000000  0.638868  0.319868  1
  Os  Os33  1  0.000000  0.360985  0.680091  1
  Os  Os34  1  0.000000  0.139079  0.179992  1
  Os  Os35  1  0.000000  0.860999  0.819869  1
