# generated using pymatgen
data_Sc6ZnP5Ru6
_symmetry_space_group_name_H-M   'P 1'
_cell_length_a   7.54193321
_cell_length_b   7.55526174
_cell_length_c   7.54193363
_cell_angle_alpha   127.95786469
_cell_angle_beta   122.25893357
_cell_angle_gamma   81.39330518
_symmetry_Int_Tables_number   1
_chemical_formula_structural   Sc6ZnP5Ru6
_chemical_formula_sum   'Sc6 Zn1 P5 Ru6'
_cell_volume   276.06278323
_cell_formula_units_Z   1
loop_
 _symmetry_equiv_pos_site_id
 _symmetry_equiv_pos_as_xyz
  1  'x, y, z'
loop_
 _atom_site_type_symbol
 _atom_site_label
 _atom_site_symmetry_multiplicity
 _atom_site_fract_x
 _atom_site_fract_y
 _atom_site_fract_z
 _atom_site_occupancy
  Sc  Sc0  1  0.454986  0.668088  0.713102  1
  Sc  Sc1  1  0.536513  0.251704  0.215191  1
  Sc  Sc2  1  0.747228  0.841311  0.594083  1
  Sc  Sc3  1  0.249918  0.841729  0.091810  1
  Sc  Sc4  1  0.055283  0.254961  0.699678  1
  Sc  Sc5  1  0.956337  0.665693  0.209356  1
  Zn  Zn6  1  0.261473  0.259458  0.497986  1
  P  P7  1  0.741808  0.246918  0.005109  1
  P  P8  1  0.331625  0.585100  0.251758  1
  P  P9  1  0.665922  0.920605  0.254078  1
  P  P10  1  0.166527  0.920605  0.754683  1
  P  P11  1  0.833342  0.585100  0.753476  1
  Ru  Ru12  1  0.520983  0.504233  0.026059  1
  Ru  Ru13  1  0.978175  0.504233  0.483251  1
  Ru  Ru14  1  0.091420  0.252605  0.092259  1
  Ru  Ru15  1  0.863831  0.002325  0.118043  1
  Ru  Ru16  1  0.384282  0.002325  0.638495  1
  Ru  Ru17  1  0.660346  0.252605  0.661185  1
