# generated using pymatgen
data_Zr2Ta3GaGe3
_symmetry_space_group_name_H-M   'P 1'
_cell_length_a   6.88244300
_cell_length_b   6.97249500
_cell_length_c   13.34381200
_cell_angle_alpha   90.00000000
_cell_angle_beta   90.00000000
_cell_angle_gamma   90.00000000
_symmetry_Int_Tables_number   1
_chemical_formula_structural   Zr2Ta3GaGe3
_chemical_formula_sum   'Zr8 Ta12 Ga4 Ge12'
_cell_volume   640.34017356
_cell_formula_units_Z   4
loop_
 _symmetry_equiv_pos_site_id
 _symmetry_equiv_pos_as_xyz
  1  'x, y, z'
loop_
 _atom_site_type_symbol
 _atom_site_label
 _atom_site_symmetry_multiplicity
 _atom_site_fract_x
 _atom_site_fract_y
 _atom_site_fract_z
 _atom_site_occupancy
  Zr  Zr0  1  0.489383  0.676010  0.591254  1
  Zr  Zr1  1  0.989383  0.823990  0.908746  1
  Zr  Zr2  1  0.510617  0.323990  0.091254  1
  Zr  Zr3  1  0.010617  0.176010  0.408746  1
  Zr  Zr4  1  0.510617  0.323990  0.408746  1
  Zr  Zr5  1  0.010617  0.176010  0.091254  1
  Zr  Zr6  1  0.489383  0.676010  0.908746  1
  Zr  Zr7  1  0.989383  0.823990  0.591254  1
  Ta  Ta8  1  0.657532  0.168375  0.625198  1
  Ta  Ta9  1  0.157532  0.331625  0.874802  1
  Ta  Ta10  1  0.342468  0.831625  0.125198  1
  Ta  Ta11  1  0.842468  0.668375  0.374802  1
  Ta  Ta12  1  0.342468  0.831625  0.374802  1
  Ta  Ta13  1  0.842468  0.668375  0.125198  1
  Ta  Ta14  1  0.657532  0.168375  0.874802  1
  Ta  Ta15  1  0.157532  0.331625  0.625198  1
  Ta  Ta16  1  0.837926  0.489096  0.750000  1
  Ta  Ta17  1  0.337926  0.010904  0.750000  1
  Ta  Ta18  1  0.162074  0.510904  0.250000  1
  Ta  Ta19  1  0.662074  0.989096  0.250000  1
  Ga  Ga20  1  0.460773  0.391404  0.750000  1
  Ga  Ga21  1  0.960773  0.108596  0.750000  1
  Ga  Ga22  1  0.539227  0.608596  0.250000  1
  Ga  Ga23  1  0.039227  0.891404  0.250000  1
  Ge  Ge24  1  0.682523  0.961971  0.460595  1
  Ge  Ge25  1  0.182523  0.538029  0.039405  1
  Ge  Ge26  1  0.317477  0.038029  0.960595  1
  Ge  Ge27  1  0.817477  0.461971  0.539405  1
  Ge  Ge28  1  0.317477  0.038029  0.539405  1
  Ge  Ge29  1  0.817477  0.461971  0.960595  1
  Ge  Ge30  1  0.682523  0.961971  0.039405  1
  Ge  Ge31  1  0.182523  0.538029  0.460595  1
  Ge  Ge32  1  0.698431  0.851656  0.750000  1
  Ge  Ge33  1  0.198431  0.648344  0.750000  1
  Ge  Ge34  1  0.301569  0.148344  0.250000  1
  Ge  Ge35  1  0.801569  0.351656  0.250000  1
