# generated using pymatgen
data_Dy3Y2Tm(Co3P2)6
_symmetry_space_group_name_H-M   'P 1'
_cell_length_a   3.69407400
_cell_length_b   10.50209801
_cell_length_c   12.16715802
_cell_angle_alpha   90.00612076
_cell_angle_beta   90.00000000
_cell_angle_gamma   90.00000000
_symmetry_Int_Tables_number   1
_chemical_formula_structural   Dy3Y2Tm(Co3P2)6
_chemical_formula_sum   'Dy3 Y2 Tm1 Co18 P12'
_cell_volume   472.03130739
_cell_formula_units_Z   1
loop_
 _symmetry_equiv_pos_site_id
 _symmetry_equiv_pos_as_xyz
  1  'x, y, z'
loop_
 _atom_site_type_symbol
 _atom_site_label
 _atom_site_symmetry_multiplicity
 _atom_site_fract_x
 _atom_site_fract_y
 _atom_site_fract_z
 _atom_site_occupancy
  Dy  Dy0  1  0.500000  0.182283  0.205831  1
  Dy  Dy1  1  0.000000  0.682695  0.794087  1
  Dy  Dy2  1  0.000000  0.317375  0.794354  1
  Y  Y3  1  0.000000  0.500165  0.521559  1
  Y  Y4  1  0.500000  0.999807  0.478021  1
  Tm  Tm5  1  0.500000  0.817379  0.205905  1
  Co  Co6  1  0.500000  0.500127  0.158663  1
  Co  Co7  1  0.000000  0.999884  0.841474  1
  Co  Co8  1  0.500000  0.500143  0.703705  1
  Co  Co9  1  0.000000  0.999061  0.295977  1
  Co  Co10  1  0.000000  0.500436  0.986554  1
  Co  Co11  1  0.500000  0.999556  0.014387  1
  Co  Co12  1  0.500000  0.333264  0.994904  1
  Co  Co13  1  0.500000  0.667159  0.995352  1
  Co  Co14  1  0.000000  0.166289  0.005447  1
  Co  Co15  1  0.000000  0.833245  0.005859  1
  Co  Co16  1  0.500000  0.297424  0.430325  1
  Co  Co17  1  0.500000  0.702723  0.429716  1
  Co  Co18  1  0.000000  0.202458  0.569532  1
  Co  Co19  1  0.000000  0.797449  0.569042  1
  Co  Co20  1  0.500000  0.879399  0.709807  1
  Co  Co21  1  0.500000  0.120536  0.710012  1
  Co  Co22  1  0.000000  0.621468  0.289528  1
  Co  Co23  1  0.000000  0.379590  0.290071  1
  P  P24  1  0.500000  0.500209  0.883077  1
  P  P25  1  0.000000  0.999118  0.117696  1
  P  P26  1  0.500000  0.499967  0.343309  1
  P  P27  1  0.000000  0.000011  0.656549  1
  P  P28  1  0.500000  0.310417  0.616045  1
  P  P29  1  0.500000  0.689758  0.615725  1
  P  P30  1  0.000000  0.189409  0.383832  1
  P  P31  1  0.000000  0.810470  0.382798  1
  P  P32  1  0.500000  0.847570  0.893169  1
  P  P33  1  0.500000  0.152274  0.893445  1
  P  P34  1  0.000000  0.653483  0.107421  1
  P  P35  1  0.000000  0.347399  0.106820  1
