# generated using pymatgen
data_Ta3Re3GeB2
_symmetry_space_group_name_H-M   'P 1'
_cell_length_a   6.69544321
_cell_length_b   6.69584139
_cell_length_c   3.17146800
_cell_angle_alpha   90.00000000
_cell_angle_beta   90.00000000
_cell_angle_gamma   119.99707578
_symmetry_Int_Tables_number   1
_chemical_formula_structural   Ta3Re3GeB2
_chemical_formula_sum   'Ta3 Re3 Ge1 B2'
_cell_volume   123.13690955
_cell_formula_units_Z   1
loop_
 _symmetry_equiv_pos_site_id
 _symmetry_equiv_pos_as_xyz
  1  'x, y, z'
loop_
 _atom_site_type_symbol
 _atom_site_label
 _atom_site_symmetry_multiplicity
 _atom_site_fract_x
 _atom_site_fract_y
 _atom_site_fract_z
 _atom_site_occupancy
  Ta  Ta0  1  0.384480  0.967442  0.500000  1
  Ta  Ta1  1  0.032537  0.417022  0.500000  1
  Ta  Ta2  1  0.583036  0.615565  0.500000  1
  Re  Re3  1  0.751739  0.995242  0.000000  1
  Re  Re4  1  0.004771  0.756368  0.000000  1
  Re  Re5  1  0.243590  0.248415  0.000000  1
  Ge  Ge6  1  0.666384  0.333266  0.000000  1
  B  B7  1  0.333370  0.666684  0.000000  1
  B  B8  1  0.000091  0.999997  0.500000  1
