# generated using pymatgen
data_Ti6CBr14
_symmetry_space_group_name_H-M   'P 1'
_cell_length_a   10.38911300
_cell_length_b   10.38911299
_cell_length_c   12.28130000
_cell_angle_alpha   90.00000000
_cell_angle_beta   90.00000000
_cell_angle_gamma   88.56704154
_symmetry_Int_Tables_number   1
_chemical_formula_structural   Ti6CBr14
_chemical_formula_sum   'Ti12 C2 Br28'
_cell_volume   1325.15122239
_cell_formula_units_Z   2
loop_
 _symmetry_equiv_pos_site_id
 _symmetry_equiv_pos_as_xyz
  1  'x, y, z'
loop_
 _atom_site_type_symbol
 _atom_site_label
 _atom_site_symmetry_multiplicity
 _atom_site_fract_x
 _atom_site_fract_y
 _atom_site_fract_z
 _atom_site_occupancy
  Ti  Ti0  1  0.377790  0.622211  0.086235  1
  Ti  Ti1  1  0.448531  0.340873  0.108742  1
  Ti  Ti2  1  0.659127  0.551469  0.108742  1
  Ti  Ti3  1  0.159126  0.051469  0.391259  1
  Ti  Ti4  1  0.948531  0.840873  0.391259  1
  Ti  Ti5  1  0.877790  0.122211  0.413765  1
  Ti  Ti6  1  0.122211  0.877790  0.586235  1
  Ti  Ti7  1  0.051469  0.159126  0.608742  1
  Ti  Ti8  1  0.840873  0.948531  0.608742  1
  Ti  Ti9  1  0.340873  0.448531  0.891259  1
  Ti  Ti10  1  0.551469  0.659127  0.891259  1
  Ti  Ti11  1  0.622211  0.377790  0.913764  1
  C  C12  1  0.500001  0.500001  0.000000  1
  C  C13  1  0.000000  0.000000  0.500000  1
  Br  Br14  1  0.260098  0.260098  0.000000  1
  Br  Br15  1  0.739902  0.739902  0.000000  1
  Br  Br16  1  0.593351  0.169601  0.016215  1
  Br  Br17  1  0.830399  0.406648  0.016215  1
  Br  Br18  1  0.293774  0.471827  0.229322  1
  Br  Br19  1  0.528172  0.706225  0.229322  1
  Br  Br20  1  0.126642  0.873359  0.250310  1
  Br  Br21  1  0.373764  0.126235  0.250000  1
  Br  Br22  1  0.873765  0.626236  0.250000  1
  Br  Br23  1  0.626643  0.373358  0.249690  1
  Br  Br24  1  0.028172  0.206225  0.270677  1
  Br  Br25  1  0.793775  0.971828  0.270677  1
  Br  Br26  1  0.093352  0.669600  0.483785  1
  Br  Br27  1  0.330399  0.906648  0.483785  1
  Br  Br28  1  0.239902  0.239902  0.500000  1
  Br  Br29  1  0.760098  0.760098  0.500000  1
  Br  Br30  1  0.669600  0.093352  0.516215  1
  Br  Br31  1  0.906648  0.330399  0.516215  1
  Br  Br32  1  0.206225  0.028172  0.729323  1
  Br  Br33  1  0.971828  0.793775  0.729323  1
  Br  Br34  1  0.373358  0.626643  0.750311  1
  Br  Br35  1  0.126235  0.373764  0.750000  1
  Br  Br36  1  0.626236  0.873765  0.750000  1
  Br  Br37  1  0.873359  0.126642  0.749690  1
  Br  Br38  1  0.471827  0.293774  0.770677  1
  Br  Br39  1  0.706225  0.528172  0.770677  1
  Br  Br40  1  0.169601  0.593351  0.983785  1
  Br  Br41  1  0.406648  0.830399  0.983785  1
