# generated using pymatgen
data_Dy3Lu5In3Fe
_symmetry_space_group_name_H-M   'P 1'
_cell_length_a   10.13295800
_cell_length_b   10.12934972
_cell_length_c   7.06678861
_cell_angle_alpha   89.92134607
_cell_angle_beta   90.00000000
_cell_angle_gamma   120.01178437
_symmetry_Int_Tables_number   1
_chemical_formula_structural   Dy3Lu5In3Fe
_chemical_formula_sum   'Dy6 Lu10 In6 Fe2'
_cell_volume   628.08498437
_cell_formula_units_Z   2
loop_
 _symmetry_equiv_pos_site_id
 _symmetry_equiv_pos_as_xyz
  1  'x, y, z'
loop_
 _atom_site_type_symbol
 _atom_site_label
 _atom_site_symmetry_multiplicity
 _atom_site_fract_x
 _atom_site_fract_y
 _atom_site_fract_z
 _atom_site_occupancy
  Dy  Dy0  1  0.463393  0.926788  0.214355  1
  Dy  Dy1  1  0.535115  0.464589  0.713525  1
  Dy  Dy2  1  0.929476  0.464589  0.713525  1
  Dy  Dy3  1  0.535647  0.071294  0.714670  1
  Dy  Dy4  1  0.999974  0.999949  0.227472  1
  Dy  Dy5  1  0.000322  0.000643  0.728206  1
  Lu  Lu6  1  0.179157  0.819691  0.509516  1
  Lu  Lu7  1  0.640535  0.819691  0.509516  1
  Lu  Lu8  1  0.180267  0.360534  0.508508  1
  Lu  Lu9  1  0.821569  0.179704  0.011931  1
  Lu  Lu10  1  0.358135  0.179704  0.011931  1
  Lu  Lu11  1  0.820333  0.640668  0.012462  1
  Lu  Lu12  1  0.332959  0.665919  0.819600  1
  Lu  Lu13  1  0.667279  0.334558  0.317556  1
  Lu  Lu14  1  0.462866  0.536977  0.212724  1
  Lu  Lu15  1  0.074110  0.536977  0.212724  1
  In  In16  1  0.163641  0.835296  0.958965  1
  In  In17  1  0.671655  0.835296  0.958965  1
  In  In18  1  0.164506  0.329012  0.959263  1
  In  In19  1  0.836139  0.164015  0.458827  1
  In  In20  1  0.327876  0.164015  0.458827  1
  In  In21  1  0.836016  0.672032  0.458455  1
  Fe  Fe22  1  0.332505  0.665013  0.440508  1
  Fe  Fe23  1  0.666525  0.333048  0.942808  1
