# generated using pymatgen
data_Nd8ReRu2WC8
_symmetry_space_group_name_H-M   'P 1'
_cell_length_a   5.34614700
_cell_length_b   6.70353450
_cell_length_c   10.22960845
_cell_angle_alpha   90.14704150
_cell_angle_beta   90.00000000
_cell_angle_gamma   90.00000000
_symmetry_Int_Tables_number   1
_chemical_formula_structural   Nd8ReRu2WC8
_chemical_formula_sum   'Nd8 Re1 Ru2 W1 C8'
_cell_volume   366.60832750
_cell_formula_units_Z   1
loop_
 _symmetry_equiv_pos_site_id
 _symmetry_equiv_pos_as_xyz
  1  'x, y, z'
loop_
 _atom_site_type_symbol
 _atom_site_label
 _atom_site_symmetry_multiplicity
 _atom_site_fract_x
 _atom_site_fract_y
 _atom_site_fract_z
 _atom_site_occupancy
  Nd  Nd0  1  0.250000  0.471674  0.785741  1
  Nd  Nd1  1  0.750000  0.031664  0.284001  1
  Nd  Nd2  1  0.250000  0.972951  0.710677  1
  Nd  Nd3  1  0.750000  0.526925  0.212223  1
  Nd  Nd4  1  0.250000  0.815795  0.050408  1
  Nd  Nd5  1  0.750000  0.682976  0.551956  1
  Nd  Nd6  1  0.250000  0.311310  0.446472  1
  Nd  Nd7  1  0.750000  0.188339  0.945986  1
  Re  Re8  1  0.750000  0.728738  0.857622  1
  Ru  Ru9  1  0.250000  0.270876  0.140341  1
  Ru  Ru10  1  0.750000  0.228517  0.642136  1
  W  W11  1  0.250000  0.772741  0.359378  1
  C  C12  1  0.250000  0.685199  0.543346  1
  C  C13  1  0.750000  0.812453  0.037964  1
  C  C14  1  0.250000  0.186663  0.962114  1
  C  C15  1  0.750000  0.312247  0.464962  1
  C  C16  1  0.250000  0.038121  0.257863  1
  C  C17  1  0.750000  0.465159  0.759730  1
  C  C18  1  0.250000  0.534054  0.242371  1
  C  C19  1  0.750000  0.963596  0.744709  1
