# generated using pymatgen
data_Yb6Ti3Al(SiO4)6
_symmetry_space_group_name_H-M   'P 1'
_cell_length_a   10.43154001
_cell_length_b   10.44504534
_cell_length_c   10.49820469
_cell_angle_alpha   109.51486890
_cell_angle_beta   109.44944218
_cell_angle_gamma   109.21791571
_symmetry_Int_Tables_number   1
_chemical_formula_structural   Yb6Ti3Al(SiO4)6
_chemical_formula_sum   'Yb12 Ti6 Al2 Si12 O48'
_cell_volume   883.04686891
_cell_formula_units_Z   2
loop_
 _symmetry_equiv_pos_site_id
 _symmetry_equiv_pos_as_xyz
  1  'x, y, z'
loop_
 _atom_site_type_symbol
 _atom_site_label
 _atom_site_symmetry_multiplicity
 _atom_site_fract_x
 _atom_site_fract_y
 _atom_site_fract_z
 _atom_site_occupancy
  Yb  Yb0  1  0.375086  0.750100  0.123817  1
  Yb  Yb1  1  0.248755  0.373740  0.123872  1
  Yb  Yb2  1  0.373630  0.123647  0.247234  1
  Yb  Yb3  1  0.875348  0.625309  0.250611  1
  Yb  Yb4  1  0.749064  0.124893  0.372862  1
  Yb  Yb5  1  0.123755  0.247996  0.372861  1
  Yb  Yb6  1  0.876244  0.752004  0.627139  1
  Yb  Yb7  1  0.250936  0.875106  0.627138  1
  Yb  Yb8  1  0.124652  0.374690  0.749389  1
  Yb  Yb9  1  0.626370  0.876353  0.752766  1
  Yb  Yb10  1  0.751245  0.626260  0.876127  1
  Yb  Yb11  1  0.624913  0.249899  0.876183  1
  Ti  Ti12  1  0.000000  0.500000  0.000000  1
  Ti  Ti13  1  0.500000  0.500000  0.000000  1
  Ti  Ti14  1  0.000000  0.000000  0.500000  1
  Ti  Ti15  1  0.500000  0.500000  0.500000  1
  Ti  Ti16  1  0.000000  0.500000  0.500000  1
  Ti  Ti17  1  0.500000  0.000000  0.500000  1
  Al  Al18  1  0.000000  0.000000  0.000000  1
  Al  Al19  1  0.500000  0.000000  0.000000  1
  Si  Si20  1  0.870666  0.241180  0.120475  1
  Si  Si21  1  0.749874  0.879363  0.120506  1
  Si  Si22  1  0.623010  0.367654  0.245010  1
  Si  Si23  1  0.121998  0.877338  0.244994  1
  Si  Si24  1  0.248792  0.624866  0.374062  1
  Si  Si25  1  0.625285  0.749193  0.374045  1
  Si  Si26  1  0.751208  0.375134  0.625938  1
  Si  Si27  1  0.374715  0.250807  0.625955  1
  Si  Si28  1  0.878002  0.122662  0.755006  1
  Si  Si29  1  0.376990  0.632346  0.754990  1
  Si  Si30  1  0.250126  0.120636  0.879494  1
  Si  Si31  1  0.129334  0.758819  0.879524  1
  O  O32  1  0.198474  0.114175  0.012218  1
  O  O33  1  0.313730  0.898028  0.012206  1
  O  O34  1  0.703297  0.698724  0.086270  1
  O  O35  1  0.882919  0.387509  0.086315  1
  O  O36  1  0.619050  0.408633  0.104782  1
  O  O37  1  0.985697  0.696206  0.104795  1
  O  O38  1  0.006139  0.193350  0.111456  1
  O  O39  1  0.605323  0.918074  0.111449  1
  O  O40  1  0.206903  0.590478  0.195566  1
  O  O41  1  0.488638  0.605098  0.195609  1
  O  O42  1  0.113603  0.012103  0.196912  1
  O  O43  1  0.583322  0.184840  0.196897  1
  O  O44  1  0.302984  0.912431  0.291693  1
  O  O45  1  0.488684  0.379239  0.291568  1
  O  O46  1  0.910665  0.291154  0.302291  1
  O  O47  1  0.891630  0.011112  0.302287  1
  O  O48  1  0.589775  0.893912  0.380227  1
  O  O49  1  0.290387  0.486282  0.380157  1
  O  O50  1  0.801731  0.504520  0.390601  1
  O  O51  1  0.088913  0.886111  0.390603  1
  O  O52  1  0.805162  0.790641  0.409780  1
  O  O53  1  0.104544  0.619143  0.409829  1
  O  O54  1  0.382462  0.292601  0.488944  1
  O  O55  1  0.606568  0.196478  0.488876  1
  O  O56  1  0.393432  0.803522  0.511124  1
  O  O57  1  0.617538  0.707399  0.511056  1
  O  O58  1  0.895456  0.380858  0.590171  1
  O  O59  1  0.194838  0.209359  0.590221  1
  O  O60  1  0.911087  0.113888  0.609397  1
  O  O61  1  0.198269  0.495480  0.609399  1
  O  O62  1  0.410225  0.106089  0.619773  1
  O  O63  1  0.709613  0.513718  0.619843  1
  O  O64  1  0.108370  0.988888  0.697713  1
  O  O65  1  0.089335  0.708846  0.697709  1
  O  O66  1  0.697016  0.087569  0.708307  1
  O  O67  1  0.511316  0.620760  0.708432  1
  O  O68  1  0.416678  0.815160  0.803103  1
  O  O69  1  0.886397  0.987896  0.803088  1
  O  O70  1  0.511362  0.394902  0.804391  1
  O  O71  1  0.793097  0.409522  0.804435  1
  O  O72  1  0.394677  0.081926  0.888551  1
  O  O73  1  0.993862  0.806650  0.888544  1
  O  O74  1  0.380950  0.591367  0.895219  1
  O  O75  1  0.014303  0.303794  0.895205  1
  O  O76  1  0.296703  0.301276  0.913730  1
  O  O77  1  0.117081  0.612490  0.913685  1
  O  O78  1  0.686270  0.101972  0.987794  1
  O  O79  1  0.801526  0.885825  0.987782  1
