# generated using pymatgen
data_Tm4Hf3AlPt4
_symmetry_space_group_name_H-M   'P 1'
_cell_length_a   4.55230100
_cell_length_b   6.99671314
_cell_length_c   8.14314246
_cell_angle_alpha   87.28310227
_cell_angle_beta   90.00000000
_cell_angle_gamma   90.00000000
_symmetry_Int_Tables_number   1
_chemical_formula_structural   Tm4Hf3AlPt4
_chemical_formula_sum   'Tm4 Hf3 Al1 Pt4'
_cell_volume   259.07685907
_cell_formula_units_Z   1
loop_
 _symmetry_equiv_pos_site_id
 _symmetry_equiv_pos_as_xyz
  1  'x, y, z'
loop_
 _atom_site_type_symbol
 _atom_site_label
 _atom_site_symmetry_multiplicity
 _atom_site_fract_x
 _atom_site_fract_y
 _atom_site_fract_z
 _atom_site_occupancy
  Tm  Tm0  1  0.250000  0.038475  0.671690  1
  Tm  Tm1  1  0.250000  0.518750  0.815252  1
  Tm  Tm2  1  0.750000  0.987912  0.337959  1
  Tm  Tm3  1  0.750000  0.470734  0.185641  1
  Hf  Hf4  1  0.250000  0.137882  0.070403  1
  Hf  Hf5  1  0.250000  0.640712  0.435582  1
  Hf  Hf6  1  0.750000  0.855400  0.923959  1
  Al  Al7  1  0.750000  0.359624  0.571624  1
  Pt  Pt8  1  0.250000  0.265822  0.381585  1
  Pt  Pt9  1  0.250000  0.759384  0.103072  1
  Pt  Pt10  1  0.750000  0.730944  0.610956  1
  Pt  Pt11  1  0.750000  0.234360  0.892280  1
