# generated using pymatgen
data_Nb3SiRu2N
_symmetry_space_group_name_H-M   'P 1'
_cell_length_a   8.23034359
_cell_length_b   8.23011210
_cell_length_c   8.23106602
_cell_angle_alpha   59.99891777
_cell_angle_beta   60.00636079
_cell_angle_gamma   60.00393696
_symmetry_Int_Tables_number   1
_chemical_formula_structural   Nb3SiRu2N
_chemical_formula_sum   'Nb12 Si4 Ru8 N4'
_cell_volume   394.27119205
_cell_formula_units_Z   4
loop_
 _symmetry_equiv_pos_site_id
 _symmetry_equiv_pos_as_xyz
  1  'x, y, z'
loop_
 _atom_site_type_symbol
 _atom_site_label
 _atom_site_symmetry_multiplicity
 _atom_site_fract_x
 _atom_site_fract_y
 _atom_site_fract_z
 _atom_site_occupancy
  Nb  Nb0  1  0.805193  0.805232  0.194777  1
  Nb  Nb1  1  0.194765  0.194823  0.805215  1
  Nb  Nb2  1  0.805207  0.194807  0.805239  1
  Nb  Nb3  1  0.194798  0.805225  0.194768  1
  Nb  Nb4  1  0.194789  0.805218  0.805213  1
  Nb  Nb5  1  0.805228  0.194803  0.194724  1
  Nb  Nb6  1  0.444807  0.444768  0.055223  1
  Nb  Nb7  1  0.055235  0.055177  0.444785  1
  Nb  Nb8  1  0.444793  0.055193  0.444761  1
  Nb  Nb9  1  0.055202  0.444775  0.055232  1
  Nb  Nb10  1  0.055211  0.444782  0.444787  1
  Nb  Nb11  1  0.444772  0.055197  0.055276  1
  Si  Si12  1  0.125000  0.625000  0.625000  1
  Si  Si13  1  0.625000  0.125000  0.625000  1
  Si  Si14  1  0.625000  0.625000  0.125000  1
  Si  Si15  1  0.625000  0.625000  0.625000  1
  Ru  Ru16  1  0.749105  0.416915  0.417012  1
  Ru  Ru17  1  0.416890  0.749139  0.416989  1
  Ru  Ru18  1  0.416992  0.417020  0.749012  1
  Ru  Ru19  1  0.416923  0.416985  0.416969  1
  Ru  Ru20  1  0.500895  0.833085  0.832988  1
  Ru  Ru21  1  0.833110  0.500861  0.833011  1
  Ru  Ru22  1  0.833008  0.832980  0.500988  1
  Ru  Ru23  1  0.833077  0.833015  0.833031  1
  N  N24  1  0.625000  0.125000  0.125000  1
  N  N25  1  0.125000  0.625000  0.125000  1
  N  N26  1  0.125000  0.125000  0.625000  1
  N  N27  1  0.125000  0.125000  0.125000  1
