# generated using pymatgen
data_Y2Ho2Cu(Sn2Rh)5
_symmetry_space_group_name_H-M   'P 1'
_cell_length_a   13.43148656
_cell_length_b   13.43148622
_cell_length_c   7.28843765
_cell_angle_alpha   89.69422631
_cell_angle_beta   90.30577470
_cell_angle_gamma   160.99802677
_symmetry_Int_Tables_number   1
_chemical_formula_structural   Y2Ho2Cu(Sn2Rh)5
_chemical_formula_sum   'Y2 Ho2 Cu1 Sn10 Rh5'
_cell_volume   428.11613006
_cell_formula_units_Z   1
loop_
 _symmetry_equiv_pos_site_id
 _symmetry_equiv_pos_as_xyz
  1  'x, y, z'
loop_
 _atom_site_type_symbol
 _atom_site_label
 _atom_site_symmetry_multiplicity
 _atom_site_fract_x
 _atom_site_fract_y
 _atom_site_fract_z
 _atom_site_occupancy
  Y  Y0  1  0.173358  0.826642  0.743289  1
  Y  Y1  1  0.827535  0.172465  0.244430  1
  Ho  Ho2  1  0.475416  0.524584  0.757972  1
  Ho  Ho3  1  0.523842  0.476158  0.262544  1
  Cu  Cu4  1  0.049051  0.950949  0.985415  1
  Sn  Sn5  1  0.880371  0.119629  0.770228  1
  Sn  Sn6  1  0.120092  0.879908  0.269052  1
  Sn  Sn7  1  0.704605  0.295395  0.451779  1
  Sn  Sn8  1  0.296288  0.703712  0.951192  1
  Sn  Sn9  1  0.595060  0.404940  0.887596  1
  Sn  Sn10  1  0.403378  0.596622  0.387978  1
  Sn  Sn11  1  0.952492  0.047508  0.104384  1
  Sn  Sn12  1  0.047833  0.952167  0.597404  1
  Sn  Sn13  1  0.290898  0.709102  0.521965  1
  Sn  Sn14  1  0.709458  0.290542  0.021493  1
  Rh  Rh15  1  0.949996  0.050004  0.485604  1
  Rh  Rh16  1  0.776417  0.223583  0.733376  1
  Rh  Rh17  1  0.222870  0.777130  0.234372  1
  Rh  Rh18  1  0.395877  0.604123  0.017169  1
  Rh  Rh19  1  0.605162  0.394838  0.516759  1
