# generated using pymatgen
data_Sr4Ca2NpNbO12
_symmetry_space_group_name_H-M   'P 1'
_cell_length_a   6.06125346
_cell_length_b   5.89948304
_cell_length_c   10.31097390
_cell_angle_alpha   54.98608721
_cell_angle_beta   90.30439607
_cell_angle_gamma   89.94042588
_symmetry_Int_Tables_number   1
_chemical_formula_structural   Sr4Ca2NpNbO12
_chemical_formula_sum   'Sr4 Ca2 Np1 Nb1 O12'
_cell_volume   301.96402706
_cell_formula_units_Z   1
loop_
 _symmetry_equiv_pos_site_id
 _symmetry_equiv_pos_as_xyz
  1  'x, y, z'
loop_
 _atom_site_type_symbol
 _atom_site_label
 _atom_site_symmetry_multiplicity
 _atom_site_fract_x
 _atom_site_fract_y
 _atom_site_fract_z
 _atom_site_occupancy
  Sr  Sr0  1  0.040046  0.719969  0.775817  1
  Sr  Sr1  1  0.959954  0.280031  0.224183  1
  Sr  Sr2  1  0.551631  0.244619  0.770387  1
  Sr  Sr3  1  0.448369  0.755381  0.229613  1
  Ca  Ca4  1  0.500000  0.500000  0.000000  1
  Ca  Ca5  1  0.000000  0.500000  0.500000  1
  Np  Np6  1  0.500000  0.000000  0.500000  1
  Nb  Nb7  1  0.000000  0.000000  0.000000  1
  O  O8  1  0.459246  0.872640  0.728586  1
  O  O9  1  0.540754  0.127360  0.271414  1
  O  O10  1  0.964638  0.146040  0.767764  1
  O  O11  1  0.035362  0.853960  0.232236  1
  O  O12  1  0.772933  0.754944  0.565384  1
  O  O13  1  0.227067  0.245056  0.434616  1
  O  O14  1  0.273403  0.237749  0.952995  1
  O  O15  1  0.726597  0.762251  0.047005  1
  O  O16  1  0.316486  0.674092  0.549611  1
  O  O17  1  0.683514  0.325908  0.450389  1
  O  O18  1  0.806597  0.315340  0.961549  1
  O  O19  1  0.193403  0.684660  0.038451  1
