# generated using pymatgen
data_Hf7ScBe(Si5Ru4)3
_symmetry_space_group_name_H-M   'P 1'
_cell_length_a   9.86384011
_cell_length_b   9.86524790
_cell_length_c   13.30407771
_cell_angle_alpha   54.09556026
_cell_angle_beta   54.06168121
_cell_angle_gamma   31.20169351
_symmetry_Int_Tables_number   1
_chemical_formula_structural   Hf7ScBe(Si5Ru4)3
_chemical_formula_sum   'Hf7 Sc1 Be1 Si15 Ru12'
_cell_volume   531.90011097
_cell_formula_units_Z   1
loop_
 _symmetry_equiv_pos_site_id
 _symmetry_equiv_pos_as_xyz
  1  'x, y, z'
loop_
 _atom_site_type_symbol
 _atom_site_label
 _atom_site_symmetry_multiplicity
 _atom_site_fract_x
 _atom_site_fract_y
 _atom_site_fract_z
 _atom_site_occupancy
  Hf  Hf0  1  0.440097  0.708108  0.853076  1
  Hf  Hf1  1  0.712767  0.430069  0.352131  1
  Hf  Hf2  1  0.568521  0.288528  0.148357  1
  Hf  Hf3  1  0.037276  0.296871  0.636224  1
  Hf  Hf4  1  0.703562  0.962226  0.863783  1
  Hf  Hf5  1  0.959904  0.711895  0.361702  1
  Hf  Hf6  1  0.287680  0.040301  0.138732  1
  Sc  Sc7  1  0.291097  0.562087  0.645782  1
  Be  Be8  1  0.876318  0.123447  0.250110  1
  Si  Si9  1  0.122727  0.876991  0.749742  1
  Si  Si10  1  0.385936  0.613545  0.250323  1
  Si  Si11  1  0.617131  0.383405  0.749754  1
  Si  Si12  1  0.969843  0.256342  0.896743  1
  Si  Si13  1  0.743223  0.030406  0.604023  1
  Si  Si14  1  0.030959  0.742693  0.107406  1
  Si  Si15  1  0.256660  0.968933  0.392833  1
  Si  Si16  1  0.572323  0.083096  0.066347  1
  Si  Si17  1  0.915610  0.428445  0.434245  1
  Si  Si18  1  0.426968  0.915698  0.935897  1
  Si  Si19  1  0.086803  0.571941  0.564435  1
  Si  Si20  1  0.385876  0.146654  0.395461  1
  Si  Si21  1  0.853347  0.613378  0.105000  1
  Si  Si22  1  0.613108  0.857483  0.603054  1
  Si  Si23  1  0.142867  0.387688  0.895779  1
  Ru  Ru24  1  0.647938  0.827939  0.282061  1
  Ru  Ru25  1  0.172133  0.351821  0.218133  1
  Ru  Ru26  1  0.760837  0.481702  0.068871  1
  Ru  Ru27  1  0.826625  0.649712  0.781030  1
  Ru  Ru28  1  0.896575  0.145494  0.583973  1
  Ru  Ru29  1  0.855155  0.103094  0.916460  1
  Ru  Ru30  1  0.103605  0.856351  0.413553  1
  Ru  Ru31  1  0.146514  0.894070  0.084961  1
  Ru  Ru32  1  0.240532  0.518264  0.929814  1
  Ru  Ru33  1  0.481450  0.761421  0.569520  1
  Ru  Ru34  1  0.518826  0.238081  0.430927  1
  Ru  Ru35  1  0.349204  0.171817  0.719757  1
