# generated using pymatgen
data_Li4ZrNi9P7
_symmetry_space_group_name_H-M   'P 1'
_cell_length_a   9.01793500
_cell_length_b   9.01793456
_cell_length_c   3.63480000
_cell_angle_alpha   90.00000000
_cell_angle_beta   90.00000000
_cell_angle_gamma   120.00000529
_symmetry_Int_Tables_number   1
_chemical_formula_structural   Li4ZrNi9P7
_chemical_formula_sum   'Li4 Zr1 Ni9 P7'
_cell_volume   255.99136016
_cell_formula_units_Z   1
loop_
 _symmetry_equiv_pos_site_id
 _symmetry_equiv_pos_as_xyz
  1  'x, y, z'
loop_
 _atom_site_type_symbol
 _atom_site_label
 _atom_site_symmetry_multiplicity
 _atom_site_fract_x
 _atom_site_fract_y
 _atom_site_fract_z
 _atom_site_occupancy
  Li  Li0  1  0.886286  0.784132  0.500000  1
  Li  Li1  1  0.897845  0.113714  0.500000  1
  Li  Li2  1  0.215868  0.102155  0.500000  1
  Li  Li3  1  0.666667  0.333333  0.500000  1
  Zr  Zr4  1  0.333333  0.666667  0.000000  1
  Ni  Ni5  1  0.712727  0.880302  0.000000  1
  Ni  Ni6  1  0.167575  0.287273  0.000000  1
  Ni  Ni7  1  0.119698  0.832425  0.000000  1
  Ni  Ni8  1  0.626753  0.569789  0.000000  1
  Ni  Ni9  1  0.943036  0.373247  0.000000  1
  Ni  Ni10  1  0.430211  0.056964  0.000000  1
  Ni  Ni11  1  0.563853  0.955746  0.500000  1
  Ni  Ni12  1  0.391893  0.436147  0.500000  1
  Ni  Ni13  1  0.044254  0.608107  0.500000  1
  P  P14  1  0.586438  0.712866  0.500000  1
  P  P15  1  0.126428  0.413562  0.500000  1
  P  P16  1  0.287134  0.873572  0.500000  1
  P  P17  1  0.000000  0.000000  0.000000  1
  P  P18  1  0.877788  0.577779  0.000000  1
  P  P19  1  0.699991  0.122212  0.000000  1
  P  P20  1  0.422221  0.300009  0.000000  1
