# generated using pymatgen
data_LaPr3(AlAu2)6
_symmetry_space_group_name_H-M   'P 1'
_cell_length_a   8.79452404
_cell_length_b   8.79452419
_cell_length_c   8.79452406
_cell_angle_alpha   57.37771194
_cell_angle_beta   57.37772284
_cell_angle_gamma   57.37770866
_symmetry_Int_Tables_number   1
_chemical_formula_structural   LaPr3(AlAu2)6
_chemical_formula_sum   'La1 Pr3 Al6 Au12'
_cell_volume   451.94810109
_cell_formula_units_Z   1
loop_
 _symmetry_equiv_pos_site_id
 _symmetry_equiv_pos_as_xyz
  1  'x, y, z'
loop_
 _atom_site_type_symbol
 _atom_site_label
 _atom_site_symmetry_multiplicity
 _atom_site_fract_x
 _atom_site_fract_y
 _atom_site_fract_z
 _atom_site_occupancy
  La  La0  1  0.909010  0.909010  0.909010  1
  Pr  Pr1  1  0.408912  0.408912  0.408912  1
  Pr  Pr2  1  0.091325  0.091325  0.091325  1
  Pr  Pr3  1  0.590958  0.590958  0.590958  1
  Al  Al4  1  0.554750  0.750282  0.944896  1
  Al  Al5  1  0.944896  0.554750  0.750282  1
  Al  Al6  1  0.750282  0.944896  0.554750  1
  Al  Al7  1  0.444608  0.250612  0.054851  1
  Al  Al8  1  0.054851  0.444608  0.250612  1
  Al  Al9  1  0.250612  0.054851  0.444608  1
  Au  Au10  1  0.478614  0.865905  0.203113  1
  Au  Au11  1  0.203113  0.478614  0.865905  1
  Au  Au12  1  0.865905  0.203113  0.478614  1
  Au  Au13  1  0.703180  0.365792  0.979057  1
  Au  Au14  1  0.979057  0.703180  0.365792  1
  Au  Au15  1  0.365792  0.979057  0.703180  1
  Au  Au16  1  0.520549  0.134304  0.796705  1
  Au  Au17  1  0.796705  0.520549  0.134304  1
  Au  Au18  1  0.134304  0.796705  0.520549  1
  Au  Au19  1  0.297721  0.633377  0.021476  1
  Au  Au20  1  0.021476  0.297721  0.633377  1
  Au  Au21  1  0.633377  0.021476  0.297721  1
