# generated using pymatgen
data_LaTbFe2(WO6)2
_symmetry_space_group_name_H-M   'P 1'
_cell_length_a   5.35951857
_cell_length_b   7.54118726
_cell_length_c   11.12405600
_cell_angle_alpha   90.00000000
_cell_angle_beta   90.00000000
_cell_angle_gamma   90.08817120
_symmetry_Int_Tables_number   1
_chemical_formula_structural   LaTbFe2(WO6)2
_chemical_formula_sum   'La2 Tb2 Fe4 W4 O24'
_cell_volume   449.60192001
_cell_formula_units_Z   2
loop_
 _symmetry_equiv_pos_site_id
 _symmetry_equiv_pos_as_xyz
  1  'x, y, z'
loop_
 _atom_site_type_symbol
 _atom_site_label
 _atom_site_symmetry_multiplicity
 _atom_site_fract_x
 _atom_site_fract_y
 _atom_site_fract_z
 _atom_site_occupancy
  La  La0  1  0.959872  0.252788  0.042217  1
  La  La1  1  0.459872  0.752788  0.457783  1
  Tb  Tb2  1  0.550157  0.253215  0.546429  1
  Tb  Tb3  1  0.050155  0.753215  0.953572  1
  Fe  Fe4  1  0.458213  0.510789  0.138319  1
  Fe  Fe5  1  0.958214  0.010788  0.361682  1
  Fe  Fe6  1  0.045359  0.504924  0.640907  1
  Fe  Fe7  1  0.545358  0.004923  0.859094  1
  W  W8  1  0.450463  0.994708  0.141110  1
  W  W9  1  0.950461  0.494709  0.358888  1
  W  W10  1  0.052194  0.001576  0.644226  1
  W  W11  1  0.552194  0.501577  0.855774  1
  O  O12  1  0.737740  0.548111  0.017952  1
  O  O13  1  0.732682  0.954136  0.027495  1
  O  O14  1  0.325357  0.754852  0.119146  1
  O  O15  1  0.544250  0.243601  0.138542  1
  O  O16  1  0.136003  0.060460  0.211402  1
  O  O17  1  0.123061  0.441584  0.217604  1
  O  O18  1  0.623062  0.941583  0.282396  1
  O  O19  1  0.636003  0.560461  0.288599  1
  O  O20  1  0.044252  0.743603  0.361457  1
  O  O21  1  0.825356  0.254852  0.380853  1
  O  O22  1  0.232679  0.454135  0.472506  1
  O  O23  1  0.237739  0.048111  0.482048  1
  O  O24  1  0.763595  0.532299  0.522049  1
  O  O25  1  0.769193  0.970253  0.530499  1
  O  O26  1  0.153507  0.758429  0.621664  1
  O  O27  1  0.936435  0.246798  0.648187  1
  O  O28  1  0.372210  0.068813  0.706670  1
  O  O29  1  0.389716  0.442871  0.710297  1
  O  O30  1  0.889717  0.942870  0.789703  1
  O  O31  1  0.872210  0.568814  0.793331  1
  O  O32  1  0.436436  0.746800  0.851813  1
  O  O33  1  0.653506  0.258429  0.878336  1
  O  O34  1  0.269192  0.470252  0.969501  1
  O  O35  1  0.263594  0.032299  0.977952  1
