# generated using pymatgen
data_La4Te7Pd
_symmetry_space_group_name_H-M   'P 1'
_cell_length_a   4.38722882
_cell_length_b   8.97623800
_cell_length_c   9.48294966
_cell_angle_alpha   90.00000000
_cell_angle_beta   90.12172128
_cell_angle_gamma   90.00000000
_symmetry_Int_Tables_number   1
_chemical_formula_structural   La4Te7Pd
_chemical_formula_sum   'La4 Te7 Pd1'
_cell_volume   373.44539623
_cell_formula_units_Z   1
loop_
 _symmetry_equiv_pos_site_id
 _symmetry_equiv_pos_as_xyz
  1  'x, y, z'
loop_
 _atom_site_type_symbol
 _atom_site_label
 _atom_site_symmetry_multiplicity
 _atom_site_fract_x
 _atom_site_fract_y
 _atom_site_fract_z
 _atom_site_occupancy
  La  La0  1  0.000033  0.750000  0.712442  1
  La  La1  1  0.005838  0.250000  0.740270  1
  La  La2  1  0.499073  0.002836  0.268385  1
  La  La3  1  0.499073  0.497164  0.268385  1
  Te  Te4  1  0.995391  0.942544  0.001972  1
  Te  Te5  1  0.995391  0.557456  0.001972  1
  Te  Te6  1  0.508781  0.250000  0.000529  1
  Te  Te7  1  0.999344  0.750000  0.366848  1
  Te  Te8  1  0.000746  0.250000  0.371871  1
  Te  Te9  1  0.501864  0.002631  0.630958  1
  Te  Te10  1  0.501864  0.497369  0.630958  1
  Pd  Pd11  1  0.492601  0.750000  0.006335  1
