# generated using pymatgen
data_CeEr15(HgPd)4
_symmetry_space_group_name_H-M   'P 1'
_cell_length_a   9.57319895
_cell_length_b   9.57323597
_cell_length_c   9.57386287
_cell_angle_alpha   60.03834355
_cell_angle_beta   60.05197336
_cell_angle_gamma   60.04330798
_symmetry_Int_Tables_number   1
_chemical_formula_structural   CeEr15(HgPd)4
_chemical_formula_sum   'Ce1 Er15 Hg4 Pd4'
_cell_volume   621.04958645
_cell_formula_units_Z   1
loop_
 _symmetry_equiv_pos_site_id
 _symmetry_equiv_pos_as_xyz
  1  'x, y, z'
loop_
 _atom_site_type_symbol
 _atom_site_label
 _atom_site_symmetry_multiplicity
 _atom_site_fract_x
 _atom_site_fract_y
 _atom_site_fract_z
 _atom_site_occupancy
  Ce  Ce0  1  0.352463  0.352379  0.352543  1
  Er  Er1  1  0.362006  0.361894  0.920123  1
  Er  Er2  1  0.361565  0.920406  0.361749  1
  Er  Er3  1  0.920290  0.361624  0.361937  1
  Er  Er4  1  0.813003  0.188105  0.188165  1
  Er  Er5  1  0.189968  0.812114  0.812195  1
  Er  Er6  1  0.188094  0.813147  0.188131  1
  Er  Er7  1  0.812191  0.189873  0.812182  1
  Er  Er8  1  0.188188  0.188155  0.812951  1
  Er  Er9  1  0.812096  0.812068  0.190009  1
  Er  Er10  1  0.936340  0.566403  0.566449  1
  Er  Er11  1  0.564048  0.936920  0.936949  1
  Er  Er12  1  0.566425  0.936287  0.566407  1
  Er  Er13  1  0.936995  0.563920  0.937014  1
  Er  Er14  1  0.566526  0.566463  0.936364  1
  Er  Er15  1  0.936791  0.936794  0.564280  1
  Hg  Hg16  1  0.588492  0.588469  0.588304  1
  Hg  Hg17  1  0.586427  0.586449  0.236780  1
  Hg  Hg18  1  0.586532  0.236768  0.586443  1
  Hg  Hg19  1  0.236769  0.586599  0.586417  1
  Pd  Pd20  1  0.148444  0.148784  0.148167  1
  Pd  Pd21  1  0.140554  0.140634  0.565187  1
  Pd  Pd22  1  0.140693  0.565108  0.140667  1
  Pd  Pd23  1  0.565099  0.140639  0.140585  1
