# generated using pymatgen
data_AlSi4Ni7(Mo3C)4
_symmetry_space_group_name_H-M   'P 1'
_cell_length_a   7.88876931
_cell_length_b   7.88876869
_cell_length_c   7.86600150
_cell_angle_alpha   59.90420762
_cell_angle_beta   59.90421514
_cell_angle_gamma   60.00000590
_symmetry_Int_Tables_number   1
_chemical_formula_structural   AlSi4Ni7(Mo3C)4
_chemical_formula_sum   'Al1 Si4 Ni7 Mo12 C4'
_cell_volume   345.64256052
_cell_formula_units_Z   1
loop_
 _symmetry_equiv_pos_site_id
 _symmetry_equiv_pos_as_xyz
  1  'x, y, z'
loop_
 _atom_site_type_symbol
 _atom_site_label
 _atom_site_symmetry_multiplicity
 _atom_site_fract_x
 _atom_site_fract_y
 _atom_site_fract_z
 _atom_site_occupancy
  Al  Al0  1  0.919272  0.919272  0.242185  1
  Si  Si1  1  0.135597  0.135597  0.117119  1
  Si  Si2  1  0.611686  0.135597  0.117119  1
  Si  Si3  1  0.123853  0.123853  0.628442  1
  Si  Si4  1  0.135597  0.611686  0.117119  1
  Ni  Ni5  1  0.332348  0.332348  0.331982  1
  Ni  Ni6  1  0.240525  0.915613  0.928248  1
  Ni  Ni7  1  0.332348  0.003321  0.331982  1
  Ni  Ni8  1  0.003321  0.332348  0.331982  1
  Ni  Ni9  1  0.334331  0.334331  0.997007  1
  Ni  Ni10  1  0.915613  0.915613  0.928248  1
  Ni  Ni11  1  0.915613  0.240525  0.928248  1
  Mo  Mo12  1  0.692432  0.305792  0.309345  1
  Mo  Mo13  1  0.942833  0.942833  0.559705  1
  Mo  Mo14  1  0.692432  0.692432  0.309345  1
  Mo  Mo15  1  0.694641  0.306461  0.692438  1
  Mo  Mo16  1  0.305792  0.692432  0.309345  1
  Mo  Mo17  1  0.554628  0.942833  0.559705  1
  Mo  Mo18  1  0.562258  0.937811  0.937674  1
  Mo  Mo19  1  0.942833  0.554628  0.559705  1
  Mo  Mo20  1  0.937811  0.562258  0.937674  1
  Mo  Mo21  1  0.306461  0.306461  0.692438  1
  Mo  Mo22  1  0.562258  0.562258  0.937674  1
  Mo  Mo23  1  0.306461  0.694641  0.692438  1
  C  C24  1  0.624789  0.624789  0.625291  1
  C  C25  1  0.624347  0.624347  0.126958  1
  C  C26  1  0.125132  0.624789  0.625291  1
  C  C27  1  0.624789  0.125132  0.625291  1
