# generated using pymatgen
data_Er2Lu9ThCo4
_symmetry_space_group_name_H-M   'P 1'
_cell_length_a   6.11885729
_cell_length_b   6.82846139
_cell_length_c   9.24165800
_cell_angle_alpha   90.00000000
_cell_angle_beta   90.00000000
_cell_angle_gamma   91.15978644
_symmetry_Int_Tables_number   1
_chemical_formula_structural   Er2Lu9ThCo4
_chemical_formula_sum   'Er2 Lu9 Th1 Co4'
_cell_volume   386.05936757
_cell_formula_units_Z   1
loop_
 _symmetry_equiv_pos_site_id
 _symmetry_equiv_pos_as_xyz
  1  'x, y, z'
loop_
 _atom_site_type_symbol
 _atom_site_label
 _atom_site_symmetry_multiplicity
 _atom_site_fract_x
 _atom_site_fract_y
 _atom_site_fract_z
 _atom_site_occupancy
  Er  Er0  1  0.636602  0.040268  0.250000  1
  Er  Er1  1  0.139140  0.457880  0.750000  1
  Lu  Lu2  1  0.328305  0.676447  0.065109  1
  Lu  Lu3  1  0.174467  0.174605  0.433567  1
  Lu  Lu4  1  0.675528  0.322190  0.568889  1
  Lu  Lu5  1  0.822640  0.827712  0.929997  1
  Lu  Lu6  1  0.675528  0.322190  0.931111  1
  Lu  Lu7  1  0.822640  0.827712  0.570003  1
  Lu  Lu8  1  0.328305  0.676447  0.434891  1
  Lu  Lu9  1  0.174467  0.174605  0.066433  1
  Lu  Lu10  1  0.360312  0.957950  0.750000  1
  Th  Th11  1  0.851717  0.552422  0.250000  1
  Co  Co12  1  0.044798  0.873450  0.250000  1
  Co  Co13  1  0.463681  0.388794  0.250000  1
  Co  Co14  1  0.956347  0.114188  0.750000  1
  Co  Co15  1  0.545526  0.613139  0.750000  1
