# generated using pymatgen
data_DyHoCo5Ni5P6
_symmetry_space_group_name_H-M   'P 1'
_cell_length_a   3.68367300
_cell_length_b   10.28242700
_cell_length_c   11.81056400
_cell_angle_alpha   90.00000000
_cell_angle_beta   90.00000000
_cell_angle_gamma   90.00000000
_symmetry_Int_Tables_number   1
_chemical_formula_structural   DyHoCo5Ni5P6
_chemical_formula_sum   'Dy2 Ho2 Co10 Ni10 P12'
_cell_volume   447.34989850
_cell_formula_units_Z   2
loop_
 _symmetry_equiv_pos_site_id
 _symmetry_equiv_pos_as_xyz
  1  'x, y, z'
loop_
 _atom_site_type_symbol
 _atom_site_label
 _atom_site_symmetry_multiplicity
 _atom_site_fract_x
 _atom_site_fract_y
 _atom_site_fract_z
 _atom_site_occupancy
  Dy  Dy0  1  0.750000  0.417717  0.296702  1
  Dy  Dy1  1  0.750000  0.082283  0.796702  1
  Ho  Ho2  1  0.250000  0.582575  0.703952  1
  Ho  Ho3  1  0.250000  0.917425  0.203952  1
  Co  Co4  1  0.750000  0.777766  0.824164  1
  Co  Co5  1  0.750000  0.722234  0.324164  1
  Co  Co6  1  0.250000  0.880036  0.697747  1
  Co  Co7  1  0.250000  0.619964  0.197747  1
  Co  Co8  1  0.750000  0.118465  0.301926  1
  Co  Co9  1  0.750000  0.381535  0.801926  1
  Co  Co10  1  0.250000  0.467834  0.932901  1
  Co  Co11  1  0.250000  0.032166  0.432901  1
  Co  Co12  1  0.750000  0.532855  0.067203  1
  Co  Co13  1  0.750000  0.967145  0.567203  1
  Ni  Ni14  1  0.250000  0.711994  0.988527  1
  Ni  Ni15  1  0.250000  0.788006  0.488527  1
  Ni  Ni16  1  0.750000  0.285237  0.009553  1
  Ni  Ni17  1  0.750000  0.214763  0.509553  1
  Ni  Ni18  1  0.250000  0.408395  0.486234  1
  Ni  Ni19  1  0.250000  0.091605  0.986234  1
  Ni  Ni20  1  0.750000  0.592606  0.514575  1
  Ni  Ni21  1  0.750000  0.907394  0.014575  1
  Ni  Ni22  1  0.250000  0.223004  0.176142  1
  Ni  Ni23  1  0.250000  0.276996  0.676142  1
  P  P24  1  0.250000  0.423965  0.113179  1
  P  P25  1  0.250000  0.076035  0.613179  1
  P  P26  1  0.750000  0.579795  0.886334  1
  P  P27  1  0.750000  0.920205  0.386334  1
  P  P28  1  0.250000  0.272639  0.867985  1
  P  P29  1  0.250000  0.227361  0.367985  1
  P  P30  1  0.750000  0.728213  0.134742  1
  P  P31  1  0.750000  0.771787  0.634742  1
  P  P32  1  0.250000  0.605900  0.387475  1
  P  P33  1  0.250000  0.894100  0.887475  1
  P  P34  1  0.750000  0.398518  0.610658  1
  P  P35  1  0.750000  0.101482  0.110658  1
