# generated using pymatgen
data_Hf17Nb3Si15As
_symmetry_space_group_name_H-M   'P 1'
_cell_length_a   7.03303770
_cell_length_b   7.02283374
_cell_length_c   12.84939206
_cell_angle_alpha   90.00810547
_cell_angle_beta   89.80947392
_cell_angle_gamma   89.87649072
_symmetry_Int_Tables_number   1
_chemical_formula_structural   Hf17Nb3Si15As
_chemical_formula_sum   'Hf17 Nb3 Si15 As1'
_cell_volume   634.65031190
_cell_formula_units_Z   1
loop_
 _symmetry_equiv_pos_site_id
 _symmetry_equiv_pos_as_xyz
  1  'x, y, z'
loop_
 _atom_site_type_symbol
 _atom_site_label
 _atom_site_symmetry_multiplicity
 _atom_site_fract_x
 _atom_site_fract_y
 _atom_site_fract_z
 _atom_site_occupancy
  Hf  Hf0  1  0.176790  0.175015  0.999841  1
  Hf  Hf1  1  0.498218  0.152119  0.531981  1
  Hf  Hf2  1  0.500412  0.845031  0.030492  1
  Hf  Hf3  1  0.651660  0.999251  0.284855  1
  Hf  Hf4  1  0.344980  0.995335  0.780147  1
  Hf  Hf5  1  0.848310  0.506928  0.967487  1
  Hf  Hf6  1  0.153334  0.498090  0.468325  1
  Hf  Hf7  1  0.000881  0.653062  0.717465  1
  Hf  Hf8  1  0.003930  0.351350  0.220929  1
  Hf  Hf9  1  0.497834  0.354950  0.125976  1
  Hf  Hf10  1  0.503121  0.645275  0.626336  1
  Hf  Hf11  1  0.851121  0.002703  0.875126  1
  Hf  Hf12  1  0.145961  0.997433  0.376983  1
  Hf  Hf13  1  0.646137  0.502554  0.373683  1
  Hf  Hf14  1  0.354063  0.499746  0.872532  1
  Hf  Hf15  1  0.004043  0.850616  0.125681  1
  Hf  Hf16  1  0.997019  0.145115  0.623305  1
  Nb  Nb17  1  0.675593  0.325080  0.749353  1
  Nb  Nb18  1  0.325555  0.674642  0.250750  1
  Nb  Nb19  1  0.824914  0.825080  0.500041  1
  Si  Si20  1  0.202878  0.852941  0.572397  1
  Si  Si21  1  0.646322  0.703375  0.822232  1
  Si  Si22  1  0.355284  0.296596  0.322962  1
  Si  Si23  1  0.853285  0.203245  0.427648  1
  Si  Si24  1  0.144330  0.796999  0.927278  1
  Si  Si25  1  0.702874  0.646777  0.177529  1
  Si  Si26  1  0.296562  0.353264  0.676646  1
  Si  Si27  1  0.541610  0.196729  0.930540  1
  Si  Si28  1  0.451191  0.800243  0.436358  1
  Si  Si29  1  0.697927  0.951941  0.685231  1
  Si  Si30  1  0.303744  0.046231  0.186480  1
  Si  Si31  1  0.801808  0.452069  0.564204  1
  Si  Si32  1  0.199211  0.549572  0.064250  1
  Si  Si33  1  0.951750  0.699304  0.315613  1
  Si  Si34  1  0.046303  0.302782  0.813376  1
  As  As35  1  0.801051  0.148556  0.075971  1
