# generated using pymatgen
data_Li2HoEr3(Co3P2)6
_symmetry_space_group_name_H-M   'P 1'
_cell_length_a   3.66298000
_cell_length_b   10.23898501
_cell_length_c   11.80360601
_cell_angle_alpha   89.99465881
_cell_angle_beta   90.00000000
_cell_angle_gamma   90.00000000
_symmetry_Int_Tables_number   1
_chemical_formula_structural   Li2HoEr3(Co3P2)6
_chemical_formula_sum   'Li2 Ho1 Er3 Co18 P12'
_cell_volume   442.69657063
_cell_formula_units_Z   1
loop_
 _symmetry_equiv_pos_site_id
 _symmetry_equiv_pos_as_xyz
  1  'x, y, z'
loop_
 _atom_site_type_symbol
 _atom_site_label
 _atom_site_symmetry_multiplicity
 _atom_site_fract_x
 _atom_site_fract_y
 _atom_site_fract_z
 _atom_site_occupancy
  Li  Li0  1  0.250000  0.702851  0.990778  1
  Li  Li1  1  0.250000  0.797016  0.490681  1
  Ho  Ho2  1  0.750000  0.080019  0.797554  1
  Er  Er3  1  0.250000  0.579623  0.702238  1
  Er  Er4  1  0.250000  0.920352  0.202254  1
  Er  Er5  1  0.750000  0.420025  0.297626  1
  Co  Co6  1  0.750000  0.288470  0.008724  1
  Co  Co7  1  0.750000  0.211577  0.508692  1
  Co  Co8  1  0.250000  0.404043  0.486785  1
  Co  Co9  1  0.250000  0.095949  0.987243  1
  Co  Co10  1  0.750000  0.590921  0.515004  1
  Co  Co11  1  0.750000  0.908899  0.015140  1
  Co  Co12  1  0.250000  0.223977  0.175009  1
  Co  Co13  1  0.250000  0.276336  0.674831  1
  Co  Co14  1  0.750000  0.780015  0.826058  1
  Co  Co15  1  0.750000  0.719824  0.326014  1
  Co  Co16  1  0.250000  0.880963  0.698721  1
  Co  Co17  1  0.250000  0.618719  0.198882  1
  Co  Co18  1  0.750000  0.120589  0.299608  1
  Co  Co19  1  0.750000  0.379678  0.799690  1
  Co  Co20  1  0.250000  0.463856  0.931471  1
  Co  Co21  1  0.250000  0.036296  0.431271  1
  Co  Co22  1  0.750000  0.533154  0.066510  1
  Co  Co23  1  0.750000  0.966782  0.566217  1
  P  P24  1  0.250000  0.422152  0.112453  1
  P  P25  1  0.250000  0.077885  0.612073  1
  P  P26  1  0.750000  0.577578  0.883939  1
  P  P27  1  0.750000  0.922398  0.383807  1
  P  P28  1  0.250000  0.267825  0.867107  1
  P  P29  1  0.250000  0.232642  0.366888  1
  P  P30  1  0.750000  0.730315  0.137937  1
  P  P31  1  0.750000  0.769618  0.637907  1
  P  P32  1  0.250000  0.600687  0.392858  1
  P  P33  1  0.250000  0.898970  0.893061  1
  P  P34  1  0.750000  0.396386  0.607482  1
  P  P35  1  0.750000  0.103612  0.107482  1
