# generated using pymatgen
data_Y2Ho8In8Pd3Au
_symmetry_space_group_name_H-M   'P 1'
_cell_length_a   3.62412100
_cell_length_b   8.16258207
_cell_length_c   18.28199441
_cell_angle_alpha   89.95266313
_cell_angle_beta   90.00000000
_cell_angle_gamma   90.00000000
_symmetry_Int_Tables_number   1
_chemical_formula_structural   Y2Ho8In8Pd3Au
_chemical_formula_sum   'Y2 Ho8 In8 Pd3 Au1'
_cell_volume   540.82115802
_cell_formula_units_Z   1
loop_
 _symmetry_equiv_pos_site_id
 _symmetry_equiv_pos_as_xyz
  1  'x, y, z'
loop_
 _atom_site_type_symbol
 _atom_site_label
 _atom_site_symmetry_multiplicity
 _atom_site_fract_x
 _atom_site_fract_y
 _atom_site_fract_z
 _atom_site_occupancy
  Y  Y0  1  0.000000  0.499176  0.500956  1
  Y  Y1  1  0.000000  0.999208  0.999504  1
  Ho  Ho2  1  0.000000  0.746359  0.284160  1
  Ho  Ho3  1  0.000000  0.258948  0.718788  1
  Ho  Ho4  1  0.000000  0.758627  0.780026  1
  Ho  Ho5  1  0.000000  0.232765  0.219358  1
  Ho  Ho6  1  0.000000  0.621323  0.079821  1
  Ho  Ho7  1  0.000000  0.383458  0.915355  1
  Ho  Ho8  1  0.000000  0.883320  0.584168  1
  Ho  Ho9  1  0.000000  0.115526  0.417532  1
  In  In10  1  0.500000  0.708718  0.930898  1
  In  In11  1  0.500000  0.291937  0.065587  1
  In  In12  1  0.500000  0.792159  0.434323  1
  In  In13  1  0.500000  0.207593  0.567928  1
  In  In14  1  0.500000  0.579491  0.649700  1
  In  In15  1  0.500000  0.416150  0.352148  1
  In  In16  1  0.500000  0.921630  0.149011  1
  In  In17  1  0.500000  0.079161  0.849697  1
  Pd  Pd18  1  0.500000  0.475042  0.803252  1
  Pd  Pd19  1  0.500000  0.975881  0.696174  1
  Pd  Pd20  1  0.500000  0.025625  0.304192  1
  Au  Au21  1  0.500000  0.527902  0.197420  1
