# generated using pymatgen
data_La5YbIn3
_symmetry_space_group_name_H-M   'P 1'
_cell_length_a   9.77822300
_cell_length_b   9.77822288
_cell_length_c   7.10695600
_cell_angle_alpha   90.00000000
_cell_angle_beta   90.00000000
_cell_angle_gamma   119.99913766
_symmetry_Int_Tables_number   1
_chemical_formula_structural   La5YbIn3
_chemical_formula_sum   'La10 Yb2 In6'
_cell_volume   588.48839317
_cell_formula_units_Z   2
loop_
 _symmetry_equiv_pos_site_id
 _symmetry_equiv_pos_as_xyz
  1  'x, y, z'
loop_
 _atom_site_type_symbol
 _atom_site_label
 _atom_site_symmetry_multiplicity
 _atom_site_fract_x
 _atom_site_fract_y
 _atom_site_fract_z
 _atom_site_occupancy
  La  La0  1  0.666681  0.333325  0.999997  1
  La  La1  1  0.333325  0.666682  0.999997  1
  La  La2  1  0.667301  0.667301  0.249995  1
  La  La3  1  0.332689  0.000003  0.250004  1
  La  La4  1  0.000002  0.332689  0.250004  1
  La  La5  1  0.666674  0.333318  0.499998  1
  La  La6  1  0.333319  0.666675  0.499998  1
  La  La7  1  0.332699  0.332699  0.749994  1
  La  La8  1  0.667312  0.999998  0.750005  1
  La  La9  1  0.999997  0.667311  0.750005  1
  Yb  Yb10  1  0.000012  0.000012  0.000000  1
  Yb  Yb11  1  0.999989  0.999988  0.500001  1
  In  In12  1  0.667028  0.999955  0.250001  1
  In  In13  1  0.999956  0.667029  0.250001  1
  In  In14  1  0.332944  0.332944  0.249999  1
  In  In15  1  0.332972  0.000045  0.750000  1
  In  In16  1  0.000045  0.332971  0.750000  1
  In  In17  1  0.667056  0.667056  0.750000  1
