# generated using pymatgen
data_Cs2Mo(OF2)2
_symmetry_space_group_name_H-M   'P 1'
_cell_length_a   8.28851888
_cell_length_b   8.28851842
_cell_length_c   7.48257300
_cell_angle_alpha   90.00000000
_cell_angle_beta   90.00000000
_cell_angle_gamma   134.39665636
_symmetry_Int_Tables_number   1
_chemical_formula_structural   Cs2Mo(OF2)2
_chemical_formula_sum   'Cs4 Mo2 O4 F8'
_cell_volume   367.29519350
_cell_formula_units_Z   2
loop_
 _symmetry_equiv_pos_site_id
 _symmetry_equiv_pos_as_xyz
  1  'x, y, z'
loop_
 _atom_site_type_symbol
 _atom_site_label
 _atom_site_symmetry_multiplicity
 _atom_site_fract_x
 _atom_site_fract_y
 _atom_site_fract_z
 _atom_site_occupancy
  Cs  Cs0  1  0.440618  0.546371  0.250000  1
  Cs  Cs1  1  0.546371  0.440618  0.750000  1
  Cs  Cs2  1  0.749689  0.213838  0.250000  1
  Cs  Cs3  1  0.213838  0.749689  0.750000  1
  Mo  Mo4  1  0.115370  0.887526  0.250000  1
  Mo  Mo5  1  0.887526  0.115370  0.750000  1
  O  O6  1  0.058560  0.291505  0.931044  1
  O  O7  1  0.291505  0.058560  0.068956  1
  O  O8  1  0.291505  0.058560  0.431044  1
  O  O9  1  0.058560  0.291505  0.568956  1
  F  F10  1  0.947365  0.971414  0.250000  1
  F  F11  1  0.971414  0.947365  0.750000  1
  F  F12  1  0.867416  0.628560  0.076355  1
  F  F13  1  0.628560  0.867416  0.923645  1
  F  F14  1  0.628560  0.867416  0.576355  1
  F  F15  1  0.867416  0.628560  0.423645  1
  F  F16  1  0.210398  0.722329  0.250000  1
  F  F17  1  0.722329  0.210398  0.750000  1
