# generated using pymatgen
data_K3Ga(SO4)3
_symmetry_space_group_name_H-M   'P 1'
_cell_length_a   9.08423483
_cell_length_b   9.08423507
_cell_length_c   9.08423475
_cell_angle_alpha   109.36690460
_cell_angle_beta   109.36690350
_cell_angle_gamma   109.36691789
_symmetry_Int_Tables_number   1
_chemical_formula_structural   K3Ga(SO4)3
_chemical_formula_sum   'K6 Ga2 S6 O24'
_cell_volume   579.30753032
_cell_formula_units_Z   2
loop_
 _symmetry_equiv_pos_site_id
 _symmetry_equiv_pos_as_xyz
  1  'x, y, z'
loop_
 _atom_site_type_symbol
 _atom_site_label
 _atom_site_symmetry_multiplicity
 _atom_site_fract_x
 _atom_site_fract_y
 _atom_site_fract_z
 _atom_site_occupancy
  K  K0  1  0.640871  0.165346  0.788311  1
  K  K1  1  0.788311  0.640871  0.165346  1
  K  K2  1  0.165346  0.788311  0.640871  1
  K  K3  1  0.359129  0.834654  0.211689  1
  K  K4  1  0.211689  0.359129  0.834654  1
  K  K5  1  0.834654  0.211689  0.359129  1
  Ga  Ga6  1  0.000000  0.000000  0.000000  1
  Ga  Ga7  1  0.500000  0.500000  0.500000  1
  S  S8  1  0.893738  0.574767  0.766240  1
  S  S9  1  0.766240  0.893738  0.574767  1
  S  S10  1  0.574767  0.766240  0.893738  1
  S  S11  1  0.106262  0.425233  0.233760  1
  S  S12  1  0.233760  0.106262  0.425233  1
  S  S13  1  0.425233  0.233760  0.106262  1
  O  O14  1  0.741373  0.520320  0.589701  1
  O  O15  1  0.589701  0.741373  0.520320  1
  O  O16  1  0.520320  0.589701  0.741373  1
  O  O17  1  0.258627  0.479680  0.410299  1
  O  O18  1  0.410299  0.258627  0.479680  1
  O  O19  1  0.479680  0.410299  0.258627  1
  O  O20  1  0.829377  0.509903  0.872094  1
  O  O21  1  0.872094  0.829377  0.509903  1
  O  O22  1  0.509903  0.872094  0.829377  1
  O  O23  1  0.170623  0.490097  0.127906  1
  O  O24  1  0.127906  0.170623  0.490097  1
  O  O25  1  0.490097  0.127906  0.170623  1
  O  O26  1  0.009158  0.507788  0.721203  1
  O  O27  1  0.721203  0.009158  0.507788  1
  O  O28  1  0.507788  0.721203  0.009158  1
  O  O29  1  0.990842  0.492212  0.278797  1
  O  O30  1  0.278797  0.990842  0.492212  1
  O  O31  1  0.492212  0.278797  0.990842  1
  O  O32  1  0.007845  0.779108  0.869083  1
  O  O33  1  0.869083  0.007845  0.779108  1
  O  O34  1  0.779108  0.869083  0.007845  1
  O  O35  1  0.992155  0.220892  0.130917  1
  O  O36  1  0.130917  0.992155  0.220892  1
  O  O37  1  0.220892  0.130917  0.992155  1
