# generated using pymatgen
data_Ho9Bi5CO4
_symmetry_space_group_name_H-M   'P 1'
_cell_length_a   9.86558500
_cell_length_b   9.86558500
_cell_length_c   8.99997100
_cell_angle_alpha   90.00000000
_cell_angle_beta   90.00000000
_cell_angle_gamma   90.00000000
_symmetry_Int_Tables_number   1
_chemical_formula_structural   Ho9Bi5CO4
_chemical_formula_sum   'Ho18 Bi10 C2 O8'
_cell_volume   875.96508397
_cell_formula_units_Z   2
loop_
 _symmetry_equiv_pos_site_id
 _symmetry_equiv_pos_as_xyz
  1  'x, y, z'
loop_
 _atom_site_type_symbol
 _atom_site_label
 _atom_site_symmetry_multiplicity
 _atom_site_fract_x
 _atom_site_fract_y
 _atom_site_fract_z
 _atom_site_occupancy
  Ho  Ho0  1  0.170231  0.026376  0.003749  1
  Ho  Ho1  1  0.473624  0.170231  0.003749  1
  Ho  Ho2  1  0.026376  0.329769  0.003749  1
  Ho  Ho3  1  0.329769  0.473624  0.003749  1
  Ho  Ho4  1  0.750000  0.750000  0.308581  1
  Ho  Ho5  1  0.955287  0.144439  0.334861  1
  Ho  Ho6  1  0.544712  0.355561  0.334861  1
  Ho  Ho7  1  0.144439  0.544712  0.334861  1
  Ho  Ho8  1  0.355561  0.955287  0.334861  1
  Ho  Ho9  1  0.644439  0.044712  0.665139  1
  Ho  Ho10  1  0.855561  0.455288  0.665139  1
  Ho  Ho11  1  0.455288  0.644439  0.665139  1
  Ho  Ho12  1  0.044712  0.855561  0.665139  1
  Ho  Ho13  1  0.250000  0.250000  0.691419  1
  Ho  Ho14  1  0.670231  0.526377  0.996251  1
  Ho  Ho15  1  0.973623  0.670231  0.996251  1
  Ho  Ho16  1  0.526377  0.829770  0.996251  1
  Ho  Ho17  1  0.829770  0.973623  0.996251  1
  Bi  Bi18  1  0.653770  0.057904  0.307018  1
  Bi  Bi19  1  0.846231  0.442095  0.307018  1
  Bi  Bi20  1  0.442095  0.653770  0.307018  1
  Bi  Bi21  1  0.057904  0.846231  0.307018  1
  Bi  Bi22  1  0.250000  0.250000  0.330916  1
  Bi  Bi23  1  0.750000  0.750000  0.669084  1
  Bi  Bi24  1  0.942096  0.153770  0.692982  1
  Bi  Bi25  1  0.557904  0.346230  0.692982  1
  Bi  Bi26  1  0.153770  0.557904  0.692982  1
  Bi  Bi27  1  0.346230  0.942096  0.692982  1
  C  C28  1  0.750000  0.750000  0.058656  1
  C  C29  1  0.250000  0.250000  0.941344  1
  O  O30  1  0.976086  0.127996  0.092726  1
  O  O31  1  0.523914  0.372004  0.092726  1
  O  O32  1  0.127996  0.523914  0.092726  1
  O  O33  1  0.372004  0.976086  0.092726  1
  O  O34  1  0.627996  0.023914  0.907273  1
  O  O35  1  0.872004  0.476087  0.907273  1
  O  O36  1  0.476087  0.627996  0.907273  1
  O  O37  1  0.023914  0.872004  0.907273  1
