# generated using pymatgen
data_EuThReC2
_symmetry_space_group_name_H-M   'P 1'
_cell_length_a   5.36119800
_cell_length_b   6.61020900
_cell_length_c   10.38994000
_cell_angle_alpha   90.00000000
_cell_angle_beta   90.00000000
_cell_angle_gamma   90.00000000
_symmetry_Int_Tables_number   1
_chemical_formula_structural   EuThReC2
_chemical_formula_sum   'Eu4 Th4 Re4 C8'
_cell_volume   368.20533570
_cell_formula_units_Z   4
loop_
 _symmetry_equiv_pos_site_id
 _symmetry_equiv_pos_as_xyz
  1  'x, y, z'
loop_
 _atom_site_type_symbol
 _atom_site_label
 _atom_site_symmetry_multiplicity
 _atom_site_fract_x
 _atom_site_fract_y
 _atom_site_fract_z
 _atom_site_occupancy
  Eu  Eu0  1  0.250000  0.530503  0.222439  1
  Eu  Eu1  1  0.750000  0.469497  0.777561  1
  Eu  Eu2  1  0.750000  0.969497  0.722439  1
  Eu  Eu3  1  0.250000  0.030503  0.277561  1
  Th  Th4  1  0.250000  0.696815  0.554482  1
  Th  Th5  1  0.750000  0.303185  0.445518  1
  Th  Th6  1  0.750000  0.803185  0.054482  1
  Th  Th7  1  0.250000  0.196815  0.945518  1
  Re  Re8  1  0.250000  0.727817  0.861168  1
  Re  Re9  1  0.750000  0.272183  0.138832  1
  Re  Re10  1  0.750000  0.772183  0.361168  1
  Re  Re11  1  0.250000  0.227817  0.638832  1
  C  C12  1  0.250000  0.467472  0.755156  1
  C  C13  1  0.750000  0.532528  0.244844  1
  C  C14  1  0.750000  0.032528  0.255156  1
  C  C15  1  0.250000  0.967472  0.744844  1
  C  C16  1  0.250000  0.824515  0.038703  1
  C  C17  1  0.750000  0.175485  0.961297  1
  C  C18  1  0.750000  0.675485  0.538703  1
  C  C19  1  0.250000  0.324515  0.461297  1
