# generated using pymatgen
data_Tb5Y3(ErBi)12
_symmetry_space_group_name_H-M   'P 1'
_cell_length_a   8.24868316
_cell_length_b   9.46481400
_cell_length_c   12.05789323
_cell_angle_alpha   90.00000000
_cell_angle_beta   89.97775559
_cell_angle_gamma   90.00000000
_symmetry_Int_Tables_number   1
_chemical_formula_structural   Tb5Y3(ErBi)12
_chemical_formula_sum   'Tb5 Y3 Er12 Bi12'
_cell_volume   941.38680539
_cell_formula_units_Z   1
loop_
 _symmetry_equiv_pos_site_id
 _symmetry_equiv_pos_as_xyz
  1  'x, y, z'
loop_
 _atom_site_type_symbol
 _atom_site_label
 _atom_site_symmetry_multiplicity
 _atom_site_fract_x
 _atom_site_fract_y
 _atom_site_fract_z
 _atom_site_occupancy
  Tb  Tb0  1  0.186430  0.750000  0.718839  1
  Tb  Tb1  1  0.686412  0.750000  0.781141  1
  Tb  Tb2  1  0.813497  0.250000  0.281201  1
  Tb  Tb3  1  0.313579  0.250000  0.218838  1
  Tb  Tb4  1  0.354109  0.750000  0.215872  1
  Y  Y5  1  0.853812  0.750000  0.284332  1
  Y  Y6  1  0.646043  0.250000  0.784415  1
  Y  Y7  1  0.145996  0.250000  0.715692  1
  Er  Er8  1  0.025645  0.750000  0.988707  1
  Er  Er9  1  0.525769  0.750000  0.511374  1
  Er  Er10  1  0.974346  0.250000  0.011257  1
  Er  Er11  1  0.474484  0.250000  0.488714  1
  Er  Er12  1  0.306439  0.435459  0.940217  1
  Er  Er13  1  0.806424  0.064608  0.559753  1
  Er  Er14  1  0.693457  0.935468  0.059764  1
  Er  Er15  1  0.193603  0.564513  0.440207  1
  Er  Er16  1  0.693457  0.564532  0.059764  1
  Er  Er17  1  0.193603  0.935487  0.440207  1
  Er  Er18  1  0.306439  0.064541  0.940217  1
  Er  Er19  1  0.806424  0.435392  0.559753  1
  Bi  Bi20  1  0.433902  0.004104  0.673142  1
  Bi  Bi21  1  0.933886  0.495936  0.826835  1
  Bi  Bi22  1  0.566170  0.503954  0.326878  1
  Bi  Bi23  1  0.066096  0.995956  0.173169  1
  Bi  Bi24  1  0.566170  0.996046  0.326878  1
  Bi  Bi25  1  0.066096  0.504044  0.173169  1
  Bi  Bi26  1  0.433902  0.495896  0.673142  1
  Bi  Bi27  1  0.933886  0.004064  0.826835  1
  Bi  Bi28  1  0.408273  0.750000  0.957804  1
  Bi  Bi29  1  0.908287  0.750000  0.541840  1
  Bi  Bi30  1  0.591643  0.250000  0.041832  1
  Bi  Bi31  1  0.091721  0.250000  0.458213  1
