# generated using pymatgen
data_DyEr7Re2(B12Os)2
_symmetry_space_group_name_H-M   'P 1'
_cell_length_a   3.64761200
_cell_length_b   9.11943953
_cell_length_c   11.49919701
_cell_angle_alpha   90.13643576
_cell_angle_beta   90.00000000
_cell_angle_gamma   90.00000000
_symmetry_Int_Tables_number   1
_chemical_formula_structural   DyEr7Re2(B12Os)2
_chemical_formula_sum   'Dy1 Er7 Re2 B24 Os2'
_cell_volume   382.51024086
_cell_formula_units_Z   1
loop_
 _symmetry_equiv_pos_site_id
 _symmetry_equiv_pos_as_xyz
  1  'x, y, z'
loop_
 _atom_site_type_symbol
 _atom_site_label
 _atom_site_symmetry_multiplicity
 _atom_site_fract_x
 _atom_site_fract_y
 _atom_site_fract_z
 _atom_site_occupancy
  Dy  Dy0  1  0.000000  0.320793  0.412512  1
  Er  Er1  1  0.000000  0.679312  0.587545  1
  Er  Er2  1  0.000000  0.824554  0.084640  1
  Er  Er3  1  0.000000  0.175440  0.915334  1
  Er  Er4  1  0.000000  0.943334  0.370743  1
  Er  Er5  1  0.000000  0.056459  0.629312  1
  Er  Er6  1  0.000000  0.442831  0.128663  1
  Er  Er7  1  0.000000  0.557223  0.871280  1
  Re  Re8  1  0.000000  0.138240  0.179389  1
  Re  Re9  1  0.000000  0.861605  0.820436  1
  B  B10  1  0.500000  0.553922  0.433320  1
  B  B11  1  0.500000  0.446438  0.566888  1
  B  B12  1  0.500000  0.053040  0.066648  1
  B  B13  1  0.500000  0.946943  0.933326  1
  B  B14  1  0.500000  0.749088  0.419081  1
  B  B15  1  0.500000  0.250896  0.581258  1
  B  B16  1  0.500000  0.249078  0.080723  1
  B  B17  1  0.500000  0.750924  0.919233  1
  B  B18  1  0.500000  0.791162  0.265682  1
  B  B19  1  0.500000  0.208846  0.734362  1
  B  B20  1  0.500000  0.292024  0.234517  1
  B  B21  1  0.500000  0.707819  0.765209  1
  B  B22  1  0.500000  0.630956  0.185728  1
  B  B23  1  0.500000  0.369091  0.814262  1
  B  B24  1  0.500000  0.131111  0.314892  1
  B  B25  1  0.500000  0.868638  0.684914  1
  B  B26  1  0.500000  0.982194  0.212488  1
  B  B27  1  0.500000  0.017753  0.787495  1
  B  B28  1  0.500000  0.482945  0.287803  1
  B  B29  1  0.500000  0.517410  0.712076  1
  B  B30  1  0.500000  0.603008  0.028777  1
  B  B31  1  0.500000  0.397012  0.971205  1
  B  B32  1  0.500000  0.102892  0.471669  1
  B  B33  1  0.500000  0.896684  0.528446  1
  Os  Os34  1  0.000000  0.637822  0.321824  1
  Os  Os35  1  0.000000  0.362509  0.678320  1
