# generated using pymatgen
data_Y7Ho13Si15P
_symmetry_space_group_name_H-M   'P 1'
_cell_length_a   7.45416840
_cell_length_b   7.61245867
_cell_length_c   14.52815100
_cell_angle_alpha   90.10804412
_cell_angle_beta   93.65410457
_cell_angle_gamma   90.04502449
_symmetry_Int_Tables_number   1
_chemical_formula_structural   Y7Ho13Si15P
_chemical_formula_sum   'Y7 Ho13 Si15 P1'
_cell_volume   822.71557262
_cell_formula_units_Z   1
loop_
 _symmetry_equiv_pos_site_id
 _symmetry_equiv_pos_as_xyz
  1  'x, y, z'
loop_
 _atom_site_type_symbol
 _atom_site_label
 _atom_site_symmetry_multiplicity
 _atom_site_fract_x
 _atom_site_fract_y
 _atom_site_fract_z
 _atom_site_occupancy
  Y  Y0  1  0.999567  0.818120  0.598137  1
  Y  Y1  1  0.498465  0.677205  0.599004  1
  Y  Y2  1  0.323069  0.823704  0.122424  1
  Y  Y3  1  0.823245  0.677147  0.123207  1
  Y  Y4  1  0.833024  0.505360  0.745629  1
  Y  Y5  1  0.473342  0.315869  0.101457  1
  Y  Y6  1  0.027064  0.816337  0.899529  1
  Ho  Ho7  1  0.498962  0.318767  0.401414  1
  Ho  Ho8  1  0.666131  0.005943  0.254152  1
  Ho  Ho9  1  0.528491  0.686229  0.897898  1
  Ho  Ho10  1  0.676173  0.177097  0.877532  1
  Ho  Ho11  1  0.147957  0.334127  0.620518  1
  Ho  Ho12  1  0.176585  0.322459  0.877987  1
  Ho  Ho13  1  0.851251  0.669253  0.380212  1
  Ho  Ho14  1  0.355460  0.835135  0.382206  1
  Ho  Ho15  1  0.333811  0.995010  0.744998  1
  Ho  Ho16  1  0.648306  0.160371  0.614988  1
  Ho  Ho17  1  0.166762  0.494336  0.254887  1
  Ho  Ho18  1  0.972208  0.185097  0.102501  1
  Ho  Ho19  1  0.999780  0.179656  0.401712  1
  Si  Si20  1  0.219397  0.628740  0.751864  1
  Si  Si21  1  0.292926  0.036232  0.542346  1
  Si  Si22  1  0.041279  0.893098  0.250318  1
  Si  Si23  1  0.717211  0.872612  0.750901  1
  Si  Si24  1  0.283047  0.129370  0.249934  1
  Si  Si25  1  0.799734  0.462382  0.540816  1
  Si  Si26  1  0.459489  0.390675  0.751752  1
  Si  Si27  1  0.198395  0.535738  0.457180  1
  Si  Si28  1  0.142586  0.526800  0.042943  1
  Si  Si29  1  0.958121  0.108334  0.751115  1
  Si  Si30  1  0.783217  0.369991  0.250047  1
  Si  Si31  1  0.356946  0.028787  0.957258  1
  Si  Si32  1  0.854575  0.470743  0.957928  1
  Si  Si33  1  0.645850  0.972461  0.042031  1
  Si  Si34  1  0.540147  0.608385  0.249863  1
  P  P35  1  0.707431  0.968430  0.453318  1
