# generated using pymatgen
data_Sc6B4OsRh9
_symmetry_space_group_name_H-M   'P 1'
_cell_length_a   9.53823958
_cell_length_b   9.53823958
_cell_length_c   3.09707300
_cell_angle_alpha   90.00000000
_cell_angle_beta   90.00000000
_cell_angle_gamma   89.72948252
_symmetry_Int_Tables_number   1
_chemical_formula_structural   Sc6B4OsRh9
_chemical_formula_sum   'Sc6 B4 Os1 Rh9'
_cell_volume   281.76241100
_cell_formula_units_Z   1
loop_
 _symmetry_equiv_pos_site_id
 _symmetry_equiv_pos_as_xyz
  1  'x, y, z'
loop_
 _atom_site_type_symbol
 _atom_site_label
 _atom_site_symmetry_multiplicity
 _atom_site_fract_x
 _atom_site_fract_y
 _atom_site_fract_z
 _atom_site_occupancy
  Sc  Sc0  1  0.824700  0.324700  0.000000  1
  Sc  Sc1  1  0.326426  0.173574  0.000000  1
  Sc  Sc2  1  0.673574  0.826426  0.000000  1
  Sc  Sc3  1  0.175300  0.675300  0.000000  1
  Sc  Sc4  1  0.000000  0.000000  0.000000  1
  Sc  Sc5  1  0.500000  0.500000  0.000000  1
  B  B6  1  0.619378  0.119378  0.000000  1
  B  B7  1  0.122697  0.377303  0.000000  1
  B  B8  1  0.877303  0.622697  0.000000  1
  B  B9  1  0.380622  0.880622  0.000000  1
  Os  Os10  1  0.500000  0.000000  0.500000  1
  Rh  Rh11  1  0.071417  0.223177  0.500000  1
  Rh  Rh12  1  0.220521  0.926213  0.500000  1
  Rh  Rh13  1  0.779479  0.073787  0.500000  1
  Rh  Rh14  1  0.928583  0.776823  0.500000  1
  Rh  Rh15  1  0.426213  0.720521  0.500000  1
  Rh  Rh16  1  0.573787  0.279479  0.500000  1
  Rh  Rh17  1  0.723177  0.571417  0.500000  1
  Rh  Rh18  1  0.276823  0.428583  0.500000  1
  Rh  Rh19  1  0.000000  0.500000  0.500000  1
