# generated using pymatgen
data_YAgAuO4
_symmetry_space_group_name_H-M   'P 1'
_cell_length_a   6.55756361
_cell_length_b   6.55756362
_cell_length_c   6.70973287
_cell_angle_alpha   126.46976029
_cell_angle_beta   124.92158946
_cell_angle_gamma   78.81778557
_symmetry_Int_Tables_number   1
_chemical_formula_structural   YAgAuO4
_chemical_formula_sum   'Y2 Ag2 Au2 O8'
_cell_volume   185.50287475
_cell_formula_units_Z   2
loop_
 _symmetry_equiv_pos_site_id
 _symmetry_equiv_pos_as_xyz
  1  'x, y, z'
loop_
 _atom_site_type_symbol
 _atom_site_label
 _atom_site_symmetry_multiplicity
 _atom_site_fract_x
 _atom_site_fract_y
 _atom_site_fract_z
 _atom_site_occupancy
  Y  Y0  1  0.750085  0.250085  0.500000  1
  Y  Y1  1  0.999915  0.999915  0.000000  1
  Ag  Ag2  1  0.375000  0.625000  0.250000  1
  Ag  Ag3  1  0.375000  0.125000  0.750000  1
  Au  Au4  1  0.375000  0.625000  0.750000  1
  Au  Au5  1  0.875000  0.625000  0.250000  1
  O  O6  1  0.128476  0.593081  0.829406  1
  O  O7  1  0.763675  0.299071  0.170594  1
  O  O8  1  0.366820  0.007074  0.993019  1
  O  O9  1  0.735944  0.876200  0.493019  1
  O  O10  1  0.014056  0.373800  0.006981  1
  O  O11  1  0.383180  0.242926  0.506981  1
  O  O12  1  0.986325  0.950929  0.329406  1
  O  O13  1  0.621524  0.656919  0.670594  1
