# generated using pymatgen
data_Ba4InBi3O
_symmetry_space_group_name_H-M   'P 1'
_cell_length_a   10.67559339
_cell_length_b   10.67559357
_cell_length_c   10.67559358
_cell_angle_alpha   131.18995876
_cell_angle_beta   131.18996102
_cell_angle_gamma   71.51144718
_symmetry_Int_Tables_number   1
_chemical_formula_structural   Ba4InBi3O
_chemical_formula_sum   'Ba8 In2 Bi6 O2'
_cell_volume   674.24915528
_cell_formula_units_Z   2
loop_
 _symmetry_equiv_pos_site_id
 _symmetry_equiv_pos_as_xyz
  1  'x, y, z'
loop_
 _atom_site_type_symbol
 _atom_site_label
 _atom_site_symmetry_multiplicity
 _atom_site_fract_x
 _atom_site_fract_y
 _atom_site_fract_z
 _atom_site_occupancy
  Ba  Ba0  1  0.503768  0.003768  0.816355  1
  Ba  Ba1  1  0.003768  0.187412  0.500000  1
  Ba  Ba2  1  0.187412  0.687412  0.183645  1
  Ba  Ba3  1  0.496232  0.996232  0.183645  1
  Ba  Ba4  1  0.687412  0.503768  0.500000  1
  Ba  Ba5  1  0.812588  0.312588  0.816355  1
  Ba  Ba6  1  0.312588  0.496232  0.500000  1
  Ba  Ba7  1  0.996232  0.812588  0.500000  1
  In  In8  1  0.000000  0.000000  0.000000  1
  In  In9  1  0.500000  0.500000  0.000000  1
  Bi  Bi10  1  0.373226  0.126774  0.500000  1
  Bi  Bi11  1  0.873226  0.373226  0.246453  1
  Bi  Bi12  1  0.250000  0.250000  0.000000  1
  Bi  Bi13  1  0.750000  0.750000  0.000000  1
  Bi  Bi14  1  0.126774  0.626774  0.753547  1
  Bi  Bi15  1  0.626774  0.873226  0.500000  1
  O  O16  1  0.250000  0.750000  0.500000  1
  O  O17  1  0.750000  0.250000  0.500000  1
