# generated using pymatgen
data_LaTb3Dy3MnBr12
_symmetry_space_group_name_H-M   'P 1'
_cell_length_a   9.36083278
_cell_length_b   9.37198422
_cell_length_c   9.10115918
_cell_angle_alpha   106.34800807
_cell_angle_beta   107.36020540
_cell_angle_gamma   106.74573577
_symmetry_Int_Tables_number   1
_chemical_formula_structural   LaTb3Dy3MnBr12
_chemical_formula_sum   'La1 Tb3 Dy3 Mn1 Br12'
_cell_volume   668.18221088
_cell_formula_units_Z   1
loop_
 _symmetry_equiv_pos_site_id
 _symmetry_equiv_pos_as_xyz
  1  'x, y, z'
loop_
 _atom_site_type_symbol
 _atom_site_label
 _atom_site_symmetry_multiplicity
 _atom_site_fract_x
 _atom_site_fract_y
 _atom_site_fract_z
 _atom_site_occupancy
  La  La0  1  0.593904  0.520874  0.789418  1
  Tb  Tb1  1  0.404169  0.477678  0.210760  1
  Tb  Tb2  1  0.479109  0.191797  0.399156  1
  Tb  Tb3  1  0.190818  0.399351  0.481227  1
  Dy  Dy4  1  0.000252  0.002807  0.996617  1
  Dy  Dy5  1  0.520418  0.805084  0.598996  1
  Dy  Dy6  1  0.808345  0.600187  0.524007  1
  Mn  Mn7  1  0.508302  0.500304  0.525909  1
  Br  Br8  1  0.567172  0.164326  0.713178  1
  Br  Br9  1  0.178164  0.717413  0.564750  1
  Br  Br10  1  0.714381  0.566476  0.181212  1
  Br  Br11  1  0.426272  0.810094  0.272543  1
  Br  Br12  1  0.818448  0.280957  0.425684  1
  Br  Br13  1  0.261559  0.424084  0.817965  1
  Br  Br14  1  0.675168  0.900515  0.966208  1
  Br  Br15  1  0.881850  0.959405  0.658163  1
  Br  Br16  1  0.978036  0.681840  0.888001  1
  Br  Br17  1  0.332407  0.123210  0.037425  1
  Br  Br18  1  0.117919  0.039757  0.333516  1
  Br  Br19  1  0.043308  0.333840  0.115263  1
