# generated using pymatgen
data_Y5Ta3(Ni4P3)4
_symmetry_space_group_name_H-M   'P 1'
_cell_length_a   12.27452700
_cell_length_b   12.27452621
_cell_length_c   3.76542200
_cell_angle_alpha   90.00000000
_cell_angle_beta   90.00000000
_cell_angle_gamma   120.00000483
_symmetry_Int_Tables_number   1
_chemical_formula_structural   Y5Ta3(Ni4P3)4
_chemical_formula_sum   'Y5 Ta3 Ni16 P12'
_cell_volume   491.30792483
_cell_formula_units_Z   1
loop_
 _symmetry_equiv_pos_site_id
 _symmetry_equiv_pos_as_xyz
  1  'x, y, z'
loop_
 _atom_site_type_symbol
 _atom_site_label
 _atom_site_symmetry_multiplicity
 _atom_site_fract_x
 _atom_site_fract_y
 _atom_site_fract_z
 _atom_site_occupancy
  Y  Y0  1  0.185826  0.185826  0.500000  1
  Y  Y1  1  0.814174  0.000000  0.500000  1
  Y  Y2  1  0.000000  0.814174  0.500000  1
  Y  Y3  1  0.333333  0.666667  0.000000  1
  Y  Y4  1  0.666667  0.333333  0.000000  1
  Ta  Ta5  1  0.560926  0.560926  0.000000  1
  Ta  Ta6  1  0.439074  0.000000  0.000000  1
  Ta  Ta7  1  0.000000  0.439074  0.000000  1
  Ni  Ni8  1  0.722672  0.722672  0.500000  1
  Ni  Ni9  1  0.277328  0.000000  0.500000  1
  Ni  Ni10  1  0.000000  0.277328  0.500000  1
  Ni  Ni11  1  0.183369  0.375973  0.000000  1
  Ni  Ni12  1  0.624027  0.807396  0.000000  1
  Ni  Ni13  1  0.192604  0.816631  0.000000  1
  Ni  Ni14  1  0.807396  0.624027  0.000000  1
  Ni  Ni15  1  0.816631  0.192604  0.000000  1
  Ni  Ni16  1  0.375973  0.183369  0.000000  1
  Ni  Ni17  1  0.360707  0.485165  0.500000  1
  Ni  Ni18  1  0.514835  0.875543  0.500000  1
  Ni  Ni19  1  0.124457  0.639293  0.500000  1
  Ni  Ni20  1  0.875543  0.514835  0.500000  1
  Ni  Ni21  1  0.639293  0.124457  0.500000  1
  Ni  Ni22  1  0.485165  0.360707  0.500000  1
  Ni  Ni23  1  0.000000  0.000000  0.000000  1
  P  P24  1  0.822060  0.822060  0.000000  1
  P  P25  1  0.177940  0.000000  0.000000  1
  P  P26  1  0.000000  0.177940  0.000000  1
  P  P27  1  0.167196  0.477510  0.500000  1
  P  P28  1  0.522490  0.689686  0.500000  1
  P  P29  1  0.310314  0.832804  0.500000  1
  P  P30  1  0.689686  0.522490  0.500000  1
  P  P31  1  0.832804  0.310314  0.500000  1
  P  P32  1  0.477510  0.167196  0.500000  1
  P  P33  1  0.362009  0.362009  0.000000  1
  P  P34  1  0.637991  0.000000  0.000000  1
  P  P35  1  0.000000  0.637991  0.000000  1
