# generated using pymatgen
data_CaLuSi7Rh12
_symmetry_space_group_name_H-M   'P 1'
_cell_length_a   9.75399600
_cell_length_b   9.75399622
_cell_length_c   3.83436000
_cell_angle_alpha   90.00000000
_cell_angle_beta   90.00000000
_cell_angle_gamma   120.00000604
_symmetry_Int_Tables_number   1
_chemical_formula_structural   CaLuSi7Rh12
_chemical_formula_sum   'Ca1 Lu1 Si7 Rh12'
_cell_volume   315.92838454
_cell_formula_units_Z   1
loop_
 _symmetry_equiv_pos_site_id
 _symmetry_equiv_pos_as_xyz
  1  'x, y, z'
loop_
 _atom_site_type_symbol
 _atom_site_label
 _atom_site_symmetry_multiplicity
 _atom_site_fract_x
 _atom_site_fract_y
 _atom_site_fract_z
 _atom_site_occupancy
  Ca  Ca0  1  0.333333  0.666667  0.251674  1
  Lu  Lu1  1  0.000000  0.000000  0.749892  1
  Si  Si2  1  0.666667  0.333333  0.526175  1
  Si  Si3  1  0.066726  0.622330  0.751027  1
  Si  Si4  1  0.377670  0.444396  0.751027  1
  Si  Si5  1  0.555604  0.933274  0.751027  1
  Si  Si6  1  0.265554  0.042277  0.250100  1
  Si  Si7  1  0.957723  0.223277  0.250100  1
  Si  Si8  1  0.776723  0.734446  0.250100  1
  Rh  Rh9  1  0.811435  0.597022  0.745559  1
  Rh  Rh10  1  0.402978  0.214412  0.745559  1
  Rh  Rh11  1  0.785588  0.188565  0.745559  1
  Rh  Rh12  1  0.525492  0.074501  0.256342  1
  Rh  Rh13  1  0.925499  0.450991  0.256342  1
  Rh  Rh14  1  0.549009  0.474508  0.256342  1
  Rh  Rh15  1  0.109391  0.393961  0.752291  1
  Rh  Rh16  1  0.606039  0.715430  0.752291  1
  Rh  Rh17  1  0.284570  0.890609  0.752291  1
  Rh  Rh18  1  0.221073  0.266687  0.248746  1
  Rh  Rh19  1  0.733313  0.954386  0.248746  1
  Rh  Rh20  1  0.045614  0.778927  0.248746  1
