# generated using pymatgen
data_Nd2Gd3TmTa2O14
_symmetry_space_group_name_H-M   'P 1'
_cell_length_a   6.55778516
_cell_length_b   6.54316546
_cell_length_c   7.62787000
_cell_angle_alpha   90.00000000
_cell_angle_beta   90.00000000
_cell_angle_gamma   109.22193473
_symmetry_Int_Tables_number   1
_chemical_formula_structural   Nd2Gd3TmTa2O14
_chemical_formula_sum   'Nd2 Gd3 Tm1 Ta2 O14'
_cell_volume   309.05483885
_cell_formula_units_Z   1
loop_
 _symmetry_equiv_pos_site_id
 _symmetry_equiv_pos_as_xyz
  1  'x, y, z'
loop_
 _atom_site_type_symbol
 _atom_site_label
 _atom_site_symmetry_multiplicity
 _atom_site_fract_x
 _atom_site_fract_y
 _atom_site_fract_z
 _atom_site_occupancy
  Nd  Nd0  1  0.518910  0.514553  0.498793  1
  Nd  Nd1  1  0.518910  0.514553  0.001207  1
  Gd  Gd2  1  0.002086  0.466479  0.750000  1
  Gd  Gd3  1  0.531134  0.001011  0.750000  1
  Gd  Gd4  1  0.465656  0.001273  0.250000  1
  Tm  Tm5  1  0.002553  0.533270  0.250000  1
  Ta  Ta6  1  0.000979  0.002476  0.498203  1
  Ta  Ta7  1  0.000979  0.002476  0.001797  1
  O  O8  1  0.943201  0.061027  0.750000  1
  O  O9  1  0.061037  0.930884  0.250000  1
  O  O10  1  0.353322  0.639050  0.250000  1
  O  O11  1  0.643556  0.360926  0.750000  1
  O  O12  1  0.366835  0.632044  0.750000  1
  O  O13  1  0.643981  0.371286  0.250000  1
  O  O14  1  0.315847  0.072197  0.968622  1
  O  O15  1  0.677573  0.923046  0.470874  1
  O  O16  1  0.315847  0.072197  0.531378  1
  O  O17  1  0.677573  0.923046  0.029126  1
  O  O18  1  0.051094  0.311150  0.458653  1
  O  O19  1  0.928917  0.677953  0.972956  1
  O  O20  1  0.928917  0.677953  0.527044  1
  O  O21  1  0.051094  0.311150  0.041347  1
