# generated using pymatgen
data_HfP2Br8O3
_symmetry_space_group_name_H-M   'P 1'
_cell_length_a   9.51048172
_cell_length_b   9.85230516
_cell_length_c   11.75367305
_cell_angle_alpha   71.08407112
_cell_angle_beta   73.32565615
_cell_angle_gamma   65.86117704
_symmetry_Int_Tables_number   1
_chemical_formula_structural   HfP2Br8O3
_chemical_formula_sum   'Hf2 P4 Br16 O6'
_cell_volume   935.42110580
_cell_formula_units_Z   2
loop_
 _symmetry_equiv_pos_site_id
 _symmetry_equiv_pos_as_xyz
  1  'x, y, z'
loop_
 _atom_site_type_symbol
 _atom_site_label
 _atom_site_symmetry_multiplicity
 _atom_site_fract_x
 _atom_site_fract_y
 _atom_site_fract_z
 _atom_site_occupancy
  Hf  Hf0  1  0.922541  0.802588  0.222417  1
  Hf  Hf1  1  0.077459  0.197412  0.777583  1
  P  P2  1  0.806818  0.193197  0.062373  1
  P  P3  1  0.223869  0.807601  0.352447  1
  P  P4  1  0.193182  0.806803  0.937627  1
  P  P5  1  0.776131  0.192399  0.647553  1
  Br  Br6  1  0.554685  0.260401  0.068758  1
  Br  Br7  1  0.815142  0.213921  0.452107  1
  Br  Br8  1  0.049492  0.512931  0.285929  1
  Br  Br9  1  0.445315  0.739599  0.931242  1
  Br  Br10  1  0.246398  0.198177  0.910751  1
  Br  Br11  1  0.298331  0.002477  0.260897  1
  Br  Br12  1  0.288500  0.163411  0.589183  1
  Br  Br13  1  0.828712  0.376240  0.116678  1
  Br  Br14  1  0.418985  0.604731  0.314702  1
  Br  Br15  1  0.171288  0.623760  0.883322  1
  Br  Br16  1  0.701669  0.997523  0.739103  1
  Br  Br17  1  0.581015  0.395269  0.685298  1
  Br  Br18  1  0.711500  0.836589  0.410817  1
  Br  Br19  1  0.753602  0.801823  0.089249  1
  Br  Br20  1  0.184858  0.786079  0.547893  1
  Br  Br21  1  0.950508  0.487069  0.714071  1
  O  O22  1  0.920845  0.173742  0.687187  1
  O  O23  1  0.859957  0.046022  0.157928  1
  O  O24  1  0.140043  0.953978  0.842072  1
  O  O25  1  0.079155  0.826258  0.312813  1
  O  O26  1  0.111163  0.806872  0.068426  1
  O  O27  1  0.888837  0.193128  0.931574  1
