# generated using pymatgen
data_Ca3Al12FeOs3
_symmetry_space_group_name_H-M   'P 1'
_cell_length_a   8.82050400
_cell_length_b   8.82050403
_cell_length_c   9.57823600
_cell_angle_alpha   90.00000000
_cell_angle_beta   90.00000000
_cell_angle_gamma   120.00000737
_symmetry_Int_Tables_number   1
_chemical_formula_structural   Ca3Al12FeOs3
_chemical_formula_sum   'Ca6 Al24 Fe2 Os6'
_cell_volume   645.36132725
_cell_formula_units_Z   2
loop_
 _symmetry_equiv_pos_site_id
 _symmetry_equiv_pos_as_xyz
  1  'x, y, z'
loop_
 _atom_site_type_symbol
 _atom_site_label
 _atom_site_symmetry_multiplicity
 _atom_site_fract_x
 _atom_site_fract_y
 _atom_site_fract_z
 _atom_site_occupancy
  Ca  Ca0  1  0.194349  0.388697  0.250000  1
  Ca  Ca1  1  0.805651  0.611303  0.750000  1
  Ca  Ca2  1  0.611303  0.805651  0.250000  1
  Ca  Ca3  1  0.388697  0.194349  0.750000  1
  Ca  Ca4  1  0.194349  0.805651  0.250000  1
  Ca  Ca5  1  0.805651  0.194349  0.750000  1
  Al  Al6  1  0.333333  0.666667  0.996427  1
  Al  Al7  1  0.666667  0.333333  0.003573  1
  Al  Al8  1  0.666667  0.333333  0.496427  1
  Al  Al9  1  0.333333  0.666667  0.503573  1
  Al  Al10  1  0.158490  0.316980  0.572971  1
  Al  Al11  1  0.841510  0.683020  0.427029  1
  Al  Al12  1  0.683020  0.841510  0.572971  1
  Al  Al13  1  0.841510  0.683020  0.072971  1
  Al  Al14  1  0.316980  0.158490  0.427029  1
  Al  Al15  1  0.158490  0.316980  0.927029  1
  Al  Al16  1  0.158490  0.841510  0.572971  1
  Al  Al17  1  0.316980  0.158490  0.072971  1
  Al  Al18  1  0.841510  0.158490  0.427029  1
  Al  Al19  1  0.683020  0.841510  0.927029  1
  Al  Al20  1  0.841510  0.158490  0.072971  1
  Al  Al21  1  0.158490  0.841510  0.927029  1
  Al  Al22  1  0.561074  0.122150  0.250000  1
  Al  Al23  1  0.438926  0.877850  0.750000  1
  Al  Al24  1  0.877850  0.438926  0.250000  1
  Al  Al25  1  0.122150  0.561074  0.750000  1
  Al  Al26  1  0.561074  0.438926  0.250000  1
  Al  Al27  1  0.438926  0.561074  0.750000  1
  Al  Al28  1  0.000000  0.000000  0.250000  1
  Al  Al29  1  0.000000  0.000000  0.750000  1
  Fe  Fe30  1  0.000000  0.000000  0.000000  1
  Fe  Fe31  1  0.000000  0.000000  0.500000  1
  Os  Os32  1  0.500000  0.000000  0.000000  1
  Os  Os33  1  0.000000  0.500000  0.000000  1
  Os  Os34  1  0.500000  0.000000  0.500000  1
  Os  Os35  1  0.500000  0.500000  0.000000  1
  Os  Os36  1  0.000000  0.500000  0.500000  1
  Os  Os37  1  0.500000  0.500000  0.500000  1
