# generated using pymatgen
data_Er6Zn21Pd2Se
_symmetry_space_group_name_H-M   'P 1'
_cell_length_a   9.03029592
_cell_length_b   8.98733578
_cell_length_c   9.03029681
_cell_angle_alpha   60.15724888
_cell_angle_beta   59.75246994
_cell_angle_gamma   60.15725025
_symmetry_Int_Tables_number   1
_chemical_formula_structural   Er6Zn21Pd2Se
_chemical_formula_sum   'Er6 Zn21 Pd2 Se1'
_cell_volume   518.47198359
_cell_formula_units_Z   1
loop_
 _symmetry_equiv_pos_site_id
 _symmetry_equiv_pos_as_xyz
  1  'x, y, z'
loop_
 _atom_site_type_symbol
 _atom_site_label
 _atom_site_symmetry_multiplicity
 _atom_site_fract_x
 _atom_site_fract_y
 _atom_site_fract_z
 _atom_site_occupancy
  Er  Er0  1  0.717500  0.281262  0.282500  1
  Er  Er1  1  0.717412  0.282588  0.717412  1
  Er  Er2  1  0.717500  0.718738  0.282500  1
  Er  Er3  1  0.282500  0.718738  0.717500  1
  Er  Er4  1  0.282588  0.717412  0.282588  1
  Er  Er5  1  0.282500  0.281262  0.717500  1
  Zn  Zn6  1  0.629360  0.122264  0.126114  1
  Zn  Zn7  1  0.123813  0.630066  0.123813  1
  Zn  Zn8  1  0.126114  0.122264  0.629360  1
  Zn  Zn9  1  0.123813  0.122308  0.123813  1
  Zn  Zn10  1  0.370640  0.877736  0.873886  1
  Zn  Zn11  1  0.876187  0.369934  0.876187  1
  Zn  Zn12  1  0.873886  0.877736  0.370640  1
  Zn  Zn13  1  0.876187  0.877692  0.876187  1
  Zn  Zn14  1  0.500000  0.000000  0.000000  1
  Zn  Zn15  1  0.500000  0.500000  0.000000  1
  Zn  Zn16  1  0.000000  0.500000  0.500000  1
  Zn  Zn17  1  0.000000  0.500000  0.000000  1
  Zn  Zn18  1  0.000000  0.000000  0.500000  1
  Zn  Zn19  1  0.008070  0.331070  0.329788  1
  Zn  Zn20  1  0.329303  0.010142  0.329303  1
  Zn  Zn21  1  0.329788  0.331070  0.008070  1
  Zn  Zn22  1  0.329303  0.331250  0.329303  1
  Zn  Zn23  1  0.991930  0.668930  0.670212  1
  Zn  Zn24  1  0.670697  0.989858  0.670697  1
  Zn  Zn25  1  0.670212  0.668930  0.991930  1
  Zn  Zn26  1  0.670697  0.668750  0.670697  1
  Pd  Pd27  1  0.500000  0.000000  0.500000  1
  Pd  Pd28  1  0.000000  0.000000  0.000000  1
  Se  Se29  1  0.500000  0.500000  0.500000  1
