# generated using pymatgen
data_K2La4Ag4Se9
_symmetry_space_group_name_H-M   'P 1'
_cell_length_a   7.88145761
_cell_length_b   7.88145821
_cell_length_c   17.56768640
_cell_angle_alpha   70.92382011
_cell_angle_beta   70.92381875
_cell_angle_gamma   32.78057911
_symmetry_Int_Tables_number   1
_chemical_formula_structural   K2La4Ag4Se9
_chemical_formula_sum   'K2 La4 Ag4 Se9'
_cell_volume   555.49109216
_cell_formula_units_Z   1
loop_
 _symmetry_equiv_pos_site_id
 _symmetry_equiv_pos_as_xyz
  1  'x, y, z'
loop_
 _atom_site_type_symbol
 _atom_site_label
 _atom_site_symmetry_multiplicity
 _atom_site_fract_x
 _atom_site_fract_y
 _atom_site_fract_z
 _atom_site_occupancy
  K  K0  1  0.031551  0.031551  0.731109  1
  K  K1  1  0.968449  0.968449  0.268891  1
  La  La2  1  0.232421  0.232421  0.893767  1
  La  La3  1  0.345648  0.345648  0.556341  1
  La  La4  1  0.654352  0.654352  0.443659  1
  La  La5  1  0.767579  0.767579  0.106233  1
  Ag  Ag6  1  0.424418  0.424418  0.967278  1
  Ag  Ag7  1  0.759937  0.759937  0.727363  1
  Ag  Ag8  1  0.240063  0.240063  0.272637  1
  Ag  Ag9  1  0.575582  0.575582  0.032722  1
  Se  Se10  1  0.856382  0.856382  0.921855  1
  Se  Se11  1  0.610362  0.610362  0.868280  1
  Se  Se12  1  0.361901  0.361901  0.720917  1
  Se  Se13  1  0.700253  0.700253  0.600145  1
  Se  Se14  1  0.000000  0.000000  0.500000  1
  Se  Se15  1  0.299747  0.299747  0.399855  1
  Se  Se16  1  0.638099  0.638099  0.279083  1
  Se  Se17  1  0.389638  0.389638  0.131720  1
  Se  Se18  1  0.143618  0.143618  0.078145  1
