# generated using pymatgen
data_Ca2Pr3U5O19
_symmetry_space_group_name_H-M   'P 1'
_cell_length_a   6.83207355
_cell_length_b   7.61243013
_cell_length_c   8.64969628
_cell_angle_alpha   100.10443174
_cell_angle_beta   97.25151522
_cell_angle_gamma   107.17021300
_symmetry_Int_Tables_number   1
_chemical_formula_structural   Ca2Pr3U5O19
_chemical_formula_sum   'Ca2 Pr3 U5 O19'
_cell_volume   415.49618913
_cell_formula_units_Z   1
loop_
 _symmetry_equiv_pos_site_id
 _symmetry_equiv_pos_as_xyz
  1  'x, y, z'
loop_
 _atom_site_type_symbol
 _atom_site_label
 _atom_site_symmetry_multiplicity
 _atom_site_fract_x
 _atom_site_fract_y
 _atom_site_fract_z
 _atom_site_occupancy
  Ca  Ca0  1  0.000026  0.499752  0.004684  1
  Ca  Ca1  1  0.206786  0.911447  0.386643  1
  Pr  Pr2  1  0.802138  0.104110  0.604367  1
  Pr  Pr3  1  0.385225  0.296278  0.797474  1
  Pr  Pr4  1  0.605282  0.702962  0.203655  1
  U  U5  1  0.784365  0.599677  0.601042  1
  U  U6  1  0.600335  0.202579  0.195476  1
  U  U7  1  0.998227  0.006217  0.002310  1
  U  U8  1  0.406815  0.805133  0.810347  1
  U  U9  1  0.200871  0.387937  0.390503  1
  O  O10  1  0.334610  0.050168  0.952680  1
  O  O11  1  0.433222  0.987060  0.653659  1
  O  O12  1  0.036952  0.214991  0.866589  1
  O  O13  1  0.724487  0.388596  0.732494  1
  O  O14  1  0.152824  0.182871  0.530695  1
  O  O15  1  0.359607  0.598429  0.949420  1
  O  O16  1  0.944806  0.261832  0.171858  1
  O  O17  1  0.908667  0.396918  0.470747  1
  O  O18  1  0.751641  0.857846  0.767050  1
  O  O19  1  0.551285  0.451701  0.363587  1
  O  O20  1  0.409382  0.555286  0.630377  1
  O  O21  1  0.257116  0.139015  0.229100  1
  O  O22  1  0.068548  0.716679  0.778622  1
  O  O23  1  0.638739  0.403459  0.058965  1
  O  O24  1  0.861452  0.801767  0.464122  1
  O  O25  1  0.251328  0.615746  0.283263  1
  O  O26  1  0.956078  0.789430  0.119954  1
  O  O27  1  0.575407  0.010443  0.344024  1
  O  O28  1  0.657691  0.949309  0.044534  1
