# generated using pymatgen
data_CaYEr2(SiPd)4
_symmetry_space_group_name_H-M   'P 1'
_cell_length_a   4.34022500
_cell_length_b   7.46577800
_cell_length_c   13.97082200
_cell_angle_alpha   90.00000000
_cell_angle_beta   90.00000000
_cell_angle_gamma   90.00000000
_symmetry_Int_Tables_number   1
_chemical_formula_structural   CaYEr2(SiPd)4
_chemical_formula_sum   'Ca2 Y2 Er4 Si8 Pd8'
_cell_volume   452.69872919
_cell_formula_units_Z   2
loop_
 _symmetry_equiv_pos_site_id
 _symmetry_equiv_pos_as_xyz
  1  'x, y, z'
loop_
 _atom_site_type_symbol
 _atom_site_label
 _atom_site_symmetry_multiplicity
 _atom_site_fract_x
 _atom_site_fract_y
 _atom_site_fract_z
 _atom_site_occupancy
  Ca  Ca0  1  0.000000  0.290572  0.500000  1
  Ca  Ca1  1  0.500000  0.709428  0.000000  1
  Y  Y2  1  0.000000  0.301265  0.000000  1
  Y  Y3  1  0.500000  0.698735  0.500000  1
  Er  Er4  1  0.000000  0.207827  0.249645  1
  Er  Er5  1  0.500000  0.792173  0.250355  1
  Er  Er6  1  0.000000  0.207827  0.750355  1
  Er  Er7  1  0.500000  0.792173  0.749645  1
  Si  Si8  1  0.000000  0.906970  0.593855  1
  Si  Si9  1  0.500000  0.093030  0.906145  1
  Si  Si10  1  0.000000  0.906970  0.406145  1
  Si  Si11  1  0.500000  0.093030  0.093855  1
  Si  Si12  1  0.000000  0.589732  0.149821  1
  Si  Si13  1  0.500000  0.410268  0.350179  1
  Si  Si14  1  0.000000  0.589732  0.850179  1
  Si  Si15  1  0.500000  0.410268  0.649821  1
  Pd  Pd16  1  0.500000  0.076187  0.611531  1
  Pd  Pd17  1  0.000000  0.923813  0.888469  1
  Pd  Pd18  1  0.500000  0.076187  0.388469  1
  Pd  Pd19  1  0.000000  0.923813  0.111531  1
  Pd  Pd20  1  0.500000  0.418799  0.157486  1
  Pd  Pd21  1  0.000000  0.581201  0.342514  1
  Pd  Pd22  1  0.500000  0.418799  0.842514  1
  Pd  Pd23  1  0.000000  0.581201  0.657486  1
