# generated using pymatgen
data_Y3VFeC6
_symmetry_space_group_name_H-M   'P 1'
_cell_length_a   8.17163200
_cell_length_b   8.17163258
_cell_length_c   4.95224500
_cell_angle_alpha   90.00000000
_cell_angle_beta   90.00000000
_cell_angle_gamma   120.00000573
_symmetry_Int_Tables_number   1
_chemical_formula_structural   Y3VFeC6
_chemical_formula_sum   'Y6 V2 Fe2 C12'
_cell_volume   286.38506172
_cell_formula_units_Z   2
loop_
 _symmetry_equiv_pos_site_id
 _symmetry_equiv_pos_as_xyz
  1  'x, y, z'
loop_
 _atom_site_type_symbol
 _atom_site_label
 _atom_site_symmetry_multiplicity
 _atom_site_fract_x
 _atom_site_fract_y
 _atom_site_fract_z
 _atom_site_occupancy
  Y  Y0  1  0.623437  0.679864  0.750000  1
  Y  Y1  1  0.943574  0.623437  0.250000  1
  Y  Y2  1  0.679864  0.056426  0.250000  1
  Y  Y3  1  0.320136  0.943574  0.750000  1
  Y  Y4  1  0.056426  0.376563  0.750000  1
  Y  Y5  1  0.376563  0.320136  0.250000  1
  V  V6  1  0.000000  0.000000  0.500000  1
  V  V7  1  0.000000  0.000000  0.000000  1
  Fe  Fe8  1  0.666667  0.333333  0.750000  1
  Fe  Fe9  1  0.333333  0.666667  0.250000  1
  C  C10  1  0.960851  0.764070  0.750000  1
  C  C11  1  0.196782  0.960851  0.250000  1
  C  C12  1  0.764070  0.803218  0.250000  1
  C  C13  1  0.235930  0.196782  0.750000  1
  C  C14  1  0.803218  0.039149  0.750000  1
  C  C15  1  0.039149  0.235930  0.250000  1
  C  C16  1  0.867291  0.571738  0.750000  1
  C  C17  1  0.295553  0.867291  0.250000  1
  C  C18  1  0.571738  0.704447  0.250000  1
  C  C19  1  0.428262  0.295553  0.750000  1
  C  C20  1  0.132709  0.428262  0.250000  1
  C  C21  1  0.704447  0.132709  0.750000  1
