# generated using pymatgen
data_CeNd3Y4AlPd24
_symmetry_space_group_name_H-M   'P 1'
_cell_length_a   8.41556858
_cell_length_b   8.41439389
_cell_length_c   8.41439494
_cell_angle_alpha   90.07175097
_cell_angle_beta   90.14045701
_cell_angle_gamma   90.14045246
_symmetry_Int_Tables_number   1
_chemical_formula_structural   CeNd3Y4AlPd24
_chemical_formula_sum   'Ce1 Nd3 Y4 Al1 Pd24'
_cell_volume   595.83531510
_cell_formula_units_Z   1
loop_
 _symmetry_equiv_pos_site_id
 _symmetry_equiv_pos_as_xyz
  1  'x, y, z'
loop_
 _atom_site_type_symbol
 _atom_site_label
 _atom_site_symmetry_multiplicity
 _atom_site_fract_x
 _atom_site_fract_y
 _atom_site_fract_z
 _atom_site_occupancy
  Ce  Ce0  1  0.745438  0.254414  0.254414  1
  Nd  Nd1  1  0.251107  0.252116  0.252116  1
  Nd  Nd2  1  0.747876  0.747732  0.747732  1
  Nd  Nd3  1  0.252446  0.747629  0.747629  1
  Y  Y4  1  0.748021  0.748967  0.252020  1
  Y  Y5  1  0.748021  0.252020  0.748967  1
  Y  Y6  1  0.252159  0.252005  0.747818  1
  Y  Y7  1  0.252159  0.747818  0.252005  1
  Al  Al8  1  0.000883  0.999118  0.999118  1
  Pd  Pd9  1  0.259524  0.499336  0.999957  1
  Pd  Pd10  1  0.740506  0.497073  0.004485  1
  Pd  Pd11  1  0.995460  0.259553  0.499397  1
  Pd  Pd12  1  0.502939  0.259492  0.000556  1
  Pd  Pd13  1  0.000006  0.740481  0.496731  1
  Pd  Pd14  1  0.500727  0.740541  0.004032  1
  Pd  Pd15  1  0.502939  0.000556  0.259492  1
  Pd  Pd16  1  0.259524  0.999957  0.499336  1
  Pd  Pd17  1  0.500727  0.004032  0.740541  1
  Pd  Pd18  1  0.740506  0.004485  0.497073  1
  Pd  Pd19  1  0.995460  0.499397  0.259553  1
  Pd  Pd20  1  0.000006  0.496731  0.740481  1
  Pd  Pd21  1  0.252651  0.499605  0.499605  1
  Pd  Pd22  1  0.746965  0.496693  0.496693  1
  Pd  Pd23  1  0.503267  0.253081  0.500189  1
  Pd  Pd24  1  0.500405  0.747372  0.495912  1
  Pd  Pd25  1  0.503267  0.500189  0.253081  1
  Pd  Pd26  1  0.500405  0.495912  0.747372  1
  Pd  Pd27  1  0.289969  0.999981  0.999981  1
  Pd  Pd28  1  0.711713  0.002640  0.002640  1
  Pd  Pd29  1  0.997404  0.288332  0.999121  1
  Pd  Pd30  1  0.000059  0.710113  0.003509  1
  Pd  Pd31  1  0.997404  0.999121  0.288332  1
  Pd  Pd32  1  0.000059  0.003509  0.710113  1
