# generated using pymatgen
data_Ba6TbEu(BO3)6
_symmetry_space_group_name_H-M   'P 1'
_cell_length_a   8.26634836
_cell_length_b   8.26634929
_cell_length_c   8.26634802
_cell_angle_alpha   105.58165028
_cell_angle_beta   105.58164566
_cell_angle_gamma   105.58163674
_symmetry_Int_Tables_number   1
_chemical_formula_structural   Ba6TbEu(BO3)6
_chemical_formula_sum   'Ba6 Tb1 Eu1 B6 O18'
_cell_volume   487.47890092
_cell_formula_units_Z   1
loop_
 _symmetry_equiv_pos_site_id
 _symmetry_equiv_pos_as_xyz
  1  'x, y, z'
loop_
 _atom_site_type_symbol
 _atom_site_label
 _atom_site_symmetry_multiplicity
 _atom_site_fract_x
 _atom_site_fract_y
 _atom_site_fract_z
 _atom_site_occupancy
  Ba  Ba0  1  0.350930  0.734574  0.843163  1
  Ba  Ba1  1  0.843163  0.350930  0.734574  1
  Ba  Ba2  1  0.734574  0.843163  0.350930  1
  Ba  Ba3  1  0.649070  0.265426  0.156837  1
  Ba  Ba4  1  0.156837  0.649070  0.265426  1
  Ba  Ba5  1  0.265426  0.156837  0.649070  1
  Tb  Tb6  1  0.500000  0.500000  0.500000  1
  Eu  Eu7  1  0.000000  0.000000  0.000000  1
  B  B8  1  0.707179  0.620862  0.956739  1
  B  B9  1  0.956739  0.707179  0.620862  1
  B  B10  1  0.620862  0.956739  0.707179  1
  B  B11  1  0.043261  0.292821  0.379138  1
  B  B12  1  0.379138  0.043261  0.292821  1
  B  B13  1  0.292821  0.379138  0.043261  1
  O  O14  1  0.062303  0.805191  0.550534  1
  O  O15  1  0.550534  0.062303  0.805191  1
  O  O16  1  0.427777  0.493053  0.212004  1
  O  O17  1  0.493053  0.212004  0.427777  1
  O  O18  1  0.212004  0.427777  0.493053  1
  O  O19  1  0.787996  0.572223  0.506947  1
  O  O20  1  0.572223  0.506947  0.787996  1
  O  O21  1  0.506947  0.787996  0.572223  1
  O  O22  1  0.265242  0.195401  0.984703  1
  O  O23  1  0.195401  0.984703  0.265242  1
  O  O24  1  0.984703  0.265242  0.195401  1
  O  O25  1  0.734758  0.804599  0.015297  1
  O  O26  1  0.804599  0.015297  0.734758  1
  O  O27  1  0.015297  0.734758  0.804599  1
  O  O28  1  0.194809  0.449466  0.937697  1
  O  O29  1  0.449466  0.937697  0.194809  1
  O  O30  1  0.937697  0.194809  0.449466  1
  O  O31  1  0.805191  0.550534  0.062303  1
