# generated using pymatgen
data_TaNbCrF12
_symmetry_space_group_name_H-M   'P 1'
_cell_length_a   5.36475687
_cell_length_b   5.62798100
_cell_length_c   9.32862157
_cell_angle_alpha   104.11853124
_cell_angle_beta   88.56662171
_cell_angle_gamma   117.91338258
_symmetry_Int_Tables_number   1
_chemical_formula_structural   TaNbCrF12
_chemical_formula_sum   'Ta1 Nb1 Cr1 F12'
_cell_volume   240.05920431
_cell_formula_units_Z   1
loop_
 _symmetry_equiv_pos_site_id
 _symmetry_equiv_pos_as_xyz
  1  'x, y, z'
loop_
 _atom_site_type_symbol
 _atom_site_label
 _atom_site_symmetry_multiplicity
 _atom_site_fract_x
 _atom_site_fract_y
 _atom_site_fract_z
 _atom_site_occupancy
  Ta  Ta0  1  0.222191  0.491892  0.734421  1
  Nb  Nb1  1  0.777869  0.508487  0.267290  1
  Cr  Cr2  1  0.000013  0.999624  0.999927  1
  F  F3  1  0.825654  0.268108  0.717606  1
  F  F4  1  0.175622  0.733482  0.281220  1
  F  F5  1  0.175582  0.746730  0.916573  1
  F  F6  1  0.712508  0.732040  0.431808  1
  F  F7  1  0.286378  0.268893  0.570224  1
  F  F8  1  0.790783  0.268570  0.372294  1
  F  F9  1  0.209821  0.729054  0.628204  1
  F  F10  1  0.375680  0.282261  0.193132  1
  F  F11  1  0.623049  0.718406  0.805598  1
  F  F12  1  0.774408  0.737085  0.128060  1
  F  F13  1  0.225925  0.264572  0.871174  1
  F  F14  1  0.824518  0.250795  0.082469  1
