# generated using pymatgen
data_CsMn(PO3)3
_symmetry_space_group_name_H-M   'P 1'
_cell_length_a   7.00352500
_cell_length_b   7.00352426
_cell_length_c   10.30588800
_cell_angle_alpha   90.00000000
_cell_angle_beta   90.00000000
_cell_angle_gamma   119.99999877
_symmetry_Int_Tables_number   1
_chemical_formula_structural   CsMn(PO3)3
_chemical_formula_sum   'Cs2 Mn2 P6 O18'
_cell_volume   437.77340674
_cell_formula_units_Z   2
loop_
 _symmetry_equiv_pos_site_id
 _symmetry_equiv_pos_as_xyz
  1  'x, y, z'
loop_
 _atom_site_type_symbol
 _atom_site_label
 _atom_site_symmetry_multiplicity
 _atom_site_fract_x
 _atom_site_fract_y
 _atom_site_fract_z
 _atom_site_occupancy
  Cs  Cs0  1  0.000000  0.000000  0.000000  1
  Cs  Cs1  1  0.000000  0.000000  0.500000  1
  Mn  Mn2  1  0.666667  0.333333  0.000000  1
  Mn  Mn3  1  0.666667  0.333333  0.500000  1
  P  P4  1  0.404089  0.460616  0.250000  1
  P  P5  1  0.539384  0.943473  0.250000  1
  P  P6  1  0.404089  0.943473  0.750000  1
  P  P7  1  0.056527  0.595911  0.250000  1
  P  P8  1  0.539384  0.595911  0.750000  1
  P  P9  1  0.056527  0.460616  0.750000  1
  O  O10  1  0.937212  0.571165  0.124922  1
  O  O11  1  0.428835  0.366048  0.124922  1
  O  O12  1  0.937212  0.571165  0.375078  1
  O  O13  1  0.937212  0.366048  0.624922  1
  O  O14  1  0.633952  0.062788  0.124922  1
  O  O15  1  0.428835  0.366048  0.375078  1
  O  O16  1  0.428835  0.062788  0.624922  1
  O  O17  1  0.937212  0.366048  0.875078  1
  O  O18  1  0.633952  0.062788  0.375078  1
  O  O19  1  0.428835  0.062788  0.875078  1
  O  O20  1  0.633952  0.571165  0.624922  1
  O  O21  1  0.633952  0.571165  0.875078  1
  O  O22  1  0.159442  0.433804  0.250000  1
  O  O23  1  0.566196  0.725638  0.250000  1
  O  O24  1  0.159442  0.725638  0.750000  1
  O  O25  1  0.274362  0.840558  0.250000  1
  O  O26  1  0.566196  0.840558  0.750000  1
  O  O27  1  0.274362  0.433804  0.750000  1
