# generated using pymatgen
data_LaSmHo2(Mo2O7)2
_symmetry_space_group_name_H-M   'P 1'
_cell_length_a   7.46884983
_cell_length_b   7.46884926
_cell_length_c   7.51407410
_cell_angle_alpha   59.28352448
_cell_angle_beta   59.28353071
_cell_angle_gamma   59.00405895
_symmetry_Int_Tables_number   1
_chemical_formula_structural   LaSmHo2(Mo2O7)2
_chemical_formula_sum   'La1 Sm1 Ho2 Mo4 O14'
_cell_volume   290.92058636
_cell_formula_units_Z   1
loop_
 _symmetry_equiv_pos_site_id
 _symmetry_equiv_pos_as_xyz
  1  'x, y, z'
loop_
 _atom_site_type_symbol
 _atom_site_label
 _atom_site_symmetry_multiplicity
 _atom_site_fract_x
 _atom_site_fract_y
 _atom_site_fract_z
 _atom_site_occupancy
  La  La0  1  0.125000  0.125000  0.125000  1
  Sm  Sm1  1  0.125000  0.125000  0.625000  1
  Ho  Ho2  1  0.625000  0.125000  0.125000  1
  Ho  Ho3  1  0.125000  0.625000  0.125000  1
  Mo  Mo4  1  0.625000  0.625000  0.625000  1
  Mo  Mo5  1  0.125000  0.625000  0.625000  1
  Mo  Mo6  1  0.625000  0.125000  0.625000  1
  Mo  Mo7  1  0.625000  0.625000  0.125000  1
  O  O8  1  0.289263  0.289263  0.702308  1
  O  O9  1  0.288933  0.701173  0.292142  1
  O  O10  1  0.961067  0.548827  0.957858  1
  O  O11  1  0.701173  0.288933  0.292142  1
  O  O12  1  0.995062  0.995062  0.003309  1
  O  O13  1  0.533650  0.533650  0.968740  1
  O  O14  1  0.288270  0.706536  0.719185  1
  O  O15  1  0.543464  0.961730  0.530815  1
  O  O16  1  0.548827  0.961067  0.957858  1
  O  O17  1  0.716350  0.716350  0.281260  1
  O  O18  1  0.254938  0.254938  0.246691  1
  O  O19  1  0.960737  0.960737  0.547692  1
  O  O20  1  0.961730  0.543464  0.530815  1
  O  O21  1  0.706536  0.288270  0.719185  1
