# generated using pymatgen
data_Pr17Y3Si15Sn
_symmetry_space_group_name_H-M   'P 1'
_cell_length_a   7.94412088
_cell_length_b   7.92557873
_cell_length_c   15.25879814
_cell_angle_alpha   90.14317443
_cell_angle_beta   89.65903287
_cell_angle_gamma   89.78567893
_symmetry_Int_Tables_number   1
_chemical_formula_structural   Pr17Y3Si15Sn
_chemical_formula_sum   'Pr17 Y3 Si15 Sn1'
_cell_volume   960.69393063
_cell_formula_units_Z   1
loop_
 _symmetry_equiv_pos_site_id
 _symmetry_equiv_pos_as_xyz
  1  'x, y, z'
loop_
 _atom_site_type_symbol
 _atom_site_label
 _atom_site_symmetry_multiplicity
 _atom_site_fract_x
 _atom_site_fract_y
 _atom_site_fract_z
 _atom_site_occupancy
  Pr  Pr0  1  0.689712  0.692998  0.496875  1
  Pr  Pr1  1  0.375152  0.013666  0.449236  1
  Pr  Pr2  1  0.494384  0.870873  0.698511  1
  Pr  Pr3  1  0.510259  0.122498  0.197142  1
  Pr  Pr4  1  0.877453  0.488206  0.300510  1
  Pr  Pr5  1  0.120626  0.516135  0.806118  1
  Pr  Pr6  1  0.624263  0.986847  0.949427  1
  Pr  Pr7  1  0.004915  0.383635  0.546700  1
  Pr  Pr8  1  0.988898  0.622260  0.053944  1
  Pr  Pr9  1  0.128188  0.978539  0.880260  1
  Pr  Pr10  1  0.520550  0.627290  0.127203  1
  Pr  Pr11  1  0.488581  0.383828  0.626889  1
  Pr  Pr12  1  0.628625  0.522232  0.875980  1
  Pr  Pr13  1  0.374586  0.479421  0.371049  1
  Pr  Pr14  1  0.871670  0.020280  0.376480  1
  Pr  Pr15  1  0.979817  0.127863  0.123728  1
  Pr  Pr16  1  0.008837  0.858404  0.619880  1
  Y  Y17  1  0.310796  0.310241  0.000668  1
  Y  Y18  1  0.190678  0.811243  0.249799  1
  Y  Y19  1  0.801792  0.188748  0.752355  1
  Si  Si20  1  0.328918  0.690914  0.956074  1
  Si  Si21  1  0.666695  0.304676  0.452493  1
  Si  Si22  1  0.692450  0.328731  0.046666  1
  Si  Si23  1  0.305506  0.670523  0.544671  1
  Si  Si24  1  0.808040  0.830210  0.203284  1
  Si  Si25  1  0.169492  0.192027  0.296574  1
  Si  Si26  1  0.832720  0.808222  0.797876  1
  Si  Si27  1  0.286712  0.922980  0.063460  1
  Si  Si28  1  0.574070  0.790357  0.308789  1
  Si  Si29  1  0.433892  0.211896  0.816974  1
  Si  Si30  1  0.790154  0.573168  0.692446  1
  Si  Si31  1  0.212753  0.421790  0.187418  1
  Si  Si32  1  0.711593  0.082376  0.563404  1
  Si  Si33  1  0.924047  0.287168  0.938329  1
  Si  Si34  1  0.082029  0.714799  0.434598  1
  Sn  Sn35  1  0.191149  0.164959  0.694191  1
