# generated using pymatgen
data_Dy6Zn21Cu2C
_symmetry_space_group_name_H-M   'P 1'
_cell_length_a   8.87988950
_cell_length_b   8.87988869
_cell_length_c   8.90264200
_cell_angle_alpha   59.91519470
_cell_angle_beta   59.91519772
_cell_angle_gamma   60.01576495
_symmetry_Int_Tables_number   1
_chemical_formula_structural   Dy6Zn21Cu2C
_chemical_formula_sum   'Dy6 Zn21 Cu2 C1'
_cell_volume   495.80705853
_cell_formula_units_Z   1
loop_
 _symmetry_equiv_pos_site_id
 _symmetry_equiv_pos_as_xyz
  1  'x, y, z'
loop_
 _atom_site_type_symbol
 _atom_site_label
 _atom_site_symmetry_multiplicity
 _atom_site_fract_x
 _atom_site_fract_y
 _atom_site_fract_z
 _atom_site_occupancy
  Dy  Dy0  1  0.696222  0.303778  0.304758  1
  Dy  Dy1  1  0.303778  0.696222  0.695242  1
  Dy  Dy2  1  0.303778  0.696222  0.304758  1
  Dy  Dy3  1  0.696222  0.303778  0.695242  1
  Dy  Dy4  1  0.302555  0.302555  0.697445  1
  Dy  Dy5  1  0.697445  0.697445  0.302555  1
  Zn  Zn6  1  0.119546  0.119546  0.118598  1
  Zn  Zn7  1  0.880454  0.880454  0.881402  1
  Zn  Zn8  1  0.119546  0.119546  0.642311  1
  Zn  Zn9  1  0.126312  0.641385  0.116153  1
  Zn  Zn10  1  0.880454  0.880454  0.357689  1
  Zn  Zn11  1  0.873688  0.358615  0.883847  1
  Zn  Zn12  1  0.641385  0.126312  0.116153  1
  Zn  Zn13  1  0.358615  0.873688  0.883847  1
  Zn  Zn14  1  0.500000  0.000000  0.000000  1
  Zn  Zn15  1  0.000000  0.500000  0.500000  1
  Zn  Zn16  1  0.000000  0.500000  0.000000  1
  Zn  Zn17  1  0.500000  0.000000  0.500000  1
  Zn  Zn18  1  0.000000  0.000000  0.500000  1
  Zn  Zn19  1  0.329790  0.329790  0.323923  1
  Zn  Zn20  1  0.670210  0.670210  0.676077  1
  Zn  Zn21  1  0.329790  0.329790  0.016498  1
  Zn  Zn22  1  0.328105  0.015888  0.328004  1
  Zn  Zn23  1  0.670210  0.670210  0.983502  1
  Zn  Zn24  1  0.671895  0.984112  0.671996  1
  Zn  Zn25  1  0.015888  0.328105  0.328004  1
  Zn  Zn26  1  0.984112  0.671895  0.671996  1
  Cu  Cu27  1  0.500000  0.500000  0.000000  1
  Cu  Cu28  1  0.000000  0.000000  0.000000  1
  C  C29  1  0.500000  0.500000  0.500000  1
