# generated using pymatgen
data_Tb2(CuNi)5
_symmetry_space_group_name_H-M   'P 1'
_cell_length_a   4.03890200
_cell_length_b   4.91190200
_cell_length_c   8.52660600
_cell_angle_alpha   90.00000000
_cell_angle_beta   90.00000000
_cell_angle_gamma   90.00000000
_symmetry_Int_Tables_number   1
_chemical_formula_structural   Tb2(CuNi)5
_chemical_formula_sum   'Tb2 Cu5 Ni5'
_cell_volume   169.15670011
_cell_formula_units_Z   1
loop_
 _symmetry_equiv_pos_site_id
 _symmetry_equiv_pos_as_xyz
  1  'x, y, z'
loop_
 _atom_site_type_symbol
 _atom_site_label
 _atom_site_symmetry_multiplicity
 _atom_site_fract_x
 _atom_site_fract_y
 _atom_site_fract_z
 _atom_site_occupancy
  Tb  Tb0  1  0.000000  0.500000  0.000000  1
  Tb  Tb1  1  0.000000  0.000000  0.500000  1
  Cu  Cu2  1  0.500000  0.000000  0.000000  1
  Cu  Cu3  1  0.500000  0.749654  0.251491  1
  Cu  Cu4  1  0.500000  0.250346  0.748509  1
  Cu  Cu5  1  0.500000  0.250346  0.251491  1
  Cu  Cu6  1  0.500000  0.749654  0.748509  1
  Ni  Ni7  1  0.000000  0.500000  0.337821  1
  Ni  Ni8  1  0.000000  0.000000  0.834879  1
  Ni  Ni9  1  0.000000  0.000000  0.165121  1
  Ni  Ni10  1  0.000000  0.500000  0.662179  1
  Ni  Ni11  1  0.500000  0.500000  0.500000  1
