# generated using pymatgen
data_BaPrLu2(AsPt)4
_symmetry_space_group_name_H-M   'P 1'
_cell_length_a   4.30895100
_cell_length_b   4.30895259
_cell_length_c   16.43549100
_cell_angle_alpha   90.00000000
_cell_angle_beta   90.00000000
_cell_angle_gamma   120.00001082
_symmetry_Int_Tables_number   1
_chemical_formula_structural   BaPrLu2(AsPt)4
_chemical_formula_sum   'Ba1 Pr1 Lu2 As4 Pt4'
_cell_volume   264.27527805
_cell_formula_units_Z   1
loop_
 _symmetry_equiv_pos_site_id
 _symmetry_equiv_pos_as_xyz
  1  'x, y, z'
loop_
 _atom_site_type_symbol
 _atom_site_label
 _atom_site_symmetry_multiplicity
 _atom_site_fract_x
 _atom_site_fract_y
 _atom_site_fract_z
 _atom_site_occupancy
  Ba  Ba0  1  0.000000  0.000000  0.500000  1
  Pr  Pr1  1  0.000000  0.000000  0.000000  1
  Lu  Lu2  1  0.000000  0.000000  0.240331  1
  Lu  Lu3  1  0.000000  0.000000  0.759669  1
  As  As4  1  0.333333  0.666667  0.884709  1
  As  As5  1  0.666667  0.333333  0.115291  1
  As  As6  1  0.666667  0.333333  0.359863  1
  As  As7  1  0.333333  0.666667  0.640137  1
  Pt  Pt8  1  0.333333  0.666667  0.337872  1
  Pt  Pt9  1  0.666667  0.333333  0.662128  1
  Pt  Pt10  1  0.666667  0.333333  0.862064  1
  Pt  Pt11  1  0.333333  0.666667  0.137936  1
