# generated using pymatgen
data_Y2Ho9ThCo4
_symmetry_space_group_name_H-M   'P 1'
_cell_length_a   6.26348594
_cell_length_b   6.91037905
_cell_length_c   9.48756604
_cell_angle_alpha   90.01886485
_cell_angle_beta   89.92701440
_cell_angle_gamma   91.01195895
_symmetry_Int_Tables_number   1
_chemical_formula_structural   Y2Ho9ThCo4
_chemical_formula_sum   'Y2 Ho9 Th1 Co4'
_cell_volume   410.58650802
_cell_formula_units_Z   1
loop_
 _symmetry_equiv_pos_site_id
 _symmetry_equiv_pos_as_xyz
  1  'x, y, z'
loop_
 _atom_site_type_symbol
 _atom_site_label
 _atom_site_symmetry_multiplicity
 _atom_site_fract_x
 _atom_site_fract_y
 _atom_site_fract_z
 _atom_site_occupancy
  Y  Y0  1  0.672998  0.175653  0.068386  1
  Y  Y1  1  0.859512  0.957793  0.749493  1
  Ho  Ho2  1  0.141088  0.044233  0.250304  1
  Ho  Ho3  1  0.826410  0.674564  0.432929  1
  Ho  Ho4  1  0.323367  0.826679  0.930075  1
  Ho  Ho5  1  0.177695  0.325151  0.568899  1
  Ho  Ho6  1  0.673163  0.175460  0.431325  1
  Ho  Ho7  1  0.177867  0.325391  0.930702  1
  Ho  Ho8  1  0.324025  0.826897  0.569662  1
  Ho  Ho9  1  0.643349  0.455682  0.749582  1
  Ho  Ho10  1  0.826682  0.674749  0.067049  1
  Th  Th11  1  0.347383  0.553739  0.250210  1
  Co  Co12  1  0.966419  0.389829  0.250821  1
  Co  Co13  1  0.450349  0.113944  0.749607  1
  Co  Co14  1  0.541781  0.869651  0.250892  1
  Co  Co15  1  0.047909  0.610586  0.750063  1
