# generated using pymatgen
data_Tb(PrRh)2
_symmetry_space_group_name_H-M   'P 1'
_cell_length_a   7.60663747
_cell_length_b   7.60663744
_cell_length_c   7.60663693
_cell_angle_alpha   70.94544849
_cell_angle_beta   70.94544758
_cell_angle_gamma   70.94544218
_symmetry_Int_Tables_number   1
_chemical_formula_structural   Tb(PrRh)2
_chemical_formula_sum   'Tb3 Pr6 Rh6'
_cell_volume   381.12222021
_cell_formula_units_Z   3
loop_
 _symmetry_equiv_pos_site_id
 _symmetry_equiv_pos_as_xyz
  1  'x, y, z'
loop_
 _atom_site_type_symbol
 _atom_site_label
 _atom_site_symmetry_multiplicity
 _atom_site_fract_x
 _atom_site_fract_y
 _atom_site_fract_z
 _atom_site_occupancy
  Tb  Tb0  1  0.000000  0.000000  0.000000  1
  Tb  Tb1  1  0.800251  0.800251  0.800251  1
  Tb  Tb2  1  0.199749  0.199749  0.199749  1
  Pr  Pr3  1  0.161857  0.392011  0.665690  1
  Pr  Pr4  1  0.665690  0.161857  0.392011  1
  Pr  Pr5  1  0.392011  0.665690  0.161857  1
  Pr  Pr6  1  0.838143  0.607989  0.334310  1
  Pr  Pr7  1  0.334310  0.838143  0.607989  1
  Pr  Pr8  1  0.607989  0.334310  0.838143  1
  Rh  Rh9  1  0.961884  0.155353  0.591684  1
  Rh  Rh10  1  0.591684  0.961884  0.155353  1
  Rh  Rh11  1  0.155353  0.591684  0.961884  1
  Rh  Rh12  1  0.038116  0.844647  0.408316  1
  Rh  Rh13  1  0.408316  0.038116  0.844647  1
  Rh  Rh14  1  0.844647  0.408316  0.038116  1
