# generated using pymatgen
data_Re2TcTe4I
_symmetry_space_group_name_H-M   'P 1'
_cell_length_a   12.76246000
_cell_length_b   7.08315627
_cell_length_c   12.25564549
_cell_angle_alpha   67.27348731
_cell_angle_beta   90.00000000
_cell_angle_gamma   90.00000000
_symmetry_Int_Tables_number   1
_chemical_formula_structural   Re2TcTe4I
_chemical_formula_sum   'Re8 Tc4 Te16 I4'
_cell_volume   1021.87457624
_cell_formula_units_Z   4
loop_
 _symmetry_equiv_pos_site_id
 _symmetry_equiv_pos_as_xyz
  1  'x, y, z'
loop_
 _atom_site_type_symbol
 _atom_site_label
 _atom_site_symmetry_multiplicity
 _atom_site_fract_x
 _atom_site_fract_y
 _atom_site_fract_z
 _atom_site_occupancy
  Re  Re0  1  0.568543  0.021979  0.357217  1
  Re  Re1  1  0.931457  0.021979  0.857217  1
  Re  Re2  1  0.431457  0.978021  0.642783  1
  Re  Re3  1  0.068543  0.978021  0.142783  1
  Re  Re4  1  0.366830  0.971578  0.436571  1
  Re  Re5  1  0.133170  0.971578  0.936571  1
  Re  Re6  1  0.633170  0.028422  0.563429  1
  Re  Re7  1  0.866830  0.028422  0.063429  1
  Tc  Tc8  1  0.517123  0.709995  0.559084  1
  Tc  Tc9  1  0.982877  0.709995  0.059084  1
  Tc  Tc10  1  0.482877  0.290005  0.440916  1
  Tc  Tc11  1  0.017123  0.290005  0.940916  1
  Te  Te12  1  0.448569  0.717954  0.338822  1
  Te  Te13  1  0.051431  0.717954  0.838822  1
  Te  Te14  1  0.551431  0.282046  0.661178  1
  Te  Te15  1  0.948569  0.282046  0.161178  1
  Te  Te16  1  0.318755  0.656142  0.642236  1
  Te  Te17  1  0.181245  0.656142  0.142236  1
  Te  Te18  1  0.681245  0.343858  0.357764  1
  Te  Te19  1  0.818755  0.343858  0.857764  1
  Te  Te20  1  0.417232  0.284451  0.231428  1
  Te  Te21  1  0.082768  0.284451  0.731428  1
  Te  Te22  1  0.582768  0.715549  0.768572  1
  Te  Te23  1  0.917232  0.715549  0.268572  1
  Te  Te24  1  0.717518  0.756269  0.483267  1
  Te  Te25  1  0.782482  0.756269  0.983267  1
  Te  Te26  1  0.282482  0.243731  0.516733  1
  Te  Te27  1  0.217518  0.243731  0.016733  1
  I  I28  1  0.156338  0.916073  0.369777  1
  I  I29  1  0.343662  0.916073  0.869777  1
  I  I30  1  0.843662  0.083927  0.630223  1
  I  I31  1  0.656338  0.083927  0.130223  1
