# generated using pymatgen
data_Nd3Ho(BiO4)4
_symmetry_space_group_name_H-M   'P 1'
_cell_length_a   5.62720923
_cell_length_b   7.93342122
_cell_length_c   7.95562414
_cell_angle_alpha   82.57498229
_cell_angle_beta   89.98069665
_cell_angle_gamma   90.39755800
_symmetry_Int_Tables_number   1
_chemical_formula_structural   Nd3Ho(BiO4)4
_chemical_formula_sum   'Nd3 Ho1 Bi4 O16'
_cell_volume   352.17624297
_cell_formula_units_Z   1
loop_
 _symmetry_equiv_pos_site_id
 _symmetry_equiv_pos_as_xyz
  1  'x, y, z'
loop_
 _atom_site_type_symbol
 _atom_site_label
 _atom_site_symmetry_multiplicity
 _atom_site_fract_x
 _atom_site_fract_y
 _atom_site_fract_z
 _atom_site_occupancy
  Nd  Nd0  1  0.269802  0.862926  0.892240  1
  Nd  Nd1  1  0.232524  0.865958  0.388890  1
  Nd  Nd2  1  0.764818  0.136339  0.609868  1
  Ho  Ho3  1  0.726949  0.137549  0.112735  1
  Bi  Bi4  1  0.771967  0.661556  0.684928  1
  Bi  Bi5  1  0.729182  0.661850  0.184365  1
  Bi  Bi6  1  0.269996  0.336856  0.818856  1
  Bi  Bi7  1  0.226707  0.336955  0.312273  1
  O  O8  1  0.101267  0.577929  0.815488  1
  O  O9  1  0.605335  0.672104  0.929555  1
  O  O10  1  0.396768  0.579848  0.312428  1
  O  O11  1  0.503838  0.841420  0.619087  1
  O  O12  1  0.894370  0.670755  0.429899  1
  O  O13  1  0.001597  0.839105  0.119843  1
  O  O14  1  0.993861  0.889115  0.665610  1
  O  O15  1  0.492437  0.113127  0.837747  1
  O  O16  1  0.518657  0.894128  0.165866  1
  O  O17  1  0.999953  0.112707  0.324232  1
  O  O18  1  0.991787  0.163118  0.891244  1
  O  O19  1  0.109287  0.321809  0.571212  1
  O  O20  1  0.498215  0.158355  0.376257  1
  O  O21  1  0.598199  0.422501  0.683442  1
  O  O22  1  0.405592  0.324183  0.071581  1
  O  O23  1  0.896892  0.419803  0.182355  1
