# generated using pymatgen
data_Ho2Al8ZnNi2Pd
_symmetry_space_group_name_H-M   'P 1'
_cell_length_a   7.42905589
_cell_length_b   7.42905435
_cell_length_c   9.34037000
_cell_angle_alpha   90.00000000
_cell_angle_beta   90.00000000
_cell_angle_gamma   118.54546401
_symmetry_Int_Tables_number   1
_chemical_formula_structural   Ho2Al8ZnNi2Pd
_chemical_formula_sum   'Ho4 Al16 Zn2 Ni4 Pd2'
_cell_volume   452.83757960
_cell_formula_units_Z   2
loop_
 _symmetry_equiv_pos_site_id
 _symmetry_equiv_pos_as_xyz
  1  'x, y, z'
loop_
 _atom_site_type_symbol
 _atom_site_label
 _atom_site_symmetry_multiplicity
 _atom_site_fract_x
 _atom_site_fract_y
 _atom_site_fract_z
 _atom_site_occupancy
  Ho  Ho0  1  0.993565  0.677741  0.250000  1
  Ho  Ho1  1  0.006435  0.322259  0.750000  1
  Ho  Ho2  1  0.677741  0.993565  0.250000  1
  Ho  Ho3  1  0.322259  0.006435  0.750000  1
  Al  Al4  1  0.999634  0.340809  0.076184  1
  Al  Al5  1  0.000366  0.659191  0.923816  1
  Al  Al6  1  0.000366  0.659191  0.576184  1
  Al  Al7  1  0.340809  0.999634  0.423816  1
  Al  Al8  1  0.999634  0.340809  0.423816  1
  Al  Al9  1  0.659191  0.000366  0.576184  1
  Al  Al10  1  0.659191  0.000366  0.923816  1
  Al  Al11  1  0.340809  0.999634  0.076184  1
  Al  Al12  1  0.337403  0.337403  0.548722  1
  Al  Al13  1  0.662597  0.662598  0.451278  1
  Al  Al14  1  0.662597  0.662598  0.048722  1
  Al  Al15  1  0.337403  0.337403  0.951278  1
  Al  Al16  1  0.340641  0.557462  0.250000  1
  Al  Al17  1  0.659359  0.442538  0.750000  1
  Al  Al18  1  0.557462  0.340641  0.250000  1
  Al  Al19  1  0.442538  0.659359  0.750000  1
  Zn  Zn20  1  0.148916  0.148916  0.250000  1
  Zn  Zn21  1  0.851084  0.851084  0.750000  1
  Ni  Ni22  1  0.671388  0.328612  0.000000  1
  Ni  Ni23  1  0.328612  0.671388  0.000000  1
  Ni  Ni24  1  0.328612  0.671388  0.500000  1
  Ni  Ni25  1  0.671388  0.328612  0.500000  1
  Pd  Pd26  1  0.000000  0.000000  0.000000  1
  Pd  Pd27  1  0.000000  0.000000  0.500000  1
