# generated using pymatgen
data_Tm3Hf(Al3Tc)2
_symmetry_space_group_name_H-M   'P 1'
_cell_length_a   5.40797300
_cell_length_b   5.40797362
_cell_length_c   8.82427900
_cell_angle_alpha   90.00000000
_cell_angle_beta   90.00000000
_cell_angle_gamma   119.99999012
_symmetry_Int_Tables_number   1
_chemical_formula_structural   Tm3Hf(Al3Tc)2
_chemical_formula_sum   'Tm3 Hf1 Al6 Tc2'
_cell_volume   223.50074985
_cell_formula_units_Z   1
loop_
 _symmetry_equiv_pos_site_id
 _symmetry_equiv_pos_as_xyz
  1  'x, y, z'
loop_
 _atom_site_type_symbol
 _atom_site_label
 _atom_site_symmetry_multiplicity
 _atom_site_fract_x
 _atom_site_fract_y
 _atom_site_fract_z
 _atom_site_occupancy
  Tm  Tm0  1  0.333333  0.666667  0.443042  1
  Tm  Tm1  1  0.666667  0.333333  0.949491  1
  Tm  Tm2  1  0.666667  0.333333  0.553338  1
  Hf  Hf3  1  0.333333  0.666667  0.047567  1
  Al  Al4  1  0.164358  0.328717  0.754202  1
  Al  Al5  1  0.836272  0.163728  0.247534  1
  Al  Al6  1  0.327457  0.163728  0.247534  1
  Al  Al7  1  0.671283  0.835642  0.754202  1
  Al  Al8  1  0.836272  0.672543  0.247534  1
  Al  Al9  1  0.164358  0.835642  0.754202  1
  Tc  Tc10  1  0.000000  0.000000  0.000625  1
  Tc  Tc11  1  0.000000  0.000000  0.500730  1
