# generated using pymatgen
data_TbDy6Co4Sn23Ir2
_symmetry_space_group_name_H-M   'P 1'
_cell_length_a   9.76085097
_cell_length_b   9.76084963
_cell_length_c   10.04158991
_cell_angle_alpha   90.16488180
_cell_angle_beta   89.83511697
_cell_angle_gamma   120.03336724
_symmetry_Int_Tables_number   1
_chemical_formula_structural   TbDy6Co4Sn23Ir2
_chemical_formula_sum   'Tb1 Dy6 Co4 Sn23 Ir2'
_cell_volume   828.24705173
_cell_formula_units_Z   1
loop_
 _symmetry_equiv_pos_site_id
 _symmetry_equiv_pos_as_xyz
  1  'x, y, z'
loop_
 _atom_site_type_symbol
 _atom_site_label
 _atom_site_symmetry_multiplicity
 _atom_site_fract_x
 _atom_site_fract_y
 _atom_site_fract_z
 _atom_site_occupancy
  Tb  Tb0  1  0.000000  0.000000  0.000000  1
  Dy  Dy1  1  0.478826  0.521174  0.306655  1
  Dy  Dy2  1  0.521174  0.478826  0.693345  1
  Dy  Dy3  1  0.479512  0.957904  0.306044  1
  Dy  Dy4  1  0.520488  0.042096  0.693956  1
  Dy  Dy5  1  0.042096  0.520488  0.306044  1
  Dy  Dy6  1  0.957904  0.479512  0.693956  1
  Co  Co7  1  0.830551  0.663291  0.198013  1
  Co  Co8  1  0.169449  0.336709  0.801987  1
  Co  Co9  1  0.336709  0.169449  0.198013  1
  Co  Co10  1  0.663291  0.830551  0.801987  1
  Sn  Sn11  1  0.350828  0.004503  0.005766  1
  Sn  Sn12  1  0.649172  0.995497  0.994234  1
  Sn  Sn13  1  0.004503  0.350828  0.994234  1
  Sn  Sn14  1  0.995497  0.649172  0.005766  1
  Sn  Sn15  1  0.654152  0.654152  0.000000  1
  Sn  Sn16  1  0.345848  0.345848  0.000000  1
  Sn  Sn17  1  0.336015  0.663985  0.819520  1
  Sn  Sn18  1  0.663985  0.336015  0.180480  1
  Sn  Sn19  1  0.000000  0.000000  0.500000  1
  Sn  Sn20  1  0.779741  0.220259  0.458074  1
  Sn  Sn21  1  0.220259  0.779741  0.541926  1
  Sn  Sn22  1  0.781302  0.562218  0.451681  1
  Sn  Sn23  1  0.218698  0.437782  0.548319  1
  Sn  Sn24  1  0.437782  0.218698  0.451681  1
  Sn  Sn25  1  0.562218  0.781302  0.548319  1
  Sn  Sn26  1  0.333817  0.666183  0.117500  1
  Sn  Sn27  1  0.666183  0.333817  0.882500  1
  Sn  Sn28  1  0.117526  0.882474  0.273569  1
  Sn  Sn29  1  0.882474  0.117526  0.726431  1
  Sn  Sn30  1  0.124578  0.238005  0.278148  1
  Sn  Sn31  1  0.875422  0.761995  0.721852  1
  Sn  Sn32  1  0.761995  0.875422  0.278148  1
  Sn  Sn33  1  0.238005  0.124578  0.721852  1
  Ir  Ir34  1  0.831629  0.168371  0.197221  1
  Ir  Ir35  1  0.168371  0.831629  0.802779  1
