# generated using pymatgen
data_Pr7Y5Al12V8O48
_symmetry_space_group_name_H-M   'P 1'
_cell_length_a   10.82313133
_cell_length_b   10.82975106
_cell_length_c   10.82313065
_cell_angle_alpha   109.08100842
_cell_angle_beta   109.39919028
_cell_angle_gamma   109.90973879
_symmetry_Int_Tables_number   1
_chemical_formula_structural   Pr7Y5Al12V8O48
_chemical_formula_sum   'Pr7 Y5 Al12 V8 O48'
_cell_volume   976.81461094
_cell_formula_units_Z   1
loop_
 _symmetry_equiv_pos_site_id
 _symmetry_equiv_pos_as_xyz
  1  'x, y, z'
loop_
 _atom_site_type_symbol
 _atom_site_label
 _atom_site_symmetry_multiplicity
 _atom_site_fract_x
 _atom_site_fract_y
 _atom_site_fract_z
 _atom_site_occupancy
  Pr  Pr0  1  0.248823  0.374292  0.123876  1
  Pr  Pr1  1  0.750655  0.624617  0.876469  1
  Pr  Pr2  1  0.749584  0.125708  0.374531  1
  Pr  Pr3  1  0.125243  0.250000  0.375243  1
  Pr  Pr4  1  0.374965  0.750000  0.124965  1
  Pr  Pr5  1  0.251852  0.875383  0.626038  1
  Pr  Pr6  1  0.874747  0.750000  0.624747  1
  Y  Y7  1  0.624652  0.250000  0.874652  1
  Y  Y8  1  0.376320  0.126530  0.252116  1
  Y  Y9  1  0.623521  0.874384  0.748463  1
  Y  Y10  1  0.125587  0.373470  0.749790  1
  Y  Y11  1  0.874079  0.625616  0.249137  1
  Al  Al12  1  0.249931  0.625023  0.375187  1
  Al  Al13  1  0.749335  0.373813  0.625459  1
  Al  Al14  1  0.750163  0.874977  0.124908  1
  Al  Al15  1  0.377615  0.250000  0.627615  1
  Al  Al16  1  0.625188  0.750000  0.375188  1
  Al  Al17  1  0.251646  0.126187  0.875521  1
  Al  Al18  1  0.125055  0.750000  0.875055  1
  Al  Al19  1  0.872186  0.250000  0.122186  1
  Al  Al20  1  0.624462  0.374292  0.248729  1
  Al  Al21  1  0.375015  0.624637  0.749760  1
  Al  Al22  1  0.874436  0.125708  0.750170  1
  Al  Al23  1  0.125123  0.875363  0.250378  1
  V  V24  1  0.999583  0.000261  0.999418  1
  V  V25  1  0.501760  0.001465  0.502128  1
  V  V26  1  0.999157  0.499739  0.499322  1
  V  V27  1  0.499927  0.001499  0.999178  1
  V  V28  1  0.500664  0.498535  0.000296  1
  V  V29  1  0.500506  0.499557  0.500442  1
  V  V30  1  0.000884  0.000443  0.500949  1
  V  V31  1  0.997679  0.498501  0.998428  1
  O  O32  1  0.481270  0.376728  0.297189  1
  O  O33  1  0.519158  0.622688  0.703123  1
  O  O34  1  0.578669  0.184289  0.203782  1
  O  O35  1  0.920461  0.123272  0.604542  1
  O  O36  1  0.294252  0.481567  0.381821  1
  O  O37  1  0.317221  0.922094  0.299201  1
  O  O38  1  0.420885  0.815288  0.796037  1
  O  O39  1  0.080435  0.877312  0.396470  1
  O  O40  1  0.706447  0.518016  0.619050  1
  O  O41  1  0.683883  0.082290  0.705586  1
  O  O42  1  0.019493  0.315711  0.894380  1
  O  O43  1  0.204328  0.586884  0.187138  1
  O  O44  1  0.124089  0.019444  0.203048  1
  O  O45  1  0.980749  0.684712  0.105597  1
  O  O46  1  0.789569  0.407603  0.811646  1
  O  O47  1  0.875175  0.981021  0.796291  1
  O  O48  1  0.600254  0.913116  0.117444  1
  O  O49  1  0.183605  0.480556  0.604645  1
  O  O50  1  0.404044  0.092397  0.881966  1
  O  O51  1  0.815270  0.518979  0.394154  1
  O  O52  1  0.900255  0.018433  0.312685  1
  O  O53  1  0.377107  0.577906  0.895127  1
  O  O54  1  0.101034  0.981984  0.688431  1
  O  O55  1  0.623296  0.417710  0.101593  1
  O  O56  1  0.382241  0.291857  0.481010  1
  O  O57  1  0.587160  0.899807  0.382254  1
  O  O58  1  0.618715  0.707914  0.520861  1
  O  O59  1  0.420303  0.103800  0.626052  1
  O  O60  1  0.117767  0.598343  0.912158  1
  O  O61  1  0.015799  0.205333  0.116646  1
  O  O62  1  0.873716  0.398089  0.080720  1
  O  O63  1  0.982244  0.794731  0.882318  1
  O  O64  1  0.313815  0.901657  0.019424  1
  O  O65  1  0.911312  0.294667  0.310466  1
  O  O66  1  0.682632  0.101911  0.975627  1
  O  O67  1  0.087587  0.705269  0.687514  1
  O  O68  1  0.189153  0.208143  0.590384  1
  O  O69  1  0.482446  0.600193  0.187353  1
  O  O70  1  0.812947  0.792086  0.410801  1
  O  O71  1  0.522252  0.396200  0.816503  1
  O  O72  1  0.290887  0.312519  0.910490  1
  O  O73  1  0.709020  0.687889  0.089869  1
  O  O74  1  0.208499  0.118825  0.020592  1
  O  O75  1  0.791352  0.881581  0.978726  1
  O  O76  1  0.901767  0.381175  0.589674  1
  O  O77  1  0.097145  0.618419  0.409771  1
  O  O78  1  0.597971  0.187481  0.478368  1
  O  O79  1  0.401980  0.812111  0.521131  1
