# generated using pymatgen
data_TbLu9AlSb5
_symmetry_space_group_name_H-M   'P 1'
_cell_length_a   8.76054789
_cell_length_b   8.76817997
_cell_length_c   6.25869800
_cell_angle_alpha   90.00000000
_cell_angle_beta   90.00000000
_cell_angle_gamma   120.14281332
_symmetry_Int_Tables_number   1
_chemical_formula_structural   TbLu9AlSb5
_chemical_formula_sum   'Tb1 Lu9 Al1 Sb5'
_cell_volume   415.74646535
_cell_formula_units_Z   1
loop_
 _symmetry_equiv_pos_site_id
 _symmetry_equiv_pos_as_xyz
  1  'x, y, z'
loop_
 _atom_site_type_symbol
 _atom_site_label
 _atom_site_symmetry_multiplicity
 _atom_site_fract_x
 _atom_site_fract_y
 _atom_site_fract_z
 _atom_site_occupancy
  Tb  Tb0  1  0.244524  0.235635  0.750000  1
  Lu  Lu1  1  0.010515  0.764334  0.750000  1
  Lu  Lu2  1  0.998167  0.242207  0.250000  1
  Lu  Lu3  1  0.758001  0.759085  0.250000  1
  Lu  Lu4  1  0.753072  0.000015  0.750000  1
  Lu  Lu5  1  0.241748  0.999255  0.250000  1
  Lu  Lu6  1  0.334544  0.673015  0.502383  1
  Lu  Lu7  1  0.661040  0.326568  0.997870  1
  Lu  Lu8  1  0.661040  0.326568  0.502130  1
  Lu  Lu9  1  0.334544  0.673015  0.997617  1
  Al  Al10  1  0.398371  0.998045  0.750000  1
  Sb  Sb11  1  0.390928  0.394385  0.250000  1
  Sb  Sb12  1  0.996228  0.605472  0.250000  1
  Sb  Sb13  1  0.999241  0.392034  0.750000  1
  Sb  Sb14  1  0.612612  0.610267  0.750000  1
  Sb  Sb15  1  0.605422  0.000100  0.250000  1
