# generated using pymatgen
data_LiBe3Pt4
_symmetry_space_group_name_H-M   'P 1'
_cell_length_a   4.95834494
_cell_length_b   4.95834283
_cell_length_c   4.03813900
_cell_angle_alpha   90.00000000
_cell_angle_beta   90.00000000
_cell_angle_gamma   109.60391813
_symmetry_Int_Tables_number   1
_chemical_formula_structural   LiBe3Pt4
_chemical_formula_sum   'Li1 Be3 Pt4'
_cell_volume   93.52363213
_cell_formula_units_Z   1
loop_
 _symmetry_equiv_pos_site_id
 _symmetry_equiv_pos_as_xyz
  1  'x, y, z'
loop_
 _atom_site_type_symbol
 _atom_site_label
 _atom_site_symmetry_multiplicity
 _atom_site_fract_x
 _atom_site_fract_y
 _atom_site_fract_z
 _atom_site_occupancy
  Li  Li0  1  0.500000  0.500000  0.000000  1
  Be  Be1  1  0.000000  0.000000  0.000000  1
  Be  Be2  1  0.741234  0.258766  0.499999  1
  Be  Be3  1  0.258766  0.741234  0.499999  1
  Pt  Pt4  1  0.499999  0.000000  0.000000  1
  Pt  Pt5  1  0.000000  0.499999  0.000000  1
  Pt  Pt6  1  0.242688  0.242688  0.499999  1
  Pt  Pt7  1  0.757312  0.757312  0.499999  1
