# generated using pymatgen
data_Pa7Se12
_symmetry_space_group_name_H-M   'P 1'
_cell_length_a   3.97278800
_cell_length_b   11.48949031
_cell_length_c   11.48949200
_cell_angle_alpha   120.00000486
_cell_angle_beta   90.00000000
_cell_angle_gamma   90.00000000
_symmetry_Int_Tables_number   1
_chemical_formula_structural   Pa7Se12
_chemical_formula_sum   'Pa7 Se12'
_cell_volume   454.17956625
_cell_formula_units_Z   1
loop_
 _symmetry_equiv_pos_site_id
 _symmetry_equiv_pos_as_xyz
  1  'x, y, z'
loop_
 _atom_site_type_symbol
 _atom_site_label
 _atom_site_symmetry_multiplicity
 _atom_site_fract_x
 _atom_site_fract_y
 _atom_site_fract_z
 _atom_site_occupancy
  Pa  Pa0  1  0.750000  0.000000  0.000000  1
  Pa  Pa1  1  0.750000  0.434079  0.280471  1
  Pa  Pa2  1  0.750000  0.719529  0.153608  1
  Pa  Pa3  1  0.750000  0.846392  0.565921  1
  Pa  Pa4  1  0.250000  0.550820  0.709258  1
  Pa  Pa5  1  0.250000  0.290742  0.841561  1
  Pa  Pa6  1  0.250000  0.158439  0.449180  1
  Se  Se7  1  0.750000  0.249091  0.993417  1
  Se  Se8  1  0.750000  0.006583  0.255674  1
  Se  Se9  1  0.750000  0.744326  0.750909  1
  Se  Se10  1  0.250000  0.790314  0.004869  1
  Se  Se11  1  0.250000  0.995131  0.785445  1
  Se  Se12  1  0.250000  0.214555  0.209686  1
  Se  Se13  1  0.750000  0.140192  0.628489  1
  Se  Se14  1  0.750000  0.371511  0.511703  1
  Se  Se15  1  0.750000  0.488297  0.859808  1
  Se  Se16  1  0.250000  0.858017  0.382703  1
  Se  Se17  1  0.250000  0.617297  0.475314  1
  Se  Se18  1  0.250000  0.524686  0.141983  1
