# generated using pymatgen
data_Hf4Sc6Al12Ir7
_symmetry_space_group_name_H-M   'P 1'
_cell_length_a   8.92825023
_cell_length_b   8.92825061
_cell_length_c   8.92825100
_cell_angle_alpha   59.99999483
_cell_angle_beta   59.99999344
_cell_angle_gamma   60.00000130
_symmetry_Int_Tables_number   1
_chemical_formula_structural   Hf4Sc6Al12Ir7
_chemical_formula_sum   'Hf4 Sc6 Al12 Ir7'
_cell_volume   503.25034881
_cell_formula_units_Z   1
loop_
 _symmetry_equiv_pos_site_id
 _symmetry_equiv_pos_as_xyz
  1  'x, y, z'
loop_
 _atom_site_type_symbol
 _atom_site_label
 _atom_site_symmetry_multiplicity
 _atom_site_fract_x
 _atom_site_fract_y
 _atom_site_fract_z
 _atom_site_occupancy
  Hf  Hf0  1  0.879780  0.879780  0.360659  1
  Hf  Hf1  1  0.879780  0.360659  0.879780  1
  Hf  Hf2  1  0.360659  0.879780  0.879780  1
  Hf  Hf3  1  0.879780  0.879780  0.879780  1
  Sc  Sc4  1  0.700170  0.700170  0.299830  1
  Sc  Sc5  1  0.299830  0.700170  0.299830  1
  Sc  Sc6  1  0.700170  0.299830  0.299830  1
  Sc  Sc7  1  0.299830  0.299830  0.700170  1
  Sc  Sc8  1  0.700170  0.299830  0.700170  1
  Sc  Sc9  1  0.299830  0.700170  0.700170  1
  Al  Al10  1  0.121214  0.121214  0.636360  1
  Al  Al11  1  0.121214  0.636360  0.121214  1
  Al  Al12  1  0.636360  0.121214  0.121214  1
  Al  Al13  1  0.121214  0.121214  0.121214  1
  Al  Al14  1  0.660577  0.660577  0.018270  1
  Al  Al15  1  0.660577  0.018270  0.660577  1
  Al  Al16  1  0.018270  0.660577  0.660577  1
  Al  Al17  1  0.660577  0.660577  0.660577  1
  Al  Al18  1  0.333432  0.333432  0.999705  1
  Al  Al19  1  0.333432  0.999705  0.333432  1
  Al  Al20  1  0.999705  0.333432  0.333432  1
  Al  Al21  1  0.333432  0.333432  0.333432  1
  Ir  Ir22  1  0.000000  0.000000  0.000000  1
  Ir  Ir23  1  0.999807  0.999807  0.500193  1
  Ir  Ir24  1  0.500193  0.999807  0.500193  1
  Ir  Ir25  1  0.999807  0.500193  0.500193  1
  Ir  Ir26  1  0.500193  0.500193  0.999807  1
  Ir  Ir27  1  0.999807  0.500193  0.999807  1
  Ir  Ir28  1  0.500193  0.999807  0.999807  1
