# generated using pymatgen
data_Ca6Si3PIr4
_symmetry_space_group_name_H-M   'P 1'
_cell_length_a   5.84362400
_cell_length_b   7.62236700
_cell_length_c   13.59996900
_cell_angle_alpha   90.00000000
_cell_angle_beta   90.00000000
_cell_angle_gamma   90.00000000
_symmetry_Int_Tables_number   1
_chemical_formula_structural   Ca6Si3PIr4
_chemical_formula_sum   'Ca12 Si6 P2 Ir8'
_cell_volume   605.77317483
_cell_formula_units_Z   2
loop_
 _symmetry_equiv_pos_site_id
 _symmetry_equiv_pos_as_xyz
  1  'x, y, z'
loop_
 _atom_site_type_symbol
 _atom_site_label
 _atom_site_symmetry_multiplicity
 _atom_site_fract_x
 _atom_site_fract_y
 _atom_site_fract_z
 _atom_site_occupancy
  Ca  Ca0  1  0.132829  0.611566  0.103517  1
  Ca  Ca1  1  0.132829  0.888434  0.896483  1
  Ca  Ca2  1  0.872920  0.111143  0.397367  1
  Ca  Ca3  1  0.872920  0.388857  0.602633  1
  Ca  Ca4  1  0.872920  0.388857  0.897367  1
  Ca  Ca5  1  0.872920  0.111143  0.102633  1
  Ca  Ca6  1  0.132829  0.888434  0.603517  1
  Ca  Ca7  1  0.132829  0.611566  0.396483  1
  Ca  Ca8  1  0.364691  0.265180  0.250000  1
  Ca  Ca9  1  0.364691  0.234820  0.750000  1
  Ca  Ca10  1  0.625278  0.774136  0.250000  1
  Ca  Ca11  1  0.625278  0.725864  0.750000  1
  Si  Si12  1  0.424709  0.250000  0.000000  1
  Si  Si13  1  0.575348  0.750000  0.500000  1
  Si  Si14  1  0.575348  0.750000  0.000000  1
  Si  Si15  1  0.424709  0.250000  0.500000  1
  Si  Si16  1  0.829374  0.423792  0.250000  1
  Si  Si17  1  0.829374  0.076208  0.750000  1
  P  P18  1  0.159480  0.918223  0.250000  1
  P  P19  1  0.159480  0.581777  0.750000  1
  Ir  Ir20  1  0.636867  0.478890  0.089972  1
  Ir  Ir21  1  0.636867  0.021110  0.910028  1
  Ir  Ir22  1  0.367944  0.978629  0.409164  1
  Ir  Ir23  1  0.367944  0.521371  0.590836  1
  Ir  Ir24  1  0.367944  0.521371  0.909164  1
  Ir  Ir25  1  0.367944  0.978629  0.090836  1
  Ir  Ir26  1  0.636867  0.021110  0.589972  1
  Ir  Ir27  1  0.636867  0.478890  0.410028  1
