# generated using pymatgen
data_Ce2Lu2Mg3AlIr4
_symmetry_space_group_name_H-M   'P 1'
_cell_length_a   7.01952121
_cell_length_b   4.08672800
_cell_length_c   8.47497345
_cell_angle_alpha   90.00000000
_cell_angle_beta   89.09577751
_cell_angle_gamma   90.00000000
_symmetry_Int_Tables_number   1
_chemical_formula_structural   Ce2Lu2Mg3AlIr4
_chemical_formula_sum   'Ce2 Lu2 Mg3 Al1 Ir4'
_cell_volume   243.09021909
_cell_formula_units_Z   1
loop_
 _symmetry_equiv_pos_site_id
 _symmetry_equiv_pos_as_xyz
  1  'x, y, z'
loop_
 _atom_site_type_symbol
 _atom_site_label
 _atom_site_symmetry_multiplicity
 _atom_site_fract_x
 _atom_site_fract_y
 _atom_site_fract_z
 _atom_site_occupancy
  Ce  Ce0  1  0.038492  0.750000  0.825976  1
  Ce  Ce1  1  0.534606  0.750000  0.679512  1
  Lu  Lu2  1  0.955061  0.250000  0.178757  1
  Lu  Lu3  1  0.463504  0.250000  0.317719  1
  Mg  Mg4  1  0.867946  0.250000  0.553516  1
  Mg  Mg5  1  0.139521  0.750000  0.434429  1
  Mg  Mg6  1  0.632849  0.750000  0.061445  1
  Al  Al7  1  0.365608  0.250000  0.949655  1
  Ir  Ir8  1  0.745472  0.250000  0.869007  1
  Ir  Ir9  1  0.258479  0.250000  0.647837  1
  Ir  Ir10  1  0.250915  0.750000  0.113705  1
  Ir  Ir11  1  0.747546  0.750000  0.368443  1
