# generated using pymatgen
data_TbHo11(TcRu)2
_symmetry_space_group_name_H-M   'P 1'
_cell_length_a   6.26846626
_cell_length_b   7.37481930
_cell_length_c   9.12874100
_cell_angle_alpha   90.00000000
_cell_angle_beta   90.00000000
_cell_angle_gamma   89.96712855
_symmetry_Int_Tables_number   1
_chemical_formula_structural   TbHo11(TcRu)2
_chemical_formula_sum   'Tb1 Ho11 Tc2 Ru2'
_cell_volume   422.01072691
_cell_formula_units_Z   1
loop_
 _symmetry_equiv_pos_site_id
 _symmetry_equiv_pos_as_xyz
  1  'x, y, z'
loop_
 _atom_site_type_symbol
 _atom_site_label
 _atom_site_symmetry_multiplicity
 _atom_site_fract_x
 _atom_site_fract_y
 _atom_site_fract_z
 _atom_site_occupancy
  Tb  Tb0  1  0.875365  0.539967  0.250000  1
  Ho  Ho1  1  0.335061  0.676344  0.063426  1
  Ho  Ho2  1  0.165732  0.176148  0.436362  1
  Ho  Ho3  1  0.664130  0.324074  0.562921  1
  Ho  Ho4  1  0.835682  0.824865  0.937135  1
  Ho  Ho5  1  0.664130  0.324074  0.937079  1
  Ho  Ho6  1  0.835682  0.824865  0.562865  1
  Ho  Ho7  1  0.335061  0.676344  0.436574  1
  Ho  Ho8  1  0.165732  0.176148  0.063638  1
  Ho  Ho9  1  0.624770  0.039920  0.250000  1
  Ho  Ho10  1  0.132178  0.457027  0.750000  1
  Ho  Ho11  1  0.367539  0.956849  0.750000  1
  Tc  Tc12  1  0.037910  0.885628  0.250000  1
  Tc  Tc13  1  0.461129  0.385234  0.250000  1
  Ru  Ru14  1  0.961537  0.116282  0.750000  1
  Ru  Ru15  1  0.538362  0.616233  0.750000  1
