# generated using pymatgen
data_ErMn2(CoP)3
_symmetry_space_group_name_H-M   'P 1'
_cell_length_a   3.59108900
_cell_length_b   10.30626300
_cell_length_c   11.99202600
_cell_angle_alpha   90.00000000
_cell_angle_beta   90.00000000
_cell_angle_gamma   90.00000000
_symmetry_Int_Tables_number   1
_chemical_formula_structural   ErMn2(CoP)3
_chemical_formula_sum   'Er4 Mn8 Co12 P12'
_cell_volume   443.83336890
_cell_formula_units_Z   4
loop_
 _symmetry_equiv_pos_site_id
 _symmetry_equiv_pos_as_xyz
  1  'x, y, z'
loop_
 _atom_site_type_symbol
 _atom_site_label
 _atom_site_symmetry_multiplicity
 _atom_site_fract_x
 _atom_site_fract_y
 _atom_site_fract_z
 _atom_site_occupancy
  Er  Er0  1  0.250000  0.582965  0.709120  1
  Er  Er1  1  0.250000  0.917035  0.209120  1
  Er  Er2  1  0.750000  0.417035  0.290880  1
  Er  Er3  1  0.750000  0.082965  0.790880  1
  Mn  Mn4  1  0.250000  0.713258  0.991230  1
  Mn  Mn5  1  0.250000  0.786742  0.491230  1
  Mn  Mn6  1  0.750000  0.286742  0.008770  1
  Mn  Mn7  1  0.750000  0.213258  0.508770  1
  Mn  Mn8  1  0.250000  0.406647  0.490576  1
  Mn  Mn9  1  0.250000  0.093353  0.990576  1
  Mn  Mn10  1  0.750000  0.593353  0.509424  1
  Mn  Mn11  1  0.750000  0.906647  0.009424  1
  Co  Co12  1  0.250000  0.221841  0.176873  1
  Co  Co13  1  0.250000  0.278159  0.676873  1
  Co  Co14  1  0.750000  0.778159  0.823127  1
  Co  Co15  1  0.750000  0.721841  0.323127  1
  Co  Co16  1  0.250000  0.882990  0.696528  1
  Co  Co17  1  0.250000  0.617010  0.196528  1
  Co  Co18  1  0.750000  0.117010  0.303472  1
  Co  Co19  1  0.750000  0.382990  0.803472  1
  Co  Co20  1  0.250000  0.465789  0.933521  1
  Co  Co21  1  0.250000  0.034211  0.433521  1
  Co  Co22  1  0.750000  0.534211  0.066479  1
  Co  Co23  1  0.750000  0.965789  0.566479  1
  P  P24  1  0.250000  0.418863  0.111827  1
  P  P25  1  0.250000  0.081137  0.611827  1
  P  P26  1  0.750000  0.581137  0.888173  1
  P  P27  1  0.750000  0.918863  0.388173  1
  P  P28  1  0.250000  0.268496  0.867132  1
  P  P29  1  0.250000  0.231504  0.367132  1
  P  P30  1  0.750000  0.731504  0.132868  1
  P  P31  1  0.750000  0.768496  0.632868  1
  P  P32  1  0.250000  0.598853  0.383560  1
  P  P33  1  0.250000  0.901147  0.883560  1
  P  P34  1  0.750000  0.401147  0.616440  1
  P  P35  1  0.750000  0.098853  0.116440  1
