# generated using pymatgen
data_Er3Al12FeCuRu2
_symmetry_space_group_name_H-M   'P 1'
_cell_length_a   8.77313628
_cell_length_b   8.76094377
_cell_length_c   9.41001172
_cell_angle_alpha   90.07141071
_cell_angle_beta   90.02805654
_cell_angle_gamma   119.46198908
_symmetry_Int_Tables_number   1
_chemical_formula_structural   Er3Al12FeCuRu2
_chemical_formula_sum   'Er6 Al24 Fe2 Cu2 Ru4'
_cell_volume   629.73075861
_cell_formula_units_Z   2
loop_
 _symmetry_equiv_pos_site_id
 _symmetry_equiv_pos_as_xyz
  1  'x, y, z'
loop_
 _atom_site_type_symbol
 _atom_site_label
 _atom_site_symmetry_multiplicity
 _atom_site_fract_x
 _atom_site_fract_y
 _atom_site_fract_z
 _atom_site_occupancy
  Er  Er0  1  0.188030  0.385302  0.248687  1
  Er  Er1  1  0.811970  0.614698  0.751313  1
  Er  Er2  1  0.615228  0.812157  0.249357  1
  Er  Er3  1  0.384772  0.187843  0.750643  1
  Er  Er4  1  0.195733  0.804478  0.249104  1
  Er  Er5  1  0.804267  0.195522  0.750896  1
  Al  Al6  1  0.335056  0.674256  0.019322  1
  Al  Al7  1  0.664944  0.325744  0.980678  1
  Al  Al8  1  0.667760  0.332456  0.520769  1
  Al  Al9  1  0.332240  0.667544  0.479231  1
  Al  Al10  1  0.157169  0.323442  0.578941  1
  Al  Al11  1  0.842831  0.676558  0.421059  1
  Al  Al12  1  0.676293  0.842939  0.579211  1
  Al  Al13  1  0.845238  0.681408  0.076933  1
  Al  Al14  1  0.323707  0.157061  0.420789  1
  Al  Al15  1  0.154762  0.318592  0.923067  1
  Al  Al16  1  0.164237  0.836560  0.578855  1
  Al  Al17  1  0.319603  0.152064  0.076023  1
  Al  Al18  1  0.835763  0.163440  0.421145  1
  Al  Al19  1  0.680397  0.847936  0.923977  1
  Al  Al20  1  0.835588  0.159252  0.076422  1
  Al  Al21  1  0.164412  0.840748  0.923578  1
  Al  Al22  1  0.559361  0.119418  0.244601  1
  Al  Al23  1  0.440639  0.880582  0.755399  1
  Al  Al24  1  0.876771  0.438749  0.249108  1
  Al  Al25  1  0.123229  0.561251  0.750892  1
  Al  Al26  1  0.560445  0.439031  0.249108  1
  Al  Al27  1  0.439555  0.560969  0.750892  1
  Al  Al28  1  0.998346  0.001544  0.243857  1
  Al  Al29  1  0.001654  0.998456  0.756143  1
  Fe  Fe30  1  0.500000  0.000000  0.000000  1
  Fe  Fe31  1  0.000000  0.000000  0.000000  1
  Cu  Cu32  1  0.500000  0.500000  0.000000  1
  Cu  Cu33  1  0.500000  0.500000  0.500000  1
  Ru  Ru34  1  0.000000  0.500000  0.000000  1
  Ru  Ru35  1  0.500000  0.000000  0.500000  1
  Ru  Ru36  1  0.000000  0.500000  0.500000  1
  Ru  Ru37  1  0.000000  0.000000  0.500000  1
