# generated using pymatgen
data_Ce3Sm(Al3Co)6
_symmetry_space_group_name_H-M   'P 1'
_cell_length_a   7.44920741
_cell_length_b   7.44383329
_cell_length_c   9.29398300
_cell_angle_alpha   90.00000000
_cell_angle_beta   90.00000000
_cell_angle_gamma   119.31313728
_symmetry_Int_Tables_number   1
_chemical_formula_structural   Ce3Sm(Al3Co)6
_chemical_formula_sum   'Ce3 Sm1 Al18 Co6'
_cell_volume   449.36957726
_cell_formula_units_Z   1
loop_
 _symmetry_equiv_pos_site_id
 _symmetry_equiv_pos_as_xyz
  1  'x, y, z'
loop_
 _atom_site_type_symbol
 _atom_site_label
 _atom_site_symmetry_multiplicity
 _atom_site_fract_x
 _atom_site_fract_y
 _atom_site_fract_z
 _atom_site_occupancy
  Ce  Ce0  1  0.993873  0.671247  0.250000  1
  Ce  Ce1  1  0.005046  0.328631  0.750000  1
  Ce  Ce2  1  0.672139  0.994790  0.250000  1
  Sm  Sm3  1  0.328597  0.006459  0.750000  1
  Al  Al4  1  0.127638  0.126923  0.250000  1
  Al  Al5  1  0.873856  0.874476  0.750000  1
  Al  Al6  1  0.000440  0.335588  0.072557  1
  Al  Al7  1  0.000962  0.665844  0.927868  1
  Al  Al8  1  0.000962  0.665844  0.572132  1
  Al  Al9  1  0.334944  0.999251  0.427537  1
  Al  Al10  1  0.000440  0.335588  0.427443  1
  Al  Al11  1  0.663889  0.999928  0.572286  1
  Al  Al12  1  0.663889  0.999928  0.927714  1
  Al  Al13  1  0.334944  0.999251  0.072463  1
  Al  Al14  1  0.333427  0.332708  0.542680  1
  Al  Al15  1  0.666303  0.666190  0.457716  1
  Al  Al16  1  0.666303  0.666190  0.042284  1
  Al  Al17  1  0.333427  0.332708  0.957320  1
  Al  Al18  1  0.341023  0.552186  0.250000  1
  Al  Al19  1  0.659954  0.447450  0.750000  1
  Al  Al20  1  0.551732  0.341050  0.250000  1
  Al  Al21  1  0.446888  0.658936  0.750000  1
  Co  Co22  1  0.673033  0.329286  0.001270  1
  Co  Co23  1  0.328274  0.670593  0.001138  1
  Co  Co24  1  0.328274  0.670593  0.498862  1
  Co  Co25  1  0.673033  0.329286  0.498730  1
  Co  Co26  1  0.998357  0.999539  0.001728  1
  Co  Co27  1  0.998357  0.999539  0.498272  1
