# generated using pymatgen
data_Cs4P2PbS8
_symmetry_space_group_name_H-M   'P 1'
_cell_length_a   9.66845046
_cell_length_b   9.77738614
_cell_length_c   11.91592727
_cell_angle_alpha   105.74072786
_cell_angle_beta   102.72001498
_cell_angle_gamma   93.94447808
_symmetry_Int_Tables_number   1
_chemical_formula_structural   Cs4P2PbS8
_chemical_formula_sum   'Cs8 P4 Pb2 S16'
_cell_volume   1047.63153059
_cell_formula_units_Z   2
loop_
 _symmetry_equiv_pos_site_id
 _symmetry_equiv_pos_as_xyz
  1  'x, y, z'
loop_
 _atom_site_type_symbol
 _atom_site_label
 _atom_site_symmetry_multiplicity
 _atom_site_fract_x
 _atom_site_fract_y
 _atom_site_fract_z
 _atom_site_occupancy
  Cs  Cs0  1  0.936680  0.517715  0.252235  1
  Cs  Cs1  1  0.063320  0.482285  0.747765  1
  Cs  Cs2  1  0.763910  0.993645  0.467464  1
  Cs  Cs3  1  0.236090  0.006355  0.532536  1
  Cs  Cs4  1  0.595066  0.744526  0.024368  1
  Cs  Cs5  1  0.404934  0.255474  0.975632  1
  Cs  Cs6  1  0.614677  0.682732  0.617974  1
  Cs  Cs7  1  0.385323  0.317268  0.382026  1
  P  P8  1  0.949980  0.112920  0.235257  1
  P  P9  1  0.050020  0.887080  0.764743  1
  P  P10  1  0.374245  0.679237  0.258760  1
  P  P11  1  0.625755  0.320763  0.741240  1
  Pb  Pb12  1  0.846320  0.138168  0.923364  1
  Pb  Pb13  1  0.153680  0.861832  0.076636  1
  S  S14  1  0.956676  0.900444  0.232712  1
  S  S15  1  0.043324  0.099556  0.767288  1
  S  S16  1  0.584742  0.104781  0.733205  1
  S  S17  1  0.415258  0.895219  0.266795  1
  S  S18  1  0.293283  0.662402  0.399152  1
  S  S19  1  0.706717  0.337598  0.600848  1
  S  S20  1  0.775319  0.422149  0.903337  1
  S  S21  1  0.224681  0.577851  0.096663  1
  S  S22  1  0.011845  0.243841  0.406446  1
  S  S23  1  0.988155  0.756159  0.593554  1
  S  S24  1  0.091862  0.168301  0.139850  1
  S  S25  1  0.908138  0.831699  0.860150  1
  S  S26  1  0.746780  0.136312  0.151318  1
  S  S27  1  0.253220  0.863688  0.848682  1
  S  S28  1  0.559230  0.588598  0.263128  1
  S  S29  1  0.440770  0.411402  0.736872  1
