# generated using pymatgen
data_CaPrMnFeO6
_symmetry_space_group_name_H-M   'P 1'
_cell_length_a   5.44976135
_cell_length_b   5.51162500
_cell_length_c   7.72017701
_cell_angle_alpha   90.00000881
_cell_angle_beta   90.10271073
_cell_angle_gamma   89.99989626
_symmetry_Int_Tables_number   1
_chemical_formula_structural   CaPrMnFeO6
_chemical_formula_sum   'Ca2 Pr2 Mn2 Fe2 O12'
_cell_volume   231.89090028
_cell_formula_units_Z   2
loop_
 _symmetry_equiv_pos_site_id
 _symmetry_equiv_pos_as_xyz
  1  'x, y, z'
loop_
 _atom_site_type_symbol
 _atom_site_label
 _atom_site_symmetry_multiplicity
 _atom_site_fract_x
 _atom_site_fract_y
 _atom_site_fract_z
 _atom_site_occupancy
  Ca  Ca0  1  0.490940  0.458230  0.750133  1
  Ca  Ca1  1  0.990940  0.041765  0.250135  1
  Pr  Pr2  1  0.009333  0.961389  0.750069  1
  Pr  Pr3  1  0.509331  0.538606  0.250068  1
  Mn  Mn4  1  0.500234  0.001022  0.000263  1
  Mn  Mn5  1  0.000231  0.499018  0.500255  1
  Fe  Fe6  1  0.500373  0.002012  0.499617  1
  Fe  Fe7  1  0.000369  0.497979  0.999618  1
  O  O8  1  0.074444  0.481886  0.254572  1
  O  O9  1  0.574446  0.018109  0.754575  1
  O  O10  1  0.219976  0.211055  0.960856  1
  O  O11  1  0.719973  0.288944  0.460855  1
  O  O12  1  0.209904  0.218945  0.539635  1
  O  O13  1  0.709906  0.281050  0.039634  1
  O  O14  1  0.291550  0.718504  0.957547  1
  O  O15  1  0.791546  0.781493  0.457545  1
  O  O16  1  0.281705  0.709371  0.542014  1
  O  O17  1  0.781705  0.790627  0.042015  1
  O  O18  1  0.421546  0.983171  0.245297  1
  O  O19  1  0.921546  0.516825  0.745297  1
