# generated using pymatgen
data_Y4Ga18IrRu5
_symmetry_space_group_name_H-M   'P 1'
_cell_length_a   7.51950269
_cell_length_b   7.51950204
_cell_length_c   9.69773876
_cell_angle_alpha   89.92194014
_cell_angle_beta   89.92194049
_cell_angle_gamma   119.75974177
_symmetry_Int_Tables_number   1
_chemical_formula_structural   Y4Ga18IrRu5
_chemical_formula_sum   'Y4 Ga18 Ir1 Ru5'
_cell_volume   476.01874704
_cell_formula_units_Z   1
loop_
 _symmetry_equiv_pos_site_id
 _symmetry_equiv_pos_as_xyz
  1  'x, y, z'
loop_
 _atom_site_type_symbol
 _atom_site_label
 _atom_site_symmetry_multiplicity
 _atom_site_fract_x
 _atom_site_fract_y
 _atom_site_fract_z
 _atom_site_occupancy
  Y  Y0  1  0.997285  0.669664  0.249919  1
  Y  Y1  1  0.002715  0.330336  0.750081  1
  Y  Y2  1  0.669664  0.997285  0.249919  1
  Y  Y3  1  0.330336  0.002715  0.750081  1
  Ga  Ga4  1  0.129347  0.129347  0.248648  1
  Ga  Ga5  1  0.870653  0.870653  0.751352  1
  Ga  Ga6  1  0.005381  0.335069  0.076349  1
  Ga  Ga7  1  0.994619  0.664931  0.923651  1
  Ga  Ga8  1  0.995549  0.663303  0.577090  1
  Ga  Ga9  1  0.336697  0.004451  0.422910  1
  Ga  Ga10  1  0.004451  0.336697  0.422910  1
  Ga  Ga11  1  0.663303  0.995549  0.577090  1
  Ga  Ga12  1  0.664931  0.994619  0.923651  1
  Ga  Ga13  1  0.335069  0.005381  0.076349  1
  Ga  Ga14  1  0.338737  0.338737  0.561133  1
  Ga  Ga15  1  0.661263  0.661263  0.438867  1
  Ga  Ga16  1  0.662668  0.662668  0.060575  1
  Ga  Ga17  1  0.337332  0.337332  0.939425  1
  Ga  Ga18  1  0.337501  0.549748  0.250024  1
  Ga  Ga19  1  0.662499  0.450252  0.749976  1
  Ga  Ga20  1  0.549748  0.337501  0.250024  1
  Ga  Ga21  1  0.450252  0.662499  0.749976  1
  Ir  Ir22  1  0.000000  0.000000  0.500000  1
  Ru  Ru23  1  0.674325  0.325675  0.000000  1
  Ru  Ru24  1  0.325675  0.674325  0.000000  1
  Ru  Ru25  1  0.326114  0.673886  0.500000  1
  Ru  Ru26  1  0.673886  0.326114  0.500000  1
  Ru  Ru27  1  0.000000  0.000000  0.000000  1
