# generated using pymatgen
data_Na3Yb(NpSe3)2
_symmetry_space_group_name_H-M   'P 1'
_cell_length_a   7.30020412
_cell_length_b   7.30020503
_cell_length_c   7.36946293
_cell_angle_alpha   80.25713367
_cell_angle_beta   80.25713131
_cell_angle_gamma   119.89347305
_symmetry_Int_Tables_number   1
_chemical_formula_structural   Na3Yb(NpSe3)2
_chemical_formula_sum   'Na3 Yb1 Np2 Se6'
_cell_volume   320.45993039
_cell_formula_units_Z   1
loop_
 _symmetry_equiv_pos_site_id
 _symmetry_equiv_pos_as_xyz
  1  'x, y, z'
loop_
 _atom_site_type_symbol
 _atom_site_label
 _atom_site_symmetry_multiplicity
 _atom_site_fract_x
 _atom_site_fract_y
 _atom_site_fract_z
 _atom_site_occupancy
  Na  Na0  1  0.500000  0.500000  0.500000  1
  Na  Na1  1  0.838175  0.161825  0.500000  1
  Na  Na2  1  0.161825  0.838175  0.500000  1
  Yb  Yb3  1  0.000000  0.000000  0.000000  1
  Np  Np4  1  0.667262  0.332738  0.000000  1
  Np  Np5  1  0.332738  0.667262  0.000000  1
  Se  Se6  1  0.264942  0.264942  0.230481  1
  Se  Se7  1  0.419153  0.076950  0.770864  1
  Se  Se8  1  0.076950  0.419153  0.770864  1
  Se  Se9  1  0.735058  0.735058  0.769519  1
  Se  Se10  1  0.580847  0.923050  0.229136  1
  Se  Se11  1  0.923050  0.580847  0.229136  1
