# generated using pymatgen
data_MoF10
_symmetry_space_group_name_H-M   'P 1'
_cell_length_a   10.75030400
_cell_length_b   5.26385462
_cell_length_c   7.06693023
_cell_angle_alpha   89.90650001
_cell_angle_beta   90.00000000
_cell_angle_gamma   90.00000000
_symmetry_Int_Tables_number   1
_chemical_formula_structural   MoF10
_chemical_formula_sum   'Mo2 F20'
_cell_volume   399.90317936
_cell_formula_units_Z   2
loop_
 _symmetry_equiv_pos_site_id
 _symmetry_equiv_pos_as_xyz
  1  'x, y, z'
loop_
 _atom_site_type_symbol
 _atom_site_label
 _atom_site_symmetry_multiplicity
 _atom_site_fract_x
 _atom_site_fract_y
 _atom_site_fract_z
 _atom_site_occupancy
  Mo  Mo0  1  0.000000  0.500000  0.500000  1
  Mo  Mo1  1  0.500000  0.500000  0.000000  1
  F  F2  1  0.858057  0.787183  0.977442  1
  F  F3  1  0.358057  0.212817  0.522558  1
  F  F4  1  0.141943  0.212817  0.022558  1
  F  F5  1  0.641943  0.787183  0.477442  1
  F  F6  1  0.850916  0.004373  0.097678  1
  F  F7  1  0.350916  0.995627  0.402322  1
  F  F8  1  0.149084  0.995627  0.902322  1
  F  F9  1  0.649084  0.004373  0.597678  1
  F  F10  1  0.071784  0.635840  0.281408  1
  F  F11  1  0.571784  0.364160  0.218592  1
  F  F12  1  0.928216  0.364160  0.718592  1
  F  F13  1  0.428216  0.635840  0.781408  1
  F  F14  1  0.866141  0.379197  0.357006  1
  F  F15  1  0.366141  0.620803  0.142994  1
  F  F16  1  0.133859  0.620803  0.642994  1
  F  F17  1  0.633859  0.379197  0.857006  1
  F  F18  1  0.085423  0.196357  0.458842  1
  F  F19  1  0.585423  0.803643  0.041158  1
  F  F20  1  0.414577  0.196357  0.958842  1
  F  F21  1  0.914577  0.803643  0.541158  1
