# generated using pymatgen
data_Eu2SiRh2
_symmetry_space_group_name_H-M   'P 1'
_cell_length_a   5.83957670
_cell_length_b   5.83957733
_cell_length_c   7.49544069
_cell_angle_alpha   100.48092180
_cell_angle_beta   100.48092638
_cell_angle_gamma   59.97157612
_symmetry_Int_Tables_number   1
_chemical_formula_structural   Eu2SiRh2
_chemical_formula_sum   'Eu4 Si2 Rh4'
_cell_volume   216.35677832
_cell_formula_units_Z   2
loop_
 _symmetry_equiv_pos_site_id
 _symmetry_equiv_pos_as_xyz
  1  'x, y, z'
loop_
 _atom_site_type_symbol
 _atom_site_label
 _atom_site_symmetry_multiplicity
 _atom_site_fract_x
 _atom_site_fract_y
 _atom_site_fract_z
 _atom_site_occupancy
  Eu  Eu0  1  0.019440  0.276727  0.145396  1
  Eu  Eu1  1  0.723273  0.980560  0.354605  1
  Eu  Eu2  1  0.276727  0.019440  0.645396  1
  Eu  Eu3  1  0.980560  0.723273  0.854604  1
  Si  Si4  1  0.410260  0.589739  0.250000  1
  Si  Si5  1  0.589740  0.410261  0.749999  1
  Rh  Rh6  1  0.494717  0.754440  0.007910  1
  Rh  Rh7  1  0.245560  0.505283  0.492090  1
  Rh  Rh8  1  0.754440  0.494717  0.507910  1
  Rh  Rh9  1  0.505283  0.245560  0.992090  1
