# generated using pymatgen
data_Re3Tc(As2S)3
_symmetry_space_group_name_H-M   'P 1'
_cell_length_a   7.09034091
_cell_length_b   7.09034122
_cell_length_c   7.09034024
_cell_angle_alpha   59.88144339
_cell_angle_beta   59.88144250
_cell_angle_gamma   59.88144277
_symmetry_Int_Tables_number   1
_chemical_formula_structural   Re3Tc(As2S)3
_chemical_formula_sum   'Re3 Tc1 As6 S3'
_cell_volume   251.37177483
_cell_formula_units_Z   1
loop_
 _symmetry_equiv_pos_site_id
 _symmetry_equiv_pos_as_xyz
  1  'x, y, z'
loop_
 _atom_site_type_symbol
 _atom_site_label
 _atom_site_symmetry_multiplicity
 _atom_site_fract_x
 _atom_site_fract_y
 _atom_site_fract_z
 _atom_site_occupancy
  Re  Re0  1  0.398740  0.795886  0.398740  1
  Re  Re1  1  0.795886  0.398740  0.398740  1
  Re  Re2  1  0.398740  0.398740  0.795886  1
  Tc  Tc3  1  0.400064  0.400064  0.400064  1
  As  As4  1  0.999575  0.999575  0.999575  1
  As  As5  1  0.143190  0.143190  0.143190  1
  As  As6  1  0.143374  0.567146  0.143374  1
  As  As7  1  0.567146  0.143374  0.143374  1
  As  As8  1  0.143374  0.143374  0.567146  1
  As  As9  1  0.639992  0.639992  0.639992  1
  S  S10  1  0.631321  0.107279  0.631321  1
  S  S11  1  0.107279  0.631321  0.631321  1
  S  S12  1  0.631321  0.631321  0.107279  1
