# generated using pymatgen
data_ZrFeI6
_symmetry_space_group_name_H-M   'P 1'
_cell_length_a   7.73222300
_cell_length_b   7.73222228
_cell_length_c   6.61971000
_cell_angle_alpha   90.00000000
_cell_angle_beta   90.00000000
_cell_angle_gamma   119.99999881
_symmetry_Int_Tables_number   1
_chemical_formula_structural   ZrFeI6
_chemical_formula_sum   'Zr1 Fe1 I6'
_cell_volume   342.75066164
_cell_formula_units_Z   1
loop_
 _symmetry_equiv_pos_site_id
 _symmetry_equiv_pos_as_xyz
  1  'x, y, z'
loop_
 _atom_site_type_symbol
 _atom_site_label
 _atom_site_symmetry_multiplicity
 _atom_site_fract_x
 _atom_site_fract_y
 _atom_site_fract_z
 _atom_site_occupancy
  Zr  Zr0  1  0.000000  0.000000  0.500000  1
  Fe  Fe1  1  0.000000  0.000000  0.000000  1
  I  I2  1  0.299994  0.000000  0.244159  1
  I  I3  1  0.299994  0.299994  0.755841  1
  I  I4  1  0.000000  0.700006  0.755841  1
  I  I5  1  0.000000  0.299994  0.244159  1
  I  I6  1  0.700006  0.700006  0.244159  1
  I  I7  1  0.700006  0.000000  0.755841  1
