# generated using pymatgen
data_Lu9Al(GeB4)4
_symmetry_space_group_name_H-M   'P 1'
_cell_length_a   7.08699000
_cell_length_b   7.08699000
_cell_length_c   7.83079800
_cell_angle_alpha   90.00000000
_cell_angle_beta   90.00000000
_cell_angle_gamma   90.00000000
_symmetry_Int_Tables_number   1
_chemical_formula_structural   Lu9Al(GeB4)4
_chemical_formula_sum   'Lu9 Al1 Ge4 B16'
_cell_volume   393.30517534
_cell_formula_units_Z   1
loop_
 _symmetry_equiv_pos_site_id
 _symmetry_equiv_pos_as_xyz
  1  'x, y, z'
loop_
 _atom_site_type_symbol
 _atom_site_label
 _atom_site_symmetry_multiplicity
 _atom_site_fract_x
 _atom_site_fract_y
 _atom_site_fract_z
 _atom_site_occupancy
  Lu  Lu0  1  0.681651  0.179134  0.223041  1
  Lu  Lu1  1  0.318349  0.820866  0.776959  1
  Lu  Lu2  1  0.318349  0.820866  0.223041  1
  Lu  Lu3  1  0.820866  0.681651  0.223041  1
  Lu  Lu4  1  0.820866  0.681651  0.776959  1
  Lu  Lu5  1  0.681651  0.179134  0.776959  1
  Lu  Lu6  1  0.179134  0.318349  0.776959  1
  Lu  Lu7  1  0.179134  0.318349  0.223041  1
  Lu  Lu8  1  0.500000  0.500000  0.500000  1
  Al  Al9  1  0.000000  0.000000  0.500000  1
  Ge  Ge10  1  0.120822  0.627761  0.500000  1
  Ge  Ge11  1  0.879178  0.372239  0.500000  1
  Ge  Ge12  1  0.372239  0.120822  0.500000  1
  Ge  Ge13  1  0.627761  0.879178  0.500000  1
  B  B14  1  0.174414  0.040122  0.000000  1
  B  B15  1  0.825586  0.959878  0.000000  1
  B  B16  1  0.959878  0.174414  0.000000  1
  B  B17  1  0.326799  0.539645  0.000000  1
  B  B18  1  0.040122  0.825586  0.000000  1
  B  B19  1  0.673201  0.460355  0.000000  1
  B  B20  1  0.539645  0.673201  0.000000  1
  B  B21  1  0.460355  0.326799  0.000000  1
  B  B22  1  0.089740  0.588504  0.000000  1
  B  B23  1  0.910260  0.411496  0.000000  1
  B  B24  1  0.411496  0.089740  0.000000  1
  B  B25  1  0.588504  0.910260  0.000000  1
  B  B26  1  0.000000  0.000000  0.167472  1
  B  B27  1  0.000000  0.000000  0.832528  1
  B  B28  1  0.500000  0.500000  0.831220  1
  B  B29  1  0.500000  0.500000  0.168780  1
