# generated using pymatgen
data_Zr5Sc3Nb11VSi16
_symmetry_space_group_name_H-M   'P 1'
_cell_length_a   6.88546459
_cell_length_b   6.89119702
_cell_length_c   12.74939897
_cell_angle_alpha   90.11361924
_cell_angle_beta   89.87249515
_cell_angle_gamma   89.90983797
_symmetry_Int_Tables_number   1
_chemical_formula_structural   Zr5Sc3Nb11VSi16
_chemical_formula_sum   'Zr5 Sc3 Nb11 V1 Si16'
_cell_volume   604.94397724
_cell_formula_units_Z   1
loop_
 _symmetry_equiv_pos_site_id
 _symmetry_equiv_pos_as_xyz
  1  'x, y, z'
loop_
 _atom_site_type_symbol
 _atom_site_label
 _atom_site_symmetry_multiplicity
 _atom_site_fract_x
 _atom_site_fract_y
 _atom_site_fract_z
 _atom_site_occupancy
  Zr  Zr0  1  0.002662  0.659414  0.033067  1
  Zr  Zr1  1  0.839913  0.502862  0.282554  1
  Zr  Zr2  1  0.159393  0.498272  0.782118  1
  Zr  Zr3  1  0.502648  0.840996  0.715843  1
  Zr  Zr4  1  0.497065  0.159500  0.218271  1
  Sc  Sc5  1  0.998606  0.340657  0.529829  1
  Sc  Sc6  1  0.660908  0.001488  0.969628  1
  Sc  Sc7  1  0.338953  0.998958  0.469494  1
  Nb  Nb8  1  0.329485  0.331954  0.999905  1
  Nb  Nb9  1  0.168948  0.831716  0.251193  1
  Nb  Nb10  1  0.830266  0.169521  0.748969  1
  Nb  Nb11  1  0.670307  0.668094  0.499127  1
  Nb  Nb12  1  0.003823  0.154453  0.126961  1
  Nb  Nb13  1  0.347030  0.504231  0.375441  1
  Nb  Nb14  1  0.652541  0.495518  0.875560  1
  Nb  Nb15  1  0.507320  0.345690  0.623423  1
  Nb  Nb16  1  0.496023  0.655264  0.125073  1
  Nb  Nb17  1  0.996536  0.846297  0.627535  1
  Nb  Nb18  1  0.152459  0.004547  0.873472  1
  V  V19  1  0.845314  0.991824  0.372371  1
  Si  Si20  1  0.299882  0.957060  0.062833  1
  Si  Si21  1  0.546507  0.803646  0.316370  1
  Si  Si22  1  0.457808  0.198888  0.813640  1
  Si  Si23  1  0.801190  0.542393  0.685106  1
  Si  Si24  1  0.201636  0.455861  0.187938  1
  Si  Si25  1  0.704942  0.041788  0.557851  1
  Si  Si26  1  0.954406  0.297978  0.937100  1
  Si  Si27  1  0.040478  0.707217  0.436774  1
  Si  Si28  1  0.706511  0.365331  0.072786  1
  Si  Si29  1  0.126496  0.202443  0.324744  1
  Si  Si30  1  0.863151  0.793162  0.822309  1
  Si  Si31  1  0.206981  0.136758  0.676952  1
  Si  Si32  1  0.793378  0.868003  0.181871  1
  Si  Si33  1  0.292311  0.634010  0.571200  1
  Si  Si34  1  0.365902  0.708619  0.927579  1
  Si  Si35  1  0.638219  0.285585  0.425114  1
