# generated using pymatgen
data_La4Cu2Sb8Pd
_symmetry_space_group_name_H-M   'P 1'
_cell_length_a   11.06025795
_cell_length_b   11.06025798
_cell_length_c   11.06025794
_cell_angle_alpha   146.81174229
_cell_angle_beta   146.83227203
_cell_angle_gamma   47.62740465
_symmetry_Int_Tables_number   1
_chemical_formula_structural   La4Cu2Sb8Pd
_chemical_formula_sum   'La4 Cu2 Sb8 Pd1'
_cell_volume   403.58703335
_cell_formula_units_Z   1
loop_
 _symmetry_equiv_pos_site_id
 _symmetry_equiv_pos_as_xyz
  1  'x, y, z'
loop_
 _atom_site_type_symbol
 _atom_site_label
 _atom_site_symmetry_multiplicity
 _atom_site_fract_x
 _atom_site_fract_y
 _atom_site_fract_z
 _atom_site_occupancy
  La  La0  1  0.633050  0.630599  0.501373  1
  La  La1  1  0.129225  0.131676  0.498627  1
  La  La2  1  0.366950  0.868324  0.997549  1
  La  La3  1  0.870775  0.369401  0.002451  1
  Cu  Cu4  1  0.000000  0.000000  0.000000  1
  Cu  Cu5  1  0.500000  0.000000  0.500000  1
  Sb  Sb6  1  0.328504  0.319231  0.505832  1
  Sb  Sb7  1  0.813399  0.822671  0.494168  1
  Sb  Sb8  1  0.671496  0.177329  0.990728  1
  Sb  Sb9  1  0.186601  0.680769  0.009272  1
  Sb  Sb10  1  0.249819  0.249819  0.000000  1
  Sb  Sb11  1  0.750181  0.750181  0.000000  1
  Sb  Sb12  1  0.749777  0.249777  0.500000  1
  Sb  Sb13  1  0.250223  0.750223  0.500000  1
  Pd  Pd14  1  0.000000  0.500000  0.500000  1
