# generated using pymatgen
data_Yb3ErBi3
_symmetry_space_group_name_H-M   'P 1'
_cell_length_a   8.16637577
_cell_length_b   8.34649498
_cell_length_c   8.34649429
_cell_angle_alpha   109.90424120
_cell_angle_beta   109.03465009
_cell_angle_gamma   109.03465504
_symmetry_Int_Tables_number   1
_chemical_formula_structural   Yb3ErBi3
_chemical_formula_sum   'Yb6 Er2 Bi6'
_cell_volume   440.27830131
_cell_formula_units_Z   2
loop_
 _symmetry_equiv_pos_site_id
 _symmetry_equiv_pos_as_xyz
  1  'x, y, z'
loop_
 _atom_site_type_symbol
 _atom_site_label
 _atom_site_symmetry_multiplicity
 _atom_site_fract_x
 _atom_site_fract_y
 _atom_site_fract_z
 _atom_site_occupancy
  Yb  Yb0  1  0.500815  0.999162  0.647052  1
  Yb  Yb1  1  0.353763  0.352110  0.352948  1
  Yb  Yb2  1  0.501653  0.000838  0.147890  1
  Yb  Yb3  1  0.001653  0.647890  0.500838  1
  Yb  Yb4  1  0.853763  0.852948  0.852110  1
  Yb  Yb5  1  0.000815  0.147052  0.499162  1
  Er  Er6  1  0.142236  0.500000  0.000000  1
  Er  Er7  1  0.642236  0.500000  0.000000  1
  Bi  Bi8  1  0.377000  0.622816  0.756651  1
  Bi  Bi9  1  0.877000  0.256651  0.122816  1
  Bi  Bi10  1  0.620349  0.743349  0.366165  1
  Bi  Bi11  1  0.120349  0.866165  0.243349  1
  Bi  Bi12  1  0.254184  0.133835  0.877184  1
  Bi  Bi13  1  0.754184  0.377184  0.633835  1
