# generated using pymatgen
data_HoEr4U(SnIr)6
_symmetry_space_group_name_H-M   'P 1'
_cell_length_a   7.48838358
_cell_length_b   7.56567423
_cell_length_c   7.76160700
_cell_angle_alpha   90.00000000
_cell_angle_beta   90.00000000
_cell_angle_gamma   120.37291213
_symmetry_Int_Tables_number   1
_chemical_formula_structural   HoEr4U(SnIr)6
_chemical_formula_sum   'Ho1 Er4 U1 Sn6 Ir6'
_cell_volume   379.37940558
_cell_formula_units_Z   1
loop_
 _symmetry_equiv_pos_site_id
 _symmetry_equiv_pos_as_xyz
  1  'x, y, z'
loop_
 _atom_site_type_symbol
 _atom_site_label
 _atom_site_symmetry_multiplicity
 _atom_site_fract_x
 _atom_site_fract_y
 _atom_site_fract_z
 _atom_site_occupancy
  Ho  Ho0  1  0.594665  0.591958  0.750000  1
  Er  Er1  1  0.402595  0.003108  0.250000  1
  Er  Er2  1  0.598398  0.599997  0.250000  1
  Er  Er3  1  0.000863  0.404622  0.750000  1
  Er  Er4  1  0.404631  0.996656  0.750000  1
  U  U5  1  0.998948  0.412434  0.250000  1
  Sn  Sn6  1  0.268403  0.261491  0.500948  1
  Sn  Sn7  1  0.268403  0.261491  0.999052  1
  Sn  Sn8  1  0.731393  0.992798  0.998469  1
  Sn  Sn9  1  0.000289  0.746577  0.499417  1
  Sn  Sn10  1  0.731393  0.992798  0.501531  1
  Sn  Sn11  1  0.000289  0.746577  0.000583  1
  Ir  Ir12  1  0.685829  0.336197  0.487397  1
  Ir  Ir13  1  0.685829  0.336197  0.012603  1
  Ir  Ir14  1  0.313727  0.650540  0.014942  1
  Ir  Ir15  1  0.313727  0.650540  0.485058  1
  Ir  Ir16  1  0.000778  0.000656  0.750000  1
  Ir  Ir17  1  0.999843  0.015365  0.250000  1
