# generated using pymatgen
data_TmLu3(Hf4Pb5)2
_symmetry_space_group_name_H-M   'P 1'
_cell_length_a   6.02177881
_cell_length_b   9.12766658
_cell_length_c   11.29750807
_cell_angle_alpha   113.84254058
_cell_angle_beta   105.45664861
_cell_angle_gamma   90.00000211
_symmetry_Int_Tables_number   1
_chemical_formula_structural   TmLu3(Hf4Pb5)2
_chemical_formula_sum   'Tm1 Lu3 Hf8 Pb10'
_cell_volume   543.32689873
_cell_formula_units_Z   1
loop_
 _symmetry_equiv_pos_site_id
 _symmetry_equiv_pos_as_xyz
  1  'x, y, z'
loop_
 _atom_site_type_symbol
 _atom_site_label
 _atom_site_symmetry_multiplicity
 _atom_site_fract_x
 _atom_site_fract_y
 _atom_site_fract_z
 _atom_site_occupancy
  Tm  Tm0  1  0.143965  0.253557  0.287929  1
  Lu  Lu1  1  0.856019  0.746466  0.712038  1
  Lu  Lu2  1  0.643989  0.034331  0.287978  1
  Lu  Lu3  1  0.356024  0.965572  0.712048  1
  Hf  Hf4  1  0.562134  0.312117  0.624267  1
  Hf  Hf5  1  0.437865  0.687833  0.375765  1
  Hf  Hf6  1  0.937899  0.687833  0.375765  1
  Hf  Hf7  1  0.062134  0.312117  0.624267  1
  Hf  Hf8  1  0.433988  0.671747  0.867975  1
  Hf  Hf9  1  0.565981  0.328328  0.131962  1
  Hf  Hf10  1  0.934046  0.196274  0.868093  1
  Hf  Hf11  1  0.066002  0.803723  0.132004  1
  Pb  Pb12  1  0.288771  0.590935  0.577542  1
  Pb  Pb13  1  0.711283  0.409242  0.422566  1
  Pb  Pb14  1  0.788706  0.986631  0.577411  1
  Pb  Pb15  1  0.211330  0.013181  0.422659  1
  Pb  Pb16  1  0.250035  0.999923  0.999932  1
  Pb  Pb17  1  0.749898  0.999923  0.999932  1
  Pb  Pb18  1  0.067133  0.461139  0.134266  1
  Pb  Pb19  1  0.932801  0.539142  0.865602  1
  Pb  Pb20  1  0.567201  0.673541  0.134402  1
  Pb  Pb21  1  0.432797  0.326444  0.865595  1
