# generated using pymatgen
data_ThNi6(BIr)6
_symmetry_space_group_name_H-M   'P 1'
_cell_length_a   6.31780046
_cell_length_b   6.31780119
_cell_length_c   6.31780058
_cell_angle_alpha   103.63712933
_cell_angle_beta   103.63713097
_cell_angle_gamma   103.63713387
_symmetry_Int_Tables_number   1
_chemical_formula_structural   ThNi6(BIr)6
_chemical_formula_sum   'Th1 Ni6 B6 Ir6'
_cell_volume   226.53773853
_cell_formula_units_Z   1
loop_
 _symmetry_equiv_pos_site_id
 _symmetry_equiv_pos_as_xyz
  1  'x, y, z'
loop_
 _atom_site_type_symbol
 _atom_site_label
 _atom_site_symmetry_multiplicity
 _atom_site_fract_x
 _atom_site_fract_y
 _atom_site_fract_z
 _atom_site_occupancy
  Th  Th0  1  0.000000  0.000000  0.000000  1
  Ni  Ni1  1  0.800475  0.546225  0.546225  1
  Ni  Ni2  1  0.546225  0.546225  0.800475  1
  Ni  Ni3  1  0.546225  0.800475  0.546225  1
  Ni  Ni4  1  0.199525  0.453775  0.453775  1
  Ni  Ni5  1  0.453775  0.453775  0.199525  1
  Ni  Ni6  1  0.453775  0.199525  0.453775  1
  B  B7  1  0.350833  0.768476  0.768476  1
  B  B8  1  0.768476  0.768476  0.350833  1
  B  B9  1  0.768476  0.350833  0.768476  1
  B  B10  1  0.649167  0.231524  0.231524  1
  B  B11  1  0.231524  0.231524  0.649167  1
  B  B12  1  0.231524  0.649167  0.231524  1
  Ir  Ir13  1  0.861706  0.138294  0.500000  1
  Ir  Ir14  1  0.138294  0.500000  0.861706  1
  Ir  Ir15  1  0.500000  0.861706  0.138294  1
  Ir  Ir16  1  0.861706  0.500000  0.138294  1
  Ir  Ir17  1  0.500000  0.138294  0.861706  1
  Ir  Ir18  1  0.138294  0.861706  0.500000  1
