# generated using pymatgen
data_KRbLiCrH6
_symmetry_space_group_name_H-M   'P 1'
_cell_length_a   9.87198956
_cell_length_b   9.87198843
_cell_length_c   9.87198909
_cell_angle_alpha   34.08829151
_cell_angle_beta   34.08830388
_cell_angle_gamma   34.08829001
_symmetry_Int_Tables_number   1
_chemical_formula_structural   KRbLiCrH6
_chemical_formula_sum   'K2 Rb2 Li2 Cr2 H12'
_cell_volume   269.42838570
_cell_formula_units_Z   2
loop_
 _symmetry_equiv_pos_site_id
 _symmetry_equiv_pos_as_xyz
  1  'x, y, z'
loop_
 _atom_site_type_symbol
 _atom_site_label
 _atom_site_symmetry_multiplicity
 _atom_site_fract_x
 _atom_site_fract_y
 _atom_site_fract_z
 _atom_site_occupancy
  K  K0  1  0.127441  0.127441  0.127441  1
  K  K1  1  0.872559  0.872559  0.872559  1
  Rb  Rb2  1  0.283888  0.283888  0.283888  1
  Rb  Rb3  1  0.716112  0.716112  0.716112  1
  Li  Li4  1  0.406815  0.406815  0.406815  1
  Li  Li5  1  0.593185  0.593185  0.593185  1
  Cr  Cr6  1  0.000000  0.000000  0.000000  1
  Cr  Cr7  1  0.500000  0.500000  0.500000  1
  H  H8  1  0.181774  0.181774  0.744207  1
  H  H9  1  0.744207  0.181774  0.181774  1
  H  H10  1  0.181774  0.744207  0.181774  1
  H  H11  1  0.818226  0.255793  0.818226  1
  H  H12  1  0.818226  0.818226  0.255793  1
  H  H13  1  0.255793  0.818226  0.818226  1
  H  H14  1  0.402506  0.402506  0.810377  1
  H  H15  1  0.810377  0.402506  0.402506  1
  H  H16  1  0.189623  0.597494  0.597494  1
  H  H17  1  0.597494  0.597494  0.189623  1
  H  H18  1  0.597494  0.189623  0.597494  1
  H  H19  1  0.402506  0.810377  0.402506  1
