# generated using pymatgen
data_Ca4La3PrZn8
_symmetry_space_group_name_H-M   'P 1'
_cell_length_a   7.40351919
_cell_length_b   5.26897800
_cell_length_c   10.50513815
_cell_angle_alpha   90.00000000
_cell_angle_beta   89.94621830
_cell_angle_gamma   90.00000000
_symmetry_Int_Tables_number   1
_chemical_formula_structural   Ca4La3PrZn8
_chemical_formula_sum   'Ca4 La3 Pr1 Zn8'
_cell_volume   409.79454078
_cell_formula_units_Z   1
loop_
 _symmetry_equiv_pos_site_id
 _symmetry_equiv_pos_as_xyz
  1  'x, y, z'
loop_
 _atom_site_type_symbol
 _atom_site_label
 _atom_site_symmetry_multiplicity
 _atom_site_fract_x
 _atom_site_fract_y
 _atom_site_fract_z
 _atom_site_occupancy
  Ca  Ca0  1  0.749796  0.250000  0.123914  1
  Ca  Ca1  1  0.249745  0.750000  0.375819  1
  Ca  Ca2  1  0.750245  0.250000  0.623887  1
  Ca  Ca3  1  0.250232  0.750000  0.876429  1
  La  La4  1  0.749810  0.750000  0.376071  1
  La  La5  1  0.250218  0.250000  0.624173  1
  La  La6  1  0.750140  0.750000  0.875543  1
  Pr  Pr7  1  0.249789  0.250000  0.124320  1
  Zn  Zn8  1  0.498157  0.750000  0.127023  1
  Zn  Zn9  1  0.001421  0.750000  0.127109  1
  Zn  Zn10  1  0.499228  0.250000  0.371969  1
  Zn  Zn11  1  0.000388  0.250000  0.372042  1
  Zn  Zn12  1  0.000437  0.750000  0.627208  1
  Zn  Zn13  1  0.499940  0.750000  0.627268  1
  Zn  Zn14  1  0.000666  0.250000  0.873578  1
  Zn  Zn15  1  0.499787  0.250000  0.873644  1
