# generated using pymatgen
data_Dy5Y15(Hg3Ru)2
_symmetry_space_group_name_H-M   'P 1'
_cell_length_a   9.66104125
_cell_length_b   9.65934031
_cell_length_c   9.70640660
_cell_angle_alpha   90.00001621
_cell_angle_beta   89.94290784
_cell_angle_gamma   119.99414349
_symmetry_Int_Tables_number   1
_chemical_formula_structural   Dy5Y15(Hg3Ru)2
_chemical_formula_sum   'Dy5 Y15 Hg6 Ru2'
_cell_volume   784.48718652
_cell_formula_units_Z   1
loop_
 _symmetry_equiv_pos_site_id
 _symmetry_equiv_pos_as_xyz
  1  'x, y, z'
loop_
 _atom_site_type_symbol
 _atom_site_label
 _atom_site_symmetry_multiplicity
 _atom_site_fract_x
 _atom_site_fract_y
 _atom_site_fract_z
 _atom_site_occupancy
  Dy  Dy0  1  0.209659  0.790076  0.439401  1
  Dy  Dy1  1  0.209658  0.419581  0.439401  1
  Dy  Dy2  1  0.580387  0.790193  0.439442  1
  Dy  Dy3  1  0.790257  0.209851  0.560693  1
  Dy  Dy4  1  0.790257  0.580406  0.560693  1
  Y  Y5  1  0.999773  0.999886  0.499896  1
  Y  Y6  1  0.999984  0.999992  0.000004  1
  Y  Y7  1  0.418741  0.209371  0.559977  1
  Y  Y8  1  0.790542  0.209371  0.939665  1
  Y  Y9  1  0.790543  0.581173  0.939665  1
  Y  Y10  1  0.418948  0.209474  0.939799  1
  Y  Y11  1  0.209386  0.790548  0.060299  1
  Y  Y12  1  0.209386  0.418838  0.060298  1
  Y  Y13  1  0.581161  0.790581  0.060282  1
  Y  Y14  1  0.541108  0.458962  0.250289  1
  Y  Y15  1  0.541108  0.082147  0.250288  1
  Y  Y16  1  0.917768  0.458885  0.250419  1
  Y  Y17  1  0.458876  0.541231  0.749661  1
  Y  Y18  1  0.458876  0.917645  0.749660  1
  Y  Y19  1  0.082227  0.541112  0.749567  1
  Hg  Hg20  1  0.881354  0.118722  0.249945  1
  Hg  Hg21  1  0.881352  0.762632  0.249945  1
  Hg  Hg22  1  0.237451  0.118726  0.249971  1
  Hg  Hg23  1  0.118704  0.881261  0.750020  1
  Hg  Hg24  1  0.118705  0.237442  0.750020  1
  Hg  Hg25  1  0.762579  0.881289  0.750082  1
  Ru  Ru26  1  0.333381  0.666687  0.252197  1
  Ru  Ru27  1  0.667828  0.333917  0.748421  1
