# generated using pymatgen
data_UPO6
_symmetry_space_group_name_H-M   'P 1'
_cell_length_a   6.10591200
_cell_length_b   6.86382672
_cell_length_c   13.10080718
_cell_angle_alpha   76.39340750
_cell_angle_beta   90.00000000
_cell_angle_gamma   90.00000000
_symmetry_Int_Tables_number   1
_chemical_formula_structural   UPO6
_chemical_formula_sum   'U4 P4 O24'
_cell_volume   533.64402809
_cell_formula_units_Z   4
loop_
 _symmetry_equiv_pos_site_id
 _symmetry_equiv_pos_as_xyz
  1  'x, y, z'
loop_
 _atom_site_type_symbol
 _atom_site_label
 _atom_site_symmetry_multiplicity
 _atom_site_fract_x
 _atom_site_fract_y
 _atom_site_fract_z
 _atom_site_occupancy
  U  U0  1  0.253613  0.319142  0.836637  1
  U  U1  1  0.753613  0.680858  0.663363  1
  U  U2  1  0.746387  0.680858  0.163363  1
  U  U3  1  0.246387  0.319142  0.336637  1
  P  P4  1  0.959719  0.220294  0.605120  1
  P  P5  1  0.459719  0.779706  0.894880  1
  P  P6  1  0.040281  0.779706  0.394880  1
  P  P7  1  0.540281  0.220294  0.105120  1
  O  O8  1  0.998914  0.243698  0.902332  1
  O  O9  1  0.498914  0.756302  0.597668  1
  O  O10  1  0.001086  0.756302  0.097668  1
  O  O11  1  0.501086  0.243698  0.402332  1
  O  O12  1  0.011721  0.594622  0.733197  1
  O  O13  1  0.511721  0.405378  0.766803  1
  O  O14  1  0.988279  0.405378  0.266803  1
  O  O15  1  0.488279  0.594622  0.233197  1
  O  O16  1  0.211787  0.612409  0.400382  1
  O  O17  1  0.711787  0.387591  0.099618  1
  O  O18  1  0.788213  0.387591  0.599618  1
  O  O19  1  0.288213  0.612409  0.900382  1
  O  O20  1  0.065216  0.244689  0.496014  1
  O  O21  1  0.565216  0.755311  0.003986  1
  O  O22  1  0.934784  0.755311  0.503986  1
  O  O23  1  0.434784  0.244689  0.996014  1
  O  O24  1  0.148976  0.987332  0.364560  1
  O  O25  1  0.648976  0.012668  0.135440  1
  O  O26  1  0.851024  0.012668  0.635440  1
  O  O27  1  0.351024  0.987332  0.864560  1
  O  O28  1  0.363441  0.232504  0.187483  1
  O  O29  1  0.863441  0.767496  0.312517  1
  O  O30  1  0.636559  0.767496  0.812517  1
  O  O31  1  0.136559  0.232504  0.687483  1
