# generated using pymatgen
data_BeFe3ReW
_symmetry_space_group_name_H-M   'P 1'
_cell_length_a   4.63085325
_cell_length_b   4.58788809
_cell_length_c   7.56232311
_cell_angle_alpha   90.01986935
_cell_angle_beta   89.99015917
_cell_angle_gamma   119.69358057
_symmetry_Int_Tables_number   1
_chemical_formula_structural   BeFe3ReW
_chemical_formula_sum   'Be2 Fe6 Re2 W2'
_cell_volume   139.57009354
_cell_formula_units_Z   2
loop_
 _symmetry_equiv_pos_site_id
 _symmetry_equiv_pos_as_xyz
  1  'x, y, z'
loop_
 _atom_site_type_symbol
 _atom_site_label
 _atom_site_symmetry_multiplicity
 _atom_site_fract_x
 _atom_site_fract_y
 _atom_site_fract_z
 _atom_site_occupancy
  Be  Be0  1  0.830466  0.169359  0.250012  1
  Be  Be1  1  0.169534  0.338894  0.750012  1
  Fe  Fe2  1  0.999257  0.008035  0.999394  1
  Fe  Fe3  1  0.000743  0.008778  0.499394  1
  Fe  Fe4  1  0.833363  0.663217  0.250542  1
  Fe  Fe5  1  0.166637  0.829855  0.750542  1
  Fe  Fe6  1  0.658877  0.825816  0.750481  1
  Fe  Fe7  1  0.341123  0.166938  0.250481  1
  Re  Re8  1  0.669455  0.331484  0.935095  1
  Re  Re9  1  0.330545  0.662030  0.435095  1
  W  W10  1  0.331656  0.663625  0.064477  1
  W  W11  1  0.668344  0.331968  0.564477  1
