# generated using pymatgen
data_Dy4Er4Lu4Co5Sn
_symmetry_space_group_name_H-M   'P 1'
_cell_length_a   8.16633150
_cell_length_b   8.16633099
_cell_length_c   8.16633082
_cell_angle_alpha   106.72745158
_cell_angle_beta   110.62469290
_cell_angle_gamma   111.09624557
_symmetry_Int_Tables_number   1
_chemical_formula_structural   Dy4Er4Lu4Co5Sn
_chemical_formula_sum   'Dy4 Er4 Lu4 Co5 Sn1'
_cell_volume   418.51228307
_cell_formula_units_Z   1
loop_
 _symmetry_equiv_pos_site_id
 _symmetry_equiv_pos_as_xyz
  1  'x, y, z'
loop_
 _atom_site_type_symbol
 _atom_site_label
 _atom_site_symmetry_multiplicity
 _atom_site_fract_x
 _atom_site_fract_y
 _atom_site_fract_z
 _atom_site_occupancy
  Dy  Dy0  1  0.194156  0.212045  0.406201  1
  Dy  Dy1  1  0.805844  0.787955  0.593799  1
  Dy  Dy2  1  0.194156  0.787955  0.982111  1
  Dy  Dy3  1  0.805844  0.212045  0.017889  1
  Er  Er4  1  0.474854  0.289669  0.185185  1
  Er  Er5  1  0.104485  0.289669  0.814815  1
  Er  Er6  1  0.895515  0.710331  0.185185  1
  Er  Er7  1  0.525146  0.710331  0.814815  1
  Lu  Lu8  1  0.307231  0.622424  0.315193  1
  Lu  Lu9  1  0.307231  0.992039  0.684807  1
  Lu  Lu10  1  0.692769  0.377576  0.684807  1
  Lu  Lu11  1  0.692769  0.007961  0.315193  1
  Co  Co12  1  0.500000  0.613240  0.113240  1
  Co  Co13  1  0.500000  0.386760  0.886760  1
  Co  Co14  1  0.377174  0.000000  0.377174  1
  Co  Co15  1  0.622826  0.000000  0.622826  1
  Co  Co16  1  0.000000  0.000000  0.000000  1
  Sn  Sn17  1  0.000000  0.500000  0.500000  1
