# generated using pymatgen
data_SrAs12IrRu3
_symmetry_space_group_name_H-M   'P 1'
_cell_length_a   7.47572168
_cell_length_b   7.47572076
_cell_length_c   7.47572132
_cell_angle_alpha   109.42687495
_cell_angle_beta   109.42688278
_cell_angle_gamma   109.42688552
_symmetry_Int_Tables_number   1
_chemical_formula_structural   SrAs12IrRu3
_chemical_formula_sum   'Sr1 As12 Ir1 Ru3'
_cell_volume   322.14271529
_cell_formula_units_Z   1
loop_
 _symmetry_equiv_pos_site_id
 _symmetry_equiv_pos_as_xyz
  1  'x, y, z'
loop_
 _atom_site_type_symbol
 _atom_site_label
 _atom_site_symmetry_multiplicity
 _atom_site_fract_x
 _atom_site_fract_y
 _atom_site_fract_z
 _atom_site_occupancy
  Sr  Sr0  1  0.000000  0.000000  0.000000  1
  As  As1  1  0.853401  0.650463  0.499667  1
  As  As2  1  0.146599  0.349537  0.500333  1
  As  As3  1  0.150491  0.649666  0.799882  1
  As  As4  1  0.849509  0.350334  0.200118  1
  As  As5  1  0.650463  0.499667  0.853401  1
  As  As6  1  0.349537  0.500333  0.146599  1
  As  As7  1  0.649666  0.799882  0.150491  1
  As  As8  1  0.350334  0.200118  0.849509  1
  As  As9  1  0.499667  0.853401  0.650463  1
  As  As10  1  0.500333  0.146599  0.349537  1
  As  As11  1  0.200118  0.849509  0.350334  1
  As  As12  1  0.799882  0.150491  0.649666  1
  Ir  Ir13  1  0.500000  0.500000  0.500000  1
  Ru  Ru14  1  0.500000  0.000000  0.000000  1
  Ru  Ru15  1  0.000000  0.500000  0.000000  1
  Ru  Ru16  1  0.000000  0.000000  0.500000  1
