# generated using pymatgen
data_PmNd(CuSi)2
_symmetry_space_group_name_H-M   'P 1'
_cell_length_a   5.84377577
_cell_length_b   5.84377585
_cell_length_c   5.84377597
_cell_angle_alpha   138.81103380
_cell_angle_beta   104.88881807
_cell_angle_gamma   89.45648833
_symmetry_Int_Tables_number   1
_chemical_formula_structural   PmNd(CuSi)2
_chemical_formula_sum   'Pm1 Nd1 Cu2 Si2'
_cell_volume   121.59269236
_cell_formula_units_Z   1
loop_
 _symmetry_equiv_pos_site_id
 _symmetry_equiv_pos_as_xyz
  1  'x, y, z'
loop_
 _atom_site_type_symbol
 _atom_site_label
 _atom_site_symmetry_multiplicity
 _atom_site_fract_x
 _atom_site_fract_y
 _atom_site_fract_z
 _atom_site_occupancy
  Pm  Pm0  1  0.999938  0.000000  0.999938  1
  Nd  Nd1  1  0.499938  0.500000  0.999938  1
  Cu  Cu2  1  0.583682  0.250496  0.333187  1
  Cu  Cu3  1  0.082691  0.749503  0.333187  1
  Si  Si4  1  0.917530  0.250655  0.666875  1
  Si  Si5  1  0.416219  0.749344  0.666874  1
