# generated using pymatgen
data_TaNbPd6
_symmetry_space_group_name_H-M   'P 1'
_cell_length_a   5.56319700
_cell_length_b   13.75479331
_cell_length_c   4.92477346
_cell_angle_alpha   89.95017380
_cell_angle_beta   90.00000000
_cell_angle_gamma   90.00000000
_symmetry_Int_Tables_number   1
_chemical_formula_structural   TaNbPd6
_chemical_formula_sum   'Ta3 Nb3 Pd18'
_cell_volume   376.84660020
_cell_formula_units_Z   3
loop_
 _symmetry_equiv_pos_site_id
 _symmetry_equiv_pos_as_xyz
  1  'x, y, z'
loop_
 _atom_site_type_symbol
 _atom_site_label
 _atom_site_symmetry_multiplicity
 _atom_site_fract_x
 _atom_site_fract_y
 _atom_site_fract_z
 _atom_site_occupancy
  Ta  Ta0  1  0.000000  0.335513  0.333218  1
  Ta  Ta1  1  0.000000  0.664698  0.333796  1
  Ta  Ta2  1  0.499999  0.164323  0.666582  1
  Nb  Nb3  1  0.499999  0.499988  0.012646  1
  Nb  Nb4  1  0.499999  0.835621  0.666727  1
  Nb  Nb5  1  0.000000  0.999980  0.986820  1
  Pd  Pd6  1  0.000000  0.499873  0.021512  1
  Pd  Pd7  1  0.249135  0.167879  0.164963  1
  Pd  Pd8  1  0.750864  0.167879  0.164963  1
  Pd  Pd9  1  0.248651  0.832288  0.164890  1
  Pd  Pd10  1  0.751348  0.832288  0.164890  1
  Pd  Pd11  1  0.499999  0.334184  0.338515  1
  Pd  Pd12  1  0.499999  0.665303  0.337306  1
  Pd  Pd13  1  0.248525  0.000442  0.488933  1
  Pd  Pd14  1  0.751474  0.000442  0.488933  1
  Pd  Pd15  1  0.251549  0.499880  0.510603  1
  Pd  Pd16  1  0.748451  0.499880  0.510603  1
  Pd  Pd17  1  0.000000  0.166230  0.662078  1
  Pd  Pd18  1  0.000000  0.833799  0.661192  1
  Pd  Pd19  1  0.250996  0.332427  0.835343  1
  Pd  Pd20  1  0.749004  0.332427  0.835343  1
  Pd  Pd21  1  0.250649  0.667097  0.835815  1
  Pd  Pd22  1  0.749351  0.667097  0.835815  1
  Pd  Pd23  1  0.499999  0.000462  0.978514  1
