# generated using pymatgen
data_NaCaEu8(AlSb3)4
_symmetry_space_group_name_H-M   'P 1'
_cell_length_a   4.53015800
_cell_length_b   12.33599437
_cell_length_c   14.32187205
_cell_angle_alpha   90.22928713
_cell_angle_beta   90.00000000
_cell_angle_gamma   90.00000000
_symmetry_Int_Tables_number   1
_chemical_formula_structural   NaCaEu8(AlSb3)4
_chemical_formula_sum   'Na1 Ca1 Eu8 Al4 Sb12'
_cell_volume   800.35714018
_cell_formula_units_Z   1
loop_
 _symmetry_equiv_pos_site_id
 _symmetry_equiv_pos_as_xyz
  1  'x, y, z'
loop_
 _atom_site_type_symbol
 _atom_site_label
 _atom_site_symmetry_multiplicity
 _atom_site_fract_x
 _atom_site_fract_y
 _atom_site_fract_z
 _atom_site_occupancy
  Na  Na0  1  0.500000  0.500000  0.000000  1
  Ca  Ca1  1  0.500000  0.000000  0.500000  1
  Eu  Eu2  1  0.500000  0.090468  0.747401  1
  Eu  Eu3  1  0.500000  0.408885  0.244130  1
  Eu  Eu4  1  0.500000  0.331223  0.519337  1
  Eu  Eu5  1  0.500000  0.909532  0.252599  1
  Eu  Eu6  1  0.500000  0.170902  0.019050  1
  Eu  Eu7  1  0.500000  0.829098  0.980950  1
  Eu  Eu8  1  0.500000  0.668777  0.480663  1
  Eu  Eu9  1  0.500000  0.591115  0.755870  1
  Al  Al10  1  0.000000  0.170185  0.213110  1
  Al  Al11  1  0.000000  0.829815  0.786890  1
  Al  Al12  1  0.000000  0.670445  0.287189  1
  Al  Al13  1  0.000000  0.329555  0.712811  1
  Sb  Sb14  1  0.000000  0.844383  0.407782  1
  Sb  Sb15  1  0.000000  0.155617  0.592218  1
  Sb  Sb16  1  0.000000  0.659495  0.905303  1
  Sb  Sb17  1  0.000000  0.340505  0.094697  1
  Sb  Sb18  1  0.500000  0.338042  0.821553  1
  Sb  Sb19  1  0.500000  0.661958  0.178447  1
  Sb  Sb20  1  0.500000  0.838141  0.676313  1
  Sb  Sb21  1  0.500000  0.161859  0.323687  1
  Sb  Sb22  1  0.000000  0.520676  0.601963  1
  Sb  Sb23  1  0.000000  0.479324  0.398037  1
  Sb  Sb24  1  0.000000  0.021259  0.898447  1
  Sb  Sb25  1  0.000000  0.978741  0.101553  1
