# generated using pymatgen
data_Cs4Au6Se4S
_symmetry_space_group_name_H-M   'P 1'
_cell_length_a   10.92393664
_cell_length_b   10.85925977
_cell_length_c   5.60450520
_cell_angle_alpha   90.39361410
_cell_angle_beta   89.80435773
_cell_angle_gamma   119.80434523
_symmetry_Int_Tables_number   1
_chemical_formula_structural   Cs4Au6Se4S
_chemical_formula_sum   'Cs4 Au6 Se4 S1'
_cell_volume   576.88588814
_cell_formula_units_Z   1
loop_
 _symmetry_equiv_pos_site_id
 _symmetry_equiv_pos_as_xyz
  1  'x, y, z'
loop_
 _atom_site_type_symbol
 _atom_site_label
 _atom_site_symmetry_multiplicity
 _atom_site_fract_x
 _atom_site_fract_y
 _atom_site_fract_z
 _atom_site_occupancy
  Cs  Cs0  1  0.000000  0.003173  0.141488  1
  Cs  Cs1  1  0.000000  0.589844  0.455740  1
  Cs  Cs2  1  0.409008  0.409151  0.455195  1
  Cs  Cs3  1  0.590992  0.000143  0.455195  1
  Au  Au4  1  0.716245  0.546579  0.922416  1
  Au  Au5  1  0.453492  0.169171  0.922404  1
  Au  Au6  1  0.834300  0.284015  0.920057  1
  Au  Au7  1  0.546508  0.715679  0.922404  1
  Au  Au8  1  0.283755  0.830335  0.922416  1
  Au  Au9  1  0.165700  0.449715  0.920057  1
  Se  Se10  1  0.331490  0.663977  0.145923  1
  Se  Se11  1  0.668510  0.332486  0.145923  1
  Se  Se12  1  0.755171  0.755163  0.695903  1
  Se  Se13  1  0.244829  0.999992  0.695903  1
  S  S14  1  0.000000  0.250578  0.710968  1
