# generated using pymatgen
data_SmNbReB6
_symmetry_space_group_name_H-M   'P 1'
_cell_length_a   3.59198900
_cell_length_b   9.00733600
_cell_length_c   11.41852100
_cell_angle_alpha   90.00000000
_cell_angle_beta   90.00000000
_cell_angle_gamma   90.00000000
_symmetry_Int_Tables_number   1
_chemical_formula_structural   SmNbReB6
_chemical_formula_sum   'Sm4 Nb4 Re4 B24'
_cell_volume   369.43770398
_cell_formula_units_Z   4
loop_
 _symmetry_equiv_pos_site_id
 _symmetry_equiv_pos_as_xyz
  1  'x, y, z'
loop_
 _atom_site_type_symbol
 _atom_site_label
 _atom_site_symmetry_multiplicity
 _atom_site_fract_x
 _atom_site_fract_y
 _atom_site_fract_z
 _atom_site_occupancy
  Sm  Sm0  1  0.000000  0.322407  0.413913  1
  Sm  Sm1  1  0.000000  0.677593  0.586087  1
  Sm  Sm2  1  0.000000  0.822407  0.086087  1
  Sm  Sm3  1  0.000000  0.177593  0.913913  1
  Nb  Nb4  1  0.000000  0.945436  0.374466  1
  Nb  Nb5  1  0.000000  0.054564  0.625534  1
  Nb  Nb6  1  0.000000  0.445436  0.125534  1
  Nb  Nb7  1  0.000000  0.554564  0.874466  1
  Re  Re8  1  0.000000  0.643430  0.316935  1
  Re  Re9  1  0.000000  0.356570  0.683065  1
  Re  Re10  1  0.000000  0.143430  0.183065  1
  Re  Re11  1  0.000000  0.856570  0.816935  1
  B  B12  1  0.500000  0.555294  0.432440  1
  B  B13  1  0.500000  0.444706  0.567560  1
  B  B14  1  0.500000  0.055294  0.067560  1
  B  B15  1  0.500000  0.944706  0.932440  1
  B  B16  1  0.500000  0.754874  0.417026  1
  B  B17  1  0.500000  0.245126  0.582974  1
  B  B18  1  0.500000  0.254874  0.082974  1
  B  B19  1  0.500000  0.745126  0.917026  1
  B  B20  1  0.500000  0.796819  0.263889  1
  B  B21  1  0.500000  0.203181  0.736111  1
  B  B22  1  0.500000  0.296819  0.236111  1
  B  B23  1  0.500000  0.703181  0.763889  1
  B  B24  1  0.500000  0.628663  0.181813  1
  B  B25  1  0.500000  0.371337  0.818187  1
  B  B26  1  0.500000  0.128663  0.318187  1
  B  B27  1  0.500000  0.871337  0.681813  1
  B  B28  1  0.500000  0.982036  0.214637  1
  B  B29  1  0.500000  0.017964  0.785363  1
  B  B30  1  0.500000  0.482036  0.285363  1
  B  B31  1  0.500000  0.517964  0.714637  1
  B  B32  1  0.500000  0.597754  0.026140  1
  B  B33  1  0.500000  0.402246  0.973860  1
  B  B34  1  0.500000  0.097754  0.473860  1
  B  B35  1  0.500000  0.902246  0.526140  1
