# generated using pymatgen
data_Lu2InSnPt2
_symmetry_space_group_name_H-M   'P 1'
_cell_length_a   7.61608600
_cell_length_b   7.58905995
_cell_length_c   7.72470900
_cell_angle_alpha   89.99959231
_cell_angle_beta   89.99933798
_cell_angle_gamma   120.07610045
_symmetry_Int_Tables_number   1
_chemical_formula_structural   Lu2InSnPt2
_chemical_formula_sum   'Lu6 In3 Sn3 Pt6'
_cell_volume   386.36612082
_cell_formula_units_Z   3
loop_
 _symmetry_equiv_pos_site_id
 _symmetry_equiv_pos_as_xyz
  1  'x, y, z'
loop_
 _atom_site_type_symbol
 _atom_site_label
 _atom_site_symmetry_multiplicity
 _atom_site_fract_x
 _atom_site_fract_y
 _atom_site_fract_z
 _atom_site_occupancy
  Lu  Lu0  1  0.400289  0.999384  0.248729  1
  Lu  Lu1  1  0.599983  0.595555  0.248139  1
  Lu  Lu2  1  0.999958  0.404714  0.248488  1
  Lu  Lu3  1  0.399124  0.996740  0.751310  1
  Lu  Lu4  1  0.599048  0.597084  0.751860  1
  Lu  Lu5  1  0.002536  0.406124  0.751408  1
  In  In6  1  0.263785  0.262809  0.999939  1
  In  In7  1  0.002131  0.740141  0.000118  1
  In  In8  1  0.999434  0.733092  0.499919  1
  Sn  Sn9  1  0.732010  0.997724  0.499981  1
  Sn  Sn10  1  0.264928  0.263737  0.500115  1
  Sn  Sn11  1  0.740465  0.000887  0.000015  1
  Pt  Pt12  1  0.997759  0.002557  0.746201  1
  Pt  Pt13  1  0.997798  0.002695  0.253806  1
  Pt  Pt14  1  0.667878  0.332775  0.998513  1
  Pt  Pt15  1  0.333058  0.665192  0.498425  1
  Pt  Pt16  1  0.335971  0.668925  0.001445  1
  Pt  Pt17  1  0.663844  0.329868  0.501590  1
