# generated using pymatgen
data_Gd3MgMnC6
_symmetry_space_group_name_H-M   'P 1'
_cell_length_a   8.27162700
_cell_length_b   8.27162625
_cell_length_c   5.17037300
_cell_angle_alpha   90.00000000
_cell_angle_beta   90.00000000
_cell_angle_gamma   119.99999257
_symmetry_Int_Tables_number   1
_chemical_formula_structural   Gd3MgMnC6
_chemical_formula_sum   'Gd6 Mg2 Mn2 C12'
_cell_volume   306.36163893
_cell_formula_units_Z   2
loop_
 _symmetry_equiv_pos_site_id
 _symmetry_equiv_pos_as_xyz
  1  'x, y, z'
loop_
 _atom_site_type_symbol
 _atom_site_label
 _atom_site_symmetry_multiplicity
 _atom_site_fract_x
 _atom_site_fract_y
 _atom_site_fract_z
 _atom_site_occupancy
  Gd  Gd0  1  0.611222  0.678399  0.750000  1
  Gd  Gd1  1  0.932824  0.611222  0.250000  1
  Gd  Gd2  1  0.678399  0.067176  0.250000  1
  Gd  Gd3  1  0.321601  0.932824  0.750000  1
  Gd  Gd4  1  0.067176  0.388778  0.750000  1
  Gd  Gd5  1  0.388778  0.321601  0.250000  1
  Mg  Mg6  1  0.000000  0.000000  0.500000  1
  Mg  Mg7  1  0.000000  0.000000  0.000000  1
  Mn  Mn8  1  0.666667  0.333333  0.750000  1
  Mn  Mn9  1  0.333333  0.666667  0.250000  1
  C  C10  1  0.975967  0.755333  0.750000  1
  C  C11  1  0.220634  0.975967  0.250000  1
  C  C12  1  0.755333  0.779366  0.250000  1
  C  C13  1  0.244667  0.220634  0.750000  1
  C  C14  1  0.779366  0.024033  0.750000  1
  C  C15  1  0.024033  0.244667  0.250000  1
  C  C16  1  0.856730  0.570488  0.750000  1
  C  C17  1  0.286242  0.856730  0.250000  1
  C  C18  1  0.570488  0.713758  0.250000  1
  C  C19  1  0.429512  0.286242  0.750000  1
  C  C20  1  0.143270  0.429512  0.250000  1
  C  C21  1  0.713758  0.143270  0.750000  1
