# generated using pymatgen
data_Li3Ho3InSiGe
_symmetry_space_group_name_H-M   'P 1'
_cell_length_a   7.20966300
_cell_length_b   7.20966471
_cell_length_c   4.22908000
_cell_angle_alpha   90.00000000
_cell_angle_beta   90.00000000
_cell_angle_gamma   119.99999673
_symmetry_Int_Tables_number   1
_chemical_formula_structural   Li3Ho3InSiGe
_chemical_formula_sum   'Li3 Ho3 In1 Si1 Ge1'
_cell_volume   190.37353746
_cell_formula_units_Z   1
loop_
 _symmetry_equiv_pos_site_id
 _symmetry_equiv_pos_as_xyz
  1  'x, y, z'
loop_
 _atom_site_type_symbol
 _atom_site_label
 _atom_site_symmetry_multiplicity
 _atom_site_fract_x
 _atom_site_fract_y
 _atom_site_fract_z
 _atom_site_occupancy
  Li  Li0  1  0.251578  0.999484  0.500000  1
  Li  Li1  1  0.747906  0.748422  0.500000  1
  Li  Li2  1  0.000516  0.252094  0.500000  1
  Ho  Ho3  1  0.001489  0.557654  0.000000  1
  Ho  Ho4  1  0.556165  0.998511  0.000000  1
  Ho  Ho5  1  0.442346  0.443835  0.000000  1
  In  In6  1  0.000000  0.000000  0.000000  1
  Si  Si7  1  0.333333  0.666667  0.500000  1
  Ge  Ge8  1  0.666667  0.333333  0.500000  1
