# generated using pymatgen
data_Zr2Ta(NbSi2)2
_symmetry_space_group_name_H-M   'P 1'
_cell_length_a   6.87935100
_cell_length_b   6.87935100
_cell_length_c   12.80630500
_cell_angle_alpha   90.00000000
_cell_angle_beta   90.00000000
_cell_angle_gamma   90.00000000
_symmetry_Int_Tables_number   1
_chemical_formula_structural   Zr2Ta(NbSi2)2
_chemical_formula_sum   'Zr8 Ta4 Nb8 Si16'
_cell_volume   606.06440541
_cell_formula_units_Z   4
loop_
 _symmetry_equiv_pos_site_id
 _symmetry_equiv_pos_as_xyz
  1  'x, y, z'
loop_
 _atom_site_type_symbol
 _atom_site_label
 _atom_site_symmetry_multiplicity
 _atom_site_fract_x
 _atom_site_fract_y
 _atom_site_fract_z
 _atom_site_occupancy
  Zr  Zr0  1  0.000907  0.339773  0.218376  1
  Zr  Zr1  1  0.999093  0.660227  0.718376  1
  Zr  Zr2  1  0.160227  0.500907  0.468376  1
  Zr  Zr3  1  0.499093  0.839773  0.031624  1
  Zr  Zr4  1  0.839773  0.499093  0.968376  1
  Zr  Zr5  1  0.500907  0.160227  0.531624  1
  Zr  Zr6  1  0.339773  0.000907  0.781624  1
  Zr  Zr7  1  0.660227  0.999093  0.281624  1
  Ta  Ta8  1  0.169332  0.169332  0.000000  1
  Ta  Ta9  1  0.830668  0.830668  0.500000  1
  Ta  Ta10  1  0.330668  0.669332  0.250000  1
  Ta  Ta11  1  0.669332  0.330668  0.750000  1
  Nb  Nb12  1  0.153366  0.995239  0.375649  1
  Nb  Nb13  1  0.846634  0.004761  0.875649  1
  Nb  Nb14  1  0.504761  0.653366  0.625649  1
  Nb  Nb15  1  0.346634  0.495239  0.874351  1
  Nb  Nb16  1  0.495239  0.346634  0.125649  1
  Nb  Nb17  1  0.653366  0.504761  0.374351  1
  Nb  Nb18  1  0.995239  0.153366  0.624351  1
  Nb  Nb19  1  0.004761  0.846634  0.124351  1
  Si  Si20  1  0.299049  0.043662  0.186591  1
  Si  Si21  1  0.700951  0.956338  0.686591  1
  Si  Si22  1  0.456338  0.799049  0.436591  1
  Si  Si23  1  0.200951  0.543662  0.063409  1
  Si  Si24  1  0.543662  0.200951  0.936591  1
  Si  Si25  1  0.799049  0.456338  0.563409  1
  Si  Si26  1  0.043662  0.299049  0.813409  1
  Si  Si27  1  0.956338  0.700951  0.313409  1
  Si  Si28  1  0.366103  0.291704  0.322163  1
  Si  Si29  1  0.633897  0.708296  0.822163  1
  Si  Si30  1  0.208296  0.866103  0.572163  1
  Si  Si31  1  0.133897  0.791704  0.927837  1
  Si  Si32  1  0.791704  0.133897  0.072163  1
  Si  Si33  1  0.866103  0.208296  0.427837  1
  Si  Si34  1  0.291704  0.366103  0.677837  1
  Si  Si35  1  0.708296  0.633897  0.177837  1
