# generated using pymatgen
data_Ce4ErIrPb3
_symmetry_space_group_name_H-M   'P 1'
_cell_length_a   9.61506755
_cell_length_b   9.61506956
_cell_length_c   6.42965200
_cell_angle_alpha   90.00000000
_cell_angle_beta   90.00000000
_cell_angle_gamma   119.48647186
_symmetry_Int_Tables_number   1
_chemical_formula_structural   Ce4ErIrPb3
_chemical_formula_sum   'Ce8 Er2 Ir2 Pb6'
_cell_volume   517.42452876
_cell_formula_units_Z   2
loop_
 _symmetry_equiv_pos_site_id
 _symmetry_equiv_pos_as_xyz
  1  'x, y, z'
loop_
 _atom_site_type_symbol
 _atom_site_label
 _atom_site_symmetry_multiplicity
 _atom_site_fract_x
 _atom_site_fract_y
 _atom_site_fract_z
 _atom_site_occupancy
  Ce  Ce0  1  0.239597  0.000742  0.250000  1
  Ce  Ce1  1  0.760403  0.999258  0.750000  1
  Ce  Ce2  1  0.332611  0.667389  0.500000  1
  Ce  Ce3  1  0.667389  0.332611  0.500000  1
  Ce  Ce4  1  0.000742  0.239597  0.250000  1
  Ce  Ce5  1  0.999258  0.760403  0.750000  1
  Ce  Ce6  1  0.332611  0.667389  0.000000  1
  Ce  Ce7  1  0.667389  0.332611  0.000000  1
  Er  Er8  1  0.245101  0.245101  0.750000  1
  Er  Er9  1  0.754899  0.754899  0.250000  1
  Ir  Ir10  1  0.000000  0.000000  0.000000  1
  Ir  Ir11  1  0.000000  0.000000  0.500000  1
  Pb  Pb12  1  0.400617  0.400617  0.250000  1
  Pb  Pb13  1  0.599383  0.599383  0.750000  1
  Pb  Pb14  1  0.002582  0.397211  0.750000  1
  Pb  Pb15  1  0.602789  0.997418  0.250000  1
  Pb  Pb16  1  0.397211  0.002582  0.750000  1
  Pb  Pb17  1  0.997418  0.602789  0.250000  1
