# generated using pymatgen
data_Tb5Lu(Sc2Pb3)2
_symmetry_space_group_name_H-M   'P 1'
_cell_length_a   6.38720300
_cell_length_b   8.90060572
_cell_length_c   8.91926634
_cell_angle_alpha   120.06382328
_cell_angle_beta   90.00005726
_cell_angle_gamma   90.00017258
_symmetry_Int_Tables_number   1
_chemical_formula_structural   Tb5Lu(Sc2Pb3)2
_chemical_formula_sum   'Tb5 Lu1 Sc4 Pb6'
_cell_volume   438.84421876
_cell_formula_units_Z   1
loop_
 _symmetry_equiv_pos_site_id
 _symmetry_equiv_pos_as_xyz
  1  'x, y, z'
loop_
 _atom_site_type_symbol
 _atom_site_label
 _atom_site_symmetry_multiplicity
 _atom_site_fract_x
 _atom_site_fract_y
 _atom_site_fract_z
 _atom_site_occupancy
  Tb  Tb0  1  0.749995  0.237338  0.999792  1
  Tb  Tb1  1  0.749993  0.762710  0.761643  1
  Tb  Tb2  1  0.750010  0.000510  0.239599  1
  Tb  Tb3  1  0.249999  0.762266  0.999501  1
  Tb  Tb4  1  0.250011  0.238062  0.237849  1
  Lu  Lu5  1  0.250015  0.999586  0.762433  1
  Sc  Sc6  1  0.499824  0.333519  0.667196  1
  Sc  Sc7  1  0.499908  0.666344  0.332655  1
  Sc  Sc8  1  0.000080  0.666357  0.332674  1
  Sc  Sc9  1  0.000181  0.333544  0.667200  1
  Pb  Pb10  1  0.749981  0.600016  0.999885  1
  Pb  Pb11  1  0.749988  0.399708  0.399481  1
  Pb  Pb12  1  0.749995  0.999935  0.599715  1
  Pb  Pb13  1  0.249987  0.397162  0.997838  1
  Pb  Pb14  1  0.250015  0.603067  0.600896  1
  Pb  Pb15  1  0.250019  0.999875  0.401643  1
