# generated using pymatgen
data_Y12Co6Sn
_symmetry_space_group_name_H-M   'P 1'
_cell_length_a   8.40027806
_cell_length_b   8.40027788
_cell_length_c   8.40027800
_cell_angle_alpha   109.47122333
_cell_angle_beta   109.47122289
_cell_angle_gamma   109.47121881
_symmetry_Int_Tables_number   1
_chemical_formula_structural   Y12Co6Sn
_chemical_formula_sum   'Y12 Co6 Sn1'
_cell_volume   456.30903333
_cell_formula_units_Z   1
loop_
 _symmetry_equiv_pos_site_id
 _symmetry_equiv_pos_as_xyz
  1  'x, y, z'
loop_
 _atom_site_type_symbol
 _atom_site_label
 _atom_site_symmetry_multiplicity
 _atom_site_fract_x
 _atom_site_fract_y
 _atom_site_fract_z
 _atom_site_occupancy
  Y  Y0  1  0.805575  0.697434  0.503011  1
  Y  Y1  1  0.194425  0.302566  0.496989  1
  Y  Y2  1  0.194425  0.697434  0.891859  1
  Y  Y3  1  0.805575  0.302566  0.108141  1
  Y  Y4  1  0.697434  0.503011  0.805575  1
  Y  Y5  1  0.302566  0.496989  0.194425  1
  Y  Y6  1  0.697434  0.891859  0.194425  1
  Y  Y7  1  0.302566  0.108141  0.805575  1
  Y  Y8  1  0.503011  0.805575  0.697434  1
  Y  Y9  1  0.496989  0.194425  0.302566  1
  Y  Y10  1  0.108141  0.805575  0.302566  1
  Y  Y11  1  0.891859  0.194425  0.697434  1
  Co  Co12  1  0.887656  0.387656  0.500000  1
  Co  Co13  1  0.112344  0.612344  0.500000  1
  Co  Co14  1  0.387656  0.500000  0.887656  1
  Co  Co15  1  0.612344  0.500000  0.112344  1
  Co  Co16  1  0.500000  0.887656  0.387656  1
  Co  Co17  1  0.500000  0.112344  0.612344  1
  Sn  Sn18  1  0.000000  0.000000  0.000000  1
