# generated using pymatgen
data_Ta3Ti3Al4(CoC)2
_symmetry_space_group_name_H-M   'P 1'
_cell_length_a   8.12981693
_cell_length_b   8.13821518
_cell_length_c   8.12981749
_cell_angle_alpha   59.96583140
_cell_angle_beta   59.98830048
_cell_angle_gamma   59.96582357
_symmetry_Int_Tables_number   1
_chemical_formula_structural   Ta3Ti3Al4(CoC)2
_chemical_formula_sum   'Ta6 Ti6 Al8 Co4 C4'
_cell_volume   380.11310591
_cell_formula_units_Z   2
loop_
 _symmetry_equiv_pos_site_id
 _symmetry_equiv_pos_as_xyz
  1  'x, y, z'
loop_
 _atom_site_type_symbol
 _atom_site_label
 _atom_site_symmetry_multiplicity
 _atom_site_fract_x
 _atom_site_fract_y
 _atom_site_fract_z
 _atom_site_occupancy
  Ta  Ta0  1  0.558082  0.557578  0.942825  1
  Ta  Ta1  1  0.942825  0.557578  0.558082  1
  Ta  Ta2  1  0.558082  0.941515  0.942825  1
  Ta  Ta3  1  0.942825  0.941515  0.558082  1
  Ta  Ta4  1  0.691735  0.308265  0.691735  1
  Ta  Ta5  1  0.940118  0.559882  0.940118  1
  Ti  Ti6  1  0.560632  0.939368  0.560632  1
  Ti  Ti7  1  0.309189  0.690958  0.692144  1
  Ti  Ti8  1  0.692144  0.307709  0.309189  1
  Ti  Ti9  1  0.308130  0.691870  0.308130  1
  Ti  Ti10  1  0.692144  0.690958  0.309189  1
  Ti  Ti11  1  0.309189  0.307709  0.692144  1
  Al  Al12  1  0.919022  0.916735  0.919022  1
  Al  Al13  1  0.002897  0.333894  0.329314  1
  Al  Al14  1  0.333826  0.002048  0.333826  1
  Al  Al15  1  0.329314  0.333894  0.002897  1
  Al  Al16  1  0.919022  0.245222  0.919022  1
  Al  Al17  1  0.915221  0.919050  0.246680  1
  Al  Al18  1  0.246680  0.919050  0.915221  1
  Al  Al19  1  0.333826  0.330298  0.333826  1
  Co  Co20  1  0.125638  0.123595  0.125638  1
  Co  Co21  1  0.624466  0.128029  0.119476  1
  Co  Co22  1  0.125638  0.625130  0.125638  1
  Co  Co23  1  0.119476  0.128029  0.624466  1
  C  C24  1  0.622318  0.629900  0.622318  1
  C  C25  1  0.132977  0.622377  0.622270  1
  C  C26  1  0.622318  0.125464  0.622318  1
  C  C27  1  0.622270  0.622377  0.132977  1
