# generated using pymatgen
data_MoPd3F24
_symmetry_space_group_name_H-M   'P 1'
_cell_length_a   4.98941029
_cell_length_b   8.98822200
_cell_length_c   9.88357736
_cell_angle_alpha   90.00000000
_cell_angle_beta   89.28940683
_cell_angle_gamma   90.00000000
_symmetry_Int_Tables_number   1
_chemical_formula_structural   MoPd3F24
_chemical_formula_sum   'Mo1 Pd3 F24'
_cell_volume   443.20410407
_cell_formula_units_Z   1
loop_
 _symmetry_equiv_pos_site_id
 _symmetry_equiv_pos_as_xyz
  1  'x, y, z'
loop_
 _atom_site_type_symbol
 _atom_site_label
 _atom_site_symmetry_multiplicity
 _atom_site_fract_x
 _atom_site_fract_y
 _atom_site_fract_z
 _atom_site_occupancy
  Mo  Mo0  1  0.431870  0.250000  0.366768  1
  Pd  Pd1  1  0.066060  0.250000  0.867819  1
  Pd  Pd2  1  0.569333  0.750000  0.633903  1
  Pd  Pd3  1  0.932400  0.750000  0.131627  1
  F  F4  1  0.221399  0.750000  0.004372  1
  F  F5  1  0.390533  0.898399  0.736479  1
  F  F6  1  0.107741  0.601762  0.233308  1
  F  F7  1  0.286473  0.750000  0.507841  1
  F  F8  1  0.644686  0.750000  0.259853  1
  F  F9  1  0.891891  0.398539  0.765767  1
  F  F10  1  0.152551  0.250000  0.242228  1
  F  F11  1  0.390533  0.601601  0.736479  1
  F  F12  1  0.853598  0.750000  0.759471  1
  F  F13  1  0.255238  0.102839  0.467217  1
  F  F14  1  0.607201  0.397053  0.265944  1
  F  F15  1  0.748213  0.898627  0.531633  1
  F  F16  1  0.356659  0.250000  0.742263  1
  F  F17  1  0.107741  0.898238  0.233308  1
  F  F18  1  0.255238  0.397161  0.467217  1
  F  F19  1  0.241181  0.100693  0.968877  1
  F  F20  1  0.710756  0.250000  0.490913  1
  F  F21  1  0.777178  0.250000  0.993991  1
  F  F22  1  0.891891  0.101461  0.765767  1
  F  F23  1  0.241181  0.399307  0.968877  1
  F  F24  1  0.756520  0.601352  0.030251  1
  F  F25  1  0.756520  0.898648  0.030251  1
  F  F26  1  0.748213  0.601373  0.531633  1
  F  F27  1  0.607201  0.102947  0.265944  1
