# generated using pymatgen
data_Lu3CdCo2Sn3
_symmetry_space_group_name_H-M   'P 1'
_cell_length_a   7.56190300
_cell_length_b   7.56190403
_cell_length_c   3.72413600
_cell_angle_alpha   90.00000000
_cell_angle_beta   90.00000000
_cell_angle_gamma   119.99999987
_symmetry_Int_Tables_number   1
_chemical_formula_structural   Lu3CdCo2Sn3
_chemical_formula_sum   'Lu3 Cd1 Co2 Sn3'
_cell_volume   184.42442080
_cell_formula_units_Z   1
loop_
 _symmetry_equiv_pos_site_id
 _symmetry_equiv_pos_as_xyz
  1  'x, y, z'
loop_
 _atom_site_type_symbol
 _atom_site_label
 _atom_site_symmetry_multiplicity
 _atom_site_fract_x
 _atom_site_fract_y
 _atom_site_fract_z
 _atom_site_occupancy
  Lu  Lu0  1  0.413877  0.381287  0.500000  1
  Lu  Lu1  1  0.618713  0.032591  0.500000  1
  Lu  Lu2  1  0.967409  0.586123  0.500000  1
  Cd  Cd3  1  0.333333  0.666667  0.000000  1
  Co  Co4  1  0.666667  0.333333  0.000000  1
  Co  Co5  1  0.000000  0.000000  0.500000  1
  Sn  Sn6  1  0.748847  0.744268  0.000000  1
  Sn  Sn7  1  0.255732  0.004578  0.000000  1
  Sn  Sn8  1  0.995422  0.251153  0.000000  1
