# generated using pymatgen
data_U3Sn3IrRh2
_symmetry_space_group_name_H-M   'P 1'
_cell_length_a   7.38635500
_cell_length_b   7.38664324
_cell_length_c   4.05615100
_cell_angle_alpha   90.00000000
_cell_angle_beta   90.00000000
_cell_angle_gamma   120.00184141
_symmetry_Int_Tables_number   1
_chemical_formula_structural   U3Sn3IrRh2
_chemical_formula_sum   'U3 Sn3 Ir1 Rh2'
_cell_volume   191.65227905
_cell_formula_units_Z   1
loop_
 _symmetry_equiv_pos_site_id
 _symmetry_equiv_pos_as_xyz
  1  'x, y, z'
loop_
 _atom_site_type_symbol
 _atom_site_label
 _atom_site_symmetry_multiplicity
 _atom_site_fract_x
 _atom_site_fract_y
 _atom_site_fract_z
 _atom_site_occupancy
  U  U0  1  0.419190  0.423684  0.500000  1
  U  U1  1  0.576293  0.995484  0.500000  1
  U  U2  1  0.004501  0.580818  0.500000  1
  Sn  Sn3  1  0.750477  0.747850  0.000000  1
  Sn  Sn4  1  0.252138  0.002613  0.000000  1
  Sn  Sn5  1  0.997377  0.249526  0.000000  1
  Ir  Ir6  1  0.333332  0.666683  0.000000  1
  Rh  Rh7  1  0.666691  0.333360  0.000000  1
  Rh  Rh8  1  0.000000  0.999982  0.500000  1
