# generated using pymatgen
data_Ba2LaC2(O2F)3
_symmetry_space_group_name_H-M   'P 1'
_cell_length_a   7.17593400
_cell_length_b   9.82544900
_cell_length_c   12.06736800
_cell_angle_alpha   90.00000000
_cell_angle_beta   90.00000000
_cell_angle_gamma   90.00000000
_symmetry_Int_Tables_number   1
_chemical_formula_structural   Ba2LaC2(O2F)3
_chemical_formula_sum   'Ba8 La4 C8 O24 F12'
_cell_volume   850.83118285
_cell_formula_units_Z   4
loop_
 _symmetry_equiv_pos_site_id
 _symmetry_equiv_pos_as_xyz
  1  'x, y, z'
loop_
 _atom_site_type_symbol
 _atom_site_label
 _atom_site_symmetry_multiplicity
 _atom_site_fract_x
 _atom_site_fract_y
 _atom_site_fract_z
 _atom_site_occupancy
  Ba  Ba0  1  0.760029  0.379939  0.428712  1
  Ba  Ba1  1  0.760029  0.620061  0.071288  1
  Ba  Ba2  1  0.739971  0.879939  0.571288  1
  Ba  Ba3  1  0.739971  0.120061  0.928712  1
  Ba  Ba4  1  0.260029  0.879939  0.071288  1
  Ba  Ba5  1  0.260029  0.120061  0.428712  1
  Ba  Ba6  1  0.239971  0.379939  0.928712  1
  Ba  Ba7  1  0.239971  0.620061  0.571288  1
  La  La8  1  0.723882  0.000000  0.250000  1
  La  La9  1  0.776118  0.500000  0.750000  1
  La  La10  1  0.276118  0.000000  0.750000  1
  La  La11  1  0.223882  0.500000  0.250000  1
  C  C12  1  0.523297  0.306301  0.175944  1
  C  C13  1  0.523297  0.693699  0.324056  1
  C  C14  1  0.976703  0.806301  0.824056  1
  C  C15  1  0.976703  0.193699  0.675944  1
  C  C16  1  0.476703  0.693699  0.824056  1
  C  C17  1  0.476703  0.306301  0.675944  1
  C  C18  1  0.023297  0.193699  0.175944  1
  C  C19  1  0.023297  0.806301  0.324056  1
  O  O20  1  0.617418  0.205784  0.138086  1
  O  O21  1  0.617418  0.794216  0.361914  1
  O  O22  1  0.882582  0.705784  0.861914  1
  O  O23  1  0.882582  0.294216  0.638086  1
  O  O24  1  0.382582  0.794216  0.861914  1
  O  O25  1  0.382582  0.205784  0.638086  1
  O  O26  1  0.117418  0.294216  0.138086  1
  O  O27  1  0.117418  0.705784  0.361914  1
  O  O28  1  0.480006  0.409317  0.112437  1
  O  O29  1  0.480006  0.590683  0.387563  1
  O  O30  1  0.019994  0.909317  0.887563  1
  O  O31  1  0.019994  0.090683  0.612437  1
  O  O32  1  0.519994  0.590683  0.887563  1
  O  O33  1  0.519994  0.409317  0.612437  1
  O  O34  1  0.980006  0.090683  0.112437  1
  O  O35  1  0.980006  0.909317  0.387563  1
  O  O36  1  0.967652  0.810024  0.220521  1
  O  O37  1  0.967652  0.189976  0.279479  1
  O  O38  1  0.532348  0.310024  0.779479  1
  O  O39  1  0.532348  0.689976  0.720521  1
  O  O40  1  0.032348  0.189976  0.779479  1
  O  O41  1  0.032348  0.810024  0.720521  1
  O  O42  1  0.467652  0.689976  0.220521  1
  O  O43  1  0.467652  0.310024  0.279479  1
  F  F44  1  0.886021  0.500000  0.250000  1
  F  F45  1  0.613979  0.000000  0.750000  1
  F  F46  1  0.113979  0.500000  0.750000  1
  F  F47  1  0.386021  0.000000  0.250000  1
  F  F48  1  0.646016  0.902884  0.069808  1
  F  F49  1  0.646016  0.097116  0.430192  1
  F  F50  1  0.853984  0.402884  0.930192  1
  F  F51  1  0.853984  0.597116  0.569808  1
  F  F52  1  0.353984  0.097116  0.930192  1
  F  F53  1  0.353984  0.902884  0.569808  1
  F  F54  1  0.146016  0.597116  0.069808  1
  F  F55  1  0.146016  0.402884  0.430192  1
