# generated using pymatgen
data_Ce4Al6TcOs
_symmetry_space_group_name_H-M   'P 1'
_cell_length_a   5.51871400
_cell_length_b   5.51871442
_cell_length_c   9.04442100
_cell_angle_alpha   90.00000000
_cell_angle_beta   90.00000000
_cell_angle_gamma   119.99999751
_symmetry_Int_Tables_number   1
_chemical_formula_structural   Ce4Al6TcOs
_chemical_formula_sum   'Ce4 Al6 Tc1 Os1'
_cell_volume   238.55428440
_cell_formula_units_Z   1
loop_
 _symmetry_equiv_pos_site_id
 _symmetry_equiv_pos_as_xyz
  1  'x, y, z'
loop_
 _atom_site_type_symbol
 _atom_site_label
 _atom_site_symmetry_multiplicity
 _atom_site_fract_x
 _atom_site_fract_y
 _atom_site_fract_z
 _atom_site_occupancy
  Ce  Ce0  1  0.333333  0.666667  0.949461  1
  Ce  Ce1  1  0.666667  0.333333  0.050539  1
  Ce  Ce2  1  0.666667  0.333333  0.449911  1
  Ce  Ce3  1  0.333333  0.666667  0.550089  1
  Al  Al4  1  0.837819  0.162181  0.748248  1
  Al  Al5  1  0.837819  0.675639  0.748248  1
  Al  Al6  1  0.324361  0.162181  0.748248  1
  Al  Al7  1  0.162181  0.837819  0.251752  1
  Al  Al8  1  0.162181  0.324361  0.251752  1
  Al  Al9  1  0.675639  0.837819  0.251752  1
  Tc  Tc10  1  0.000000  0.000000  0.000000  1
  Os  Os11  1  0.000000  0.000000  0.500000  1
