# generated using pymatgen
data_Dy8Zr12Si15Sb
_symmetry_space_group_name_H-M   'P 1'
_cell_length_a   7.17519785
_cell_length_b   7.33491258
_cell_length_c   14.02432537
_cell_angle_alpha   90.14013403
_cell_angle_beta   89.27061971
_cell_angle_gamma   90.05696275
_symmetry_Int_Tables_number   1
_chemical_formula_structural   Dy8Zr12Si15Sb
_chemical_formula_sum   'Dy8 Zr12 Si15 Sb1'
_cell_volume   738.03016139
_cell_formula_units_Z   1
loop_
 _symmetry_equiv_pos_site_id
 _symmetry_equiv_pos_as_xyz
  1  'x, y, z'
loop_
 _atom_site_type_symbol
 _atom_site_label
 _atom_site_symmetry_multiplicity
 _atom_site_fract_x
 _atom_site_fract_y
 _atom_site_fract_z
 _atom_site_occupancy
  Dy  Dy0  1  0.013461  0.177457  0.096642  1
  Dy  Dy1  1  0.985991  0.823859  0.903964  1
  Dy  Dy2  1  0.486493  0.676544  0.903995  1
  Dy  Dy3  1  0.988844  0.828552  0.598847  1
  Dy  Dy4  1  0.513189  0.323194  0.097317  1
  Dy  Dy5  1  0.004871  0.172115  0.400019  1
  Dy  Dy6  1  0.511055  0.320607  0.400093  1
  Dy  Dy7  1  0.503662  0.683401  0.600989  1
  Zr  Zr8  1  0.159699  0.495947  0.754487  1
  Zr  Zr9  1  0.839847  0.502347  0.250000  1
  Zr  Zr10  1  0.339321  0.999393  0.249296  1
  Zr  Zr11  1  0.661435  0.000152  0.751889  1
  Zr  Zr12  1  0.342567  0.163602  0.629845  1
  Zr  Zr13  1  0.665167  0.824700  0.372896  1
  Zr  Zr14  1  0.161279  0.684291  0.369769  1
  Zr  Zr15  1  0.668451  0.822881  0.123755  1
  Zr  Zr16  1  0.825924  0.322629  0.625565  1
  Zr  Zr17  1  0.329565  0.176869  0.876260  1
  Zr  Zr18  1  0.830088  0.322850  0.876270  1
  Zr  Zr19  1  0.170187  0.676953  0.124396  1
  Si  Si20  1  0.035758  0.118741  0.750313  1
  Si  Si21  1  0.961539  0.884607  0.246965  1
  Si  Si22  1  0.463119  0.617509  0.248662  1
  Si  Si23  1  0.536019  0.382485  0.751933  1
  Si  Si24  1  0.286626  0.868902  0.752142  1
  Si  Si25  1  0.712882  0.127460  0.248020  1
  Si  Si26  1  0.212894  0.373421  0.249325  1
  Si  Si27  1  0.789585  0.627144  0.751104  1
  Si  Si28  1  0.823563  0.535813  0.457713  1
  Si  Si29  1  0.339034  0.966209  0.459947  1
  Si  Si30  1  0.844923  0.531493  0.040907  1
  Si  Si31  1  0.663058  0.034935  0.537794  1
  Si  Si32  1  0.154667  0.468661  0.960213  1
  Si  Si33  1  0.653880  0.031926  0.959395  1
  Si  Si34  1  0.344932  0.968534  0.040810  1
  Sb  Sb35  1  0.176426  0.463819  0.538459  1
