# generated using pymatgen
data_La10CuSn6I
_symmetry_space_group_name_H-M   'P 1'
_cell_length_a   9.78704500
_cell_length_b   9.78731798
_cell_length_c   6.90055000
_cell_angle_alpha   90.00029158
_cell_angle_beta   89.99985502
_cell_angle_gamma   120.00092504
_symmetry_Int_Tables_number   1
_chemical_formula_structural   La10CuSn6I
_chemical_formula_sum   'La10 Cu1 Sn6 I1'
_cell_volume   572.43420172
_cell_formula_units_Z   1
loop_
 _symmetry_equiv_pos_site_id
 _symmetry_equiv_pos_as_xyz
  1  'x, y, z'
loop_
 _atom_site_type_symbol
 _atom_site_label
 _atom_site_symmetry_multiplicity
 _atom_site_fract_x
 _atom_site_fract_y
 _atom_site_fract_z
 _atom_site_occupancy
  La  La0  1  0.728882  0.728867  0.241757  1
  La  La1  1  0.333316  0.666659  0.500000  1
  La  La2  1  0.271118  0.271133  0.758243  1
  La  La3  1  0.000000  0.271134  0.241760  1
  La  La4  1  0.666684  0.333341  0.500000  1
  La  La5  1  0.271118  0.999985  0.241757  1
  La  La6  1  0.728882  0.000015  0.758243  1
  La  La7  1  0.333312  0.666656  0.000000  1
  La  La8  1  0.666688  0.333344  0.000000  1
  La  La9  1  0.000000  0.728866  0.758240  1
  Cu  Cu10  1  0.000000  0.000000  0.000000  1
  Sn  Sn11  1  0.380552  0.380554  0.249880  1
  Sn  Sn12  1  0.619448  0.619446  0.750120  1
  Sn  Sn13  1  0.380552  0.999998  0.750120  1
  Sn  Sn14  1  0.000000  0.619451  0.249878  1
  Sn  Sn15  1  0.619448  0.000002  0.249880  1
  Sn  Sn16  1  0.000000  0.380549  0.750122  1
  I  I17  1  0.000000  0.000000  0.500000  1
