# generated using pymatgen
data_Ho4Co16Si3Tc4P9
_symmetry_space_group_name_H-M   'P 1'
_cell_length_a   3.70935400
_cell_length_b   10.35515250
_cell_length_c   11.82742626
_cell_angle_alpha   89.88196392
_cell_angle_beta   90.00000000
_cell_angle_gamma   90.00000000
_symmetry_Int_Tables_number   1
_chemical_formula_structural   Ho4Co16Si3Tc4P9
_chemical_formula_sum   'Ho4 Co16 Si3 Tc4 P9'
_cell_volume   454.30143517
_cell_formula_units_Z   1
loop_
 _symmetry_equiv_pos_site_id
 _symmetry_equiv_pos_as_xyz
  1  'x, y, z'
loop_
 _atom_site_type_symbol
 _atom_site_label
 _atom_site_symmetry_multiplicity
 _atom_site_fract_x
 _atom_site_fract_y
 _atom_site_fract_z
 _atom_site_occupancy
  Ho  Ho0  1  0.250000  0.583875  0.701406  1
  Ho  Ho1  1  0.250000  0.915257  0.203823  1
  Ho  Ho2  1  0.750000  0.416315  0.298687  1
  Ho  Ho3  1  0.750000  0.083954  0.797402  1
  Co  Co4  1  0.250000  0.407382  0.488689  1
  Co  Co5  1  0.250000  0.092710  0.988716  1
  Co  Co6  1  0.750000  0.593213  0.510930  1
  Co  Co7  1  0.750000  0.906877  0.011827  1
  Co  Co8  1  0.250000  0.213798  0.177779  1
  Co  Co9  1  0.250000  0.285293  0.677213  1
  Co  Co10  1  0.750000  0.785881  0.823033  1
  Co  Co11  1  0.750000  0.721216  0.323852  1
  Co  Co12  1  0.250000  0.885219  0.701184  1
  Co  Co13  1  0.250000  0.616838  0.202885  1
  Co  Co14  1  0.750000  0.111811  0.298569  1
  Co  Co15  1  0.750000  0.384376  0.798469  1
  Co  Co16  1  0.250000  0.465018  0.931361  1
  Co  Co17  1  0.250000  0.033357  0.428784  1
  Co  Co18  1  0.750000  0.534907  0.069792  1
  Co  Co19  1  0.750000  0.963089  0.564592  1
  Si  Si20  1  0.250000  0.417361  0.114876  1
  Si  Si21  1  0.250000  0.082413  0.612880  1
  Si  Si22  1  0.750000  0.582648  0.885918  1
  Tc  Tc23  1  0.250000  0.709015  0.989415  1
  Tc  Tc24  1  0.250000  0.788556  0.489528  1
  Tc  Tc25  1  0.750000  0.290630  0.011591  1
  Tc  Tc26  1  0.750000  0.210433  0.510657  1
  P  P27  1  0.750000  0.919233  0.385318  1
  P  P28  1  0.250000  0.270656  0.865336  1
  P  P29  1  0.250000  0.229421  0.365503  1
  P  P30  1  0.750000  0.729606  0.134598  1
  P  P31  1  0.750000  0.770919  0.635306  1
  P  P32  1  0.250000  0.596621  0.390965  1
  P  P33  1  0.250000  0.902725  0.890685  1
  P  P34  1  0.750000  0.402951  0.609483  1
  P  P35  1  0.750000  0.096426  0.108948  1
