# generated using pymatgen
data_CeTmInNi2
_symmetry_space_group_name_H-M   'P 1'
_cell_length_a   7.44082523
_cell_length_b   7.44082523
_cell_length_c   3.62231700
_cell_angle_alpha   90.00000000
_cell_angle_beta   90.00000000
_cell_angle_gamma   92.95760232
_symmetry_Int_Tables_number   1
_chemical_formula_structural   CeTmInNi2
_chemical_formula_sum   'Ce2 Tm2 In2 Ni4'
_cell_volume   200.28563010
_cell_formula_units_Z   2
loop_
 _symmetry_equiv_pos_site_id
 _symmetry_equiv_pos_as_xyz
  1  'x, y, z'
loop_
 _atom_site_type_symbol
 _atom_site_label
 _atom_site_symmetry_multiplicity
 _atom_site_fract_x
 _atom_site_fract_y
 _atom_site_fract_z
 _atom_site_occupancy
  Ce  Ce0  1  0.174799  0.674799  0.500000  1
  Ce  Ce1  1  0.825201  0.325202  0.500000  1
  Tm  Tm2  1  0.672418  0.827582  0.500000  1
  Tm  Tm3  1  0.327583  0.172418  0.500000  1
  In  In4  1  0.000000  0.000000  0.000000  1
  In  In5  1  0.500000  0.500000  0.000000  1
  Ni  Ni6  1  0.625685  0.125684  0.000000  1
  Ni  Ni7  1  0.374315  0.874315  0.000000  1
  Ni  Ni8  1  0.119972  0.380027  0.000000  1
  Ni  Ni9  1  0.880027  0.619973  0.000000  1
