# generated using pymatgen
data_Dy2MnNi5P4
_symmetry_space_group_name_H-M   'P 1'
_cell_length_a   3.76611900
_cell_length_b   10.57334100
_cell_length_c   12.30910700
_cell_angle_alpha   90.00000000
_cell_angle_beta   90.00000000
_cell_angle_gamma   90.00000000
_symmetry_Int_Tables_number   1
_chemical_formula_structural   Dy2MnNi5P4
_chemical_formula_sum   'Dy6 Mn3 Ni15 P12'
_cell_volume   490.15430827
_cell_formula_units_Z   3
loop_
 _symmetry_equiv_pos_site_id
 _symmetry_equiv_pos_as_xyz
  1  'x, y, z'
loop_
 _atom_site_type_symbol
 _atom_site_label
 _atom_site_symmetry_multiplicity
 _atom_site_fract_x
 _atom_site_fract_y
 _atom_site_fract_z
 _atom_site_occupancy
  Dy  Dy0  1  0.000000  0.500000  0.521524  1
  Dy  Dy1  1  0.500000  0.000000  0.477819  1
  Dy  Dy2  1  0.500000  0.818402  0.206184  1
  Dy  Dy3  1  0.500000  0.181598  0.206184  1
  Dy  Dy4  1  0.000000  0.681747  0.794351  1
  Dy  Dy5  1  0.000000  0.318253  0.794351  1
  Mn  Mn6  1  0.500000  0.500000  0.153573  1
  Mn  Mn7  1  0.000000  0.000000  0.843766  1
  Mn  Mn8  1  0.000000  0.500000  0.989105  1
  Ni  Ni9  1  0.500000  0.500000  0.701471  1
  Ni  Ni10  1  0.000000  0.000000  0.299850  1
  Ni  Ni11  1  0.500000  0.000000  0.015522  1
  Ni  Ni12  1  0.500000  0.331944  0.992822  1
  Ni  Ni13  1  0.500000  0.668056  0.992822  1
  Ni  Ni14  1  0.000000  0.169724  0.006197  1
  Ni  Ni15  1  0.000000  0.830276  0.006197  1
  Ni  Ni16  1  0.500000  0.301136  0.428556  1
  Ni  Ni17  1  0.500000  0.698864  0.428556  1
  Ni  Ni18  1  0.000000  0.199344  0.571738  1
  Ni  Ni19  1  0.000000  0.800656  0.571738  1
  Ni  Ni20  1  0.500000  0.880024  0.709348  1
  Ni  Ni21  1  0.500000  0.119976  0.709348  1
  Ni  Ni22  1  0.000000  0.620552  0.289055  1
  Ni  Ni23  1  0.000000  0.379448  0.289055  1
  P  P24  1  0.500000  0.500000  0.881455  1
  P  P25  1  0.000000  0.000000  0.121431  1
  P  P26  1  0.500000  0.500000  0.345509  1
  P  P27  1  0.000000  0.000000  0.653466  1
  P  P28  1  0.500000  0.313518  0.614446  1
  P  P29  1  0.500000  0.686482  0.614446  1
  P  P30  1  0.000000  0.186401  0.385833  1
  P  P31  1  0.000000  0.813599  0.385833  1
  P  P32  1  0.500000  0.848125  0.891689  1
  P  P33  1  0.500000  0.151875  0.891689  1
  P  P34  1  0.000000  0.653321  0.107537  1
  P  P35  1  0.000000  0.346679  0.107537  1
