# generated using pymatgen
data_Sm4Y4Sc12Si15Pt
_symmetry_space_group_name_H-M   'P 1'
_cell_length_a   7.12205444
_cell_length_b   7.47748227
_cell_length_c   14.04945379
_cell_angle_alpha   90.01544390
_cell_angle_beta   89.96459579
_cell_angle_gamma   90.15694859
_symmetry_Int_Tables_number   1
_chemical_formula_structural   Sm4Y4Sc12Si15Pt
_chemical_formula_sum   'Sm4 Y4 Sc12 Si15 Pt1'
_cell_volume   748.20118782
_cell_formula_units_Z   1
loop_
 _symmetry_equiv_pos_site_id
 _symmetry_equiv_pos_as_xyz
  1  'x, y, z'
loop_
 _atom_site_type_symbol
 _atom_site_label
 _atom_site_symmetry_multiplicity
 _atom_site_fract_x
 _atom_site_fract_y
 _atom_site_fract_z
 _atom_site_occupancy
  Sm  Sm0  1  0.511889  0.324401  0.095796  1
  Sm  Sm1  1  0.011596  0.176208  0.404410  1
  Sm  Sm2  1  0.511590  0.324917  0.402903  1
  Sm  Sm3  1  0.488680  0.674867  0.596411  1
  Y  Y4  1  0.012192  0.177654  0.096430  1
  Y  Y5  1  0.989769  0.821275  0.904972  1
  Y  Y6  1  0.487842  0.677116  0.903171  1
  Y  Y7  1  0.989651  0.821619  0.596193  1
  Sc  Sc8  1  0.157968  0.501192  0.750505  1
  Sc  Sc9  1  0.838857  0.499202  0.249652  1
  Sc  Sc10  1  0.339724  0.003206  0.249457  1
  Sc  Sc11  1  0.665834  0.999919  0.750343  1
  Sc  Sc12  1  0.323512  0.173300  0.625854  1
  Sc  Sc13  1  0.672827  0.826207  0.373778  1
  Sc  Sc14  1  0.170759  0.677288  0.373609  1
  Sc  Sc15  1  0.671811  0.825774  0.125283  1
  Sc  Sc16  1  0.829949  0.323737  0.626115  1
  Sc  Sc17  1  0.322695  0.173527  0.875052  1
  Sc  Sc18  1  0.831154  0.322723  0.874793  1
  Sc  Sc19  1  0.171250  0.677401  0.125506  1
  Si  Si20  1  0.969444  0.882386  0.249115  1
  Si  Si21  1  0.467868  0.620205  0.249480  1
  Si  Si22  1  0.531316  0.385403  0.750992  1
  Si  Si23  1  0.285009  0.870475  0.751027  1
  Si  Si24  1  0.714826  0.126215  0.248567  1
  Si  Si25  1  0.211181  0.375081  0.248957  1
  Si  Si26  1  0.781129  0.624248  0.751441  1
  Si  Si27  1  0.155538  0.467602  0.538884  1
  Si  Si28  1  0.845113  0.538816  0.461299  1
  Si  Si29  1  0.347037  0.963652  0.461204  1
  Si  Si30  1  0.845735  0.537017  0.038980  1
  Si  Si31  1  0.657935  0.033877  0.539464  1
  Si  Si32  1  0.157791  0.467063  0.961207  1
  Si  Si33  1  0.657828  0.031820  0.960058  1
  Si  Si34  1  0.344659  0.963250  0.038699  1
  Pt  Pt35  1  0.028045  0.111355  0.750392  1
