# generated using pymatgen
data_Tm8Th4TcRu3
_symmetry_space_group_name_H-M   'P 1'
_cell_length_a   6.28541956
_cell_length_b   7.22411347
_cell_length_c   9.42288400
_cell_angle_alpha   90.00000000
_cell_angle_beta   90.00000000
_cell_angle_gamma   90.06098051
_symmetry_Int_Tables_number   1
_chemical_formula_structural   Tm8Th4TcRu3
_chemical_formula_sum   'Tm8 Th4 Tc1 Ru3'
_cell_volume   427.86073230
_cell_formula_units_Z   1
loop_
 _symmetry_equiv_pos_site_id
 _symmetry_equiv_pos_as_xyz
  1  'x, y, z'
loop_
 _atom_site_type_symbol
 _atom_site_label
 _atom_site_symmetry_multiplicity
 _atom_site_fract_x
 _atom_site_fract_y
 _atom_site_fract_z
 _atom_site_occupancy
  Tm  Tm0  1  0.166313  0.175463  0.066219  1
  Tm  Tm1  1  0.834818  0.824041  0.933620  1
  Tm  Tm2  1  0.662894  0.323815  0.933972  1
  Tm  Tm3  1  0.834818  0.824041  0.566380  1
  Tm  Tm4  1  0.333179  0.676951  0.066460  1
  Tm  Tm5  1  0.166313  0.175463  0.433781  1
  Tm  Tm6  1  0.333179  0.676951  0.433540  1
  Tm  Tm7  1  0.662894  0.323815  0.566028  1
  Th  Th8  1  0.643917  0.047637  0.250000  1
  Th  Th9  1  0.351110  0.952960  0.750000  1
  Th  Th10  1  0.146853  0.453576  0.750000  1
  Th  Th11  1  0.855924  0.545903  0.250000  1
  Tc  Tc12  1  0.475469  0.369321  0.250000  1
  Ru  Ru13  1  0.535618  0.630256  0.750000  1
  Ru  Ru14  1  0.964147  0.129564  0.750000  1
  Ru  Ru15  1  0.032553  0.870242  0.250000  1
