# generated using pymatgen
data_TbNpCrO6
_symmetry_space_group_name_H-M   'P 1'
_cell_length_a   5.34315401
_cell_length_b   5.34176957
_cell_length_c   9.83271600
_cell_angle_alpha   90.00793723
_cell_angle_beta   89.99603241
_cell_angle_gamma   119.99142057
_symmetry_Int_Tables_number   1
_chemical_formula_structural   TbNpCrO6
_chemical_formula_sum   'Tb2 Np2 Cr2 O12'
_cell_volume   243.06616257
_cell_formula_units_Z   2
loop_
 _symmetry_equiv_pos_site_id
 _symmetry_equiv_pos_as_xyz
  1  'x, y, z'
loop_
 _atom_site_type_symbol
 _atom_site_label
 _atom_site_symmetry_multiplicity
 _atom_site_fract_x
 _atom_site_fract_y
 _atom_site_fract_z
 _atom_site_occupancy
  Tb  Tb0  1  0.000000  0.000000  0.000000  1
  Tb  Tb1  1  0.000000  0.000000  0.500000  1
  Np  Np2  1  0.333480  0.666739  0.750000  1
  Np  Np3  1  0.666520  0.333261  0.250000  1
  Cr  Cr4  1  0.333010  0.666505  0.250000  1
  Cr  Cr5  1  0.666990  0.333495  0.750000  1
  O  O6  1  0.348138  0.355361  0.138367  1
  O  O7  1  0.644364  0.992771  0.138400  1
  O  O8  1  0.006945  0.651582  0.138366  1
  O  O9  1  0.651862  0.644639  0.861633  1
  O  O10  1  0.355636  0.007229  0.861600  1
  O  O11  1  0.993055  0.348418  0.861634  1
  O  O12  1  0.644364  0.651593  0.361600  1
  O  O13  1  0.348138  0.992777  0.361633  1
  O  O14  1  0.006945  0.355364  0.361634  1
  O  O15  1  0.355636  0.348407  0.638400  1
  O  O16  1  0.651862  0.007223  0.638367  1
  O  O17  1  0.993055  0.644636  0.638366  1
