# generated using pymatgen
data_Na12Li8Si3GeP12
_symmetry_space_group_name_H-M   'P 1'
_cell_length_a   9.26834600
_cell_length_b   9.26834700
_cell_length_c   13.44931568
_cell_angle_alpha   90.04183199
_cell_angle_beta   90.04182886
_cell_angle_gamma   143.58092262
_symmetry_Int_Tables_number   1
_chemical_formula_structural   Na12Li8Si3GeP12
_chemical_formula_sum   'Na12 Li8 Si3 Ge1 P12'
_cell_volume   685.90024392
_cell_formula_units_Z   1
loop_
 _symmetry_equiv_pos_site_id
 _symmetry_equiv_pos_as_xyz
  1  'x, y, z'
loop_
 _atom_site_type_symbol
 _atom_site_label
 _atom_site_symmetry_multiplicity
 _atom_site_fract_x
 _atom_site_fract_y
 _atom_site_fract_z
 _atom_site_occupancy
  Na  Na0  1  0.098918  0.439115  0.676594  1
  Na  Na1  1  0.728238  0.728058  0.680183  1
  Na  Na2  1  0.228176  0.228194  0.820342  1
  Na  Na3  1  0.771806  0.771824  0.179658  1
  Na  Na4  1  0.938803  0.598573  0.823013  1
  Na  Na5  1  0.560885  0.901082  0.323406  1
  Na  Na6  1  0.401427  0.061197  0.176987  1
  Na  Na7  1  0.061193  0.401855  0.177094  1
  Na  Na8  1  0.901331  0.561450  0.323808  1
  Na  Na9  1  0.438550  0.098669  0.676192  1
  Na  Na10  1  0.598145  0.938808  0.822906  1
  Na  Na11  1  0.271942  0.271762  0.319817  1
  Li  Li12  1  0.918242  0.081758  0.000000  1
  Li  Li13  1  0.581638  0.418362  0.500000  1
  Li  Li14  1  0.082076  0.917924  0.000000  1
  Li  Li15  1  0.417875  0.582125  0.500000  1
  Li  Li16  1  0.754498  0.245502  0.000000  1
  Li  Li17  1  0.746323  0.253677  0.500000  1
  Li  Li18  1  0.245218  0.754782  0.000000  1
  Li  Li19  1  0.255264  0.744736  0.500000  1
  Si  Si20  1  0.411599  0.588401  0.000000  1
  Si  Si21  1  0.910567  0.089433  0.500000  1
  Si  Si22  1  0.588591  0.411409  0.000000  1
  Ge  Ge23  1  0.089649  0.910351  0.500000  1
  P  P24  1  0.881419  0.562630  0.104342  1
  P  P25  1  0.437370  0.118581  0.895658  1
  P  P26  1  0.617299  0.936820  0.603708  1
  P  P27  1  0.930892  0.606603  0.606965  1
  P  P28  1  0.118443  0.437243  0.896100  1
  P  P29  1  0.562757  0.881557  0.103900  1
  P  P30  1  0.393397  0.069108  0.393035  1
  P  P31  1  0.208442  0.214488  0.595487  1
  P  P32  1  0.706685  0.706354  0.906879  1
  P  P33  1  0.293646  0.293315  0.093121  1
  P  P34  1  0.063180  0.382701  0.396292  1
  P  P35  1  0.785512  0.791558  0.404513  1
