# generated using pymatgen
data_Dy5Ho3Ti12Si15Sn
_symmetry_space_group_name_H-M   'P 1'
_cell_length_a   7.11536424
_cell_length_b   7.07910042
_cell_length_c   13.02313308
_cell_angle_alpha   89.99201725
_cell_angle_beta   89.74596078
_cell_angle_gamma   89.92323550
_symmetry_Int_Tables_number   1
_chemical_formula_structural   Dy5Ho3Ti12Si15Sn
_chemical_formula_sum   'Dy5 Ho3 Ti12 Si15 Sn1'
_cell_volume   655.97309265
_cell_formula_units_Z   1
loop_
 _symmetry_equiv_pos_site_id
 _symmetry_equiv_pos_as_xyz
  1  'x, y, z'
loop_
 _atom_site_type_symbol
 _atom_site_label
 _atom_site_symmetry_multiplicity
 _atom_site_fract_x
 _atom_site_fract_y
 _atom_site_fract_z
 _atom_site_occupancy
  Dy  Dy0  1  0.343253  0.999418  0.461423  1
  Dy  Dy1  1  0.505409  0.835263  0.718221  1
  Dy  Dy2  1  0.502324  0.159561  0.216534  1
  Dy  Dy3  1  0.841089  0.497279  0.282173  1
  Dy  Dy4  1  0.159153  0.509968  0.786189  1
  Ho  Ho5  1  0.660992  0.996757  0.968838  1
  Ho  Ho6  1  0.992821  0.348476  0.527505  1
  Ho  Ho7  1  0.999169  0.658859  0.034289  1
  Ti  Ti8  1  0.326210  0.326565  0.001214  1
  Ti  Ti9  1  0.174003  0.825975  0.249561  1
  Ti  Ti10  1  0.816402  0.175351  0.752081  1
  Ti  Ti11  1  0.672872  0.672992  0.499413  1
  Ti  Ti12  1  0.152332  0.008308  0.883529  1
  Ti  Ti13  1  0.492057  0.650707  0.126646  1
  Ti  Ti14  1  0.515530  0.353556  0.626559  1
  Ti  Ti15  1  0.654164  0.493007  0.875731  1
  Ti  Ti16  1  0.347373  0.509548  0.372569  1
  Ti  Ti17  1  0.847214  0.991661  0.375640  1
  Ti  Ti18  1  0.010190  0.151347  0.123242  1
  Ti  Ti19  1  0.979157  0.835248  0.618775  1
  Si  Si20  1  0.371202  0.702772  0.936276  1
  Si  Si21  1  0.628432  0.297233  0.433037  1
  Si  Si22  1  0.703542  0.369733  0.066126  1
  Si  Si23  1  0.296599  0.630197  0.565344  1
  Si  Si24  1  0.797925  0.869871  0.184056  1
  Si  Si25  1  0.129528  0.202551  0.314746  1
  Si  Si26  1  0.870452  0.800037  0.816365  1
  Si  Si27  1  0.292156  0.951845  0.066834  1
  Si  Si28  1  0.549518  0.789133  0.313463  1
  Si  Si29  1  0.459176  0.210843  0.820313  1
  Si  Si30  1  0.793589  0.544879  0.686770  1
  Si  Si31  1  0.209649  0.452792  0.184914  1
  Si  Si32  1  0.707402  0.048788  0.564501  1
  Si  Si33  1  0.952305  0.291334  0.935419  1
  Si  Si34  1  0.048210  0.710928  0.432701  1
  Sn  Sn35  1  0.198598  0.127217  0.679001  1
