# generated using pymatgen
data_Nd4Y6Sn7Sb
_symmetry_space_group_name_H-M   'P 1'
_cell_length_a   8.13035000
_cell_length_b   8.23744421
_cell_length_c   15.51575900
_cell_angle_alpha   90.10259410
_cell_angle_beta   90.00000000
_cell_angle_gamma   90.00000000
_symmetry_Int_Tables_number   1
_chemical_formula_structural   Nd4Y6Sn7Sb
_chemical_formula_sum   'Nd8 Y12 Sn14 Sb2'
_cell_volume   1039.13998614
_cell_formula_units_Z   2
loop_
 _symmetry_equiv_pos_site_id
 _symmetry_equiv_pos_as_xyz
  1  'x, y, z'
loop_
 _atom_site_type_symbol
 _atom_site_label
 _atom_site_symmetry_multiplicity
 _atom_site_fract_x
 _atom_site_fract_y
 _atom_site_fract_z
 _atom_site_occupancy
  Nd  Nd0  1  0.519367  0.321812  0.902293  1
  Nd  Nd1  1  0.019367  0.178188  0.597707  1
  Nd  Nd2  1  0.478978  0.678719  0.401656  1
  Nd  Nd3  1  0.978978  0.821281  0.098344  1
  Nd  Nd4  1  0.481313  0.678340  0.097515  1
  Nd  Nd5  1  0.981313  0.821660  0.402485  1
  Nd  Nd6  1  0.517974  0.320431  0.597943  1
  Nd  Nd7  1  0.017974  0.179569  0.902057  1
  Y  Y8  1  0.366279  0.836725  0.878379  1
  Y  Y9  1  0.866279  0.663275  0.621621  1
  Y  Y10  1  0.633567  0.162460  0.377164  1
  Y  Y11  1  0.133567  0.337540  0.122836  1
  Y  Y12  1  0.635473  0.163295  0.122067  1
  Y  Y13  1  0.135473  0.336705  0.377933  1
  Y  Y14  1  0.365471  0.836881  0.622409  1
  Y  Y15  1  0.865471  0.663119  0.877591  1
  Y  Y16  1  0.196448  0.502235  0.749302  1
  Y  Y17  1  0.696448  0.997765  0.750698  1
  Y  Y18  1  0.803701  0.498347  0.249564  1
  Y  Y19  1  0.303701  0.001653  0.250436  1
  Sn  Sn20  1  0.703507  0.961504  0.541761  1
  Sn  Sn21  1  0.203507  0.538496  0.958239  1
  Sn  Sn22  1  0.707005  0.961532  0.957761  1
  Sn  Sn23  1  0.207005  0.538468  0.542239  1
  Sn  Sn24  1  0.297179  0.038027  0.457599  1
  Sn  Sn25  1  0.797179  0.461973  0.042401  1
  Sn  Sn26  1  0.564523  0.622314  0.749454  1
  Sn  Sn27  1  0.064523  0.877686  0.750546  1
  Sn  Sn28  1  0.436336  0.377671  0.249848  1
  Sn  Sn29  1  0.936336  0.122329  0.250152  1
  Sn  Sn30  1  0.326640  0.142947  0.750186  1
  Sn  Sn31  1  0.826640  0.357053  0.749814  1
  Sn  Sn32  1  0.672067  0.856387  0.250151  1
  Sn  Sn33  1  0.172067  0.643613  0.249849  1
  Sb  Sb34  1  0.294171  0.038414  0.043155  1
  Sb  Sb35  1  0.794171  0.461586  0.456845  1
