# generated using pymatgen
data_ErHf(Sn2Rh5)2
_symmetry_space_group_name_H-M   'P 1'
_cell_length_a   4.24062300
_cell_length_b   5.65025587
_cell_length_c   11.10000380
_cell_angle_alpha   90.11060451
_cell_angle_beta   90.00000000
_cell_angle_gamma   90.00000000
_symmetry_Int_Tables_number   1
_chemical_formula_structural   ErHf(Sn2Rh5)2
_chemical_formula_sum   'Er1 Hf1 Sn4 Rh10'
_cell_volume   265.96231109
_cell_formula_units_Z   1
loop_
 _symmetry_equiv_pos_site_id
 _symmetry_equiv_pos_as_xyz
  1  'x, y, z'
loop_
 _atom_site_type_symbol
 _atom_site_label
 _atom_site_symmetry_multiplicity
 _atom_site_fract_x
 _atom_site_fract_y
 _atom_site_fract_z
 _atom_site_occupancy
  Er  Er0  1  0.500000  0.165128  0.641116  1
  Hf  Hf1  1  0.500000  0.337660  0.140942  1
  Sn  Sn2  1  0.500000  0.836030  0.354671  1
  Sn  Sn3  1  0.500000  0.665076  0.853140  1
  Sn  Sn4  1  0.000000  0.480954  0.502589  1
  Sn  Sn5  1  0.000000  0.016432  0.005143  1
  Rh  Rh6  1  0.500000  0.194333  0.894302  1
  Rh  Rh7  1  0.500000  0.812145  0.111612  1
  Rh  Rh8  1  0.500000  0.682207  0.608976  1
  Rh  Rh9  1  0.500000  0.314072  0.381563  1
  Rh  Rh10  1  0.000000  0.421560  0.748220  1
  Rh  Rh11  1  0.000000  0.574961  0.255287  1
  Rh  Rh12  1  0.000000  0.973653  0.493778  1
  Rh  Rh13  1  0.000000  0.517944  0.001464  1
  Rh  Rh14  1  0.000000  0.084806  0.243291  1
  Rh  Rh15  1  0.000000  0.923040  0.763906  1
