# generated using pymatgen
data_LiHf(NiAs)2
_symmetry_space_group_name_H-M   'P 1'
_cell_length_a   3.89689900
_cell_length_b   6.34545503
_cell_length_c   7.16675215
_cell_angle_alpha   88.55131632
_cell_angle_beta   90.00000000
_cell_angle_gamma   90.00000000
_symmetry_Int_Tables_number   1
_chemical_formula_structural   LiHf(NiAs)2
_chemical_formula_sum   'Li2 Hf2 Ni4 As4'
_cell_volume   177.15991759
_cell_formula_units_Z   2
loop_
 _symmetry_equiv_pos_site_id
 _symmetry_equiv_pos_as_xyz
  1  'x, y, z'
loop_
 _atom_site_type_symbol
 _atom_site_label
 _atom_site_symmetry_multiplicity
 _atom_site_fract_x
 _atom_site_fract_y
 _atom_site_fract_z
 _atom_site_occupancy
  Li  Li0  1  0.250000  0.485147  0.186986  1
  Li  Li1  1  0.750000  0.514853  0.813014  1
  Hf  Hf2  1  0.750000  0.019623  0.692712  1
  Hf  Hf3  1  0.250000  0.980377  0.307288  1
  Ni  Ni4  1  0.250000  0.846214  0.934440  1
  Ni  Ni5  1  0.750000  0.153786  0.065560  1
  Ni  Ni6  1  0.750000  0.656414  0.435482  1
  Ni  Ni7  1  0.250000  0.343586  0.564518  1
  As  As8  1  0.250000  0.724624  0.620161  1
  As  As9  1  0.750000  0.275376  0.379839  1
  As  As10  1  0.750000  0.766919  0.111053  1
  As  As11  1  0.250000  0.233081  0.888947  1
