# generated using pymatgen
data_Sm2MgTe2(SO7)2
_symmetry_space_group_name_H-M   'P 1'
_cell_length_a   5.37677238
_cell_length_b   7.98355419
_cell_length_c   8.25029800
_cell_angle_alpha   115.45714212
_cell_angle_beta   106.87016826
_cell_angle_gamma   86.00985555
_symmetry_Int_Tables_number   1
_chemical_formula_structural   Sm2MgTe2(SO7)2
_chemical_formula_sum   'Sm2 Mg1 Te2 S2 O14'
_cell_volume   305.37956086
_cell_formula_units_Z   1
loop_
 _symmetry_equiv_pos_site_id
 _symmetry_equiv_pos_as_xyz
  1  'x, y, z'
loop_
 _atom_site_type_symbol
 _atom_site_label
 _atom_site_symmetry_multiplicity
 _atom_site_fract_x
 _atom_site_fract_y
 _atom_site_fract_z
 _atom_site_occupancy
  Sm  Sm0  1  0.086630  0.251787  0.984237  1
  Sm  Sm1  1  0.913370  0.748213  0.015763  1
  Mg  Mg2  1  0.000000  0.000000  0.500000  1
  Te  Te3  1  0.521122  0.267433  0.659537  1
  Te  Te4  1  0.478878  0.732567  0.340463  1
  S  S5  1  0.769737  0.245223  0.251686  1
  S  S6  1  0.230263  0.754777  0.748314  1
  O  O7  1  0.907855  0.404981  0.261004  1
  O  O8  1  0.092145  0.595019  0.738996  1
  O  O9  1  0.872156  0.218189  0.425010  1
  O  O10  1  0.127844  0.781811  0.574990  1
  O  O11  1  0.486363  0.270595  0.218895  1
  O  O12  1  0.513637  0.729405  0.781105  1
  O  O13  1  0.820757  0.079023  0.086969  1
  O  O14  1  0.179243  0.920977  0.913031  1
  O  O15  1  0.748562  0.435316  0.893215  1
  O  O16  1  0.251438  0.564684  0.106785  1
  O  O17  1  0.277559  0.189812  0.744119  1
  O  O18  1  0.722441  0.810188  0.255881  1
  O  O19  1  0.752971  0.075798  0.664993  1
  O  O20  1  0.247029  0.924202  0.335007  1
