# generated using pymatgen
data_Ho12Th4Mg2In2Co3Ni
_symmetry_space_group_name_H-M   'P 1'
_cell_length_a   9.60494858
_cell_length_b   9.60494686
_cell_length_c   9.60831900
_cell_angle_alpha   59.98838211
_cell_angle_beta   59.98838805
_cell_angle_gamma   60.06729476
_symmetry_Int_Tables_number   1
_chemical_formula_structural   Ho12Th4Mg2In2Co3Ni
_chemical_formula_sum   'Ho12 Th4 Mg2 In2 Co3 Ni1'
_cell_volume   626.99845178
_cell_formula_units_Z   1
loop_
 _symmetry_equiv_pos_site_id
 _symmetry_equiv_pos_as_xyz
  1  'x, y, z'
loop_
 _atom_site_type_symbol
 _atom_site_label
 _atom_site_symmetry_multiplicity
 _atom_site_fract_x
 _atom_site_fract_y
 _atom_site_fract_z
 _atom_site_occupancy
  Ho  Ho0  1  0.810514  0.186562  0.188519  1
  Ho  Ho1  1  0.186305  0.813017  0.812832  1
  Ho  Ho2  1  0.186562  0.810514  0.188519  1
  Ho  Ho3  1  0.813017  0.186305  0.812832  1
  Ho  Ho4  1  0.185996  0.185996  0.811481  1
  Ho  Ho5  1  0.811912  0.811912  0.188242  1
  Ho  Ho6  1  0.936444  0.566008  0.565494  1
  Ho  Ho7  1  0.566141  0.936777  0.933337  1
  Ho  Ho8  1  0.566008  0.936444  0.565494  1
  Ho  Ho9  1  0.936777  0.566141  0.933337  1
  Ho  Ho10  1  0.564803  0.564803  0.936014  1
  Ho  Ho11  1  0.935760  0.935760  0.565555  1
  Th  Th12  1  0.343944  0.343944  0.343747  1
  Th  Th13  1  0.346511  0.346511  0.965830  1
  Th  Th14  1  0.347569  0.961587  0.348338  1
  Th  Th15  1  0.961587  0.347569  0.348338  1
  Mg  Mg16  1  0.579619  0.263992  0.578153  1
  Mg  Mg17  1  0.263992  0.579619  0.578153  1
  In  In18  1  0.582730  0.582730  0.583558  1
  In  In19  1  0.582496  0.582496  0.251443  1
  Co  Co20  1  0.142486  0.142486  0.566556  1
  Co  Co21  1  0.142679  0.564860  0.145399  1
  Co  Co22  1  0.564860  0.142679  0.145399  1
  Ni  Ni23  1  0.141288  0.141288  0.143432  1
