# generated using pymatgen
data_Tb5Ti3(Co4P3)4
_symmetry_space_group_name_H-M   'P 1'
_cell_length_a   12.15196800
_cell_length_b   12.15196801
_cell_length_c   3.68628800
_cell_angle_alpha   90.00000000
_cell_angle_beta   90.00000000
_cell_angle_gamma   119.99999999
_symmetry_Int_Tables_number   1
_chemical_formula_structural   Tb5Ti3(Co4P3)4
_chemical_formula_sum   'Tb5 Ti3 Co16 P12'
_cell_volume   471.42556352
_cell_formula_units_Z   1
loop_
 _symmetry_equiv_pos_site_id
 _symmetry_equiv_pos_as_xyz
  1  'x, y, z'
loop_
 _atom_site_type_symbol
 _atom_site_label
 _atom_site_symmetry_multiplicity
 _atom_site_fract_x
 _atom_site_fract_y
 _atom_site_fract_z
 _atom_site_occupancy
  Tb  Tb0  1  0.815152  0.000000  0.500000  1
  Tb  Tb1  1  0.000000  0.815152  0.500000  1
  Tb  Tb2  1  0.184848  0.184848  0.500000  1
  Tb  Tb3  1  0.333333  0.666667  0.000000  1
  Tb  Tb4  1  0.666667  0.333333  0.000000  1
  Ti  Ti5  1  0.439794  0.000000  0.000000  1
  Ti  Ti6  1  0.000000  0.439794  0.000000  1
  Ti  Ti7  1  0.560206  0.560206  0.000000  1
  Co  Co8  1  0.281753  0.000000  0.500000  1
  Co  Co9  1  0.000000  0.281753  0.500000  1
  Co  Co10  1  0.718247  0.718247  0.500000  1
  Co  Co11  1  0.624230  0.801642  0.000000  1
  Co  Co12  1  0.198358  0.822587  0.000000  1
  Co  Co13  1  0.177413  0.375770  0.000000  1
  Co  Co14  1  0.375770  0.177413  0.000000  1
  Co  Co15  1  0.801642  0.624230  0.000000  1
  Co  Co16  1  0.822587  0.198358  0.000000  1
  Co  Co17  1  0.519357  0.875268  0.500000  1
  Co  Co18  1  0.124732  0.644089  0.500000  1
  Co  Co19  1  0.355911  0.480643  0.500000  1
  Co  Co20  1  0.480643  0.355911  0.500000  1
  Co  Co21  1  0.875268  0.519357  0.500000  1
  Co  Co22  1  0.644089  0.124732  0.500000  1
  Co  Co23  1  0.000000  0.000000  0.000000  1
  P  P24  1  0.179727  0.000000  0.000000  1
  P  P25  1  0.000000  0.179727  0.000000  1
  P  P26  1  0.820273  0.820273  0.000000  1
  P  P27  1  0.520454  0.687519  0.500000  1
  P  P28  1  0.312481  0.832935  0.500000  1
  P  P29  1  0.167065  0.479546  0.500000  1
  P  P30  1  0.479546  0.167065  0.500000  1
  P  P31  1  0.687519  0.520454  0.500000  1
  P  P32  1  0.832935  0.312481  0.500000  1
  P  P33  1  0.640613  0.000000  0.000000  1
  P  P34  1  0.000000  0.640613  0.000000  1
  P  P35  1  0.359387  0.359387  0.000000  1
