# generated using pymatgen
data_ZrPbCl6
_symmetry_space_group_name_H-M   'P 1'
_cell_length_a   7.55612047
_cell_length_b   7.55612048
_cell_length_c   7.55612182
_cell_angle_alpha   56.02232432
_cell_angle_beta   56.02231584
_cell_angle_gamma   56.02231787
_symmetry_Int_Tables_number   1
_chemical_formula_structural   ZrPbCl6
_chemical_formula_sum   'Zr1 Pb1 Cl6'
_cell_volume   276.94892279
_cell_formula_units_Z   1
loop_
 _symmetry_equiv_pos_site_id
 _symmetry_equiv_pos_as_xyz
  1  'x, y, z'
loop_
 _atom_site_type_symbol
 _atom_site_label
 _atom_site_symmetry_multiplicity
 _atom_site_fract_x
 _atom_site_fract_y
 _atom_site_fract_z
 _atom_site_occupancy
  Zr  Zr0  1  0.666876  0.666876  0.666876  1
  Pb  Pb1  1  0.333519  0.333519  0.333519  1
  Cl  Cl2  1  0.032418  0.456980  0.738817  1
  Cl  Cl3  1  0.306886  0.881398  0.583105  1
  Cl  Cl4  1  0.456980  0.738817  0.032418  1
  Cl  Cl5  1  0.583105  0.306886  0.881398  1
  Cl  Cl6  1  0.738817  0.032418  0.456980  1
  Cl  Cl7  1  0.881398  0.583105  0.306886  1
