# generated using pymatgen
data_CsAsRu2S
_symmetry_space_group_name_H-M   'P 1'
_cell_length_a   7.75859504
_cell_length_b   7.75859541
_cell_length_c   7.75859490
_cell_angle_alpha   149.76725935
_cell_angle_beta   149.76726738
_cell_angle_gamma   43.28314308
_symmetry_Int_Tables_number   1
_chemical_formula_structural   CsAsRu2S
_chemical_formula_sum   'Cs1 As1 Ru2 S1'
_cell_volume   118.08984060
_cell_formula_units_Z   1
loop_
 _symmetry_equiv_pos_site_id
 _symmetry_equiv_pos_as_xyz
  1  'x, y, z'
loop_
 _atom_site_type_symbol
 _atom_site_label
 _atom_site_symmetry_multiplicity
 _atom_site_fract_x
 _atom_site_fract_y
 _atom_site_fract_z
 _atom_site_occupancy
  Cs  Cs0  1  0.995485  0.995485  0.000000  1
  As  As1  1  0.659561  0.659561  0.000000  1
  Ru  Ru2  1  0.755983  0.255983  0.500000  1
  Ru  Ru3  1  0.255983  0.755983  0.500000  1
  S  S4  1  0.332988  0.332988  0.000000  1
