# generated using pymatgen
data_Sc5(Re7Ru)3
_symmetry_space_group_name_H-M   'P 1'
_cell_length_a   8.44316443
_cell_length_b   8.43477933
_cell_length_c   8.42882395
_cell_angle_alpha   109.53486679
_cell_angle_beta   109.39989091
_cell_angle_gamma   109.42403929
_symmetry_Int_Tables_number   1
_chemical_formula_structural   Sc5(Re7Ru)3
_chemical_formula_sum   'Sc5 Re21 Ru3'
_cell_volume   462.39940459
_cell_formula_units_Z   1
loop_
 _symmetry_equiv_pos_site_id
 _symmetry_equiv_pos_as_xyz
  1  'x, y, z'
loop_
 _atom_site_type_symbol
 _atom_site_label
 _atom_site_symmetry_multiplicity
 _atom_site_fract_x
 _atom_site_fract_y
 _atom_site_fract_z
 _atom_site_occupancy
  Sc  Sc0  1  0.370115  0.370606  0.371270  1
  Sc  Sc1  1  0.999991  0.628975  0.998363  1
  Sc  Sc2  1  0.629920  0.000472  0.001130  1
  Sc  Sc3  1  0.000008  0.001813  0.630468  1
  Sc  Sc4  1  0.000028  0.000003  0.000320  1
  Re  Re5  1  0.322936  0.720319  0.325987  1
  Re  Re6  1  0.675572  0.003038  0.396879  1
  Re  Re7  1  0.000082  0.677092  0.397615  1
  Re  Re8  1  0.604100  0.603009  0.277548  1
  Re  Re9  1  0.808485  0.811167  0.184961  1
  Re  Re10  1  0.374825  0.190418  0.998391  1
  Re  Re11  1  0.193315  0.375833  0.002393  1
  Re  Re12  1  0.625312  0.815642  0.623560  1
  Re  Re13  1  0.372804  0.996495  0.189320  1
  Re  Re14  1  0.999851  0.377795  0.194446  1
  Re  Re15  1  0.817035  0.622480  0.619910  1
  Re  Re16  1  0.182799  0.805590  0.803044  1
  Re  Re17  1  0.806799  0.182666  0.808988  1
  Re  Re18  1  0.191432  0.002768  0.376189  1
  Re  Re19  1  0.999908  0.195485  0.380828  1
  Re  Re20  1  0.627227  0.623754  0.816619  1
  Re  Re21  1  0.395965  0.998818  0.673536  1
  Re  Re22  1  0.605942  0.279387  0.602315  1
  Re  Re23  1  0.676920  0.397362  0.002987  1
  Re  Re24  1  0.394031  0.673355  0.996209  1
  Re  Re25  1  0.324392  0.327387  0.721172  1
  Ru  Ru26  1  0.000287  0.398877  0.682489  1
  Ru  Ru27  1  0.285793  0.602623  0.604389  1
  Ru  Ru28  1  0.714126  0.316770  0.318674  1
