# generated using pymatgen
data_Zr2Sc3HgPb3
_symmetry_space_group_name_H-M   'P 1'
_cell_length_a   8.92577200
_cell_length_b   8.92577311
_cell_length_c   6.12857500
_cell_angle_alpha   90.00000000
_cell_angle_beta   90.00000000
_cell_angle_gamma   120.00000331
_symmetry_Int_Tables_number   1
_chemical_formula_structural   Zr2Sc3HgPb3
_chemical_formula_sum   'Zr4 Sc6 Hg2 Pb6'
_cell_volume   422.84554011
_cell_formula_units_Z   2
loop_
 _symmetry_equiv_pos_site_id
 _symmetry_equiv_pos_as_xyz
  1  'x, y, z'
loop_
 _atom_site_type_symbol
 _atom_site_label
 _atom_site_symmetry_multiplicity
 _atom_site_fract_x
 _atom_site_fract_y
 _atom_site_fract_z
 _atom_site_occupancy
  Zr  Zr0  1  0.666667  0.333333  0.000000  1
  Zr  Zr1  1  0.333333  0.666667  0.000000  1
  Zr  Zr2  1  0.333333  0.666667  0.500000  1
  Zr  Zr3  1  0.666667  0.333333  0.500000  1
  Sc  Sc4  1  0.716626  0.716626  0.750000  1
  Sc  Sc5  1  0.283374  0.000000  0.750000  1
  Sc  Sc6  1  0.000000  0.283374  0.750000  1
  Sc  Sc7  1  0.283374  0.283374  0.250000  1
  Sc  Sc8  1  0.716626  0.000000  0.250000  1
  Sc  Sc9  1  0.000000  0.716626  0.250000  1
  Hg  Hg10  1  0.000000  0.000000  0.000000  1
  Hg  Hg11  1  0.000000  0.000000  0.500000  1
  Pb  Pb12  1  0.377449  0.377449  0.750000  1
  Pb  Pb13  1  0.622551  0.000000  0.750000  1
  Pb  Pb14  1  0.000000  0.622551  0.750000  1
  Pb  Pb15  1  0.622551  0.622551  0.250000  1
  Pb  Pb16  1  0.377449  0.000000  0.250000  1
  Pb  Pb17  1  0.000000  0.377449  0.250000  1
