# generated using pymatgen
data_Cs2Nb2TlNCl10
_symmetry_space_group_name_H-M   'P 1'
_cell_length_a   7.16847700
_cell_length_b   7.16847700
_cell_length_c   18.68053400
_cell_angle_alpha   90.00000000
_cell_angle_beta   90.00000000
_cell_angle_gamma   90.00000000
_symmetry_Int_Tables_number   1
_chemical_formula_structural   Cs2Nb2TlNCl10
_chemical_formula_sum   'Cs4 Nb4 Tl2 N2 Cl20'
_cell_volume   959.93776818
_cell_formula_units_Z   2
loop_
 _symmetry_equiv_pos_site_id
 _symmetry_equiv_pos_as_xyz
  1  'x, y, z'
loop_
 _atom_site_type_symbol
 _atom_site_label
 _atom_site_symmetry_multiplicity
 _atom_site_fract_x
 _atom_site_fract_y
 _atom_site_fract_z
 _atom_site_occupancy
  Cs  Cs0  1  0.000000  0.500000  0.250000  1
  Cs  Cs1  1  0.500000  0.000000  0.750000  1
  Cs  Cs2  1  0.500000  0.000000  0.250000  1
  Cs  Cs3  1  0.000000  0.500000  0.750000  1
  Nb  Nb4  1  0.500000  0.500000  0.399956  1
  Nb  Nb5  1  0.000000  0.000000  0.899956  1
  Nb  Nb6  1  0.500000  0.500000  0.600044  1
  Nb  Nb7  1  0.000000  0.000000  0.100044  1
  Tl  Tl8  1  0.500000  0.500000  0.000000  1
  Tl  Tl9  1  0.000000  0.000000  0.500000  1
  N  N10  1  0.500000  0.500000  0.500000  1
  N  N11  1  0.000000  0.000000  0.000000  1
  Cl  Cl12  1  0.771213  0.699748  0.394066  1
  Cl  Cl13  1  0.228787  0.300252  0.394066  1
  Cl  Cl14  1  0.728787  0.199748  0.894066  1
  Cl  Cl15  1  0.271213  0.800252  0.894066  1
  Cl  Cl16  1  0.699748  0.228787  0.394066  1
  Cl  Cl17  1  0.300252  0.771213  0.394066  1
  Cl  Cl18  1  0.199748  0.271213  0.894066  1
  Cl  Cl19  1  0.800252  0.728787  0.894066  1
  Cl  Cl20  1  0.228787  0.300252  0.605934  1
  Cl  Cl21  1  0.771213  0.699748  0.605934  1
  Cl  Cl22  1  0.271213  0.800252  0.105934  1
  Cl  Cl23  1  0.728787  0.199748  0.105934  1
  Cl  Cl24  1  0.300252  0.771213  0.605934  1
  Cl  Cl25  1  0.699748  0.228787  0.605934  1
  Cl  Cl26  1  0.800252  0.728787  0.105934  1
  Cl  Cl27  1  0.199748  0.271213  0.105934  1
  Cl  Cl28  1  0.500000  0.500000  0.261756  1
  Cl  Cl29  1  0.000000  0.000000  0.761756  1
  Cl  Cl30  1  0.500000  0.500000  0.738244  1
  Cl  Cl31  1  0.000000  0.000000  0.238244  1
