# generated using pymatgen
data_Dy20Ir7Ru3Au2
_symmetry_space_group_name_H-M   'P 1'
_cell_length_a   10.96272045
_cell_length_b   10.91433475
_cell_length_c   6.42141777
_cell_angle_alpha   90.10152977
_cell_angle_beta   89.86936817
_cell_angle_gamma   90.07708200
_symmetry_Int_Tables_number   1
_chemical_formula_structural   Dy20Ir7Ru3Au2
_chemical_formula_sum   'Dy20 Ir7 Ru3 Au2'
_cell_volume   768.32388411
_cell_formula_units_Z   1
loop_
 _symmetry_equiv_pos_site_id
 _symmetry_equiv_pos_as_xyz
  1  'x, y, z'
loop_
 _atom_site_type_symbol
 _atom_site_label
 _atom_site_symmetry_multiplicity
 _atom_site_fract_x
 _atom_site_fract_y
 _atom_site_fract_z
 _atom_site_occupancy
  Dy  Dy0  1  0.294100  0.087314  0.376766  1
  Dy  Dy1  1  0.294374  0.913135  0.877522  1
  Dy  Dy2  1  0.697140  0.090443  0.867266  1
  Dy  Dy3  1  0.696840  0.909235  0.367754  1
  Dy  Dy4  1  0.577394  0.791930  0.879670  1
  Dy  Dy5  1  0.577697  0.208136  0.379375  1
  Dy  Dy6  1  0.409643  0.793089  0.379176  1
  Dy  Dy7  1  0.410455  0.206763  0.879869  1
  Dy  Dy8  1  0.209285  0.411258  0.621144  1
  Dy  Dy9  1  0.208575  0.589001  0.118911  1
  Dy  Dy10  1  0.791281  0.419513  0.119975  1
  Dy  Dy11  1  0.790917  0.580267  0.622187  1
  Dy  Dy12  1  0.916865  0.704220  0.133335  1
  Dy  Dy13  1  0.917288  0.295200  0.637675  1
  Dy  Dy14  1  0.096097  0.703397  0.622379  1
  Dy  Dy15  1  0.096333  0.297399  0.119928  1
  Dy  Dy16  1  0.008320  0.998835  0.499038  1
  Dy  Dy17  1  0.008775  0.001076  0.998681  1
  Dy  Dy18  1  0.499692  0.498942  0.998202  1
  Dy  Dy19  1  0.499508  0.500912  0.498527  1
  Ir  Ir20  1  0.153182  0.153879  0.749719  1
  Ir  Ir21  1  0.152286  0.845857  0.249816  1
  Ir  Ir22  1  0.654887  0.347302  0.747872  1
  Ir  Ir23  1  0.654958  0.652537  0.247905  1
  Ir  Ir24  1  0.347703  0.347513  0.250648  1
  Ir  Ir25  1  0.347495  0.653086  0.750687  1
  Ir  Ir26  1  0.999769  0.498897  0.378016  1
  Ru  Ru27  1  0.500511  0.999837  0.126339  1
  Ru  Ru28  1  0.500212  0.000074  0.626544  1
  Ru  Ru29  1  0.999717  0.500548  0.874796  1
  Au  Au30  1  0.844510  0.154814  0.249981  1
  Au  Au31  1  0.844192  0.845590  0.750296  1
