# generated using pymatgen
data_Nb8CoSnSe16
_symmetry_space_group_name_H-M   'P 1'
_cell_length_a   7.02118500
_cell_length_b   7.02118648
_cell_length_c   13.91306900
_cell_angle_alpha   90.00000000
_cell_angle_beta   90.00000000
_cell_angle_gamma   119.99999772
_symmetry_Int_Tables_number   1
_chemical_formula_structural   Nb8CoSnSe16
_chemical_formula_sum   'Nb8 Co1 Sn1 Se16'
_cell_volume   593.98366967
_cell_formula_units_Z   1
loop_
 _symmetry_equiv_pos_site_id
 _symmetry_equiv_pos_as_xyz
  1  'x, y, z'
loop_
 _atom_site_type_symbol
 _atom_site_label
 _atom_site_symmetry_multiplicity
 _atom_site_fract_x
 _atom_site_fract_y
 _atom_site_fract_z
 _atom_site_occupancy
  Nb  Nb0  1  0.000000  0.000000  0.222288  1
  Nb  Nb1  1  0.000000  0.000000  0.777712  1
  Nb  Nb2  1  0.507272  0.014544  0.222231  1
  Nb  Nb3  1  0.985456  0.492728  0.222231  1
  Nb  Nb4  1  0.507272  0.492728  0.222231  1
  Nb  Nb5  1  0.492728  0.985456  0.777769  1
  Nb  Nb6  1  0.014544  0.507272  0.777769  1
  Nb  Nb7  1  0.492728  0.507272  0.777769  1
  Co  Co8  1  0.000000  0.000000  0.000000  1
  Sn  Sn9  1  0.000000  0.000000  0.500000  1
  Se  Se10  1  0.333333  0.666667  0.900933  1
  Se  Se11  1  0.666667  0.333333  0.099067  1
  Se  Se12  1  0.666667  0.333333  0.347477  1
  Se  Se13  1  0.333333  0.666667  0.652523  1
  Se  Se14  1  0.167737  0.832263  0.341918  1
  Se  Se15  1  0.167737  0.335474  0.341918  1
  Se  Se16  1  0.664526  0.832263  0.341918  1
  Se  Se17  1  0.832263  0.167737  0.658082  1
  Se  Se18  1  0.832263  0.664526  0.658082  1
  Se  Se19  1  0.335474  0.167737  0.658082  1
  Se  Se20  1  0.832788  0.167212  0.895126  1
  Se  Se21  1  0.832788  0.665577  0.895126  1
  Se  Se22  1  0.334423  0.167212  0.895126  1
  Se  Se23  1  0.167212  0.832788  0.104874  1
  Se  Se24  1  0.167212  0.334423  0.104874  1
  Se  Se25  1  0.665577  0.832788  0.104874  1
