# generated using pymatgen
data_LiEu4Mn(Si2O7)2
_symmetry_space_group_name_H-M   'P 1'
_cell_length_a   8.08001500
_cell_length_b   8.08001500
_cell_length_c   5.14073600
_cell_angle_alpha   90.00000000
_cell_angle_beta   90.00000000
_cell_angle_gamma   90.00000000
_symmetry_Int_Tables_number   1
_chemical_formula_structural   LiEu4Mn(Si2O7)2
_chemical_formula_sum   'Li1 Eu4 Mn1 Si4 O14'
_cell_volume   335.62139291
_cell_formula_units_Z   1
loop_
 _symmetry_equiv_pos_site_id
 _symmetry_equiv_pos_as_xyz
  1  'x, y, z'
loop_
 _atom_site_type_symbol
 _atom_site_label
 _atom_site_symmetry_multiplicity
 _atom_site_fract_x
 _atom_site_fract_y
 _atom_site_fract_z
 _atom_site_occupancy
  Li  Li0  1  0.000000  0.000000  0.000000  1
  Eu  Eu1  1  0.841711  0.318974  0.495435  1
  Eu  Eu2  1  0.158289  0.681025  0.495435  1
  Eu  Eu3  1  0.318974  0.158289  0.504564  1
  Eu  Eu4  1  0.681025  0.841711  0.504564  1
  Mn  Mn5  1  0.500000  0.500000  0.000000  1
  Si  Si6  1  0.645018  0.133734  0.063612  1
  Si  Si7  1  0.354981  0.866267  0.063612  1
  Si  Si8  1  0.133734  0.354981  0.936388  1
  Si  Si9  1  0.866267  0.645018  0.936388  1
  O  O10  1  0.500000  0.000000  0.169584  1
  O  O11  1  0.812035  0.070863  0.212335  1
  O  O12  1  0.588332  0.305584  0.212259  1
  O  O13  1  0.411669  0.694417  0.212259  1
  O  O14  1  0.187966  0.929136  0.212335  1
  O  O15  1  0.137090  0.356176  0.252005  1
  O  O16  1  0.862911  0.643823  0.252005  1
  O  O17  1  0.643823  0.137090  0.747995  1
  O  O18  1  0.356176  0.862911  0.747995  1
  O  O19  1  0.070863  0.187966  0.787666  1
  O  O20  1  0.305584  0.411669  0.787742  1
  O  O21  1  0.694417  0.588332  0.787742  1
  O  O22  1  0.929136  0.812035  0.787666  1
  O  O23  1  0.000000  0.500000  0.830415  1
