# generated using pymatgen
data_Tb10Bi6PCl
_symmetry_space_group_name_H-M   'P 1'
_cell_length_a   9.27700000
_cell_length_b   9.27700079
_cell_length_c   6.59629700
_cell_angle_alpha   90.00000000
_cell_angle_beta   90.00000000
_cell_angle_gamma   120.00000433
_symmetry_Int_Tables_number   1
_chemical_formula_structural   Tb10Bi6PCl
_chemical_formula_sum   'Tb10 Bi6 P1 Cl1'
_cell_volume   491.63858983
_cell_formula_units_Z   1
loop_
 _symmetry_equiv_pos_site_id
 _symmetry_equiv_pos_as_xyz
  1  'x, y, z'
loop_
 _atom_site_type_symbol
 _atom_site_label
 _atom_site_symmetry_multiplicity
 _atom_site_fract_x
 _atom_site_fract_y
 _atom_site_fract_z
 _atom_site_occupancy
  Tb  Tb0  1  0.666667  0.333333  0.500000  1
  Tb  Tb1  1  0.333333  0.666667  0.500000  1
  Tb  Tb2  1  0.333333  0.666667  0.000000  1
  Tb  Tb3  1  0.666667  0.333333  0.000000  1
  Tb  Tb4  1  0.749413  0.749413  0.262657  1
  Tb  Tb5  1  0.250587  0.000000  0.262657  1
  Tb  Tb6  1  0.000000  0.250587  0.262657  1
  Tb  Tb7  1  0.250587  0.250587  0.737343  1
  Tb  Tb8  1  0.749413  0.000000  0.737343  1
  Tb  Tb9  1  0.000000  0.749413  0.737343  1
  Bi  Bi10  1  0.394674  0.394674  0.249582  1
  Bi  Bi11  1  0.605326  0.000000  0.249582  1
  Bi  Bi12  1  0.000000  0.605326  0.249582  1
  Bi  Bi13  1  0.605326  0.605326  0.750418  1
  Bi  Bi14  1  0.394674  0.000000  0.750418  1
  Bi  Bi15  1  0.000000  0.394674  0.750418  1
  P  P16  1  0.000000  0.000000  0.500000  1
  Cl  Cl17  1  0.000000  0.000000  0.000000  1
