# generated using pymatgen
data_Hf5PaCrCl15
_symmetry_space_group_name_H-M   'P 1'
_cell_length_a   9.28858996
_cell_length_b   9.28859106
_cell_length_c   9.28859000
_cell_angle_alpha   113.52373893
_cell_angle_beta   101.63885935
_cell_angle_gamma   113.52373324
_symmetry_Int_Tables_number   1
_chemical_formula_structural   Hf5PaCrCl15
_chemical_formula_sum   'Hf5 Pa1 Cr1 Cl15'
_cell_volume   608.43933199
_cell_formula_units_Z   1
loop_
 _symmetry_equiv_pos_site_id
 _symmetry_equiv_pos_as_xyz
  1  'x, y, z'
loop_
 _atom_site_type_symbol
 _atom_site_label
 _atom_site_symmetry_multiplicity
 _atom_site_fract_x
 _atom_site_fract_y
 _atom_site_fract_z
 _atom_site_occupancy
  Hf  Hf0  1  0.250282  0.245638  0.004644  1
  Hf  Hf1  1  0.819302  0.000000  0.819302  1
  Hf  Hf2  1  0.004644  0.245638  0.250282  1
  Hf  Hf3  1  0.004644  0.754362  0.759006  1
  Hf  Hf4  1  0.759006  0.754362  0.004644  1
  Pa  Pa5  1  0.212923  0.000000  0.212923  1
  Cr  Cr6  1  0.028454  0.000000  0.028454  1
  Cl  Cl7  1  0.944366  0.728586  0.215780  1
  Cl  Cl8  1  0.215780  0.728586  0.944366  1
  Cl  Cl9  1  0.543628  0.756734  0.786895  1
  Cl  Cl10  1  0.030161  0.243266  0.786895  1
  Cl  Cl11  1  0.747345  0.000000  0.252553  1
  Cl  Cl12  1  0.252553  0.505209  0.252553  1
  Cl  Cl13  1  0.786895  0.243266  0.030161  1
  Cl  Cl14  1  0.491710  0.500000  0.991710  1
  Cl  Cl15  1  0.215780  0.271414  0.487195  1
  Cl  Cl16  1  0.747345  0.494791  0.747345  1
  Cl  Cl17  1  0.786895  0.756734  0.543628  1
  Cl  Cl18  1  0.487195  0.271414  0.215780  1
  Cl  Cl19  1  0.252553  0.000000  0.747345  1
  Cl  Cl20  1  0.991710  0.500000  0.491710  1
  Cl  Cl21  1  0.426829  0.000000  0.426829  1
