# generated using pymatgen
data_TbNd3(B2Ir5)2
_symmetry_space_group_name_H-M   'P 1'
_cell_length_a   11.12694555
_cell_length_b   11.12694531
_cell_length_c   11.12694508
_cell_angle_alpha   28.75263657
_cell_angle_beta   28.75263778
_cell_angle_gamma   28.75263977
_symmetry_Int_Tables_number   1
_chemical_formula_structural   TbNd3(B2Ir5)2
_chemical_formula_sum   'Tb1 Nd3 B4 Ir10'
_cell_volume   281.84483755
_cell_formula_units_Z   1
loop_
 _symmetry_equiv_pos_site_id
 _symmetry_equiv_pos_as_xyz
  1  'x, y, z'
loop_
 _atom_site_type_symbol
 _atom_site_label
 _atom_site_symmetry_multiplicity
 _atom_site_fract_x
 _atom_site_fract_y
 _atom_site_fract_z
 _atom_site_occupancy
  Tb  Tb0  1  0.049713  0.049713  0.049713  1
  Nd  Nd1  1  0.151505  0.151505  0.151505  1
  Nd  Nd2  1  0.950584  0.950584  0.950584  1
  Nd  Nd3  1  0.848449  0.848449  0.848449  1
  B  B4  1  0.618272  0.618272  0.618272  1
  B  B5  1  0.716258  0.716258  0.716258  1
  B  B6  1  0.381784  0.381784  0.381784  1
  B  B7  1  0.283862  0.283862  0.283862  1
  Ir  Ir8  1  0.408057  0.898502  0.408057  1
  Ir  Ir9  1  0.898502  0.408057  0.408057  1
  Ir  Ir10  1  0.500433  0.500433  0.000222  1
  Ir  Ir11  1  0.500433  0.000222  0.500433  1
  Ir  Ir12  1  0.000222  0.500433  0.500433  1
  Ir  Ir13  1  0.499820  0.499820  0.499820  1
  Ir  Ir14  1  0.591440  0.101170  0.591440  1
  Ir  Ir15  1  0.591440  0.591440  0.101170  1
  Ir  Ir16  1  0.101170  0.591440  0.591440  1
  Ir  Ir17  1  0.408057  0.408057  0.898502  1
