# generated using pymatgen
data_Ba4SnSb7Au8
_symmetry_space_group_name_H-M   'P 1'
_cell_length_a   4.90165200
_cell_length_b   9.05032666
_cell_length_c   12.46803623
_cell_angle_alpha   90.09697073
_cell_angle_beta   90.00000000
_cell_angle_gamma   90.00000000
_symmetry_Int_Tables_number   1
_chemical_formula_structural   Ba4SnSb7Au8
_chemical_formula_sum   'Ba4 Sn1 Sb7 Au8'
_cell_volume   553.10064269
_cell_formula_units_Z   1
loop_
 _symmetry_equiv_pos_site_id
 _symmetry_equiv_pos_as_xyz
  1  'x, y, z'
loop_
 _atom_site_type_symbol
 _atom_site_label
 _atom_site_symmetry_multiplicity
 _atom_site_fract_x
 _atom_site_fract_y
 _atom_site_fract_z
 _atom_site_occupancy
  Ba  Ba0  1  0.750000  0.747412  0.334503  1
  Ba  Ba1  1  0.250000  0.760639  0.839527  1
  Ba  Ba2  1  0.250000  0.254239  0.662013  1
  Ba  Ba3  1  0.750000  0.239126  0.161714  1
  Sn  Sn4  1  0.250000  0.391437  0.954029  1
  Sb  Sb5  1  0.250000  0.403482  0.344183  1
  Sb  Sb6  1  0.250000  0.902481  0.157636  1
  Sb  Sb7  1  0.750000  0.598478  0.038820  1
  Sb  Sb8  1  0.750000  0.599811  0.654557  1
  Sb  Sb9  1  0.750000  0.097679  0.847456  1
  Sb  Sb10  1  0.250000  0.893461  0.542372  1
  Sb  Sb11  1  0.750000  0.108550  0.458893  1
  Au  Au12  1  0.250000  0.091932  0.974523  1
  Au  Au13  1  0.750000  0.420894  0.837481  1
  Au  Au14  1  0.750000  0.922297  0.661693  1
  Au  Au15  1  0.250000  0.575457  0.157360  1
  Au  Au16  1  0.250000  0.082699  0.340142  1
  Au  Au17  1  0.750000  0.906409  0.034746  1
  Au  Au18  1  0.250000  0.585472  0.535376  1
  Au  Au19  1  0.750000  0.418046  0.462975  1
