# generated using pymatgen
data_CeNd4P12Ru19
_symmetry_space_group_name_H-M   'P 1'
_cell_length_a   12.64199600
_cell_length_b   12.64199627
_cell_length_c   4.01289100
_cell_angle_alpha   90.00000000
_cell_angle_beta   90.00000000
_cell_angle_gamma   119.99999930
_symmetry_Int_Tables_number   1
_chemical_formula_structural   CeNd4P12Ru19
_chemical_formula_sum   'Ce1 Nd4 P12 Ru19'
_cell_volume   555.41717415
_cell_formula_units_Z   1
loop_
 _symmetry_equiv_pos_site_id
 _symmetry_equiv_pos_as_xyz
  1  'x, y, z'
loop_
 _atom_site_type_symbol
 _atom_site_label
 _atom_site_symmetry_multiplicity
 _atom_site_fract_x
 _atom_site_fract_y
 _atom_site_fract_z
 _atom_site_occupancy
  Ce  Ce0  1  0.666667  0.333333  0.000000  1
  Nd  Nd1  1  0.184349  0.184285  0.500000  1
  Nd  Nd2  1  0.815715  0.000065  0.500000  1
  Nd  Nd3  1  0.999935  0.815651  0.500000  1
  Nd  Nd4  1  0.333333  0.666667  0.000000  1
  P  P5  1  0.812959  0.812904  0.000000  1
  P  P6  1  0.187096  0.000055  0.000000  1
  P  P7  1  0.999945  0.187041  0.000000  1
  P  P8  1  0.170758  0.476129  0.500000  1
  P  P9  1  0.523871  0.694629  0.500000  1
  P  P10  1  0.305371  0.829242  0.500000  1
  P  P11  1  0.694830  0.523576  0.500000  1
  P  P12  1  0.828746  0.305170  0.500000  1
  P  P13  1  0.476424  0.171254  0.500000  1
  P  P14  1  0.374236  0.374849  0.000000  1
  P  P15  1  0.625151  0.999387  0.000000  1
  P  P16  1  0.000613  0.625764  0.000000  1
  Ru  Ru17  1  0.554817  0.554472  0.000000  1
  Ru  Ru18  1  0.445528  0.000346  0.000000  1
  Ru  Ru19  1  0.999654  0.445183  0.000000  1
  Ru  Ru20  1  0.715352  0.714894  0.500000  1
  Ru  Ru21  1  0.285106  0.000458  0.500000  1
  Ru  Ru22  1  0.999542  0.284648  0.500000  1
  Ru  Ru23  1  0.184110  0.377965  0.000000  1
  Ru  Ru24  1  0.622035  0.806145  0.000000  1
  Ru  Ru25  1  0.193855  0.815890  0.000000  1
  Ru  Ru26  1  0.805393  0.619973  0.000000  1
  Ru  Ru27  1  0.814580  0.194607  0.000000  1
  Ru  Ru28  1  0.380027  0.185420  0.000000  1
  Ru  Ru29  1  0.366837  0.490945  0.500000  1
  Ru  Ru30  1  0.509055  0.875892  0.500000  1
  Ru  Ru31  1  0.124108  0.633163  0.500000  1
  Ru  Ru32  1  0.872947  0.506065  0.500000  1
  Ru  Ru33  1  0.633119  0.127053  0.500000  1
  Ru  Ru34  1  0.493935  0.366881  0.500000  1
  Ru  Ru35  1  0.000000  0.000000  0.000000  1
