# generated using pymatgen
data_TbDy7Re2(B12Os)2
_symmetry_space_group_name_H-M   'P 1'
_cell_length_a   3.67422500
_cell_length_b   9.17338284
_cell_length_c   11.56233500
_cell_angle_alpha   90.13942726
_cell_angle_beta   90.00000000
_cell_angle_gamma   90.00000000
_symmetry_Int_Tables_number   1
_chemical_formula_structural   TbDy7Re2(B12Os)2
_chemical_formula_sum   'Tb1 Dy7 Re2 B24 Os2'
_cell_volume   389.70818619
_cell_formula_units_Z   1
loop_
 _symmetry_equiv_pos_site_id
 _symmetry_equiv_pos_as_xyz
  1  'x, y, z'
loop_
 _atom_site_type_symbol
 _atom_site_label
 _atom_site_symmetry_multiplicity
 _atom_site_fract_x
 _atom_site_fract_y
 _atom_site_fract_z
 _atom_site_occupancy
  Tb  Tb0  1  0.000000  0.321139  0.412452  1
  Dy  Dy1  1  0.000000  0.678934  0.587578  1
  Dy  Dy2  1  0.000000  0.824909  0.084788  1
  Dy  Dy3  1  0.000000  0.175095  0.915203  1
  Dy  Dy4  1  0.000000  0.943382  0.370665  1
  Dy  Dy5  1  0.000000  0.056521  0.629359  1
  Dy  Dy6  1  0.000000  0.442533  0.128859  1
  Dy  Dy7  1  0.000000  0.557472  0.871115  1
  Re  Re8  1  0.000000  0.138196  0.179369  1
  Re  Re9  1  0.000000  0.861722  0.820538  1
  B  B10  1  0.500000  0.553951  0.432849  1
  B  B11  1  0.500000  0.446247  0.567262  1
  B  B12  1  0.500000  0.053149  0.066988  1
  B  B13  1  0.500000  0.946849  0.933011  1
  B  B14  1  0.500000  0.748277  0.418709  1
  B  B15  1  0.500000  0.251727  0.581481  1
  B  B16  1  0.500000  0.248272  0.081125  1
  B  B17  1  0.500000  0.751720  0.918857  1
  B  B18  1  0.500000  0.790458  0.266131  1
  B  B19  1  0.500000  0.209550  0.733888  1
  B  B20  1  0.500000  0.291279  0.234195  1
  B  B21  1  0.500000  0.708614  0.765646  1
  B  B22  1  0.500000  0.631130  0.186348  1
  B  B23  1  0.500000  0.368899  0.813644  1
  B  B24  1  0.500000  0.131464  0.314345  1
  B  B25  1  0.500000  0.868393  0.685534  1
  B  B26  1  0.500000  0.983150  0.212425  1
  B  B27  1  0.500000  0.016833  0.787564  1
  B  B28  1  0.500000  0.483568  0.287902  1
  B  B29  1  0.500000  0.516641  0.712039  1
  B  B30  1  0.500000  0.603869  0.029021  1
  B  B31  1  0.500000  0.396140  0.970970  1
  B  B32  1  0.500000  0.104234  0.471245  1
  B  B33  1  0.500000  0.895521  0.528819  1
  Os  Os34  1  0.000000  0.637563  0.321908  1
  Os  Os35  1  0.000000  0.362601  0.678169  1
