# generated using pymatgen
data_Hf21Zr3SiAs7
_symmetry_space_group_name_H-M   'P 1'
_cell_length_a   8.22448977
_cell_length_b   8.23526173
_cell_length_c   15.40703506
_cell_angle_alpha   89.58881901
_cell_angle_beta   89.56096481
_cell_angle_gamma   38.41744468
_symmetry_Int_Tables_number   1
_chemical_formula_structural   Hf21Zr3SiAs7
_chemical_formula_sum   'Hf21 Zr3 Si1 As7'
_cell_volume   648.41586829
_cell_formula_units_Z   1
loop_
 _symmetry_equiv_pos_site_id
 _symmetry_equiv_pos_as_xyz
  1  'x, y, z'
loop_
 _atom_site_type_symbol
 _atom_site_label
 _atom_site_symmetry_multiplicity
 _atom_site_fract_x
 _atom_site_fract_y
 _atom_site_fract_z
 _atom_site_occupancy
  Hf  Hf0  1  0.459916  0.424539  0.331894  1
  Hf  Hf1  1  0.049580  0.473094  0.906176  1
  Hf  Hf2  1  0.540873  0.575906  0.665940  1
  Hf  Hf3  1  0.433120  0.878782  0.990312  1
  Hf  Hf4  1  0.202071  0.700106  0.017901  1
  Hf  Hf5  1  0.563737  0.123430  0.013622  1
  Hf  Hf6  1  0.119402  0.568072  0.509087  1
  Hf  Hf7  1  0.955905  0.524775  0.095681  1
  Hf  Hf8  1  0.879705  0.432040  0.489187  1
  Hf  Hf9  1  0.006688  0.526936  0.300598  1
  Hf  Hf10  1  0.995050  0.472129  0.698467  1
  Hf  Hf11  1  0.799199  0.297485  0.983943  1
  Hf  Hf12  1  0.527182  0.950120  0.593991  1
  Hf  Hf13  1  0.043336  0.122409  0.308602  1
  Hf  Hf14  1  0.700801  0.201748  0.516095  1
  Hf  Hf15  1  0.297309  0.799151  0.482925  1
  Hf  Hf16  1  0.878914  0.954194  0.191509  1
  Hf  Hf17  1  0.470393  0.999636  0.198193  1
  Hf  Hf18  1  0.573258  0.539087  0.167016  1
  Hf  Hf19  1  0.528565  0.004354  0.801453  1
  Hf  Hf20  1  0.471358  0.050048  0.404477  1
  Zr  Zr21  1  0.121637  0.042660  0.808322  1
  Zr  Zr22  1  0.424152  0.460891  0.832671  1
  Zr  Zr23  1  0.956998  0.878655  0.691508  1
  Si  Si24  1  0.336381  0.420193  0.167967  1
  As  As25  1  0.892933  0.934555  0.873799  1
  As  As26  1  0.104595  0.064424  0.128429  1
  As  As27  1  0.666002  0.580584  0.833141  1
  As  As28  1  0.579798  0.664985  0.332396  1
  As  As29  1  0.418814  0.335050  0.665834  1
  As  As30  1  0.935569  0.895489  0.371611  1
  As  As31  1  0.066758  0.104476  0.627256  1
