# generated using pymatgen
data_TcBi4Pt3F28
_symmetry_space_group_name_H-M   'P 1'
_cell_length_a   5.66984620
_cell_length_b   9.21037871
_cell_length_c   12.23830663
_cell_angle_alpha   61.63247557
_cell_angle_beta   90.00088773
_cell_angle_gamma   90.06480306
_symmetry_Int_Tables_number   1
_chemical_formula_structural   TcBi4Pt3F28
_chemical_formula_sum   'Tc1 Bi4 Pt3 F28'
_cell_volume   562.35680295
_cell_formula_units_Z   1
loop_
 _symmetry_equiv_pos_site_id
 _symmetry_equiv_pos_as_xyz
  1  'x, y, z'
loop_
 _atom_site_type_symbol
 _atom_site_label
 _atom_site_symmetry_multiplicity
 _atom_site_fract_x
 _atom_site_fract_y
 _atom_site_fract_z
 _atom_site_occupancy
  Tc  Tc0  1  0.757316  0.727489  0.041749  1
  Bi  Bi1  1  0.261178  0.814251  0.263874  1
  Bi  Bi2  1  0.737161  0.184979  0.737932  1
  Bi  Bi3  1  0.762898  0.182876  0.238944  1
  Bi  Bi4  1  0.236695  0.815377  0.760814  1
  Pt  Pt5  1  0.241333  0.270596  0.959008  1
  Pt  Pt6  1  0.258483  0.271048  0.458658  1
  Pt  Pt7  1  0.741453  0.728479  0.541811  1
  F  F8  1  0.928879  0.706571  0.414462  1
  F  F9  1  0.068820  0.293140  0.585125  1
  F  F10  1  0.431404  0.293373  0.085183  1
  F  F11  1  0.560540  0.710482  0.917148  1
  F  F12  1  0.475612  0.730414  0.133837  1
  F  F13  1  0.531005  0.271582  0.869617  1
  F  F14  1  0.968600  0.272303  0.369130  1
  F  F15  1  0.032468  0.727738  0.630059  1
  F  F16  1  0.948718  0.745217  0.169762  1
  F  F17  1  0.058363  0.255668  0.826866  1
  F  F18  1  0.442209  0.256979  0.326351  1
  F  F19  1  0.560644  0.743184  0.674519  1
  F  F20  1  0.771017  0.488378  0.137914  1
  F  F21  1  0.229986  0.512045  0.861300  1
  F  F22  1  0.269594  0.512659  0.361448  1
  F  F23  1  0.730375  0.487173  0.639009  1
  F  F24  1  0.944522  0.278698  0.041782  1
  F  F25  1  0.049452  0.722722  0.954985  1
  F  F26  1  0.443784  0.720482  0.460198  1
  F  F27  1  0.555287  0.278916  0.541121  1
  F  F28  1  0.743446  0.973407  0.448882  1
  F  F29  1  0.256713  0.026328  0.550940  1
  F  F30  1  0.243553  0.025548  0.052557  1
  F  F31  1  0.757483  0.971831  0.945696  1
  F  F32  1  0.594821  0.969238  0.229838  1
  F  F33  1  0.406218  0.029271  0.769942  1
  F  F34  1  0.094436  0.030257  0.270995  1
  F  F35  1  0.905534  0.971310  0.728545  1
