# generated using pymatgen
data_La5Dy(CBr5)2
_symmetry_space_group_name_H-M   'P 1'
_cell_length_a   7.70358120
_cell_length_b   9.33085859
_cell_length_c   9.38925096
_cell_angle_alpha   108.44524902
_cell_angle_beta   96.67684935
_cell_angle_gamma   105.71184655
_symmetry_Int_Tables_number   1
_chemical_formula_structural   La5Dy(CBr5)2
_chemical_formula_sum   'La5 Dy1 C2 Br10'
_cell_volume   601.05454106
_cell_formula_units_Z   1
loop_
 _symmetry_equiv_pos_site_id
 _symmetry_equiv_pos_as_xyz
  1  'x, y, z'
loop_
 _atom_site_type_symbol
 _atom_site_label
 _atom_site_symmetry_multiplicity
 _atom_site_fract_x
 _atom_site_fract_y
 _atom_site_fract_z
 _atom_site_occupancy
  La  La0  1  0.887187  0.958902  0.233591  1
  La  La1  1  0.117613  0.045346  0.768513  1
  La  La2  1  0.029258  0.718206  0.915879  1
  La  La3  1  0.974447  0.283213  0.087276  1
  La  La4  1  0.610869  0.848100  0.800597  1
  Dy  Dy5  1  0.377953  0.144059  0.190491  1
  C  C6  1  0.910334  0.967362  0.954953  1
  C  C7  1  0.093013  0.033728  0.044802  1
  Br  Br8  1  0.750644  0.916156  0.535838  1
  Br  Br9  1  0.263957  0.090585  0.453899  1
  Br  Br10  1  0.453680  0.832218  0.091478  1
  Br  Br11  1  0.541076  0.181347  0.927749  1
  Br  Br12  1  0.796218  0.263620  0.352496  1
  Br  Br13  1  0.181373  0.730921  0.637983  1
  Br  Br14  1  0.909723  0.629374  0.177701  1
  Br  Br15  1  0.092602  0.373361  0.825140  1
  Br  Br16  1  0.650049  0.531404  0.723194  1
  Br  Br17  1  0.360003  0.452096  0.278420  1
