# generated using pymatgen
data_Sm4SnSb5Rh7
_symmetry_space_group_name_H-M   'P 1'
_cell_length_a   7.69029581
_cell_length_b   7.69048141
_cell_length_c   7.69048101
_cell_angle_alpha   109.61473502
_cell_angle_beta   109.39926404
_cell_angle_gamma   109.39926132
_symmetry_Int_Tables_number   1
_chemical_formula_structural   Sm4SnSb5Rh7
_chemical_formula_sum   'Sm4 Sn1 Sb5 Rh7'
_cell_volume   350.12957837
_cell_formula_units_Z   1
loop_
 _symmetry_equiv_pos_site_id
 _symmetry_equiv_pos_as_xyz
  1  'x, y, z'
loop_
 _atom_site_type_symbol
 _atom_site_label
 _atom_site_symmetry_multiplicity
 _atom_site_fract_x
 _atom_site_fract_y
 _atom_site_fract_z
 _atom_site_occupancy
  Sm  Sm0  1  0.498314  0.000467  0.000467  1
  Sm  Sm1  1  0.999999  0.502156  0.000465  1
  Sm  Sm2  1  0.999999  0.000465  0.502156  1
  Sm  Sm3  1  0.501693  0.502158  0.502158  1
  Sn  Sn4  1  0.000001  0.315982  0.315982  1
  Sb  Sb5  1  0.680762  0.001697  0.682459  1
  Sb  Sb6  1  0.680762  0.682459  0.001697  1
  Sb  Sb7  1  0.000000  0.675619  0.675619  1
  Sb  Sb8  1  0.319237  0.001697  0.320935  1
  Sb  Sb9  1  0.319237  0.320935  0.001697  1
  Rh  Rh10  1  0.000001  0.994700  0.994700  1
  Rh  Rh11  1  0.499999  0.751448  0.251449  1
  Rh  Rh12  1  0.748839  0.499689  0.248532  1
  Rh  Rh13  1  0.251159  0.750849  0.499696  1
  Rh  Rh14  1  0.251159  0.499696  0.750849  1
  Rh  Rh15  1  0.499999  0.251449  0.751448  1
  Rh  Rh16  1  0.748839  0.248532  0.499689  1
