# generated using pymatgen
data_Tm12Fe4BiPt
_symmetry_space_group_name_H-M   'P 1'
_cell_length_a   8.22120645
_cell_length_b   8.22120655
_cell_length_c   8.22120666
_cell_angle_alpha   111.11669822
_cell_angle_beta   111.26012687
_cell_angle_gamma   106.08890861
_symmetry_Int_Tables_number   1
_chemical_formula_structural   Tm12Fe4BiPt
_chemical_formula_sum   'Tm12 Fe4 Bi1 Pt1'
_cell_volume   426.63459827
_cell_formula_units_Z   1
loop_
 _symmetry_equiv_pos_site_id
 _symmetry_equiv_pos_as_xyz
  1  'x, y, z'
loop_
 _atom_site_type_symbol
 _atom_site_label
 _atom_site_symmetry_multiplicity
 _atom_site_fract_x
 _atom_site_fract_y
 _atom_site_fract_z
 _atom_site_occupancy
  Tm  Tm0  1  0.283143  0.184869  0.468012  1
  Tm  Tm1  1  0.716857  0.815131  0.531988  1
  Tm  Tm2  1  0.283143  0.815131  0.098273  1
  Tm  Tm3  1  0.716857  0.184869  0.901727  1
  Tm  Tm4  1  0.618186  0.311078  0.307108  1
  Tm  Tm5  1  0.381814  0.688922  0.692892  1
  Tm  Tm6  1  0.003970  0.311078  0.692892  1
  Tm  Tm7  1  0.996030  0.688922  0.307108  1
  Tm  Tm8  1  0.215606  0.417898  0.202293  1
  Tm  Tm9  1  0.784394  0.582102  0.797707  1
  Tm  Tm10  1  0.215606  0.013314  0.797707  1
  Tm  Tm11  1  0.784394  0.986686  0.202293  1
  Fe  Fe12  1  0.000000  0.383236  0.383236  1
  Fe  Fe13  1  0.000000  0.616764  0.616764  1
  Fe  Fe14  1  0.392641  0.892641  0.500000  1
  Fe  Fe15  1  0.607359  0.107359  0.500000  1
  Bi  Bi16  1  0.500000  0.500000  0.000000  1
  Pt  Pt17  1  0.000000  0.000000  0.000000  1
