# generated using pymatgen
data_Ac3La(Tb3Si4)2
_symmetry_space_group_name_H-M   'P 1'
_cell_length_a   7.93180909
_cell_length_b   7.93257410
_cell_length_c   14.88479478
_cell_angle_alpha   90.08334537
_cell_angle_beta   90.16512551
_cell_angle_gamma   89.99011028
_symmetry_Int_Tables_number   1
_chemical_formula_structural   Ac3La(Tb3Si4)2
_chemical_formula_sum   'Ac6 La2 Tb12 Si16'
_cell_volume   936.54138250
_cell_formula_units_Z   2
loop_
 _symmetry_equiv_pos_site_id
 _symmetry_equiv_pos_as_xyz
  1  'x, y, z'
loop_
 _atom_site_type_symbol
 _atom_site_label
 _atom_site_symmetry_multiplicity
 _atom_site_fract_x
 _atom_site_fract_y
 _atom_site_fract_z
 _atom_site_occupancy
  Ac  Ac0  1  0.986290  0.637957  0.044565  1
  Ac  Ac1  1  0.013689  0.360671  0.542683  1
  Ac  Ac2  1  0.637963  0.985087  0.955656  1
  Ac  Ac3  1  0.138943  0.514054  0.792211  1
  Ac  Ac4  1  0.861868  0.486597  0.295201  1
  Ac  Ac5  1  0.514316  0.139288  0.207650  1
  La  La6  1  0.489374  0.867085  0.702749  1
  La  La7  1  0.365842  0.009711  0.455092  1
  Tb  Tb8  1  0.364362  0.490684  0.374484  1
  Tb  Tb9  1  0.865753  0.009447  0.377868  1
  Tb  Tb10  1  0.990509  0.136092  0.124362  1
  Tb  Tb11  1  0.009916  0.865767  0.622474  1
  Tb  Tb12  1  0.634566  0.510123  0.872195  1
  Tb  Tb13  1  0.488699  0.364178  0.625893  1
  Tb  Tb14  1  0.509757  0.634663  0.127607  1
  Tb  Tb15  1  0.136432  0.988408  0.875640  1
  Tb  Tb16  1  0.682086  0.686937  0.500869  1
  Tb  Tb17  1  0.814128  0.183770  0.749515  1
  Tb  Tb18  1  0.185528  0.816789  0.251009  1
  Tb  Tb19  1  0.314847  0.315487  0.999612  1
  Si  Si20  1  0.075090  0.719629  0.438228  1
  Si  Si21  1  0.929913  0.283747  0.936818  1
  Si  Si22  1  0.709995  0.067688  0.562658  1
  Si  Si23  1  0.215981  0.428596  0.188314  1
  Si  Si24  1  0.780272  0.573266  0.686663  1
  Si  Si25  1  0.431162  0.211852  0.811472  1
  Si  Si26  1  0.569240  0.786140  0.314264  1
  Si  Si27  1  0.284445  0.929645  0.063178  1
  Si  Si28  1  0.839529  0.802019  0.799726  1
  Si  Si29  1  0.158498  0.197790  0.305757  1
  Si  Si30  1  0.800036  0.844116  0.198785  1
  Si  Si31  1  0.303838  0.662730  0.553376  1
  Si  Si32  1  0.699658  0.343682  0.051843  1
  Si  Si33  1  0.651393  0.295303  0.447221  1
  Si  Si34  1  0.343095  0.698399  0.948049  1
  Si  Si35  1  0.202992  0.152605  0.696313  1
