# generated using pymatgen
data_Hf3Nb(SnRh5)2
_symmetry_space_group_name_H-M   'P 1'
_cell_length_a   4.12064600
_cell_length_b   5.64546289
_cell_length_c   11.11306436
_cell_angle_alpha   89.93919338
_cell_angle_beta   90.00000000
_cell_angle_gamma   90.00000000
_symmetry_Int_Tables_number   1
_chemical_formula_structural   Hf3Nb(SnRh5)2
_chemical_formula_sum   'Hf3 Nb1 Sn2 Rh10'
_cell_volume   258.52256000
_cell_formula_units_Z   1
loop_
 _symmetry_equiv_pos_site_id
 _symmetry_equiv_pos_as_xyz
  1  'x, y, z'
loop_
 _atom_site_type_symbol
 _atom_site_label
 _atom_site_symmetry_multiplicity
 _atom_site_fract_x
 _atom_site_fract_y
 _atom_site_fract_z
 _atom_site_occupancy
  Hf  Hf0  1  0.500000  0.816164  0.357059  1
  Hf  Hf1  1  0.500000  0.679907  0.859423  1
  Hf  Hf2  1  0.500000  0.317873  0.143822  1
  Nb  Nb3  1  0.500000  0.178463  0.642888  1
  Sn  Sn4  1  0.000000  0.500265  0.500955  1
  Sn  Sn5  1  0.000000  0.000032  0.999698  1
  Rh  Rh6  1  0.500000  0.203224  0.880597  1
  Rh  Rh7  1  0.500000  0.795142  0.114078  1
  Rh  Rh8  1  0.500000  0.713099  0.615050  1
  Rh  Rh9  1  0.500000  0.292219  0.388799  1
  Rh  Rh10  1  0.000000  0.436056  0.744924  1
  Rh  Rh11  1  0.000000  0.559482  0.253072  1
  Rh  Rh12  1  0.000000  0.004389  0.502823  1
  Rh  Rh13  1  0.000000  0.498929  0.999093  1
  Rh  Rh14  1  0.000000  0.059327  0.248514  1
  Rh  Rh15  1  0.000000  0.945429  0.749205  1
