# generated using pymatgen
data_NdPa3Ge4Ir3Pt
_symmetry_space_group_name_H-M   'P 1'
_cell_length_a   4.34791800
_cell_length_b   7.08172286
_cell_length_c   7.70978610
_cell_angle_alpha   89.83118319
_cell_angle_beta   90.00000000
_cell_angle_gamma   90.00000000
_symmetry_Int_Tables_number   1
_chemical_formula_structural   NdPa3Ge4Ir3Pt
_chemical_formula_sum   'Nd1 Pa3 Ge4 Ir3 Pt1'
_cell_volume   237.38906811
_cell_formula_units_Z   1
loop_
 _symmetry_equiv_pos_site_id
 _symmetry_equiv_pos_as_xyz
  1  'x, y, z'
loop_
 _atom_site_type_symbol
 _atom_site_label
 _atom_site_symmetry_multiplicity
 _atom_site_fract_x
 _atom_site_fract_y
 _atom_site_fract_z
 _atom_site_occupancy
  Nd  Nd0  1  0.750000  0.509932  0.296470  1
  Pa  Pa1  1  0.250000  0.992161  0.796036  1
  Pa  Pa2  1  0.250000  0.499615  0.711646  1
  Pa  Pa3  1  0.750000  0.002865  0.195672  1
  Ge  Ge4  1  0.250000  0.814808  0.414298  1
  Ge  Ge5  1  0.250000  0.311558  0.085485  1
  Ge  Ge6  1  0.750000  0.186714  0.585382  1
  Ge  Ge7  1  0.750000  0.680308  0.916366  1
  Ir  Ir8  1  0.250000  0.742064  0.078304  1
  Ir  Ir9  1  0.750000  0.785109  0.596371  1
  Ir  Ir10  1  0.750000  0.268787  0.909974  1
  Pt  Pt11  1  0.250000  0.206079  0.413997  1
