# generated using pymatgen
data_Hf3Sc3Be2(As2Ru3)2
_symmetry_space_group_name_H-M   'P 1'
_cell_length_a   7.61760477
_cell_length_b   7.61669603
_cell_length_c   7.61760537
_cell_angle_alpha   127.57457681
_cell_angle_beta   124.02775999
_cell_angle_gamma   80.25082264
_symmetry_Int_Tables_number   1
_chemical_formula_structural   Hf3Sc3Be2(As2Ru3)2
_chemical_formula_sum   'Hf3 Sc3 Be2 As4 Ru6'
_cell_volume   280.19581940
_cell_formula_units_Z   1
loop_
 _symmetry_equiv_pos_site_id
 _symmetry_equiv_pos_as_xyz
  1  'x, y, z'
loop_
 _atom_site_type_symbol
 _atom_site_label
 _atom_site_symmetry_multiplicity
 _atom_site_fract_x
 _atom_site_fract_y
 _atom_site_fract_z
 _atom_site_occupancy
  Hf  Hf0  1  0.249059  0.862891  0.113831  1
  Hf  Hf1  1  0.055551  0.254390  0.698839  1
  Hf  Hf2  1  0.943801  0.640436  0.196635  1
  Sc  Sc3  1  0.447437  0.648945  0.701508  1
  Sc  Sc4  1  0.553040  0.252465  0.199425  1
  Sc  Sc5  1  0.750858  0.860996  0.610138  1
  Be  Be6  1  0.253755  0.258907  0.505153  1
  Be  Be7  1  0.746492  0.248084  0.001593  1
  As  As8  1  0.335786  0.586532  0.255810  1
  As  As9  1  0.666100  0.919856  0.252593  1
  As  As10  1  0.167262  0.919856  0.753756  1
  As  As11  1  0.830723  0.586532  0.750747  1
  Ru  Ru12  1  0.498384  0.492350  0.990651  1
  Ru  Ru13  1  0.001700  0.492350  0.493966  1
  Ru  Ru14  1  0.114089  0.253064  0.128215  1
  Ru  Ru15  1  0.889857  0.014440  0.143183  1
  Ru  Ru16  1  0.371257  0.014440  0.624584  1
  Ru  Ru17  1  0.624849  0.253064  0.638974  1
