# generated using pymatgen
data_Ca4Zn5Ni9
_symmetry_space_group_name_H-M   'P 1'
_cell_length_a   5.17096285
_cell_length_b   5.17096305
_cell_length_c   12.37382732
_cell_angle_alpha   77.93931329
_cell_angle_beta   77.93931395
_cell_angle_gamma   60.00000069
_symmetry_Int_Tables_number   1
_chemical_formula_structural   Ca4Zn5Ni9
_chemical_formula_sum   'Ca4 Zn5 Ni9'
_cell_volume   278.06996505
_cell_formula_units_Z   1
loop_
 _symmetry_equiv_pos_site_id
 _symmetry_equiv_pos_as_xyz
  1  'x, y, z'
loop_
 _atom_site_type_symbol
 _atom_site_label
 _atom_site_symmetry_multiplicity
 _atom_site_fract_x
 _atom_site_fract_y
 _atom_site_fract_z
 _atom_site_occupancy
  Ca  Ca0  1  0.950787  0.950787  0.147642  1
  Ca  Ca1  1  0.049213  0.049213  0.852358  1
  Ca  Ca2  1  0.853950  0.853950  0.438149  1
  Ca  Ca3  1  0.146050  0.146050  0.561851  1
  Zn  Zn4  1  0.500000  0.500000  0.500000  1
  Zn  Zn5  1  0.722025  0.722025  0.833927  1
  Zn  Zn6  1  0.277975  0.277975  0.166073  1
  Zn  Zn7  1  0.611264  0.611264  0.166208  1
  Zn  Zn8  1  0.388736  0.388736  0.833792  1
  Ni  Ni9  1  0.000000  0.500000  0.000000  1
  Ni  Ni10  1  0.500000  0.000000  0.000000  1
  Ni  Ni11  1  0.500000  0.500000  0.000000  1
  Ni  Ni12  1  0.388691  0.388691  0.329977  1
  Ni  Ni13  1  0.892641  0.388691  0.329977  1
  Ni  Ni14  1  0.388691  0.892641  0.329977  1
  Ni  Ni15  1  0.611309  0.611309  0.670023  1
  Ni  Ni16  1  0.107359  0.611309  0.670023  1
  Ni  Ni17  1  0.611309  0.107359  0.670023  1
