# generated using pymatgen
data_Dy3Tm2BeP11Ir19
_symmetry_space_group_name_H-M   'P 1'
_cell_length_a   12.70796471
_cell_length_b   12.66199330
_cell_length_c   3.96164200
_cell_angle_alpha   90.00000000
_cell_angle_beta   90.00000000
_cell_angle_gamma   120.15875574
_symmetry_Int_Tables_number   1
_chemical_formula_structural   Dy3Tm2BeP11Ir19
_chemical_formula_sum   'Dy3 Tm2 Be1 P11 Ir19'
_cell_volume   551.17176303
_cell_formula_units_Z   1
loop_
 _symmetry_equiv_pos_site_id
 _symmetry_equiv_pos_as_xyz
  1  'x, y, z'
loop_
 _atom_site_type_symbol
 _atom_site_label
 _atom_site_symmetry_multiplicity
 _atom_site_fract_x
 _atom_site_fract_y
 _atom_site_fract_z
 _atom_site_occupancy
  Dy  Dy0  1  0.999373  0.817059  0.000000  1
  Dy  Dy1  1  0.182300  0.183583  0.000000  1
  Dy  Dy2  1  0.810446  0.994127  0.000000  1
  Tm  Tm3  1  0.346330  0.667033  0.500000  1
  Tm  Tm4  1  0.666761  0.333894  0.500000  1
  Be  Be5  1  0.519614  0.684298  0.000000  1
  P  P6  1  0.002067  0.644018  0.500000  1
  P  P7  1  0.359396  0.364025  0.500000  1
  P  P8  1  0.638509  0.994460  0.500000  1
  P  P9  1  0.316341  0.827922  0.000000  1
  P  P10  1  0.173624  0.484658  0.000000  1
  P  P11  1  0.483266  0.176507  0.000000  1
  P  P12  1  0.690489  0.516912  0.000000  1
  P  P13  1  0.826765  0.310256  0.000000  1
  P  P14  1  0.995353  0.175900  0.500000  1
  P  P15  1  0.818613  0.817777  0.500000  1
  P  P16  1  0.179289  0.000053  0.500000  1
  Ir  Ir17  1  0.509750  0.868203  0.000000  1
  Ir  Ir18  1  0.134676  0.639817  0.000000  1
  Ir  Ir19  1  0.354995  0.484994  0.000000  1
  Ir  Ir20  1  0.493744  0.366166  0.000000  1
  Ir  Ir21  1  0.868976  0.505726  0.000000  1
  Ir  Ir22  1  0.636647  0.135110  0.000000  1
  Ir  Ir23  1  0.002205  0.463528  0.500000  1
  Ir  Ir24  1  0.534562  0.553021  0.500000  1
  Ir  Ir25  1  0.460947  0.999966  0.500000  1
  Ir  Ir26  1  0.998410  0.284695  0.000000  1
  Ir  Ir27  1  0.713365  0.711533  0.000000  1
  Ir  Ir28  1  0.286825  0.000166  0.000000  1
  Ir  Ir29  1  0.625442  0.804361  0.500000  1
  Ir  Ir30  1  0.197720  0.819432  0.500000  1
  Ir  Ir31  1  0.176118  0.374631  0.500000  1
  Ir  Ir32  1  0.375893  0.183211  0.500000  1
  Ir  Ir33  1  0.805900  0.621412  0.500000  1
  Ir  Ir34  1  0.815468  0.192427  0.500000  1
  Ir  Ir35  1  0.999825  0.999116  0.500000  1
