# generated using pymatgen
data_Tb2NdGdB10
_symmetry_space_group_name_H-M   'P 1'
_cell_length_a   7.16985100
_cell_length_b   7.15842093
_cell_length_c   7.19351337
_cell_angle_alpha   77.13880367
_cell_angle_beta   90.00000000
_cell_angle_gamma   90.00000000
_symmetry_Int_Tables_number   1
_chemical_formula_structural   Tb2NdGdB10
_chemical_formula_sum   'Tb4 Nd2 Gd2 B20'
_cell_volume   359.94314635
_cell_formula_units_Z   2
loop_
 _symmetry_equiv_pos_site_id
 _symmetry_equiv_pos_as_xyz
  1  'x, y, z'
loop_
 _atom_site_type_symbol
 _atom_site_label
 _atom_site_symmetry_multiplicity
 _atom_site_fract_x
 _atom_site_fract_y
 _atom_site_fract_z
 _atom_site_occupancy
  Tb  Tb0  1  0.315438  0.755205  0.255326  1
  Tb  Tb1  1  0.815438  0.244795  0.244674  1
  Tb  Tb2  1  0.684049  0.246317  0.745656  1
  Tb  Tb3  1  0.184049  0.753683  0.754344  1
  Nd  Nd4  1  0.689282  0.776537  0.625235  1
  Nd  Nd5  1  0.189282  0.223463  0.874765  1
  Gd  Gd6  1  0.307792  0.232664  0.371642  1
  Gd  Gd7  1  0.807792  0.767336  0.128358  1
  B  B8  1  0.503427  0.314403  0.041215  1
  B  B9  1  0.003427  0.685597  0.458785  1
  B  B10  1  0.497282  0.684518  0.962756  1
  B  B11  1  0.997282  0.315482  0.537244  1
  B  B12  1  0.491710  0.922961  0.932709  1
  B  B13  1  0.991710  0.077039  0.567291  1
  B  B14  1  0.514082  0.074573  0.076235  1
  B  B15  1  0.014082  0.925427  0.423765  1
  B  B16  1  0.326450  0.496560  0.040850  1
  B  B17  1  0.826450  0.503440  0.459150  1
  B  B18  1  0.672763  0.503527  0.960800  1
  B  B19  1  0.172763  0.496473  0.539200  1
  B  B20  1  0.909562  0.499753  0.909980  1
  B  B21  1  0.409562  0.500247  0.590020  1
  B  B22  1  0.089211  0.502200  0.089447  1
  B  B23  1  0.589211  0.497800  0.410553  1
  B  B24  1  0.960904  0.497492  0.672511  1
  B  B25  1  0.460904  0.502508  0.827489  1
  B  B26  1  0.038049  0.504005  0.325455  1
  B  B27  1  0.538049  0.495995  0.174545  1
