# generated using pymatgen
data_Tm5NiBi2
_symmetry_space_group_name_H-M   'P 1'
_cell_length_a   7.88542000
_cell_length_b   8.84411600
_cell_length_c   12.15433600
_cell_angle_alpha   90.00000000
_cell_angle_beta   90.00000000
_cell_angle_gamma   90.00000000
_symmetry_Int_Tables_number   1
_chemical_formula_structural   Tm5NiBi2
_chemical_formula_sum   'Tm20 Ni4 Bi8'
_cell_volume   847.63815641
_cell_formula_units_Z   4
loop_
 _symmetry_equiv_pos_site_id
 _symmetry_equiv_pos_as_xyz
  1  'x, y, z'
loop_
 _atom_site_type_symbol
 _atom_site_label
 _atom_site_symmetry_multiplicity
 _atom_site_fract_x
 _atom_site_fract_y
 _atom_site_fract_z
 _atom_site_occupancy
  Tm  Tm0  1  0.842396  0.750000  0.795553  1
  Tm  Tm1  1  0.157604  0.250000  0.204447  1
  Tm  Tm2  1  0.342396  0.250000  0.704447  1
  Tm  Tm3  1  0.657604  0.750000  0.295553  1
  Tm  Tm4  1  0.381384  0.750000  0.691212  1
  Tm  Tm5  1  0.618616  0.250000  0.308788  1
  Tm  Tm6  1  0.881384  0.250000  0.808788  1
  Tm  Tm7  1  0.118616  0.750000  0.191212  1
  Tm  Tm8  1  0.947907  0.750000  0.500783  1
  Tm  Tm9  1  0.052093  0.250000  0.499217  1
  Tm  Tm10  1  0.447907  0.250000  0.999217  1
  Tm  Tm11  1  0.552093  0.750000  0.000783  1
  Tm  Tm12  1  0.676085  0.043280  0.564708  1
  Tm  Tm13  1  0.323915  0.956720  0.435292  1
  Tm  Tm14  1  0.176085  0.956720  0.935292  1
  Tm  Tm15  1  0.323915  0.543280  0.435292  1
  Tm  Tm16  1  0.823915  0.043280  0.064708  1
  Tm  Tm17  1  0.676085  0.456720  0.564708  1
  Tm  Tm18  1  0.823915  0.456720  0.064708  1
  Tm  Tm19  1  0.176085  0.543280  0.935292  1
  Ni  Ni20  1  0.574284  0.750000  0.509909  1
  Ni  Ni21  1  0.425716  0.250000  0.490091  1
  Ni  Ni22  1  0.074284  0.250000  0.990091  1
  Ni  Ni23  1  0.925716  0.750000  0.009909  1
  Bi  Bi24  1  0.570500  0.489970  0.827277  1
  Bi  Bi25  1  0.429500  0.510030  0.172723  1
  Bi  Bi26  1  0.070500  0.510030  0.672723  1
  Bi  Bi27  1  0.429500  0.989970  0.172723  1
  Bi  Bi28  1  0.929500  0.489970  0.327277  1
  Bi  Bi29  1  0.570500  0.010030  0.827277  1
  Bi  Bi30  1  0.929500  0.010030  0.327277  1
  Bi  Bi31  1  0.070500  0.989970  0.672723  1
