# generated using pymatgen
data_Ta4VB2As
_symmetry_space_group_name_H-M   'P 1'
_cell_length_a   7.23549693
_cell_length_b   7.23549750
_cell_length_c   7.23549706
_cell_angle_alpha   129.71442610
_cell_angle_beta   129.71443703
_cell_angle_gamma   73.86370178
_symmetry_Int_Tables_number   1
_chemical_formula_structural   Ta4VB2As
_chemical_formula_sum   'Ta8 V2 B4 As2'
_cell_volume   218.63814083
_cell_formula_units_Z   2
loop_
 _symmetry_equiv_pos_site_id
 _symmetry_equiv_pos_as_xyz
  1  'x, y, z'
loop_
 _atom_site_type_symbol
 _atom_site_label
 _atom_site_symmetry_multiplicity
 _atom_site_fract_x
 _atom_site_fract_y
 _atom_site_fract_z
 _atom_site_occupancy
  Ta  Ta0  1  0.531549  0.696981  0.500000  1
  Ta  Ta1  1  0.031549  0.531549  0.834568  1
  Ta  Ta2  1  0.696981  0.196981  0.165432  1
  Ta  Ta3  1  0.968451  0.468451  0.165432  1
  Ta  Ta4  1  0.196981  0.031549  0.500000  1
  Ta  Ta5  1  0.468451  0.303019  0.500000  1
  Ta  Ta6  1  0.803019  0.968451  0.500000  1
  Ta  Ta7  1  0.303019  0.803019  0.834568  1
  V  V8  1  0.000000  0.000000  0.000000  1
  V  V9  1  0.500000  0.500000  0.000000  1
  B  B10  1  0.622782  0.122782  0.745563  1
  B  B11  1  0.122782  0.377218  0.500000  1
  B  B12  1  0.877218  0.622782  0.500000  1
  B  B13  1  0.377218  0.877218  0.254437  1
  As  As14  1  0.250000  0.250000  0.000000  1
  As  As15  1  0.750000  0.750000  0.000000  1
