# generated using pymatgen
data_Dy5Tm3Sc12Si15Ag
_symmetry_space_group_name_H-M   'P 1'
_cell_length_a   7.11575785
_cell_length_b   7.35633955
_cell_length_c   14.05202745
_cell_angle_alpha   89.82044809
_cell_angle_beta   89.59616546
_cell_angle_gamma   90.19272191
_symmetry_Int_Tables_number   1
_chemical_formula_structural   Dy5Tm3Sc12Si15Ag
_chemical_formula_sum   'Dy5 Tm3 Sc12 Si15 Ag1'
_cell_volume   735.54035896
_cell_formula_units_Z   1
loop_
 _symmetry_equiv_pos_site_id
 _symmetry_equiv_pos_as_xyz
  1  'x, y, z'
loop_
 _atom_site_type_symbol
 _atom_site_label
 _atom_site_symmetry_multiplicity
 _atom_site_fract_x
 _atom_site_fract_y
 _atom_site_fract_z
 _atom_site_occupancy
  Dy  Dy0  1  0.011405  0.175131  0.097676  1
  Dy  Dy1  1  0.988727  0.826628  0.903743  1
  Dy  Dy2  1  0.488070  0.676792  0.904118  1
  Dy  Dy3  1  0.990008  0.830818  0.597085  1
  Dy  Dy4  1  0.511391  0.323941  0.096486  1
  Tm  Tm5  1  0.007519  0.171854  0.398557  1
  Tm  Tm6  1  0.510816  0.321762  0.400224  1
  Tm  Tm7  1  0.494671  0.678941  0.599800  1
  Sc  Sc8  1  0.164542  0.502155  0.752915  1
  Sc  Sc9  1  0.836169  0.497804  0.251496  1
  Sc  Sc10  1  0.336133  0.000341  0.249387  1
  Sc  Sc11  1  0.666522  0.996486  0.751145  1
  Sc  Sc12  1  0.344056  0.174012  0.626669  1
  Sc  Sc13  1  0.663179  0.822727  0.374125  1
  Sc  Sc14  1  0.166179  0.674802  0.371928  1
  Sc  Sc15  1  0.668700  0.824270  0.125230  1
  Sc  Sc16  1  0.826766  0.325959  0.624997  1
  Sc  Sc17  1  0.329586  0.175327  0.876027  1
  Sc  Sc18  1  0.831291  0.323208  0.875741  1
  Sc  Sc19  1  0.168308  0.675936  0.125684  1
  Si  Si20  1  0.037827  0.121980  0.749456  1
  Si  Si21  1  0.963654  0.883668  0.249307  1
  Si  Si22  1  0.465672  0.613793  0.248736  1
  Si  Si23  1  0.535359  0.387284  0.751950  1
  Si  Si24  1  0.287532  0.873560  0.750308  1
  Si  Si25  1  0.711256  0.127912  0.249524  1
  Si  Si26  1  0.213296  0.369470  0.249496  1
  Si  Si27  1  0.788792  0.628510  0.751767  1
  Si  Si28  1  0.833378  0.535216  0.458945  1
  Si  Si29  1  0.335544  0.962554  0.460891  1
  Si  Si30  1  0.843134  0.535733  0.038984  1
  Si  Si31  1  0.660452  0.036322  0.537327  1
  Si  Si32  1  0.155662  0.464703  0.961972  1
  Si  Si33  1  0.657940  0.035342  0.960920  1
  Si  Si34  1  0.341842  0.964262  0.039825  1
  Ag  Ag35  1  0.164621  0.460796  0.537559  1
