# generated using pymatgen
data_SrTb3Pt3RhO14
_symmetry_space_group_name_H-M   'P 1'
_cell_length_a   7.33531443
_cell_length_b   7.33531468
_cell_length_c   7.34794919
_cell_angle_alpha   59.93994549
_cell_angle_beta   59.93994654
_cell_angle_gamma   59.98049813
_symmetry_Int_Tables_number   1
_chemical_formula_structural   SrTb3Pt3RhO14
_chemical_formula_sum   'Sr1 Tb3 Pt3 Rh1 O14'
_cell_volume   279.27360080
_cell_formula_units_Z   1
loop_
 _symmetry_equiv_pos_site_id
 _symmetry_equiv_pos_as_xyz
  1  'x, y, z'
loop_
 _atom_site_type_symbol
 _atom_site_label
 _atom_site_symmetry_multiplicity
 _atom_site_fract_x
 _atom_site_fract_y
 _atom_site_fract_z
 _atom_site_occupancy
  Sr  Sr0  1  0.625000  0.625000  0.625000  1
  Tb  Tb1  1  0.625000  0.625000  0.125000  1
  Tb  Tb2  1  0.625000  0.125000  0.625000  1
  Tb  Tb3  1  0.125000  0.625000  0.625000  1
  Pt  Pt4  1  0.125000  0.125000  0.125000  1
  Pt  Pt5  1  0.625000  0.125000  0.125000  1
  Pt  Pt6  1  0.125000  0.625000  0.125000  1
  Rh  Rh7  1  0.125000  0.125000  0.625000  1
  O  O8  1  0.056887  0.454789  0.456757  1
  O  O9  1  0.791522  0.791522  0.195488  1
  O  O10  1  0.788241  0.213016  0.212324  1
  O  O11  1  0.454789  0.056887  0.456757  1
  O  O12  1  0.036984  0.461759  0.037676  1
  O  O13  1  0.756990  0.756990  0.756691  1
  O  O14  1  0.040379  0.040379  0.458273  1
  O  O15  1  0.213016  0.788241  0.212324  1
  O  O16  1  0.209621  0.209621  0.791727  1
  O  O17  1  0.493010  0.493010  0.493309  1
  O  O18  1  0.795211  0.193113  0.793243  1
  O  O19  1  0.461759  0.036984  0.037676  1
  O  O20  1  0.458478  0.458478  0.054512  1
  O  O21  1  0.193113  0.795211  0.793243  1
