# generated using pymatgen
data_Sm6Ga4Pt13
_symmetry_space_group_name_H-M   'P 1'
_cell_length_a   8.40816923
_cell_length_b   8.40816886
_cell_length_c   8.40817000
_cell_angle_alpha   109.47122097
_cell_angle_beta   109.47122008
_cell_angle_gamma   109.47122208
_symmetry_Int_Tables_number   1
_chemical_formula_structural   Sm6Ga4Pt13
_chemical_formula_sum   'Sm6 Ga4 Pt13'
_cell_volume   457.59624886
_cell_formula_units_Z   1
loop_
 _symmetry_equiv_pos_site_id
 _symmetry_equiv_pos_as_xyz
  1  'x, y, z'
loop_
 _atom_site_type_symbol
 _atom_site_label
 _atom_site_symmetry_multiplicity
 _atom_site_fract_x
 _atom_site_fract_y
 _atom_site_fract_z
 _atom_site_occupancy
  Sm  Sm0  1  0.698609  0.698609  0.000000  1
  Sm  Sm1  1  0.301391  0.000000  0.301391  1
  Sm  Sm2  1  0.000000  0.301391  0.301391  1
  Sm  Sm3  1  0.301391  0.301391  0.000000  1
  Sm  Sm4  1  0.698609  0.000000  0.698609  1
  Sm  Sm5  1  0.000000  0.698609  0.698609  1
  Ga  Ga6  1  0.000000  0.000000  0.500000  1
  Ga  Ga7  1  0.000000  0.500000  0.000000  1
  Ga  Ga8  1  0.500000  0.000000  0.000000  1
  Ga  Ga9  1  0.500000  0.500000  0.500000  1
  Pt  Pt10  1  0.320478  0.320478  0.640953  1
  Pt  Pt11  1  0.679522  0.000000  0.320478  1
  Pt  Pt12  1  0.000000  0.679522  0.320478  1
  Pt  Pt13  1  0.679522  0.320478  0.000000  1
  Pt  Pt14  1  0.320478  0.640953  0.320478  1
  Pt  Pt15  1  0.000000  0.320478  0.679522  1
  Pt  Pt16  1  0.320478  0.679522  0.000000  1
  Pt  Pt17  1  0.320478  0.000000  0.679522  1
  Pt  Pt18  1  0.640953  0.320478  0.320478  1
  Pt  Pt19  1  0.679522  0.679522  0.359047  1
  Pt  Pt20  1  0.679522  0.359047  0.679522  1
  Pt  Pt21  1  0.359047  0.679522  0.679522  1
  Pt  Pt22  1  0.000000  0.000000  0.000000  1
