# generated using pymatgen
data_Ca4Si3Rh4
_symmetry_space_group_name_H-M   'P 1'
_cell_length_a   5.74340612
_cell_length_b   7.57555567
_cell_length_c   10.74015306
_cell_angle_alpha   106.88952317
_cell_angle_beta   105.50842936
_cell_angle_gamma   90.00000296
_symmetry_Int_Tables_number   1
_chemical_formula_structural   Ca4Si3Rh4
_chemical_formula_sum   'Ca8 Si6 Rh8'
_cell_volume   429.33065553
_cell_formula_units_Z   2
loop_
 _symmetry_equiv_pos_site_id
 _symmetry_equiv_pos_as_xyz
  1  'x, y, z'
loop_
 _atom_site_type_symbol
 _atom_site_label
 _atom_site_symmetry_multiplicity
 _atom_site_fract_x
 _atom_site_fract_y
 _atom_site_fract_z
 _atom_site_occupancy
  Ca  Ca0  1  0.203895  0.668447  0.137403  1
  Ca  Ca1  1  0.933510  0.168448  0.137404  1
  Ca  Ca2  1  0.549156  0.412000  0.342376  1
  Ca  Ca3  1  0.793222  0.912000  0.342376  1
  Ca  Ca4  1  0.206779  0.088000  0.657623  1
  Ca  Ca5  1  0.450845  0.588001  0.657624  1
  Ca  Ca6  1  0.066490  0.831552  0.862596  1
  Ca  Ca7  1  0.796106  0.331553  0.862596  1
  Si  Si8  1  0.412728  0.249999  0.000000  1
  Si  Si9  1  0.587273  0.749999  0.000000  1
  Si  Si10  1  0.314438  0.064035  0.348272  1
  Si  Si11  1  0.033834  0.564036  0.348272  1
  Si  Si12  1  0.685561  0.935964  0.651727  1
  Si  Si13  1  0.966167  0.435966  0.651728  1
  Rh  Rh14  1  0.700059  0.526436  0.122966  1
  Rh  Rh15  1  0.422907  0.026437  0.122966  1
  Rh  Rh16  1  0.087211  0.313644  0.442643  1
  Rh  Rh17  1  0.355433  0.813645  0.442644  1
  Rh  Rh18  1  0.644568  0.186355  0.557356  1
  Rh  Rh19  1  0.912788  0.686356  0.557356  1
  Rh  Rh20  1  0.299940  0.473563  0.877033  1
  Rh  Rh21  1  0.577094  0.973564  0.877034  1
