# generated using pymatgen
data_LiTb2ScAg2Ge3
_symmetry_space_group_name_H-M   'P 1'
_cell_length_a   7.01635653
_cell_length_b   7.09888019
_cell_length_c   4.21258200
_cell_angle_alpha   90.00000000
_cell_angle_beta   90.00000000
_cell_angle_gamma   121.06344813
_symmetry_Int_Tables_number   1
_chemical_formula_structural   LiTb2ScAg2Ge3
_chemical_formula_sum   'Li1 Tb2 Sc1 Ag2 Ge3'
_cell_volume   179.73229730
_cell_formula_units_Z   1
loop_
 _symmetry_equiv_pos_site_id
 _symmetry_equiv_pos_as_xyz
  1  'x, y, z'
loop_
 _atom_site_type_symbol
 _atom_site_label
 _atom_site_symmetry_multiplicity
 _atom_site_fract_x
 _atom_site_fract_y
 _atom_site_fract_z
 _atom_site_occupancy
  Li  Li0  1  0.768200  0.764688  0.500000  1
  Tb  Tb1  1  0.418947  0.421953  0.000000  1
  Tb  Tb2  1  0.577951  0.005980  0.000000  1
  Sc  Sc3  1  0.002492  0.580139  0.000000  1
  Ag  Ag4  1  0.243139  0.997508  0.500000  1
  Ag  Ag5  1  0.995968  0.241567  0.500000  1
  Ge  Ge6  1  0.679195  0.349960  0.500000  1
  Ge  Ge7  1  0.329160  0.664146  0.500000  1
  Ge  Ge8  1  0.984949  0.974060  0.000000  1
