# generated using pymatgen
data_Ho4Ga18(PdRu)3
_symmetry_space_group_name_H-M   'P 1'
_cell_length_a   7.60225772
_cell_length_b   7.60225742
_cell_length_c   9.57355326
_cell_angle_alpha   89.92583902
_cell_angle_beta   89.92584344
_cell_angle_gamma   119.94233520
_symmetry_Int_Tables_number   1
_chemical_formula_structural   Ho4Ga18(PdRu)3
_chemical_formula_sum   'Ho4 Ga18 Pd3 Ru3'
_cell_volume   479.44584421
_cell_formula_units_Z   1
loop_
 _symmetry_equiv_pos_site_id
 _symmetry_equiv_pos_as_xyz
  1  'x, y, z'
loop_
 _atom_site_type_symbol
 _atom_site_label
 _atom_site_symmetry_multiplicity
 _atom_site_fract_x
 _atom_site_fract_y
 _atom_site_fract_z
 _atom_site_occupancy
  Ho  Ho0  1  0.997817  0.668977  0.251159  1
  Ho  Ho1  1  0.002791  0.331736  0.748692  1
  Ho  Ho2  1  0.668264  0.997209  0.251308  1
  Ho  Ho3  1  0.331023  0.002183  0.748841  1
  Ga  Ga4  1  0.129106  0.127399  0.250010  1
  Ga  Ga5  1  0.872601  0.870894  0.749990  1
  Ga  Ga6  1  0.005572  0.338311  0.080577  1
  Ga  Ga7  1  0.001757  0.665137  0.919522  1
  Ga  Ga8  1  0.998763  0.661325  0.578400  1
  Ga  Ga9  1  0.338675  0.001237  0.421600  1
  Ga  Ga10  1  0.001775  0.338846  0.420663  1
  Ga  Ga11  1  0.661154  0.998225  0.579337  1
  Ga  Ga12  1  0.661689  0.994428  0.919423  1
  Ga  Ga13  1  0.334863  0.998243  0.080478  1
  Ga  Ga14  1  0.339949  0.339491  0.563459  1
  Ga  Ga15  1  0.660509  0.660051  0.436541  1
  Ga  Ga16  1  0.660710  0.665493  0.066251  1
  Ga  Ga17  1  0.334507  0.339290  0.933749  1
  Ga  Ga18  1  0.337180  0.550349  0.250519  1
  Ga  Ga19  1  0.664221  0.452787  0.746692  1
  Ga  Ga20  1  0.547213  0.335779  0.253308  1
  Ga  Ga21  1  0.449651  0.662820  0.749481  1
  Pd  Pd22  1  0.672574  0.327426  0.000000  1
  Pd  Pd23  1  0.000511  0.999489  0.000000  1
  Pd  Pd24  1  0.999657  0.000343  0.500000  1
  Ru  Ru25  1  0.327037  0.672963  0.000000  1
  Ru  Ru26  1  0.326850  0.673150  0.500000  1
  Ru  Ru27  1  0.673580  0.326420  0.500000  1
