# generated using pymatgen
data_Ho5PbAuO12
_symmetry_space_group_name_H-M   'P 1'
_cell_length_a   6.43725822
_cell_length_b   6.48829179
_cell_length_c   6.49064767
_cell_angle_alpha   99.03529957
_cell_angle_beta   99.05493084
_cell_angle_gamma   98.45765100
_symmetry_Int_Tables_number   1
_chemical_formula_structural   Ho5PbAuO12
_chemical_formula_sum   'Ho5 Pb1 Au1 O12'
_cell_volume   260.25926464
_cell_formula_units_Z   1
loop_
 _symmetry_equiv_pos_site_id
 _symmetry_equiv_pos_as_xyz
  1  'x, y, z'
loop_
 _atom_site_type_symbol
 _atom_site_label
 _atom_site_symmetry_multiplicity
 _atom_site_fract_x
 _atom_site_fract_y
 _atom_site_fract_z
 _atom_site_occupancy
  Ho  Ho0  1  0.389941  0.857079  0.693280  1
  Ho  Ho1  1  0.693667  0.390767  0.865146  1
  Ho  Ho2  1  0.310557  0.613272  0.144586  1
  Ho  Ho3  1  0.607250  0.139275  0.300216  1
  Ho  Ho4  1  0.855452  0.694500  0.386267  1
  Pb  Pb5  1  0.141881  0.310247  0.608016  1
  Au  Au6  1  0.000959  0.999836  0.998275  1
  O  O7  1  0.064421  0.307202  0.953759  1
  O  O8  1  0.043912  0.936379  0.689916  1
  O  O9  1  0.411024  0.565209  0.823710  1
  O  O10  1  0.177187  0.584444  0.433769  1
  O  O11  1  0.689019  0.048240  0.937751  1
  O  O12  1  0.425873  0.182986  0.586573  1
  O  O13  1  0.563718  0.827994  0.413755  1
  O  O14  1  0.311159  0.952436  0.058998  1
  O  O15  1  0.828196  0.401138  0.567084  1
  O  O16  1  0.593543  0.438292  0.182548  1
  O  O17  1  0.954347  0.059062  0.308963  1
  O  O18  1  0.937894  0.691642  0.047386  1
