# generated using pymatgen
data_ThBeSiH
_symmetry_space_group_name_H-M   'P 1'
_cell_length_a   3.89761500
_cell_length_b   3.89761496
_cell_length_c   8.50153800
_cell_angle_alpha   90.00002940
_cell_angle_beta   89.99991180
_cell_angle_gamma   60.00004209
_symmetry_Int_Tables_number   1
_chemical_formula_structural   ThBeSiH
_chemical_formula_sum   'Th2 Be2 Si2 H2'
_cell_volume   111.84747590
_cell_formula_units_Z   2
loop_
 _symmetry_equiv_pos_site_id
 _symmetry_equiv_pos_as_xyz
  1  'x, y, z'
loop_
 _atom_site_type_symbol
 _atom_site_label
 _atom_site_symmetry_multiplicity
 _atom_site_fract_x
 _atom_site_fract_y
 _atom_site_fract_z
 _atom_site_occupancy
  Th  Th0  1  0.000000  0.000000  0.499999  1
  Th  Th1  1  0.000000  0.000000  0.000001  1
  Be  Be2  1  0.333333  0.333334  0.753063  1
  Be  Be3  1  0.666667  0.666666  0.246938  1
  Si  Si4  1  0.333334  0.333333  0.263895  1
  Si  Si5  1  0.666666  0.666667  0.736104  1
  H  H6  1  0.333333  0.333333  0.933982  1
  H  H7  1  0.666667  0.666667  0.066019  1
