# generated using pymatgen
data_Hf5Zr3(TaSi4)2
_symmetry_space_group_name_H-M   'P 1'
_cell_length_a   7.02394304
_cell_length_b   7.02563604
_cell_length_c   12.85753000
_cell_angle_alpha   90.00000000
_cell_angle_beta   90.00000000
_cell_angle_gamma   90.01145134
_symmetry_Int_Tables_number   1
_chemical_formula_structural   Hf5Zr3(TaSi4)2
_chemical_formula_sum   'Hf10 Zr6 Ta4 Si16'
_cell_volume   634.48910001
_cell_formula_units_Z   2
loop_
 _symmetry_equiv_pos_site_id
 _symmetry_equiv_pos_as_xyz
  1  'x, y, z'
loop_
 _atom_site_type_symbol
 _atom_site_label
 _atom_site_symmetry_multiplicity
 _atom_site_fract_x
 _atom_site_fract_y
 _atom_site_fract_z
 _atom_site_occupancy
  Hf  Hf0  1  0.001465  0.653064  0.717946  1
  Hf  Hf1  1  0.998535  0.346936  0.217946  1
  Hf  Hf2  1  0.496935  0.353822  0.125969  1
  Hf  Hf3  1  0.503065  0.646178  0.625969  1
  Hf  Hf4  1  0.854079  0.003498  0.875807  1
  Hf  Hf5  1  0.145921  0.996502  0.375807  1
  Hf  Hf6  1  0.646546  0.502933  0.373966  1
  Hf  Hf7  1  0.353454  0.497067  0.873966  1
  Hf  Hf8  1  0.003527  0.854123  0.124063  1
  Hf  Hf9  1  0.996473  0.145877  0.624063  1
  Zr  Zr10  1  0.497754  0.153036  0.531975  1
  Zr  Zr11  1  0.502246  0.846964  0.031975  1
  Zr  Zr12  1  0.653457  0.002402  0.281824  1
  Zr  Zr13  1  0.346543  0.997598  0.781824  1
  Zr  Zr14  1  0.847344  0.502568  0.967988  1
  Zr  Zr15  1  0.152656  0.497432  0.467988  1
  Ta  Ta16  1  0.675551  0.325319  0.749933  1
  Ta  Ta17  1  0.324449  0.674681  0.249933  1
  Ta  Ta18  1  0.825184  0.824493  0.500249  1
  Ta  Ta19  1  0.174816  0.175507  0.000249  1
  Si  Si20  1  0.798430  0.146837  0.072067  1
  Si  Si21  1  0.201570  0.853163  0.572067  1
  Si  Si22  1  0.646865  0.702184  0.821247  1
  Si  Si23  1  0.353135  0.297816  0.321247  1
  Si  Si24  1  0.854409  0.202868  0.428268  1
  Si  Si25  1  0.145591  0.797132  0.928268  1
  Si  Si26  1  0.703128  0.645355  0.178443  1
  Si  Si27  1  0.296872  0.354645  0.678443  1
  Si  Si28  1  0.548155  0.199700  0.935156  1
  Si  Si29  1  0.451845  0.800300  0.435156  1
  Si  Si30  1  0.699938  0.951134  0.685324  1
  Si  Si31  1  0.300062  0.048866  0.185324  1
  Si  Si32  1  0.801213  0.452723  0.565368  1
  Si  Si33  1  0.198787  0.547277  0.065368  1
  Si  Si34  1  0.952039  0.698456  0.314408  1
  Si  Si35  1  0.047961  0.301544  0.814408  1
