# generated using pymatgen
data_Li2Dy5AsP11Ir17
_symmetry_space_group_name_H-M   'P 1'
_cell_length_a   12.70683318
_cell_length_b   12.78436816
_cell_length_c   3.97023400
_cell_angle_alpha   90.00000000
_cell_angle_beta   90.00000000
_cell_angle_gamma   119.66163489
_symmetry_Int_Tables_number   1
_chemical_formula_structural   Li2Dy5AsP11Ir17
_chemical_formula_sum   'Li2 Dy5 As1 P11 Ir17'
_cell_volume   560.44632391
_cell_formula_units_Z   1
loop_
 _symmetry_equiv_pos_site_id
 _symmetry_equiv_pos_as_xyz
  1  'x, y, z'
loop_
 _atom_site_type_symbol
 _atom_site_label
 _atom_site_symmetry_multiplicity
 _atom_site_fract_x
 _atom_site_fract_y
 _atom_site_fract_z
 _atom_site_occupancy
  Li  Li0  1  0.999020  0.436785  0.500000  1
  Li  Li1  1  0.556155  0.558346  0.500000  1
  Dy  Dy2  1  0.333354  0.662692  0.500000  1
  Dy  Dy3  1  0.668427  0.336454  0.500000  1
  Dy  Dy4  1  0.002142  0.811854  0.000000  1
  Dy  Dy5  1  0.192954  0.190737  0.000000  1
  Dy  Dy6  1  0.810929  0.000193  0.000000  1
  As  As7  1  0.999060  0.628566  0.500000  1
  P  P8  1  0.369479  0.369653  0.500000  1
  P  P9  1  0.639476  0.000165  0.500000  1
  P  P10  1  0.513585  0.684230  0.000000  1
  P  P11  1  0.308512  0.823787  0.000000  1
  P  P12  1  0.168003  0.478418  0.000000  1
  P  P13  1  0.484410  0.177359  0.000000  1
  P  P14  1  0.685034  0.519906  0.000000  1
  P  P15  1  0.829041  0.314559  0.000000  1
  P  P16  1  0.997740  0.177290  0.500000  1
  P  P17  1  0.818995  0.822594  0.500000  1
  P  P18  1  0.179790  0.001539  0.500000  1
  Ir  Ir19  1  0.503923  0.866384  0.000000  1
  Ir  Ir20  1  0.134619  0.638476  0.000000  1
  Ir  Ir21  1  0.356782  0.488497  0.000000  1
  Ir  Ir22  1  0.489527  0.361117  0.000000  1
  Ir  Ir23  1  0.862542  0.507424  0.000000  1
  Ir  Ir24  1  0.638294  0.134669  0.000000  1
  Ir  Ir25  1  0.460418  0.001876  0.500000  1
  Ir  Ir26  1  0.996416  0.277020  0.000000  1
  Ir  Ir27  1  0.718636  0.725104  0.000000  1
  Ir  Ir28  1  0.287271  0.002408  0.000000  1
  Ir  Ir29  1  0.622028  0.808417  0.500000  1
  Ir  Ir30  1  0.207801  0.829015  0.500000  1
  Ir  Ir31  1  0.177228  0.369310  0.500000  1
  Ir  Ir32  1  0.376904  0.177649  0.500000  1
  Ir  Ir33  1  0.797351  0.626647  0.500000  1
  Ir  Ir34  1  0.815143  0.191699  0.500000  1
  Ir  Ir35  1  0.999005  0.999163  0.500000  1
