# generated using pymatgen
data_Tm8Sc2Si5As
_symmetry_space_group_name_H-M   'P 1'
_cell_length_a   8.25736867
_cell_length_b   8.25736840
_cell_length_c   6.08958275
_cell_angle_alpha   89.97172236
_cell_angle_beta   89.97172349
_cell_angle_gamma   120.06722148
_symmetry_Int_Tables_number   1
_chemical_formula_structural   Tm8Sc2Si5As
_chemical_formula_sum   'Tm8 Sc2 Si5 As1'
_cell_volume   359.34095362
_cell_formula_units_Z   1
loop_
 _symmetry_equiv_pos_site_id
 _symmetry_equiv_pos_as_xyz
  1  'x, y, z'
loop_
 _atom_site_type_symbol
 _atom_site_label
 _atom_site_symmetry_multiplicity
 _atom_site_fract_x
 _atom_site_fract_y
 _atom_site_fract_z
 _atom_site_occupancy
  Tm  Tm0  1  0.332985  0.669142  0.998398  1
  Tm  Tm1  1  0.669142  0.332985  0.998398  1
  Tm  Tm2  1  0.757982  0.757982  0.253246  1
  Tm  Tm3  1  0.243050  0.996412  0.253194  1
  Tm  Tm4  1  0.996412  0.243050  0.253194  1
  Tm  Tm5  1  0.243414  0.243414  0.746755  1
  Tm  Tm6  1  0.756190  0.000311  0.747074  1
  Tm  Tm7  1  0.000311  0.756190  0.747074  1
  Sc  Sc8  1  0.668619  0.332800  0.501420  1
  Sc  Sc9  1  0.332800  0.668619  0.501420  1
  Si  Si10  1  0.603197  0.999735  0.262373  1
  Si  Si11  1  0.999735  0.603197  0.262373  1
  Si  Si12  1  0.605006  0.605006  0.739273  1
  Si  Si13  1  0.396571  0.001132  0.737340  1
  Si  Si14  1  0.001132  0.396571  0.737340  1
  As  As15  1  0.393454  0.393454  0.261128  1
