# generated using pymatgen
data_Sr3La(Ni12P5)2
_symmetry_space_group_name_H-M   'P 1'
_cell_length_a   3.63757000
_cell_length_b   11.05059810
_cell_length_c   13.25826211
_cell_angle_alpha   72.15584447
_cell_angle_beta   90.00000000
_cell_angle_gamma   90.00000000
_symmetry_Int_Tables_number   1
_chemical_formula_structural   Sr3La(Ni12P5)2
_chemical_formula_sum   'Sr3 La1 Ni24 P10'
_cell_volume   507.30847317
_cell_formula_units_Z   1
loop_
 _symmetry_equiv_pos_site_id
 _symmetry_equiv_pos_as_xyz
  1  'x, y, z'
loop_
 _atom_site_type_symbol
 _atom_site_label
 _atom_site_symmetry_multiplicity
 _atom_site_fract_x
 _atom_site_fract_y
 _atom_site_fract_z
 _atom_site_occupancy
  Sr  Sr0  1  0.250000  0.748487  0.187432  1
  Sr  Sr1  1  0.750000  0.251645  0.812720  1
  Sr  Sr2  1  0.250000  0.780700  0.683170  1
  La  La3  1  0.750000  0.221617  0.316878  1
  Ni  Ni4  1  0.250000  0.573078  0.012797  1
  Ni  Ni5  1  0.250000  0.566868  0.448614  1
  Ni  Ni6  1  0.750000  0.508147  0.340940  1
  Ni  Ni7  1  0.250000  0.491654  0.658915  1
  Ni  Ni8  1  0.750000  0.512097  0.149934  1
  Ni  Ni9  1  0.250000  0.486923  0.850366  1
  Ni  Ni10  1  0.750000  0.432997  0.550563  1
  Ni  Ni11  1  0.250000  0.346008  0.135456  1
  Ni  Ni12  1  0.750000  0.651382  0.561301  1
  Ni  Ni13  1  0.250000  0.345286  0.437736  1
  Ni  Ni14  1  0.750000  0.905102  0.304981  1
  Ni  Ni15  1  0.250000  0.095089  0.694062  1
  Ni  Ni16  1  0.750000  0.918313  0.990753  1
  Ni  Ni17  1  0.250000  0.080384  0.010082  1
  Ni  Ni18  1  0.750000  0.925405  0.488485  1
  Ni  Ni19  1  0.250000  0.079925  0.508421  1
  Ni  Ni20  1  0.750000  0.943983  0.795685  1
  Ni  Ni21  1  0.250000  0.060825  0.204556  1
  Ni  Ni22  1  0.250000  0.786752  0.439867  1
  Ni  Ni23  1  0.750000  0.213469  0.560452  1
  Ni  Ni24  1  0.250000  0.798681  0.916977  1
  Ni  Ni25  1  0.750000  0.200822  0.083674  1
  Ni  Ni26  1  0.750000  0.647580  0.868020  1
  Ni  Ni27  1  0.750000  0.425643  0.988235  1
  P  P28  1  0.250000  0.007298  0.871496  1
  P  P29  1  0.750000  0.992512  0.128700  1
  P  P30  1  0.250000  0.298166  0.986646  1
  P  P31  1  0.750000  0.701392  0.013535  1
  P  P32  1  0.250000  0.452034  0.259732  1
  P  P33  1  0.750000  0.548165  0.739885  1
  P  P34  1  0.250000  0.991617  0.378956  1
  P  P35  1  0.750000  0.008998  0.620555  1
  P  P36  1  0.250000  0.310481  0.610543  1
  P  P37  1  0.750000  0.690478  0.388882  1
