# generated using pymatgen
data_La7YbSbPd24
_symmetry_space_group_name_H-M   'P 1'
_cell_length_a   8.56921985
_cell_length_b   8.56921985
_cell_length_c   8.56921985
_cell_angle_alpha   90.11651990
_cell_angle_beta   90.11651990
_cell_angle_gamma   89.88348010
_symmetry_Int_Tables_number   1
_chemical_formula_structural   La7YbSbPd24
_chemical_formula_sum   'La7 Yb1 Sb1 Pd24'
_cell_volume   629.24701641
_cell_formula_units_Z   1
loop_
 _symmetry_equiv_pos_site_id
 _symmetry_equiv_pos_as_xyz
  1  'x, y, z'
loop_
 _atom_site_type_symbol
 _atom_site_label
 _atom_site_symmetry_multiplicity
 _atom_site_fract_x
 _atom_site_fract_y
 _atom_site_fract_z
 _atom_site_occupancy
  La  La0  1  0.747216  0.252837  0.747163  1
  La  La1  1  0.252837  0.747216  0.747163  1
  La  La2  1  0.746844  0.746844  0.746831  1
  La  La3  1  0.746844  0.253169  0.253156  1
  La  La4  1  0.252531  0.252531  0.747469  1
  La  La5  1  0.253169  0.746844  0.253156  1
  La  La6  1  0.252837  0.252837  0.252784  1
  Yb  Yb7  1  0.747620  0.747620  0.252380  1
  Sb  Sb8  1  0.999991  0.999991  0.000009  1
  Pd  Pd9  1  0.997192  0.997192  0.311556  1
  Pd  Pd10  1  0.732705  0.997181  0.498238  1
  Pd  Pd11  1  0.732705  0.501762  0.002819  1
  Pd  Pd12  1  0.500510  0.000222  0.732998  1
  Pd  Pd13  1  0.997181  0.732705  0.498238  1
  Pd  Pd14  1  0.501762  0.997181  0.267295  1
  Pd  Pd15  1  0.000222  0.267002  0.499490  1
  Pd  Pd16  1  0.501762  0.732705  0.002819  1
  Pd  Pd17  1  0.255997  0.499946  0.500054  1
  Pd  Pd18  1  0.499946  0.499946  0.744003  1
  Pd  Pd19  1  0.502579  0.502579  0.255855  1
  Pd  Pd20  1  0.499946  0.255997  0.500054  1
  Pd  Pd21  1  0.502579  0.744145  0.497421  1
  Pd  Pd22  1  0.744145  0.502579  0.497421  1
  Pd  Pd23  1  0.313473  0.999926  0.000074  1
  Pd  Pd24  1  0.999926  0.999926  0.686527  1
  Pd  Pd25  1  0.997181  0.501762  0.267295  1
  Pd  Pd26  1  0.999926  0.313473  0.000074  1
  Pd  Pd27  1  0.997192  0.688444  0.002808  1
  Pd  Pd28  1  0.688444  0.997192  0.002808  1
  Pd  Pd29  1  0.267002  0.500510  0.999778  1
  Pd  Pd30  1  0.267002  0.000222  0.499490  1
  Pd  Pd31  1  0.000222  0.500510  0.732998  1
  Pd  Pd32  1  0.500510  0.267002  0.999778  1
