# generated using pymatgen
data_Y4ThPt14Au
_symmetry_space_group_name_H-M   'P 1'
_cell_length_a   4.18534100
_cell_length_b   4.14479900
_cell_length_c   20.79111800
_cell_angle_alpha   90.00000000
_cell_angle_beta   90.00000000
_cell_angle_gamma   90.00000000
_symmetry_Int_Tables_number   1
_chemical_formula_structural   Y4ThPt14Au
_chemical_formula_sum   'Y4 Th1 Pt14 Au1'
_cell_volume   360.67178200
_cell_formula_units_Z   1
loop_
 _symmetry_equiv_pos_site_id
 _symmetry_equiv_pos_as_xyz
  1  'x, y, z'
loop_
 _atom_site_type_symbol
 _atom_site_label
 _atom_site_symmetry_multiplicity
 _atom_site_fract_x
 _atom_site_fract_y
 _atom_site_fract_z
 _atom_site_occupancy
  Y  Y0  1  0.000000  0.000000  0.201904  1
  Y  Y1  1  0.000000  0.000000  0.397104  1
  Y  Y2  1  0.000000  0.000000  0.602896  1
  Y  Y3  1  0.000000  0.000000  0.798096  1
  Th  Th4  1  0.000000  0.000000  0.000000  1
  Pt  Pt5  1  0.500000  0.500000  0.000000  1
  Pt  Pt6  1  0.500000  0.500000  0.200917  1
  Pt  Pt7  1  0.500000  0.500000  0.399308  1
  Pt  Pt8  1  0.500000  0.500000  0.600692  1
  Pt  Pt9  1  0.500000  0.500000  0.799083  1
  Pt  Pt10  1  0.500000  0.000000  0.101684  1
  Pt  Pt11  1  0.500000  0.000000  0.299992  1
  Pt  Pt12  1  0.500000  0.000000  0.700008  1
  Pt  Pt13  1  0.500000  0.000000  0.898316  1
  Pt  Pt14  1  0.000000  0.500000  0.101765  1
  Pt  Pt15  1  0.000000  0.500000  0.300343  1
  Pt  Pt16  1  0.000000  0.500000  0.500000  1
  Pt  Pt17  1  0.000000  0.500000  0.699657  1
  Pt  Pt18  1  0.000000  0.500000  0.898235  1
  Au  Au19  1  0.500000  0.000000  0.500000  1
