# generated using pymatgen
data_SmTm3Zr4F28
_symmetry_space_group_name_H-M   'P 1'
_cell_length_a   5.72941392
_cell_length_b   9.07135065
_cell_length_c   12.20222488
_cell_angle_alpha   62.43201881
_cell_angle_beta   89.95791374
_cell_angle_gamma   90.02453205
_symmetry_Int_Tables_number   1
_chemical_formula_structural   SmTm3Zr4F28
_chemical_formula_sum   'Sm1 Tm3 Zr4 F28'
_cell_volume   562.18750793
_cell_formula_units_Z   1
loop_
 _symmetry_equiv_pos_site_id
 _symmetry_equiv_pos_as_xyz
  1  'x, y, z'
loop_
 _atom_site_type_symbol
 _atom_site_label
 _atom_site_symmetry_multiplicity
 _atom_site_fract_x
 _atom_site_fract_y
 _atom_site_fract_z
 _atom_site_occupancy
  Sm  Sm0  1  0.756963  0.817904  0.766297  1
  Tm  Tm1  1  0.743549  0.818699  0.265731  1
  Tm  Tm2  1  0.243355  0.183260  0.234268  1
  Tm  Tm3  1  0.257124  0.187825  0.733577  1
  Zr  Zr4  1  0.743902  0.277744  0.452838  1
  Zr  Zr5  1  0.245071  0.725015  0.049124  1
  Zr  Zr6  1  0.255307  0.725304  0.541118  1
  Zr  Zr7  1  0.755348  0.270892  0.956726  1
  F  F8  1  0.463173  0.708898  0.923759  1
  F  F9  1  0.967912  0.288279  0.578720  1
  F  F10  1  0.529765  0.286412  0.080173  1
  F  F11  1  0.028339  0.711894  0.417846  1
  F  F12  1  0.453117  0.280930  0.550844  1
  F  F13  1  0.954645  0.715708  0.955004  1
  F  F14  1  0.549957  0.720381  0.446524  1
  F  F15  1  0.046686  0.278005  0.053085  1
  F  F16  1  0.768125  0.521921  0.859013  1
  F  F17  1  0.267368  0.472438  0.641211  1
  F  F18  1  0.234214  0.471591  0.143964  1
  F  F19  1  0.732844  0.529700  0.356176  1
  F  F20  1  0.759719  0.019179  0.060986  1
  F  F21  1  0.259427  0.977580  0.438996  1
  F  F22  1  0.239583  0.976211  0.941568  1
  F  F23  1  0.739788  0.025766  0.554744  1
  F  F24  1  0.985141  0.731678  0.646822  1
  F  F25  1  0.483780  0.265225  0.850143  1
  F  F26  1  0.015125  0.264900  0.348225  1
  F  F27  1  0.517834  0.735446  0.153000  1
  F  F28  1  0.029109  0.747491  0.175372  1
  F  F29  1  0.528754  0.253283  0.326434  1
  F  F30  1  0.969641  0.251508  0.827866  1
  F  F31  1  0.461645  0.743897  0.671093  1
  F  F32  1  0.431790  0.975444  0.235699  1
  F  F33  1  0.932949  0.025464  0.264275  1
  F  F34  1  0.566539  0.035288  0.765228  1
  F  F35  1  0.082414  0.978839  0.733554  1
