# generated using pymatgen
data_Nd3Er(Ga8Pd3)3
_symmetry_space_group_name_H-M   'P 1'
_cell_length_a   7.53744179
_cell_length_b   7.62683631
_cell_length_c   13.53417174
_cell_angle_alpha   84.82743243
_cell_angle_beta   79.71029412
_cell_angle_gamma   60.32966913
_symmetry_Int_Tables_number   1
_chemical_formula_structural   Nd3Er(Ga8Pd3)3
_chemical_formula_sum   'Nd3 Er1 Ga24 Pd9'
_cell_volume   665.15290734
_cell_formula_units_Z   1
loop_
 _symmetry_equiv_pos_site_id
 _symmetry_equiv_pos_as_xyz
  1  'x, y, z'
loop_
 _atom_site_type_symbol
 _atom_site_label
 _atom_site_symmetry_multiplicity
 _atom_site_fract_x
 _atom_site_fract_y
 _atom_site_fract_z
 _atom_site_occupancy
  Nd  Nd0  1  0.393670  0.169004  0.811475  1
  Nd  Nd1  1  0.606350  0.830947  0.189207  1
  Nd  Nd2  1  0.731687  0.496473  0.811741  1
  Er  Er3  1  0.267194  0.503427  0.189736  1
  Ga  Ga4  1  0.689114  0.833515  0.941614  1
  Ga  Ga5  1  0.311574  0.169422  0.061148  1
  Ga  Ga6  1  0.144477  0.834831  0.556164  1
  Ga  Ga7  1  0.855829  0.165494  0.442044  1
  Ga  Ga8  1  0.478277  0.167078  0.554505  1
  Ga  Ga9  1  0.521903  0.832855  0.444432  1
  Ga  Ga10  1  0.218563  0.166225  0.325751  1
  Ga  Ga11  1  0.782520  0.835076  0.671510  1
  Ga  Ga12  1  0.435939  0.505706  0.670062  1
  Ga  Ga13  1  0.563141  0.494159  0.326748  1
  Ga  Ga14  1  0.107968  0.161466  0.668690  1
  Ga  Ga15  1  0.894561  0.836855  0.328732  1
  Ga  Ga16  1  0.351561  0.501644  0.945035  1
  Ga  Ga17  1  0.642509  0.499147  0.060169  1
  Ga  Ga18  1  0.017434  0.165759  0.949677  1
  Ga  Ga19  1  0.983980  0.831207  0.054237  1
  Ga  Ga20  1  0.188415  0.498862  0.442908  1
  Ga  Ga21  1  0.812720  0.500521  0.555300  1
  Ga  Ga22  1  0.731294  0.169479  0.182676  1
  Ga  Ga23  1  0.264857  0.835373  0.817855  1
  Ga  Ga24  1  0.061829  0.631466  0.816854  1
  Ga  Ga25  1  0.943525  0.366815  0.183445  1
  Ga  Ga26  1  0.859083  0.038352  0.816615  1
  Ga  Ga27  1  0.139722  0.957742  0.183511  1
  Pd  Pd28  1  0.116481  0.498776  0.636137  1
  Pd  Pd29  1  0.884020  0.501893  0.361926  1
  Pd  Pd30  1  0.660077  0.168819  0.000051  1
  Pd  Pd31  1  0.340458  0.831772  0.001865  1
  Pd  Pd32  1  0.542246  0.166586  0.361063  1
  Pd  Pd33  1  0.457585  0.833587  0.637512  1
  Pd  Pd34  1  0.779578  0.170961  0.635772  1
  Pd  Pd35  1  0.221621  0.828189  0.362474  1
  Pd  Pd36  1  0.998237  0.500519  0.001359  1
