# generated using pymatgen
data_Tm2Mn3Cr3P7Ir6
_symmetry_space_group_name_H-M   'P 1'
_cell_length_a   9.38685300
_cell_length_b   9.38685311
_cell_length_c   3.80274200
_cell_angle_alpha   90.00000000
_cell_angle_beta   90.00000000
_cell_angle_gamma   120.00000313
_symmetry_Int_Tables_number   1
_chemical_formula_structural   Tm2Mn3Cr3P7Ir6
_chemical_formula_sum   'Tm2 Mn3 Cr3 P7 Ir6'
_cell_volume   290.18002788
_cell_formula_units_Z   1
loop_
 _symmetry_equiv_pos_site_id
 _symmetry_equiv_pos_as_xyz
  1  'x, y, z'
loop_
 _atom_site_type_symbol
 _atom_site_label
 _atom_site_symmetry_multiplicity
 _atom_site_fract_x
 _atom_site_fract_y
 _atom_site_fract_z
 _atom_site_occupancy
  Tm  Tm0  1  0.000000  0.000000  0.000000  1
  Tm  Tm1  1  0.666667  0.333333  0.500000  1
  Mn  Mn2  1  0.220903  0.396671  0.000000  1
  Mn  Mn3  1  0.603329  0.824232  0.000000  1
  Mn  Mn4  1  0.175768  0.779097  0.000000  1
  Cr  Cr5  1  0.445506  0.570904  0.500000  1
  Cr  Cr6  1  0.429096  0.874604  0.500000  1
  Cr  Cr7  1  0.125396  0.554494  0.500000  1
  P  P8  1  0.443175  0.369380  0.000000  1
  P  P9  1  0.630620  0.073795  0.000000  1
  P  P10  1  0.926205  0.556825  0.000000  1
  P  P11  1  0.057329  0.273271  0.500000  1
  P  P12  1  0.726729  0.784059  0.500000  1
  P  P13  1  0.215941  0.942671  0.500000  1
  P  P14  1  0.333333  0.666667  0.000000  1
  Ir  Ir15  1  0.695443  0.599963  0.000000  1
  Ir  Ir16  1  0.400037  0.095481  0.000000  1
  Ir  Ir17  1  0.904519  0.304557  0.000000  1
  Ir  Ir18  1  0.275412  0.222224  0.500000  1
  Ir  Ir19  1  0.777776  0.053187  0.500000  1
  Ir  Ir20  1  0.946813  0.724588  0.500000  1
