# generated using pymatgen
data_Lu4Zn2ReOs5
_symmetry_space_group_name_H-M   'P 1'
_cell_length_a   5.41877900
_cell_length_b   5.28229826
_cell_length_c   8.81768200
_cell_angle_alpha   90.00000000
_cell_angle_beta   90.00000000
_cell_angle_gamma   121.48036971
_symmetry_Int_Tables_number   1
_chemical_formula_structural   Lu4Zn2ReOs5
_chemical_formula_sum   'Lu4 Zn2 Re1 Os5'
_cell_volume   215.24631451
_cell_formula_units_Z   1
loop_
 _symmetry_equiv_pos_site_id
 _symmetry_equiv_pos_as_xyz
  1  'x, y, z'
loop_
 _atom_site_type_symbol
 _atom_site_label
 _atom_site_symmetry_multiplicity
 _atom_site_fract_x
 _atom_site_fract_y
 _atom_site_fract_z
 _atom_site_occupancy
  Lu  Lu0  1  0.326786  0.671588  0.442849  1
  Lu  Lu1  1  0.666322  0.342659  0.567526  1
  Lu  Lu2  1  0.666322  0.342659  0.932474  1
  Lu  Lu3  1  0.326786  0.671588  0.057151  1
  Zn  Zn4  1  0.351666  0.160010  0.250000  1
  Zn  Zn5  1  0.842318  0.644688  0.250000  1
  Re  Re6  1  0.164439  0.330346  0.750000  1
  Os  Os7  1  0.171235  0.822246  0.750000  1
  Os  Os8  1  0.654095  0.825301  0.750000  1
  Os  Os9  1  0.993813  0.019612  0.002904  1
  Os  Os10  1  0.842405  0.149695  0.250000  1
  Os  Os11  1  0.993813  0.019612  0.497096  1
