# generated using pymatgen
data_Be15PIr16
_symmetry_space_group_name_H-M   'P 1'
_cell_length_a   8.43976425
_cell_length_b   8.43966883
_cell_length_c   8.43966992
_cell_angle_alpha   141.06124804
_cell_angle_beta   96.37610806
_cell_angle_gamma   96.38015611
_symmetry_Int_Tables_number   1
_chemical_formula_structural   Be15PIr16
_chemical_formula_sum   'Be15 P1 Ir16'
_cell_volume   356.21183379
_cell_formula_units_Z   1
loop_
 _symmetry_equiv_pos_site_id
 _symmetry_equiv_pos_as_xyz
  1  'x, y, z'
loop_
 _atom_site_type_symbol
 _atom_site_label
 _atom_site_symmetry_multiplicity
 _atom_site_fract_x
 _atom_site_fract_y
 _atom_site_fract_z
 _atom_site_occupancy
  Be  Be0  1  0.124669  0.249750  0.874919  1
  Be  Be1  1  0.377285  0.250247  0.127038  1
  Be  Be2  1  0.873330  0.250231  0.623099  1
  Be  Be3  1  0.624415  0.249466  0.374949  1
  Be  Be4  1  0.377287  0.502150  0.875137  1
  Be  Be5  1  0.629447  0.502184  0.127264  1
  Be  Be6  1  0.124623  0.502190  0.622433  1
  Be  Be7  1  0.869361  0.494184  0.375175  1
  Be  Be8  1  0.873148  0.998078  0.875069  1
  Be  Be9  1  0.124693  0.997214  0.127478  1
  Be  Be10  1  0.619529  0.997166  0.622363  1
  Be  Be11  1  0.381702  0.006602  0.375100  1
  Be  Be12  1  0.624841  0.750022  0.874818  1
  Be  Be13  1  0.869314  0.750393  0.118920  1
  Be  Be14  1  0.381794  0.750459  0.631335  1
  P  P15  1  0.124619  0.749713  0.374907  1
  Ir  Ir16  1  0.125097  0.374204  0.248884  1
  Ir  Ir17  1  0.125097  0.876214  0.750893  1
  Ir  Ir18  1  0.875245  0.374137  0.999106  1
  Ir  Ir19  1  0.374428  0.874648  0.999558  1
  Ir  Ir20  1  0.875245  0.876139  0.501106  1
  Ir  Ir21  1  0.374428  0.374870  0.499780  1
  Ir  Ir22  1  0.625177  0.874737  0.250210  1
  Ir  Ir23  1  0.625177  0.374968  0.750439  1
  Ir  Ir24  1  0.875272  0.125247  0.250174  1
  Ir  Ir25  1  0.875272  0.625099  0.750025  1
  Ir  Ir26  1  0.625189  0.125447  0.000091  1
  Ir  Ir27  1  0.125122  0.623852  0.999336  1
  Ir  Ir28  1  0.625189  0.625098  0.499741  1
  Ir  Ir29  1  0.125122  0.125787  0.501271  1
  Ir  Ir30  1  0.374442  0.623806  0.248742  1
  Ir  Ir31  1  0.374442  0.125700  0.750636  1
