# generated using pymatgen
data_Ce3Hf6Si8Mo
_symmetry_space_group_name_H-M   'P 1'
_cell_length_a   7.22727059
_cell_length_b   7.21525411
_cell_length_c   13.26942700
_cell_angle_alpha   90.00000000
_cell_angle_beta   90.00000000
_cell_angle_gamma   89.63663424
_symmetry_Int_Tables_number   1
_chemical_formula_structural   Ce3Hf6Si8Mo
_chemical_formula_sum   'Ce6 Hf12 Si16 Mo2'
_cell_volume   691.94150464
_cell_formula_units_Z   2
loop_
 _symmetry_equiv_pos_site_id
 _symmetry_equiv_pos_as_xyz
  1  'x, y, z'
loop_
 _atom_site_type_symbol
 _atom_site_label
 _atom_site_symmetry_multiplicity
 _atom_site_fract_x
 _atom_site_fract_y
 _atom_site_fract_z
 _atom_site_occupancy
  Ce  Ce0  1  0.493807  0.158742  0.536561  1
  Ce  Ce1  1  0.506193  0.841258  0.036561  1
  Ce  Ce2  1  0.655309  0.001488  0.284209  1
  Ce  Ce3  1  0.344691  0.998512  0.784209  1
  Ce  Ce4  1  0.842332  0.507329  0.965517  1
  Ce  Ce5  1  0.157668  0.492671  0.465517  1
  Hf  Hf6  1  0.825940  0.822374  0.498826  1
  Hf  Hf7  1  0.174060  0.177626  0.998826  1
  Hf  Hf8  1  0.991776  0.649174  0.713992  1
  Hf  Hf9  1  0.008224  0.350826  0.213992  1
  Hf  Hf10  1  0.498287  0.352273  0.126925  1
  Hf  Hf11  1  0.501713  0.647727  0.626925  1
  Hf  Hf12  1  0.851827  0.008079  0.872552  1
  Hf  Hf13  1  0.148173  0.991921  0.372552  1
  Hf  Hf14  1  0.647940  0.497950  0.373240  1
  Hf  Hf15  1  0.352060  0.502050  0.873240  1
  Hf  Hf16  1  0.004562  0.849445  0.127056  1
  Hf  Hf17  1  0.995438  0.150555  0.627056  1
  Si  Si18  1  0.804356  0.145632  0.071063  1
  Si  Si19  1  0.195644  0.854368  0.571063  1
  Si  Si20  1  0.645591  0.702211  0.813640  1
  Si  Si21  1  0.354409  0.297789  0.313640  1
  Si  Si22  1  0.862682  0.202789  0.432911  1
  Si  Si23  1  0.137318  0.797211  0.932911  1
  Si  Si24  1  0.712437  0.630524  0.183092  1
  Si  Si25  1  0.287563  0.369476  0.683092  1
  Si  Si26  1  0.552854  0.209928  0.934546  1
  Si  Si27  1  0.447146  0.790072  0.434546  1
  Si  Si28  1  0.709533  0.948429  0.684648  1
  Si  Si29  1  0.290467  0.051571  0.184648  1
  Si  Si30  1  0.796538  0.452371  0.568520  1
  Si  Si31  1  0.203462  0.547629  0.068520  1
  Si  Si32  1  0.955587  0.695171  0.312808  1
  Si  Si33  1  0.044413  0.304829  0.812808  1
  Mo  Mo34  1  0.675565  0.330250  0.749895  1
  Mo  Mo35  1  0.324435  0.669750  0.249895  1
