# generated using pymatgen
data_LaHoPa2Cu3Sb8
_symmetry_space_group_name_H-M   'P 1'
_cell_length_a   10.53085352
_cell_length_b   10.53085372
_cell_length_c   10.54668479
_cell_angle_alpha   145.81019965
_cell_angle_beta   145.81020485
_cell_angle_gamma   49.20437058
_symmetry_Int_Tables_number   1
_chemical_formula_structural   LaHoPa2Cu3Sb8
_chemical_formula_sum   'La1 Ho1 Pa2 Cu3 Sb8'
_cell_volume   367.56350739
_cell_formula_units_Z   1
loop_
 _symmetry_equiv_pos_site_id
 _symmetry_equiv_pos_as_xyz
  1  'x, y, z'
loop_
 _atom_site_type_symbol
 _atom_site_label
 _atom_site_symmetry_multiplicity
 _atom_site_fract_x
 _atom_site_fract_y
 _atom_site_fract_z
 _atom_site_occupancy
  La  La0  1  0.125411  0.125411  0.496346  1
  Ho  Ho1  1  0.632478  0.632478  0.514879  1
  Pa  Pa2  1  0.365113  0.870788  0.997861  1
  Pa  Pa3  1  0.870788  0.365113  0.997861  1
  Cu  Cu4  1  0.989194  0.989194  0.976131  1
  Cu  Cu5  1  0.999495  0.512969  0.506067  1
  Cu  Cu6  1  0.512969  0.999495  0.506067  1
  Sb  Sb7  1  0.331928  0.331928  0.505028  1
  Sb  Sb8  1  0.827657  0.827657  0.485478  1
  Sb  Sb9  1  0.673718  0.187357  0.005223  1
  Sb  Sb10  1  0.187357  0.673718  0.005223  1
  Sb  Sb11  1  0.248722  0.248722  0.006202  1
  Sb  Sb12  1  0.742806  0.742806  0.995321  1
  Sb  Sb13  1  0.743132  0.249231  0.501157  1
  Sb  Sb14  1  0.249231  0.743132  0.501157  1
