# generated using pymatgen
data_NdGaPRu2
_symmetry_space_group_name_H-M   'P 1'
_cell_length_a   5.79749170
_cell_length_b   5.79749126
_cell_length_c   5.79749063
_cell_angle_alpha   137.34709680
_cell_angle_beta   137.34708618
_cell_angle_gamma   61.90444404
_symmetry_Int_Tables_number   1
_chemical_formula_structural   NdGaPRu2
_chemical_formula_sum   'Nd1 Ga1 P1 Ru2'
_cell_volume   88.41081172
_cell_formula_units_Z   1
loop_
 _symmetry_equiv_pos_site_id
 _symmetry_equiv_pos_as_xyz
  1  'x, y, z'
loop_
 _atom_site_type_symbol
 _atom_site_label
 _atom_site_symmetry_multiplicity
 _atom_site_fract_x
 _atom_site_fract_y
 _atom_site_fract_z
 _atom_site_occupancy
  Nd  Nd0  1  0.001164  0.001164  0.000000  1
  Ga  Ga1  1  0.375933  0.375933  0.000000  1
  P  P2  1  0.641539  0.641539  0.000000  1
  Ru  Ru3  1  0.240682  0.740682  0.500000  1
  Ru  Ru4  1  0.740682  0.240682  0.500000  1
