# generated using pymatgen
data_Rh(BrF5)2
_symmetry_space_group_name_H-M   'P 1'
_cell_length_a   14.44643800
_cell_length_b   5.15729772
_cell_length_c   6.79552661
_cell_angle_alpha   64.66453640
_cell_angle_beta   90.00000000
_cell_angle_gamma   90.00000000
_symmetry_Int_Tables_number   1
_chemical_formula_structural   Rh(BrF5)2
_chemical_formula_sum   'Rh2 Br4 F20'
_cell_volume   457.60105536
_cell_formula_units_Z   2
loop_
 _symmetry_equiv_pos_site_id
 _symmetry_equiv_pos_as_xyz
  1  'x, y, z'
loop_
 _atom_site_type_symbol
 _atom_site_label
 _atom_site_symmetry_multiplicity
 _atom_site_fract_x
 _atom_site_fract_y
 _atom_site_fract_z
 _atom_site_occupancy
  Rh  Rh0  1  0.000000  0.000000  0.000000  1
  Rh  Rh1  1  0.500000  0.000000  0.500000  1
  Br  Br2  1  0.365962  0.682059  0.172704  1
  Br  Br3  1  0.865962  0.317941  0.327296  1
  Br  Br4  1  0.134038  0.682059  0.672704  1
  Br  Br5  1  0.634038  0.317941  0.827296  1
  F  F6  1  0.674379  0.999727  0.049423  1
  F  F7  1  0.174379  0.000273  0.450577  1
  F  F8  1  0.325621  0.000273  0.950577  1
  F  F9  1  0.825621  0.999727  0.549423  1
  F  F10  1  0.712543  0.535309  0.897589  1
  F  F11  1  0.212543  0.464691  0.602411  1
  F  F12  1  0.962608  0.035043  0.271737  1
  F  F13  1  0.462608  0.964957  0.228263  1
  F  F14  1  0.037392  0.964957  0.728263  1
  F  F15  1  0.537392  0.035043  0.771737  1
  F  F16  1  0.905060  0.706489  0.044496  1
  F  F17  1  0.405060  0.293511  0.455504  1
  F  F18  1  0.094940  0.293511  0.955504  1
  F  F19  1  0.594940  0.706489  0.544496  1
  F  F20  1  0.914949  0.291944  0.831396  1
  F  F21  1  0.414949  0.708056  0.668604  1
  F  F22  1  0.085051  0.708056  0.168604  1
  F  F23  1  0.585051  0.291944  0.331396  1
  F  F24  1  0.787457  0.535309  0.397589  1
  F  F25  1  0.287457  0.464691  0.102411  1
