# generated using pymatgen
data_Ba6Eu2Sb4H2O
_symmetry_space_group_name_H-M   'P 1'
_cell_length_a   5.09666480
_cell_length_b   5.09666519
_cell_length_c   19.14777350
_cell_angle_alpha   97.64804699
_cell_angle_beta   97.64804912
_cell_angle_gamma   90.00000864
_symmetry_Int_Tables_number   1
_chemical_formula_structural   Ba6Eu2Sb4H2O
_chemical_formula_sum   'Ba6 Eu2 Sb4 H2 O1'
_cell_volume   488.49322731
_cell_formula_units_Z   1
loop_
 _symmetry_equiv_pos_site_id
 _symmetry_equiv_pos_as_xyz
  1  'x, y, z'
loop_
 _atom_site_type_symbol
 _atom_site_label
 _atom_site_symmetry_multiplicity
 _atom_site_fract_x
 _atom_site_fract_y
 _atom_site_fract_z
 _atom_site_occupancy
  Ba  Ba0  1  0.080637  0.080637  0.161273  1
  Ba  Ba1  1  0.657505  0.657505  0.315011  1
  Ba  Ba2  1  0.749999  0.250000  0.500000  1
  Ba  Ba3  1  0.250000  0.749999  0.500000  1
  Ba  Ba4  1  0.342495  0.342495  0.684989  1
  Ba  Ba5  1  0.919363  0.919363  0.838727  1
  Eu  Eu6  1  0.499999  0.000000  0.000000  1
  Eu  Eu7  1  0.000000  0.499999  0.000000  1
  Sb  Sb8  1  0.560623  0.560623  0.121247  1
  Sb  Sb9  1  0.178507  0.178507  0.357015  1
  Sb  Sb10  1  0.821492  0.821492  0.642985  1
  Sb  Sb11  1  0.439376  0.439376  0.878753  1
  H  H12  1  0.728108  0.728108  0.456219  1
  H  H13  1  0.271891  0.271891  0.543781  1
  O  O14  1  0.000000  0.000000  0.000000  1
