# generated using pymatgen
data_AcTh(SnIr)2
_symmetry_space_group_name_H-M   'P 1'
_cell_length_a   7.65817900
_cell_length_b   7.65789581
_cell_length_c   8.50173300
_cell_angle_alpha   90.00211684
_cell_angle_beta   89.99824239
_cell_angle_gamma   119.99751316
_symmetry_Int_Tables_number   1
_chemical_formula_structural   AcTh(SnIr)2
_chemical_formula_sum   'Ac3 Th3 Sn6 Ir6'
_cell_volume   431.80129678
_cell_formula_units_Z   3
loop_
 _symmetry_equiv_pos_site_id
 _symmetry_equiv_pos_as_xyz
  1  'x, y, z'
loop_
 _atom_site_type_symbol
 _atom_site_label
 _atom_site_symmetry_multiplicity
 _atom_site_fract_x
 _atom_site_fract_y
 _atom_site_fract_z
 _atom_site_occupancy
  Ac  Ac0  1  0.584270  0.584240  0.749996  1
  Ac  Ac1  1  0.000009  0.415757  0.750018  1
  Ac  Ac2  1  0.415768  0.000028  0.749977  1
  Th  Th3  1  0.412639  0.999890  0.250022  1
  Th  Th4  1  0.587306  0.587367  0.250001  1
  Th  Th5  1  0.000097  0.412742  0.249983  1
  Sn  Sn6  1  0.246687  0.246641  0.494632  1
  Sn  Sn7  1  0.246697  0.246636  0.005362  1
  Sn  Sn8  1  0.753333  0.000030  0.005358  1
  Sn  Sn9  1  0.999959  0.753333  0.494680  1
  Sn  Sn10  1  0.753361  0.000058  0.494610  1
  Sn  Sn11  1  0.999980  0.753346  0.005354  1
  Ir  Ir12  1  0.666760  0.333363  0.476235  1
  Ir  Ir13  1  0.666649  0.333369  0.023726  1
  Ir  Ir14  1  0.333264  0.666679  0.023552  1
  Ir  Ir15  1  0.333249  0.666558  0.476504  1
  Ir  Ir16  1  0.999965  0.999985  0.749996  1
  Ir  Ir17  1  0.000005  0.999978  0.249994  1
