# generated using pymatgen
data_Y9Th3Co4
_symmetry_space_group_name_H-M   'P 1'
_cell_length_a   6.93490587
_cell_length_b   9.64192700
_cell_length_c   6.35080595
_cell_angle_alpha   90.00000000
_cell_angle_beta   88.65988685
_cell_angle_gamma   90.00000000
_symmetry_Int_Tables_number   1
_chemical_formula_structural   Y9Th3Co4
_chemical_formula_sum   'Y9 Th3 Co4'
_cell_volume   424.53592694
_cell_formula_units_Z   1
loop_
 _symmetry_equiv_pos_site_id
 _symmetry_equiv_pos_as_xyz
  1  'x, y, z'
loop_
 _atom_site_type_symbol
 _atom_site_label
 _atom_site_symmetry_multiplicity
 _atom_site_fract_x
 _atom_site_fract_y
 _atom_site_fract_z
 _atom_site_occupancy
  Y  Y0  1  0.171250  0.068927  0.176665  1
  Y  Y1  1  0.171250  0.431073  0.176665  1
  Y  Y2  1  0.671628  0.071525  0.323184  1
  Y  Y3  1  0.671628  0.428475  0.323184  1
  Y  Y4  1  0.328322  0.569010  0.671846  1
  Y  Y5  1  0.328322  0.930990  0.671846  1
  Y  Y6  1  0.827607  0.568292  0.827056  1
  Y  Y7  1  0.827607  0.931708  0.827056  1
  Y  Y8  1  0.544796  0.250000  0.855137  1
  Th  Th9  1  0.444251  0.750000  0.153764  1
  Th  Th10  1  0.945584  0.750000  0.343650  1
  Th  Th11  1  0.054060  0.250000  0.657821  1
  Co  Co12  1  0.890930  0.250000  0.029660  1
  Co  Co13  1  0.366886  0.250000  0.463304  1
  Co  Co14  1  0.627852  0.750000  0.528329  1
  Co  Co15  1  0.128028  0.750000  0.970833  1
