# generated using pymatgen
data_Yb3Ga8Ag3
_symmetry_space_group_name_H-M   'P 1'
_cell_length_a   4.40988184
_cell_length_b   8.33120952
_cell_length_c   8.33120865
_cell_angle_alpha   71.08254429
_cell_angle_beta   74.65323228
_cell_angle_gamma   74.65323238
_symmetry_Int_Tables_number   1
_chemical_formula_structural   Yb3Ga8Ag3
_chemical_formula_sum   'Yb3 Ga8 Ag3'
_cell_volume   273.80875957
_cell_formula_units_Z   1
loop_
 _symmetry_equiv_pos_site_id
 _symmetry_equiv_pos_as_xyz
  1  'x, y, z'
loop_
 _atom_site_type_symbol
 _atom_site_label
 _atom_site_symmetry_multiplicity
 _atom_site_fract_x
 _atom_site_fract_y
 _atom_site_fract_z
 _atom_site_occupancy
  Yb  Yb0  1  0.500000  0.500000  0.500000  1
  Yb  Yb1  1  0.201613  0.798387  0.798387  1
  Yb  Yb2  1  0.798387  0.201613  0.201613  1
  Ga  Ga3  1  0.356867  0.364552  0.921715  1
  Ga  Ga4  1  0.643133  0.635448  0.078285  1
  Ga  Ga5  1  0.356867  0.921715  0.364552  1
  Ga  Ga6  1  0.643133  0.078285  0.635448  1
  Ga  Ga7  1  0.161151  0.470162  0.207535  1
  Ga  Ga8  1  0.838849  0.529838  0.792465  1
  Ga  Ga9  1  0.161151  0.207535  0.470162  1
  Ga  Ga10  1  0.838849  0.792465  0.529838  1
  Ag  Ag11  1  0.500000  0.000000  0.000000  1
  Ag  Ag12  1  0.000000  0.805642  0.194358  1
  Ag  Ag13  1  0.000000  0.194358  0.805642  1
