# generated using pymatgen
data_YMg2Pa3Rh4
_symmetry_space_group_name_H-M   'P 1'
_cell_length_a   7.67163271
_cell_length_b   7.67163284
_cell_length_c   3.63670400
_cell_angle_alpha   90.00000000
_cell_angle_beta   90.00000000
_cell_angle_gamma   92.40906856
_symmetry_Int_Tables_number   1
_chemical_formula_structural   YMg2Pa3Rh4
_chemical_formula_sum   'Y1 Mg2 Pa3 Rh4'
_cell_volume   213.84522736
_cell_formula_units_Z   1
loop_
 _symmetry_equiv_pos_site_id
 _symmetry_equiv_pos_as_xyz
  1  'x, y, z'
loop_
 _atom_site_type_symbol
 _atom_site_label
 _atom_site_symmetry_multiplicity
 _atom_site_fract_x
 _atom_site_fract_y
 _atom_site_fract_z
 _atom_site_occupancy
  Y  Y0  1  0.832147  0.667853  0.500000  1
  Mg  Mg1  1  0.000240  0.992780  0.000000  1
  Mg  Mg2  1  0.507220  0.499760  0.000000  1
  Pa  Pa3  1  0.670392  0.167188  0.500000  1
  Pa  Pa4  1  0.332812  0.829608  0.500000  1
  Pa  Pa5  1  0.168194  0.331806  0.500000  1
  Rh  Rh6  1  0.152905  0.630464  0.000000  1
  Rh  Rh7  1  0.869536  0.347095  0.000000  1
  Rh  Rh8  1  0.613251  0.886749  0.000000  1
  Rh  Rh9  1  0.353304  0.146696  0.000000  1
