# generated using pymatgen
data_Yb4FeSi2Pd27
_symmetry_space_group_name_H-M   'P 1'
_cell_length_a   8.85106236
_cell_length_b   8.85106236
_cell_length_c   7.10627792
_cell_angle_alpha   90.35031350
_cell_angle_beta   90.35031350
_cell_angle_gamma   89.23887260
_symmetry_Int_Tables_number   1
_chemical_formula_structural   Yb4FeSi2Pd27
_chemical_formula_sum   'Yb4 Fe1 Si2 Pd27'
_cell_volume   556.64542745
_cell_formula_units_Z   1
loop_
 _symmetry_equiv_pos_site_id
 _symmetry_equiv_pos_as_xyz
  1  'x, y, z'
loop_
 _atom_site_type_symbol
 _atom_site_label
 _atom_site_symmetry_multiplicity
 _atom_site_fract_x
 _atom_site_fract_y
 _atom_site_fract_z
 _atom_site_occupancy
  Yb  Yb0  1  0.507896  0.007896  0.938405  1
  Yb  Yb1  1  0.992104  0.492104  0.061595  1
  Yb  Yb2  1  0.001657  0.998343  0.500000  1
  Yb  Yb3  1  0.498343  0.501657  0.500000  1
  Fe  Fe4  1  0.250000  0.750000  0.000000  1
  Si  Si5  1  0.501680  0.001680  0.445216  1
  Si  Si6  1  0.998320  0.498320  0.554784  1
  Pd  Pd7  1  0.335194  0.835194  0.612084  1
  Pd  Pd8  1  0.332849  0.166266  0.619927  1
  Pd  Pd9  1  0.666266  0.832849  0.619927  1
  Pd  Pd10  1  0.666625  0.166625  0.616987  1
  Pd  Pd11  1  0.164806  0.664806  0.387916  1
  Pd  Pd12  1  0.167151  0.333734  0.380073  1
  Pd  Pd13  1  0.833734  0.667151  0.380073  1
  Pd  Pd14  1  0.833375  0.333375  0.383013  1
  Pd  Pd15  1  0.497418  0.770626  0.252701  1
  Pd  Pd16  1  0.497434  0.232612  0.257100  1
  Pd  Pd17  1  0.270626  0.997418  0.252701  1
  Pd  Pd18  1  0.732612  0.997434  0.257100  1
  Pd  Pd19  1  0.002582  0.729374  0.747299  1
  Pd  Pd20  1  0.002566  0.267388  0.742900  1
  Pd  Pd21  1  0.229374  0.502582  0.747299  1
  Pd  Pd22  1  0.767388  0.502566  0.742900  1
  Pd  Pd23  1  0.498728  0.353589  0.852668  1
  Pd  Pd24  1  0.491746  0.660860  0.861320  1
  Pd  Pd25  1  0.853589  0.998728  0.852668  1
  Pd  Pd26  1  0.160860  0.991746  0.861320  1
  Pd  Pd27  1  0.001272  0.146411  0.147332  1
  Pd  Pd28  1  0.008254  0.839140  0.138680  1
  Pd  Pd29  1  0.646411  0.501272  0.147332  1
  Pd  Pd30  1  0.339140  0.508254  0.138680  1
  Pd  Pd31  1  0.250000  0.250000  0.000000  1
  Pd  Pd32  1  0.750000  0.750000  0.000000  1
  Pd  Pd33  1  0.750000  0.250000  0.000000  1
