# generated using pymatgen
data_Sr6Cd2IrRhO12
_symmetry_space_group_name_H-M   'P 1'
_cell_length_a   6.85859960
_cell_length_b   6.85859907
_cell_length_c   6.85860020
_cell_angle_alpha   90.32468196
_cell_angle_beta   90.32467884
_cell_angle_gamma   90.32467170
_symmetry_Int_Tables_number   1
_chemical_formula_structural   Sr6Cd2IrRhO12
_chemical_formula_sum   'Sr6 Cd2 Ir1 Rh1 O12'
_cell_volume   322.61559362
_cell_formula_units_Z   1
loop_
 _symmetry_equiv_pos_site_id
 _symmetry_equiv_pos_as_xyz
  1  'x, y, z'
loop_
 _atom_site_type_symbol
 _atom_site_label
 _atom_site_symmetry_multiplicity
 _atom_site_fract_x
 _atom_site_fract_y
 _atom_site_fract_z
 _atom_site_occupancy
  Sr  Sr0  1  0.384367  0.755345  0.109703  1
  Sr  Sr1  1  0.890297  0.615633  0.244655  1
  Sr  Sr2  1  0.755344  0.109703  0.384367  1
  Sr  Sr3  1  0.244655  0.890296  0.615633  1
  Sr  Sr4  1  0.109703  0.384367  0.755345  1
  Sr  Sr5  1  0.615633  0.244655  0.890297  1
  Cd  Cd6  1  0.245905  0.245905  0.245905  1
  Cd  Cd7  1  0.754095  0.754095  0.754095  1
  Ir  Ir8  1  0.500000  0.500000  0.500000  1
  Rh  Rh9  1  0.000000  0.000000  0.000000  1
  O  O10  1  0.713362  0.915076  0.053672  1
  O  O11  1  0.946326  0.286639  0.084925  1
  O  O12  1  0.550524  0.419217  0.220490  1
  O  O13  1  0.084924  0.946327  0.286638  1
  O  O14  1  0.220490  0.550524  0.419217  1
  O  O15  1  0.580783  0.779509  0.449476  1
  O  O16  1  0.419217  0.220490  0.550524  1
  O  O17  1  0.779509  0.449476  0.580782  1
  O  O18  1  0.915076  0.053672  0.713361  1
  O  O19  1  0.449476  0.580782  0.779509  1
  O  O20  1  0.053673  0.713361  0.915075  1
  O  O21  1  0.286638  0.084924  0.946328  1
