# generated using pymatgen
data_Dy10Ho2InCo4Os
_symmetry_space_group_name_H-M   'P 1'
_cell_length_a   8.27964187
_cell_length_b   8.28134197
_cell_length_c   8.28134150
_cell_angle_alpha   111.45311935
_cell_angle_beta   110.51805761
_cell_angle_gamma   106.49238150
_symmetry_Int_Tables_number   1
_chemical_formula_structural   Dy10Ho2InCo4Os
_chemical_formula_sum   'Dy10 Ho2 In1 Co4 Os1'
_cell_volume   436.15506575
_cell_formula_units_Z   1
loop_
 _symmetry_equiv_pos_site_id
 _symmetry_equiv_pos_as_xyz
  1  'x, y, z'
loop_
 _atom_site_type_symbol
 _atom_site_label
 _atom_site_symmetry_multiplicity
 _atom_site_fract_x
 _atom_site_fract_y
 _atom_site_fract_z
 _atom_site_occupancy
  Dy  Dy0  1  0.026699  0.219873  0.806825  1
  Dy  Dy1  1  0.973301  0.780127  0.193175  1
  Dy  Dy2  1  0.181307  0.281170  0.462330  1
  Dy  Dy3  1  0.818693  0.718830  0.537670  1
  Dy  Dy4  1  0.181307  0.718976  0.900138  1
  Dy  Dy5  1  0.818693  0.281024  0.099862  1
  Dy  Dy6  1  0.315547  0.621740  0.306509  1
  Dy  Dy7  1  0.684453  0.378260  0.693491  1
  Dy  Dy8  1  0.315547  0.009037  0.693808  1
  Dy  Dy9  1  0.684453  0.990963  0.306192  1
  Ho  Ho10  1  0.413179  0.219921  0.193259  1
  Ho  Ho11  1  0.586821  0.780079  0.806741  1
  In  In12  1  0.500000  0.500000  0.000000  1
  Co  Co13  1  0.376145  0.000002  0.376143  1
  Co  Co14  1  0.623855  0.999998  0.623857  1
  Co  Co15  1  0.111322  0.611299  0.500024  1
  Co  Co16  1  0.888678  0.388701  0.499976  1
  Os  Os17  1  0.000000  0.000000  0.000000  1
