# generated using pymatgen
data_Tm4Ga4PdRh3
_symmetry_space_group_name_H-M   'P 1'
_cell_length_a   4.27630000
_cell_length_b   6.81383844
_cell_length_c   7.75353934
_cell_angle_alpha   89.56746569
_cell_angle_beta   90.00000000
_cell_angle_gamma   90.00000000
_symmetry_Int_Tables_number   1
_chemical_formula_structural   Tm4Ga4PdRh3
_chemical_formula_sum   'Tm4 Ga4 Pd1 Rh3'
_cell_volume   225.91632621
_cell_formula_units_Z   1
loop_
 _symmetry_equiv_pos_site_id
 _symmetry_equiv_pos_as_xyz
  1  'x, y, z'
loop_
 _atom_site_type_symbol
 _atom_site_label
 _atom_site_symmetry_multiplicity
 _atom_site_fract_x
 _atom_site_fract_y
 _atom_site_fract_z
 _atom_site_occupancy
  Tm  Tm0  1  0.250000  0.968659  0.311280  1
  Tm  Tm1  1  0.250000  0.476192  0.184159  1
  Tm  Tm2  1  0.750000  0.022286  0.693006  1
  Tm  Tm3  1  0.750000  0.523726  0.811220  1
  Ga  Ga4  1  0.250000  0.347947  0.570867  1
  Ga  Ga5  1  0.250000  0.845002  0.930339  1
  Ga  Ga6  1  0.750000  0.659649  0.430063  1
  Ga  Ga7  1  0.750000  0.151671  0.068478  1
  Pd  Pd8  1  0.750000  0.270405  0.391429  1
  Rh  Rh9  1  0.250000  0.234584  0.890768  1
  Rh  Rh10  1  0.250000  0.735784  0.609113  1
  Rh  Rh11  1  0.750000  0.764094  0.109277  1
