# generated using pymatgen
data_Th4Ga9SiPt6
_symmetry_space_group_name_H-M   'P 1'
_cell_length_a   8.53503743
_cell_length_b   8.57834705
_cell_length_c   8.57834686
_cell_angle_alpha   138.29777993
_cell_angle_beta   105.32560369
_cell_angle_gamma   89.44818800
_symmetry_Int_Tables_number   1
_chemical_formula_structural   Th4Ga9SiPt6
_chemical_formula_sum   'Th4 Ga9 Si1 Pt6'
_cell_volume   385.34509677
_cell_formula_units_Z   1
loop_
 _symmetry_equiv_pos_site_id
 _symmetry_equiv_pos_as_xyz
  1  'x, y, z'
loop_
 _atom_site_type_symbol
 _atom_site_label
 _atom_site_symmetry_multiplicity
 _atom_site_fract_x
 _atom_site_fract_y
 _atom_site_fract_z
 _atom_site_occupancy
  Th  Th0  1  0.864073  0.629021  0.235052  1
  Th  Th1  1  0.136729  0.371968  0.764761  1
  Th  Th2  1  0.389111  0.128286  0.260825  1
  Th  Th3  1  0.598836  0.868561  0.730275  1
  Ga  Ga4  1  0.502134  0.751864  0.249322  1
  Ga  Ga5  1  0.502134  0.252812  0.750270  1
  Ga  Ga6  1  0.229631  0.975216  0.747336  1
  Ga  Ga7  1  0.767309  0.520661  0.749199  1
  Ga  Ga8  1  0.767309  0.018110  0.246647  1
  Ga  Ga9  1  0.229631  0.482295  0.254415  1
  Ga  Ga10  1  0.035261  0.887430  0.147830  1
  Ga  Ga11  1  0.959891  0.105690  0.854201  1
  Ga  Ga12  1  0.743899  0.390877  0.353022  1
  Si  Si13  1  0.256482  0.609558  0.646924  1
  Pt  Pt14  1  0.011794  0.748039  0.753780  1
  Pt  Pt15  1  0.011794  0.258014  0.263755  1
  Pt  Pt16  1  0.246063  0.863217  0.382846  1
  Pt  Pt17  1  0.759628  0.139235  0.620392  1
  Pt  Pt18  1  0.480130  0.363202  0.116928  1
  Pt  Pt19  1  0.508163  0.635944  0.872219  1
