# generated using pymatgen
data_La4HfMo3F28
_symmetry_space_group_name_H-M   'P 1'
_cell_length_a   5.81702495
_cell_length_b   9.36151325
_cell_length_c   12.47907600
_cell_angle_alpha   62.74648699
_cell_angle_beta   90.08194929
_cell_angle_gamma   89.96725918
_symmetry_Int_Tables_number   1
_chemical_formula_structural   La4HfMo3F28
_chemical_formula_sum   'La4 Hf1 Mo3 F28'
_cell_volume   604.12244923
_cell_formula_units_Z   1
loop_
 _symmetry_equiv_pos_site_id
 _symmetry_equiv_pos_as_xyz
  1  'x, y, z'
loop_
 _atom_site_type_symbol
 _atom_site_label
 _atom_site_symmetry_multiplicity
 _atom_site_fract_x
 _atom_site_fract_y
 _atom_site_fract_z
 _atom_site_occupancy
  La  La0  1  0.760083  0.809623  0.265638  1
  La  La1  1  0.257029  0.189902  0.233893  1
  La  La2  1  0.243158  0.191567  0.732590  1
  La  La3  1  0.741261  0.810164  0.768667  1
  Hf  Hf4  1  0.246797  0.726582  0.543296  1
  Mo  Mo5  1  0.746611  0.273511  0.956710  1
  Mo  Mo6  1  0.753658  0.273866  0.456201  1
  Mo  Mo7  1  0.253888  0.725729  0.043814  1
  F  F8  1  0.962387  0.713006  0.456272  1
  F  F9  1  0.463830  0.286350  0.042480  1
  F  F10  1  0.040487  0.286017  0.542964  1
  F  F11  1  0.543279  0.712611  0.956316  1
  F  F12  1  0.053768  0.707000  0.922746  1
  F  F13  1  0.549448  0.292856  0.577699  1
  F  F14  1  0.954201  0.292609  0.079629  1
  F  F15  1  0.451110  0.708191  0.421598  1
  F  F16  1  0.738146  0.510092  0.860496  1
  F  F17  1  0.234883  0.486925  0.640517  1
  F  F18  1  0.262283  0.489930  0.140367  1
  F  F19  1  0.762298  0.510291  0.360133  1
  F  F20  1  0.739653  0.037203  0.048748  1
  F  F21  1  0.239348  0.965770  0.447166  1
  F  F22  1  0.257907  0.961928  0.951161  1
  F  F23  1  0.759258  0.037333  0.549030  1
  F  F24  1  0.047240  0.746245  0.667898  1
  F  F25  1  0.543748  0.254484  0.831517  1
  F  F26  1  0.953258  0.256172  0.331877  1
  F  F27  1  0.450209  0.744235  0.167244  1
  F  F28  1  0.023351  0.267075  0.865784  1
  F  F29  1  0.521568  0.733213  0.638164  1
  F  F30  1  0.970574  0.732292  0.136829  1
  F  F31  1  0.473768  0.269496  0.363155  1
  F  F32  1  0.085200  0.968570  0.231784  1
  F  F33  1  0.583669  0.029337  0.267125  1
  F  F34  1  0.917086  0.030018  0.768879  1
  F  F35  1  0.415560  0.969807  0.731610  1
