# generated using pymatgen
data_Sc8Al14PRh7
_symmetry_space_group_name_H-M   'P 1'
_cell_length_a   8.88901133
_cell_length_b   8.88903403
_cell_length_c   8.88905410
_cell_angle_alpha   120.05176039
_cell_angle_beta   120.11224375
_cell_angle_gamma   89.85807469
_symmetry_Int_Tables_number   1
_chemical_formula_structural   Sc8Al14PRh7
_chemical_formula_sum   'Sc8 Al14 P1 Rh7'
_cell_volume   496.03030248
_cell_formula_units_Z   1
loop_
 _symmetry_equiv_pos_site_id
 _symmetry_equiv_pos_as_xyz
  1  'x, y, z'
loop_
 _atom_site_type_symbol
 _atom_site_label
 _atom_site_symmetry_multiplicity
 _atom_site_fract_x
 _atom_site_fract_y
 _atom_site_fract_z
 _atom_site_occupancy
  Sc  Sc0  1  0.803003  0.295992  0.089225  1
  Sc  Sc1  1  0.206767  0.295991  0.492987  1
  Sc  Sc2  1  0.198350  0.698345  0.500003  1
  Sc  Sc3  1  0.206778  0.713774  0.910777  1
  Sc  Sc4  1  0.802993  0.713771  0.507000  1
  Sc  Sc5  1  0.788180  0.288191  0.500005  1
  Sc  Sc6  1  0.380229  0.118762  0.738534  1
  Sc  Sc7  1  0.380222  0.641699  0.261472  1
  Al  Al8  1  0.164709  0.331273  0.166566  1
  Al  Al9  1  0.164709  0.998137  0.833431  1
  Al  Al10  1  0.160632  0.334996  0.825639  1
  Al  Al11  1  0.509357  0.334995  0.174363  1
  Al  Al12  1  0.834005  0.664683  0.830677  1
  Al  Al13  1  0.834006  0.003327  0.169318  1
  Al  Al14  1  0.831880  0.665546  0.166332  1
  Al  Al15  1  0.499213  0.665547  0.833664  1
  Al  Al16  1  0.381150  0.120932  0.260211  1
  Al  Al17  1  0.860719  0.120934  0.739781  1
  Al  Al18  1  0.621121  0.878779  0.257655  1
  Al  Al19  1  0.621117  0.363462  0.742347  1
  Al  Al20  1  0.622455  0.879337  0.743116  1
  Al  Al21  1  0.136223  0.879339  0.256884  1
  P  P22  1  0.993228  0.493226  0.499999  1
  Rh  Rh23  1  0.994990  0.999737  0.499051  1
  Rh  Rh24  1  0.500686  0.999738  0.004743  1
  Rh  Rh25  1  0.500340  0.500344  0.000007  1
  Rh  Rh26  1  0.500692  0.495943  0.500954  1
  Rh  Rh27  1  0.994996  0.495951  0.995259  1
  Rh  Rh28  1  0.000365  0.000366  0.000001  1
  Rh  Rh29  1  0.506878  0.006879  0.500000  1
