# generated using pymatgen
data_Li3Dy8Sc8Si16W
_symmetry_space_group_name_H-M   'P 1'
_cell_length_a   6.92890771
_cell_length_b   7.32470814
_cell_length_c   13.95623775
_cell_angle_alpha   90.07829073
_cell_angle_beta   89.80709462
_cell_angle_gamma   89.55567287
_symmetry_Int_Tables_number   1
_chemical_formula_structural   Li3Dy8Sc8Si16W
_chemical_formula_sum   'Li3 Dy8 Sc8 Si16 W1'
_cell_volume   708.28414207
_cell_formula_units_Z   1
loop_
 _symmetry_equiv_pos_site_id
 _symmetry_equiv_pos_as_xyz
  1  'x, y, z'
loop_
 _atom_site_type_symbol
 _atom_site_label
 _atom_site_symmetry_multiplicity
 _atom_site_fract_x
 _atom_site_fract_y
 _atom_site_fract_z
 _atom_site_occupancy
  Li  Li0  1  0.161278  0.499270  0.745086  1
  Li  Li1  1  0.839584  0.495821  0.252035  1
  Li  Li2  1  0.339655  0.006057  0.250675  1
  Dy  Dy3  1  0.014124  0.181035  0.099642  1
  Dy  Dy4  1  0.991541  0.820647  0.896365  1
  Dy  Dy5  1  0.484810  0.675748  0.898198  1
  Dy  Dy6  1  0.992096  0.825026  0.597028  1
  Dy  Dy7  1  0.513651  0.319370  0.099225  1
  Dy  Dy8  1  0.013222  0.181178  0.399950  1
  Dy  Dy9  1  0.511228  0.317657  0.406982  1
  Dy  Dy10  1  0.484088  0.671057  0.597360  1
  Sc  Sc11  1  0.661170  0.003197  0.746847  1
  Sc  Sc12  1  0.665599  0.823970  0.377693  1
  Sc  Sc13  1  0.167672  0.680886  0.378633  1
  Sc  Sc14  1  0.667119  0.821759  0.127638  1
  Sc  Sc15  1  0.839009  0.323615  0.624165  1
  Sc  Sc16  1  0.327668  0.181666  0.872487  1
  Sc  Sc17  1  0.829488  0.326896  0.871330  1
  Sc  Sc18  1  0.168607  0.679099  0.126371  1
  Si  Si19  1  0.039340  0.108935  0.742543  1
  Si  Si20  1  0.967137  0.896241  0.251142  1
  Si  Si21  1  0.466568  0.607619  0.252328  1
  Si  Si22  1  0.530500  0.375331  0.745006  1
  Si  Si23  1  0.291165  0.885202  0.745619  1
  Si  Si24  1  0.713883  0.118885  0.251015  1
  Si  Si25  1  0.220062  0.382074  0.251110  1
  Si  Si26  1  0.780385  0.623343  0.746323  1
  Si  Si27  1  0.176500  0.447374  0.535241  1
  Si  Si28  1  0.841261  0.535102  0.467226  1
  Si  Si29  1  0.330622  0.969181  0.476357  1
  Si  Si30  1  0.840210  0.539105  0.034932  1
  Si  Si31  1  0.644386  0.035038  0.545189  1
  Si  Si32  1  0.155998  0.463142  0.964703  1
  Si  Si33  1  0.658806  0.034761  0.960651  1
  Si  Si34  1  0.343146  0.963160  0.034293  1
  W  W35  1  0.328424  0.181552  0.628612  1
