# generated using pymatgen
data_TbDyY2(Al3Ir)6
_symmetry_space_group_name_H-M   'P 1'
_cell_length_a   7.56089502
_cell_length_b   7.56168823
_cell_length_c   9.49294300
_cell_angle_alpha   90.00000000
_cell_angle_beta   90.00000000
_cell_angle_gamma   119.48374185
_symmetry_Int_Tables_number   1
_chemical_formula_structural   TbDyY2(Al3Ir)6
_chemical_formula_sum   'Tb1 Dy1 Y2 Al18 Ir6'
_cell_volume   472.45377543
_cell_formula_units_Z   1
loop_
 _symmetry_equiv_pos_site_id
 _symmetry_equiv_pos_as_xyz
  1  'x, y, z'
loop_
 _atom_site_type_symbol
 _atom_site_label
 _atom_site_symmetry_multiplicity
 _atom_site_fract_x
 _atom_site_fract_y
 _atom_site_fract_z
 _atom_site_occupancy
  Tb  Tb0  1  0.994561  0.671110  0.750000  1
  Dy  Dy1  1  0.328878  0.005451  0.250000  1
  Y  Y2  1  0.005440  0.328846  0.250000  1
  Y  Y3  1  0.671121  0.994620  0.750000  1
  Al  Al4  1  0.129182  0.129355  0.750000  1
  Al  Al5  1  0.870931  0.870974  0.250000  1
  Al  Al6  1  0.001028  0.334920  0.573558  1
  Al  Al7  1  0.998990  0.664912  0.425890  1
  Al  Al8  1  0.998990  0.664912  0.074110  1
  Al  Al9  1  0.335289  0.001201  0.926453  1
  Al  Al10  1  0.001028  0.334920  0.926442  1
  Al  Al11  1  0.664860  0.998974  0.073854  1
  Al  Al12  1  0.664860  0.998974  0.426146  1
  Al  Al13  1  0.335289  0.001201  0.573547  1
  Al  Al14  1  0.333404  0.333382  0.051229  1
  Al  Al15  1  0.666454  0.666605  0.949207  1
  Al  Al16  1  0.666454  0.666605  0.550793  1
  Al  Al17  1  0.333404  0.333382  0.448771  1
  Al  Al18  1  0.339670  0.548278  0.750000  1
  Al  Al19  1  0.660394  0.451546  0.250000  1
  Al  Al20  1  0.548036  0.339211  0.750000  1
  Al  Al21  1  0.451708  0.660599  0.250000  1
  Ir  Ir22  1  0.671830  0.328017  0.499876  1
  Ir  Ir23  1  0.328082  0.671911  0.499888  1
  Ir  Ir24  1  0.328082  0.671911  0.000112  1
  Ir  Ir25  1  0.671830  0.328017  0.000124  1
  Ir  Ir26  1  0.000104  0.000083  0.499864  1
  Ir  Ir27  1  0.000104  0.000083  0.000136  1
