# generated using pymatgen
data_Ba2Yb(PdO2)3
_symmetry_space_group_name_H-M   'P 1'
_cell_length_a   9.53551592
_cell_length_b   8.74482583
_cell_length_c   7.30926445
_cell_angle_alpha   72.25071165
_cell_angle_beta   60.85924968
_cell_angle_gamma   46.89003351
_symmetry_Int_Tables_number   1
_chemical_formula_structural   Ba2Yb(PdO2)3
_chemical_formula_sum   'Ba4 Yb2 Pd6 O12'
_cell_volume   388.26365603
_cell_formula_units_Z   2
loop_
 _symmetry_equiv_pos_site_id
 _symmetry_equiv_pos_as_xyz
  1  'x, y, z'
loop_
 _atom_site_type_symbol
 _atom_site_label
 _atom_site_symmetry_multiplicity
 _atom_site_fract_x
 _atom_site_fract_y
 _atom_site_fract_z
 _atom_site_occupancy
  Ba  Ba0  1  0.750000  0.750000  0.750000  1
  Ba  Ba1  1  0.250000  0.250000  0.250000  1
  Ba  Ba2  1  0.232789  0.767211  0.232789  1
  Ba  Ba3  1  0.767211  0.232789  0.767211  1
  Yb  Yb4  1  0.670661  0.670661  0.329339  1
  Yb  Yb5  1  0.329339  0.329339  0.670661  1
  Pd  Pd6  1  0.686964  0.006431  0.313036  1
  Pd  Pd7  1  0.993569  0.313036  0.006431  1
  Pd  Pd8  1  0.006431  0.686964  0.993569  1
  Pd  Pd9  1  0.313036  0.993569  0.686964  1
  Pd  Pd10  1  0.327837  0.672163  0.672163  1
  Pd  Pd11  1  0.672163  0.327837  0.327837  1
  O  O12  1  0.329491  0.465376  0.903054  1
  O  O13  1  0.302079  0.903054  0.465376  1
  O  O14  1  0.903054  0.302079  0.329491  1
  O  O15  1  0.465376  0.329491  0.302079  1
  O  O16  1  0.670509  0.534624  0.096946  1
  O  O17  1  0.697921  0.096946  0.534624  1
  O  O18  1  0.686295  0.919344  0.080656  1
  O  O19  1  0.534624  0.670509  0.697921  1
  O  O20  1  0.919344  0.686295  0.313705  1
  O  O21  1  0.080656  0.313705  0.686295  1
  O  O22  1  0.313705  0.080656  0.919344  1
  O  O23  1  0.096946  0.697921  0.670509  1
