# generated using pymatgen
data_Tm2Lu18Bi11Au
_symmetry_space_group_name_H-M   'P 1'
_cell_length_a   8.08440473
_cell_length_b   9.37502300
_cell_length_c   11.79990630
_cell_angle_alpha   90.00000000
_cell_angle_beta   89.64754620
_cell_angle_gamma   90.00000000
_symmetry_Int_Tables_number   1
_chemical_formula_structural   Tm2Lu18Bi11Au
_chemical_formula_sum   'Tm2 Lu18 Bi11 Au1'
_cell_volume   894.31544418
_cell_formula_units_Z   1
loop_
 _symmetry_equiv_pos_site_id
 _symmetry_equiv_pos_as_xyz
  1  'x, y, z'
loop_
 _atom_site_type_symbol
 _atom_site_label
 _atom_site_symmetry_multiplicity
 _atom_site_fract_x
 _atom_site_fract_y
 _atom_site_fract_z
 _atom_site_occupancy
  Tm  Tm0  1  0.809232  0.750000  0.216593  1
  Tm  Tm1  1  0.313036  0.750000  0.281632  1
  Lu  Lu2  1  0.039407  0.250000  0.507600  1
  Lu  Lu3  1  0.981289  0.750000  0.491234  1
  Lu  Lu4  1  0.475986  0.750000  0.010374  1
  Lu  Lu5  1  0.525304  0.250000  0.989816  1
  Lu  Lu6  1  0.357505  0.250000  0.295594  1
  Lu  Lu7  1  0.648868  0.750000  0.717522  1
  Lu  Lu8  1  0.149461  0.750000  0.781050  1
  Lu  Lu9  1  0.851864  0.250000  0.216463  1
  Lu  Lu10  1  0.196973  0.250000  0.778214  1
  Lu  Lu11  1  0.670017  0.250000  0.708356  1
  Lu  Lu12  1  0.193392  0.067034  0.061979  1
  Lu  Lu13  1  0.806049  0.933224  0.940159  1
  Lu  Lu14  1  0.309467  0.953466  0.559567  1
  Lu  Lu15  1  0.806049  0.566776  0.940159  1
  Lu  Lu16  1  0.684307  0.072692  0.445920  1
  Lu  Lu17  1  0.193392  0.432966  0.061979  1
  Lu  Lu18  1  0.684307  0.427308  0.445920  1
  Lu  Lu19  1  0.309467  0.546534  0.559567  1
  Bi  Bi20  1  0.595500  0.750000  0.457689  1
  Bi  Bi21  1  0.096438  0.750000  0.041682  1
  Bi  Bi22  1  0.905856  0.250000  0.953524  1
  Bi  Bi23  1  0.060247  0.001960  0.323188  1
  Bi  Bi24  1  0.934966  0.998695  0.676005  1
  Bi  Bi25  1  0.435781  0.995936  0.826428  1
  Bi  Bi26  1  0.934966  0.501305  0.676005  1
  Bi  Bi27  1  0.564182  0.004736  0.174738  1
  Bi  Bi28  1  0.060247  0.498040  0.323188  1
  Bi  Bi29  1  0.564182  0.495264  0.174738  1
  Bi  Bi30  1  0.435781  0.504064  0.826428  1
  Au  Au31  1  0.406481  0.250000  0.536689  1
