# generated using pymatgen
data_Y24Tc7Ag
_symmetry_space_group_name_H-M   'P 1'
_cell_length_a   6.33587772
_cell_length_b   9.24374400
_cell_length_c   15.00333700
_cell_angle_alpha   90.00000000
_cell_angle_beta   90.00457737
_cell_angle_gamma   90.00000000
_symmetry_Int_Tables_number   1
_chemical_formula_structural   Y24Tc7Ag
_chemical_formula_sum   'Y24 Tc7 Ag1'
_cell_volume   878.70391120
_cell_formula_units_Z   1
loop_
 _symmetry_equiv_pos_site_id
 _symmetry_equiv_pos_as_xyz
  1  'x, y, z'
loop_
 _atom_site_type_symbol
 _atom_site_label
 _atom_site_symmetry_multiplicity
 _atom_site_fract_x
 _atom_site_fract_y
 _atom_site_fract_z
 _atom_site_occupancy
  Y  Y0  1  0.538705  0.750000  0.353644  1
  Y  Y1  1  0.036546  0.250000  0.148177  1
  Y  Y2  1  0.461804  0.250000  0.647826  1
  Y  Y3  1  0.955589  0.750000  0.858638  1
  Y  Y4  1  0.777922  0.750000  0.108365  1
  Y  Y5  1  0.283837  0.250000  0.388509  1
  Y  Y6  1  0.220702  0.250000  0.891927  1
  Y  Y7  1  0.702629  0.750000  0.606018  1
  Y  Y8  1  0.447295  0.939524  0.794863  1
  Y  Y9  1  0.926506  0.071327  0.708153  1
  Y  Y10  1  0.564796  0.434559  0.211018  1
  Y  Y11  1  0.065234  0.565988  0.288678  1
  Y  Y12  1  0.564796  0.065441  0.211018  1
  Y  Y13  1  0.065234  0.934012  0.288678  1
  Y  Y14  1  0.447295  0.560476  0.794863  1
  Y  Y15  1  0.926506  0.428673  0.708153  1
  Y  Y16  1  0.240846  0.946074  0.526074  1
  Y  Y17  1  0.741489  0.066378  0.967761  1
  Y  Y18  1  0.757485  0.435382  0.464093  1
  Y  Y19  1  0.258947  0.563716  0.037298  1
  Y  Y20  1  0.757485  0.064618  0.464093  1
  Y  Y21  1  0.258947  0.936284  0.037298  1
  Y  Y22  1  0.240846  0.553926  0.526074  1
  Y  Y23  1  0.741489  0.433622  0.967761  1
  Tc  Tc24  1  0.930641  0.750000  0.445831  1
  Tc  Tc25  1  0.425801  0.250000  0.059887  1
  Tc  Tc26  1  0.076329  0.250000  0.558875  1
  Tc  Tc27  1  0.569424  0.750000  0.940446  1
  Tc  Tc28  1  0.358773  0.750000  0.184664  1
  Tc  Tc29  1  0.859207  0.250000  0.317094  1
  Tc  Tc30  1  0.644024  0.250000  0.816099  1
  Ag  Ag31  1  0.152866  0.750000  0.678120  1
