# generated using pymatgen
data_LiNd2Ho4Co17P12
_symmetry_space_group_name_H-M   'P 1'
_cell_length_a   3.74050000
_cell_length_b   10.61522500
_cell_length_c   12.26355100
_cell_angle_alpha   90.00000000
_cell_angle_beta   90.00000000
_cell_angle_gamma   90.00000000
_symmetry_Int_Tables_number   1
_chemical_formula_structural   LiNd2Ho4Co17P12
_chemical_formula_sum   'Li1 Nd2 Ho4 Co17 P12'
_cell_volume   486.93961101
_cell_formula_units_Z   1
loop_
 _symmetry_equiv_pos_site_id
 _symmetry_equiv_pos_as_xyz
  1  'x, y, z'
loop_
 _atom_site_type_symbol
 _atom_site_label
 _atom_site_symmetry_multiplicity
 _atom_site_fract_x
 _atom_site_fract_y
 _atom_site_fract_z
 _atom_site_occupancy
  Li  Li0  1  0.500000  0.500000  0.149356  1
  Nd  Nd1  1  0.000000  0.500000  0.523177  1
  Nd  Nd2  1  0.500000  0.000000  0.477778  1
  Ho  Ho3  1  0.500000  0.819676  0.205303  1
  Ho  Ho4  1  0.500000  0.180324  0.205303  1
  Ho  Ho5  1  0.000000  0.682135  0.795392  1
  Ho  Ho6  1  0.000000  0.317865  0.795392  1
  Co  Co7  1  0.000000  0.500000  0.986387  1
  Co  Co8  1  0.500000  0.000000  0.011563  1
  Co  Co9  1  0.500000  0.295559  0.430429  1
  Co  Co10  1  0.500000  0.704441  0.430429  1
  Co  Co11  1  0.000000  0.203114  0.572057  1
  Co  Co12  1  0.000000  0.796886  0.572057  1
  Co  Co13  1  0.500000  0.880045  0.712271  1
  Co  Co14  1  0.500000  0.119955  0.712271  1
  Co  Co15  1  0.000000  0.622161  0.289969  1
  Co  Co16  1  0.000000  0.377839  0.289969  1
  Co  Co17  1  0.500000  0.330681  0.995111  1
  Co  Co18  1  0.500000  0.669319  0.995111  1
  Co  Co19  1  0.000000  0.164783  0.002995  1
  Co  Co20  1  0.000000  0.835217  0.002995  1
  Co  Co21  1  0.000000  0.000000  0.842623  1
  Co  Co22  1  0.500000  0.500000  0.707725  1
  Co  Co23  1  0.000000  0.000000  0.293182  1
  P  P24  1  0.500000  0.306889  0.618505  1
  P  P25  1  0.500000  0.693111  0.618505  1
  P  P26  1  0.000000  0.192856  0.383371  1
  P  P27  1  0.000000  0.807144  0.383371  1
  P  P28  1  0.500000  0.500000  0.885747  1
  P  P29  1  0.000000  0.000000  0.115414  1
  P  P30  1  0.500000  0.846952  0.892872  1
  P  P31  1  0.500000  0.153048  0.892872  1
  P  P32  1  0.000000  0.658085  0.104584  1
  P  P33  1  0.000000  0.341915  0.104584  1
  P  P34  1  0.500000  0.500000  0.341026  1
  P  P35  1  0.000000  0.000000  0.660305  1
