# generated using pymatgen
data_Ca3Tb7Y2(SiPd)12
_symmetry_space_group_name_H-M   'P 1'
_cell_length_a   4.34339200
_cell_length_b   7.46283391
_cell_length_c   21.28005704
_cell_angle_alpha   89.96249367
_cell_angle_beta   90.00000000
_cell_angle_gamma   90.00000000
_symmetry_Int_Tables_number   1
_chemical_formula_structural   Ca3Tb7Y2(SiPd)12
_chemical_formula_sum   'Ca3 Tb7 Y2 Si12 Pd12'
_cell_volume   689.77190031
_cell_formula_units_Z   1
loop_
 _symmetry_equiv_pos_site_id
 _symmetry_equiv_pos_as_xyz
  1  'x, y, z'
loop_
 _atom_site_type_symbol
 _atom_site_label
 _atom_site_symmetry_multiplicity
 _atom_site_fract_x
 _atom_site_fract_y
 _atom_site_fract_z
 _atom_site_occupancy
  Ca  Ca0  1  0.250000  0.703412  0.332653  1
  Ca  Ca1  1  0.750000  0.295352  0.667375  1
  Ca  Ca2  1  0.750000  0.203274  0.167117  1
  Tb  Tb3  1  0.250000  0.797041  0.832798  1
  Tb  Tb4  1  0.250000  0.796882  0.166014  1
  Tb  Tb5  1  0.250000  0.704571  0.665885  1
  Tb  Tb6  1  0.250000  0.709231  0.001000  1
  Tb  Tb7  1  0.750000  0.290670  0.999572  1
  Tb  Tb8  1  0.750000  0.207711  0.499132  1
  Tb  Tb9  1  0.250000  0.793230  0.500405  1
  Y  Y10  1  0.750000  0.204911  0.833690  1
  Y  Y11  1  0.750000  0.295600  0.333783  1
  Si  Si12  1  0.250000  0.088628  0.066061  1
  Si  Si13  1  0.750000  0.910353  0.928808  1
  Si  Si14  1  0.750000  0.587195  0.434023  1
  Si  Si15  1  0.250000  0.412529  0.566419  1
  Si  Si16  1  0.250000  0.086314  0.274316  1
  Si  Si17  1  0.750000  0.911462  0.728044  1
  Si  Si18  1  0.750000  0.586822  0.225751  1
  Si  Si19  1  0.250000  0.414603  0.774131  1
  Si  Si20  1  0.250000  0.089779  0.395111  1
  Si  Si21  1  0.750000  0.910396  0.605676  1
  Si  Si22  1  0.750000  0.589085  0.104639  1
  Si  Si23  1  0.250000  0.411216  0.895453  1
  Pd  Pd24  1  0.250000  0.415488  0.236705  1
  Pd  Pd25  1  0.750000  0.584985  0.764659  1
  Pd  Pd26  1  0.750000  0.915425  0.263182  1
  Pd  Pd27  1  0.250000  0.083137  0.737775  1
  Pd  Pd28  1  0.250000  0.416224  0.437388  1
  Pd  Pd29  1  0.750000  0.583940  0.562612  1
  Pd  Pd30  1  0.750000  0.915943  0.062807  1
  Pd  Pd31  1  0.250000  0.083481  0.937671  1
  Pd  Pd32  1  0.250000  0.420170  0.093051  1
  Pd  Pd33  1  0.750000  0.580675  0.906060  1
  Pd  Pd34  1  0.750000  0.919056  0.407266  1
  Pd  Pd35  1  0.250000  0.081211  0.592966  1
