# generated using pymatgen
data_Dy3Tm5(InPt)2
_symmetry_space_group_name_H-M   'P 1'
_cell_length_a   9.64386022
_cell_length_b   9.64386035
_cell_length_c   9.64386000
_cell_angle_alpha   60.00000121
_cell_angle_beta   60.00000074
_cell_angle_gamma   59.99999898
_symmetry_Int_Tables_number   1
_chemical_formula_structural   Dy3Tm5(InPt)2
_chemical_formula_sum   'Dy6 Tm10 In4 Pt4'
_cell_volume   634.21677080
_cell_formula_units_Z   2
loop_
 _symmetry_equiv_pos_site_id
 _symmetry_equiv_pos_as_xyz
  1  'x, y, z'
loop_
 _atom_site_type_symbol
 _atom_site_label
 _atom_site_symmetry_multiplicity
 _atom_site_fract_x
 _atom_site_fract_y
 _atom_site_fract_z
 _atom_site_occupancy
  Dy  Dy0  1  0.938160  0.561840  0.561840  1
  Dy  Dy1  1  0.561840  0.938160  0.938160  1
  Dy  Dy2  1  0.561840  0.938160  0.561840  1
  Dy  Dy3  1  0.938160  0.561839  0.938160  1
  Dy  Dy4  1  0.561840  0.561840  0.938160  1
  Dy  Dy5  1  0.938160  0.938160  0.561839  1
  Tm  Tm6  1  0.350625  0.350625  0.350625  1
  Tm  Tm7  1  0.350625  0.350625  0.948126  1
  Tm  Tm8  1  0.350625  0.948126  0.350625  1
  Tm  Tm9  1  0.948126  0.350625  0.350625  1
  Tm  Tm10  1  0.811400  0.188600  0.188600  1
  Tm  Tm11  1  0.188600  0.811400  0.811400  1
  Tm  Tm12  1  0.188600  0.811400  0.188600  1
  Tm  Tm13  1  0.811400  0.188600  0.811400  1
  Tm  Tm14  1  0.188600  0.188600  0.811400  1
  Tm  Tm15  1  0.811400  0.811400  0.188600  1
  In  In16  1  0.582614  0.582614  0.582614  1
  In  In17  1  0.582614  0.582614  0.252158  1
  In  In18  1  0.582614  0.252158  0.582614  1
  In  In19  1  0.252158  0.582614  0.582614  1
  Pt  Pt20  1  0.142819  0.142819  0.142819  1
  Pt  Pt21  1  0.142819  0.142819  0.571544  1
  Pt  Pt22  1  0.142819  0.571544  0.142819  1
  Pt  Pt23  1  0.571544  0.142819  0.142819  1
