# generated using pymatgen
data_Hf18BeAlRe7S
_symmetry_space_group_name_H-M   'P 1'
_cell_length_a   8.54705800
_cell_length_b   8.54705856
_cell_length_c   8.54328400
_cell_angle_alpha   90.00000000
_cell_angle_beta   90.00000000
_cell_angle_gamma   119.99999784
_symmetry_Int_Tables_number   1
_chemical_formula_structural   Hf18BeAlRe7S
_chemical_formula_sum   'Hf18 Be1 Al1 Re7 S1'
_cell_volume   540.49143384
_cell_formula_units_Z   1
loop_
 _symmetry_equiv_pos_site_id
 _symmetry_equiv_pos_as_xyz
  1  'x, y, z'
loop_
 _atom_site_type_symbol
 _atom_site_label
 _atom_site_symmetry_multiplicity
 _atom_site_fract_x
 _atom_site_fract_y
 _atom_site_fract_z
 _atom_site_occupancy
  Hf  Hf0  1  0.195175  0.804825  0.444966  1
  Hf  Hf1  1  0.195175  0.390349  0.444966  1
  Hf  Hf2  1  0.609651  0.804825  0.444966  1
  Hf  Hf3  1  0.805464  0.194536  0.552226  1
  Hf  Hf4  1  0.805464  0.610929  0.552226  1
  Hf  Hf5  1  0.389071  0.194536  0.552226  1
  Hf  Hf6  1  0.805170  0.194830  0.946196  1
  Hf  Hf7  1  0.805170  0.610341  0.946196  1
  Hf  Hf8  1  0.389659  0.194830  0.946196  1
  Hf  Hf9  1  0.197924  0.802076  0.058181  1
  Hf  Hf10  1  0.197924  0.395847  0.058181  1
  Hf  Hf11  1  0.604153  0.802076  0.058181  1
  Hf  Hf12  1  0.541581  0.458419  0.248417  1
  Hf  Hf13  1  0.541581  0.083160  0.248417  1
  Hf  Hf14  1  0.916840  0.458419  0.248417  1
  Hf  Hf15  1  0.454020  0.545980  0.751640  1
  Hf  Hf16  1  0.454020  0.908040  0.751640  1
  Hf  Hf17  1  0.091960  0.545980  0.751640  1
  Be  Be18  1  0.333333  0.666667  0.253481  1
  Al  Al19  1  0.000000  0.000000  0.497395  1
  Re  Re20  1  0.888909  0.111091  0.250245  1
  Re  Re21  1  0.888909  0.777816  0.250245  1
  Re  Re22  1  0.222184  0.111091  0.250245  1
  Re  Re23  1  0.110621  0.889379  0.748418  1
  Re  Re24  1  0.110621  0.221241  0.748418  1
  Re  Re25  1  0.778759  0.889379  0.748418  1
  Re  Re26  1  0.000000  0.000000  0.999420  1
  S  S27  1  0.666667  0.333333  0.748835  1
