# generated using pymatgen
data_Ca6Zn23N
_symmetry_space_group_name_H-M   'P 1'
_cell_length_a   9.05375043
_cell_length_b   9.05374910
_cell_length_c   9.05374900
_cell_angle_alpha   59.99999673
_cell_angle_beta   60.00000158
_cell_angle_gamma   60.00000042
_symmetry_Int_Tables_number   1
_chemical_formula_structural   Ca6Zn23N
_chemical_formula_sum   'Ca6 Zn23 N1'
_cell_volume   524.77171963
_cell_formula_units_Z   1
loop_
 _symmetry_equiv_pos_site_id
 _symmetry_equiv_pos_as_xyz
  1  'x, y, z'
loop_
 _atom_site_type_symbol
 _atom_site_label
 _atom_site_symmetry_multiplicity
 _atom_site_fract_x
 _atom_site_fract_y
 _atom_site_fract_z
 _atom_site_occupancy
  Ca  Ca0  1  0.690612  0.309388  0.309388  1
  Ca  Ca1  1  0.309388  0.690612  0.690612  1
  Ca  Ca2  1  0.309388  0.690612  0.309388  1
  Ca  Ca3  1  0.690612  0.309388  0.690612  1
  Ca  Ca4  1  0.309388  0.309388  0.690612  1
  Ca  Ca5  1  0.690612  0.690612  0.309388  1
  Zn  Zn6  1  0.121634  0.121634  0.121634  1
  Zn  Zn7  1  0.878366  0.878366  0.878366  1
  Zn  Zn8  1  0.121634  0.121634  0.635102  1
  Zn  Zn9  1  0.121634  0.635102  0.121634  1
  Zn  Zn10  1  0.878366  0.878366  0.364898  1
  Zn  Zn11  1  0.878366  0.364898  0.878366  1
  Zn  Zn12  1  0.635102  0.121634  0.121634  1
  Zn  Zn13  1  0.364898  0.878366  0.878366  1
  Zn  Zn14  1  0.500000  0.000000  0.000000  1
  Zn  Zn15  1  0.000000  0.500000  0.500000  1
  Zn  Zn16  1  0.000000  0.500000  0.000000  1
  Zn  Zn17  1  0.500000  0.000000  0.500000  1
  Zn  Zn18  1  0.000000  0.000000  0.500000  1
  Zn  Zn19  1  0.500000  0.500000  0.000000  1
  Zn  Zn20  1  0.324924  0.324924  0.324924  1
  Zn  Zn21  1  0.675076  0.675076  0.675076  1
  Zn  Zn22  1  0.324924  0.324924  0.025227  1
  Zn  Zn23  1  0.324924  0.025227  0.324924  1
  Zn  Zn24  1  0.675076  0.675076  0.974773  1
  Zn  Zn25  1  0.675076  0.974773  0.675076  1
  Zn  Zn26  1  0.025227  0.324924  0.324924  1
  Zn  Zn27  1  0.974773  0.675076  0.675076  1
  Zn  Zn28  1  0.000000  0.000000  0.000000  1
  N  N29  1  0.500000  0.500000  0.500000  1
