# generated using pymatgen
data_Y5Ir2Ru
_symmetry_space_group_name_H-M   'P 1'
_cell_length_a   10.88729600
_cell_length_b   10.88729600
_cell_length_c   6.44554100
_cell_angle_alpha   90.00000000
_cell_angle_beta   90.00000000
_cell_angle_gamma   90.00000000
_symmetry_Int_Tables_number   1
_chemical_formula_structural   Y5Ir2Ru
_chemical_formula_sum   'Y20 Ir8 Ru4'
_cell_volume   764.01069193
_cell_formula_units_Z   4
loop_
 _symmetry_equiv_pos_site_id
 _symmetry_equiv_pos_as_xyz
  1  'x, y, z'
loop_
 _atom_site_type_symbol
 _atom_site_label
 _atom_site_symmetry_multiplicity
 _atom_site_fract_x
 _atom_site_fract_y
 _atom_site_fract_z
 _atom_site_occupancy
  Y  Y0  1  0.293486  0.086821  0.378012  1
  Y  Y1  1  0.293486  0.913179  0.878012  1
  Y  Y2  1  0.706514  0.086821  0.878012  1
  Y  Y3  1  0.706514  0.913179  0.378012  1
  Y  Y4  1  0.586821  0.793486  0.878012  1
  Y  Y5  1  0.586821  0.206514  0.378012  1
  Y  Y6  1  0.413179  0.793486  0.378012  1
  Y  Y7  1  0.413179  0.206514  0.878012  1
  Y  Y8  1  0.206514  0.413179  0.621988  1
  Y  Y9  1  0.206514  0.586821  0.121988  1
  Y  Y10  1  0.793486  0.413179  0.121988  1
  Y  Y11  1  0.793486  0.586821  0.621988  1
  Y  Y12  1  0.913179  0.706514  0.121988  1
  Y  Y13  1  0.913179  0.293486  0.621988  1
  Y  Y14  1  0.086821  0.706514  0.621988  1
  Y  Y15  1  0.086821  0.293486  0.121988  1
  Y  Y16  1  0.000000  0.000000  0.500000  1
  Y  Y17  1  0.000000  0.000000  0.000000  1
  Y  Y18  1  0.500000  0.500000  0.000000  1
  Y  Y19  1  0.500000  0.500000  0.500000  1
  Ir  Ir20  1  0.847129  0.152871  0.250000  1
  Ir  Ir21  1  0.847129  0.847129  0.750000  1
  Ir  Ir22  1  0.152871  0.152871  0.750000  1
  Ir  Ir23  1  0.152871  0.847129  0.250000  1
  Ir  Ir24  1  0.652871  0.347129  0.750000  1
  Ir  Ir25  1  0.652871  0.652871  0.250000  1
  Ir  Ir26  1  0.347129  0.347129  0.250000  1
  Ir  Ir27  1  0.347129  0.652871  0.750000  1
  Ru  Ru28  1  0.500000  0.000000  0.123675  1
  Ru  Ru29  1  0.500000  0.000000  0.623675  1
  Ru  Ru30  1  0.000000  0.500000  0.876325  1
  Ru  Ru31  1  0.000000  0.500000  0.376325  1
