# generated using pymatgen
data_TbAl10TcRh
_symmetry_space_group_name_H-M   'P 1'
_cell_length_a   6.87287987
_cell_length_b   6.88732373
_cell_length_c   9.17466800
_cell_angle_alpha   90.00000000
_cell_angle_beta   90.00000000
_cell_angle_gamma   96.69810370
_symmetry_Int_Tables_number   1
_chemical_formula_structural   TbAl10TcRh
_chemical_formula_sum   'Tb2 Al20 Tc2 Rh2'
_cell_volume   431.32553753
_cell_formula_units_Z   2
loop_
 _symmetry_equiv_pos_site_id
 _symmetry_equiv_pos_as_xyz
  1  'x, y, z'
loop_
 _atom_site_type_symbol
 _atom_site_label
 _atom_site_symmetry_multiplicity
 _atom_site_fract_x
 _atom_site_fract_y
 _atom_site_fract_z
 _atom_site_occupancy
  Tb  Tb0  1  0.868644  0.123008  0.750000  1
  Tb  Tb1  1  0.131356  0.876992  0.250000  1
  Al  Al2  1  0.620427  0.375475  0.548763  1
  Al  Al3  1  0.379573  0.624525  0.451237  1
  Al  Al4  1  0.379573  0.624525  0.048763  1
  Al  Al5  1  0.620427  0.375475  0.951237  1
  Al  Al6  1  0.226134  0.224042  0.498652  1
  Al  Al7  1  0.773866  0.775958  0.501348  1
  Al  Al8  1  0.773866  0.775958  0.998652  1
  Al  Al9  1  0.226134  0.224042  0.001348  1
  Al  Al10  1  0.843430  0.156110  0.100562  1
  Al  Al11  1  0.156570  0.843890  0.899438  1
  Al  Al12  1  0.156570  0.843890  0.600562  1
  Al  Al13  1  0.843430  0.156110  0.399438  1
  Al  Al14  1  0.858667  0.589026  0.750000  1
  Al  Al15  1  0.141333  0.410974  0.250000  1
  Al  Al16  1  0.411101  0.140338  0.750000  1
  Al  Al17  1  0.588899  0.859662  0.250000  1
  Al  Al18  1  0.222283  0.480125  0.750000  1
  Al  Al19  1  0.777717  0.519875  0.250000  1
  Al  Al20  1  0.519361  0.779760  0.750000  1
  Al  Al21  1  0.480639  0.220240  0.250000  1
  Tc  Tc22  1  0.500000  0.000000  0.000000  1
  Tc  Tc23  1  0.500000  0.000000  0.500000  1
  Rh  Rh24  1  0.000000  0.500000  0.500000  1
  Rh  Rh25  1  0.000000  0.500000  0.000000  1
