# generated using pymatgen
data_Sc8Ti8Si16Tc3Mo
_symmetry_space_group_name_H-M   'P 1'
_cell_length_a   6.57951156
_cell_length_b   6.77057207
_cell_length_c   12.88823700
_cell_angle_alpha   90.00000000
_cell_angle_beta   90.00000000
_cell_angle_gamma   90.03059423
_symmetry_Int_Tables_number   1
_chemical_formula_structural   Sc8Ti8Si16Tc3Mo
_chemical_formula_sum   'Sc8 Ti8 Si16 Tc3 Mo1'
_cell_volume   574.13294906
_cell_formula_units_Z   1
loop_
 _symmetry_equiv_pos_site_id
 _symmetry_equiv_pos_as_xyz
  1  'x, y, z'
loop_
 _atom_site_type_symbol
 _atom_site_label
 _atom_site_symmetry_multiplicity
 _atom_site_fract_x
 _atom_site_fract_y
 _atom_site_fract_z
 _atom_site_occupancy
  Sc  Sc0  1  0.501373  0.326945  0.094212  1
  Sc  Sc1  1  0.999136  0.174429  0.405828  1
  Sc  Sc2  1  0.500350  0.673314  0.593886  1
  Sc  Sc3  1  0.000751  0.827241  0.906050  1
  Sc  Sc4  1  0.500350  0.673314  0.906114  1
  Sc  Sc5  1  0.000751  0.827241  0.593950  1
  Sc  Sc6  1  0.501373  0.326945  0.405788  1
  Sc  Sc7  1  0.999136  0.174429  0.094172  1
  Ti  Ti8  1  0.829756  0.331148  0.627081  1
  Ti  Ti9  1  0.329617  0.168585  0.873600  1
  Ti  Ti10  1  0.168703  0.669112  0.126258  1
  Ti  Ti11  1  0.670561  0.829991  0.373790  1
  Ti  Ti12  1  0.168703  0.669112  0.373742  1
  Ti  Ti13  1  0.670561  0.829991  0.126210  1
  Ti  Ti14  1  0.829756  0.331148  0.872919  1
  Ti  Ti15  1  0.329617  0.168585  0.626400  1
  Si  Si16  1  0.665531  0.036970  0.542416  1
  Si  Si17  1  0.165732  0.463022  0.957120  1
  Si  Si18  1  0.334389  0.963066  0.042680  1
  Si  Si19  1  0.834097  0.536587  0.458812  1
  Si  Si20  1  0.334389  0.963066  0.457320  1
  Si  Si21  1  0.834097  0.536587  0.041188  1
  Si  Si22  1  0.665531  0.036970  0.957584  1
  Si  Si23  1  0.165732  0.463022  0.542880  1
  Si  Si24  1  0.529464  0.384824  0.750000  1
  Si  Si25  1  0.030360  0.114753  0.750000  1
  Si  Si26  1  0.466894  0.615929  0.250000  1
  Si  Si27  1  0.970203  0.886104  0.250000  1
  Si  Si28  1  0.797241  0.640717  0.750000  1
  Si  Si29  1  0.297563  0.859745  0.750000  1
  Si  Si30  1  0.205216  0.358391  0.250000  1
  Si  Si31  1  0.702715  0.137937  0.250000  1
  Tc  Tc32  1  0.659910  0.007007  0.750000  1
  Tc  Tc33  1  0.159081  0.492731  0.750000  1
  Tc  Tc34  1  0.340680  0.993123  0.250000  1
  Mo  Mo35  1  0.840682  0.507914  0.250000  1
