# generated using pymatgen
data_Tb4HoPd14Au
_symmetry_space_group_name_H-M   'P 1'
_cell_length_a   4.17191900
_cell_length_b   4.12155300
_cell_length_c   20.79369100
_cell_angle_alpha   90.00000000
_cell_angle_beta   90.00000000
_cell_angle_gamma   90.00000000
_symmetry_Int_Tables_number   1
_chemical_formula_structural   Tb4HoPd14Au
_chemical_formula_sum   'Tb4 Ho1 Pd14 Au1'
_cell_volume   357.54305172
_cell_formula_units_Z   1
loop_
 _symmetry_equiv_pos_site_id
 _symmetry_equiv_pos_as_xyz
  1  'x, y, z'
loop_
 _atom_site_type_symbol
 _atom_site_label
 _atom_site_symmetry_multiplicity
 _atom_site_fract_x
 _atom_site_fract_y
 _atom_site_fract_z
 _atom_site_occupancy
  Tb  Tb0  1  0.000000  0.000000  0.199020  1
  Tb  Tb1  1  0.000000  0.000000  0.395981  1
  Tb  Tb2  1  0.000000  0.000000  0.604019  1
  Tb  Tb3  1  0.000000  0.000000  0.800980  1
  Ho  Ho4  1  0.000000  0.000000  0.000000  1
  Pd  Pd5  1  0.500000  0.500000  0.000000  1
  Pd  Pd6  1  0.500000  0.500000  0.199157  1
  Pd  Pd7  1  0.500000  0.500000  0.399012  1
  Pd  Pd8  1  0.500000  0.500000  0.600988  1
  Pd  Pd9  1  0.500000  0.500000  0.800843  1
  Pd  Pd10  1  0.500000  0.000000  0.098988  1
  Pd  Pd11  1  0.500000  0.000000  0.299356  1
  Pd  Pd12  1  0.500000  0.000000  0.700644  1
  Pd  Pd13  1  0.500000  0.000000  0.901012  1
  Pd  Pd14  1  0.000000  0.500000  0.099012  1
  Pd  Pd15  1  0.000000  0.500000  0.299182  1
  Pd  Pd16  1  0.000000  0.500000  0.500000  1
  Pd  Pd17  1  0.000000  0.500000  0.700818  1
  Pd  Pd18  1  0.000000  0.500000  0.900988  1
  Au  Au19  1  0.500000  0.000000  0.500000  1
