# generated using pymatgen
data_Dy4ZnFe2Os5
_symmetry_space_group_name_H-M   'P 1'
_cell_length_a   5.25436943
_cell_length_b   5.24346319
_cell_length_c   9.33646715
_cell_angle_alpha   73.69171018
_cell_angle_beta   91.20123962
_cell_angle_gamma   119.93136501
_symmetry_Int_Tables_number   1
_chemical_formula_structural   Dy4ZnFe2Os5
_chemical_formula_sum   'Dy4 Zn1 Fe2 Os5'
_cell_volume   211.74566200
_cell_formula_units_Z   1
loop_
 _symmetry_equiv_pos_site_id
 _symmetry_equiv_pos_as_xyz
  1  'x, y, z'
loop_
 _atom_site_type_symbol
 _atom_site_label
 _atom_site_symmetry_multiplicity
 _atom_site_fract_x
 _atom_site_fract_y
 _atom_site_fract_z
 _atom_site_occupancy
  Dy  Dy0  1  0.874820  0.749900  0.375022  1
  Dy  Dy1  1  0.382450  0.756470  0.869510  1
  Dy  Dy2  1  0.992467  0.993534  0.005399  1
  Dy  Dy3  1  0.500275  0.000089  0.500096  1
  Zn  Zn4  1  0.687454  0.374983  0.937488  1
  Fe  Fe5  1  0.941753  0.374254  0.193244  1
  Fe  Fe6  1  0.433244  0.375761  0.681722  1
  Os  Os7  1  0.436271  0.369888  0.186713  1
  Os  Os8  1  0.938696  0.380074  0.688287  1
  Os  Os9  1  0.436271  0.879669  0.186713  1
  Os  Os10  1  0.938696  0.870334  0.688287  1
  Os  Os11  1  0.187604  0.375045  0.437515  1
