# generated using pymatgen
data_YbU7(ReB6)4
_symmetry_space_group_name_H-M   'P 1'
_cell_length_a   3.64017400
_cell_length_b   9.28416640
_cell_length_c   11.37405973
_cell_angle_alpha   89.93690357
_cell_angle_beta   90.00000000
_cell_angle_gamma   90.00000000
_symmetry_Int_Tables_number   1
_chemical_formula_structural   YbU7(ReB6)4
_chemical_formula_sum   'Yb1 U7 Re4 B24'
_cell_volume   384.39727516
_cell_formula_units_Z   1
loop_
 _symmetry_equiv_pos_site_id
 _symmetry_equiv_pos_as_xyz
  1  'x, y, z'
loop_
 _atom_site_type_symbol
 _atom_site_label
 _atom_site_symmetry_multiplicity
 _atom_site_fract_x
 _atom_site_fract_y
 _atom_site_fract_z
 _atom_site_occupancy
  Yb  Yb0  1  0.000000  0.335942  0.407704  1
  U  U1  1  0.000000  0.663318  0.592424  1
  U  U2  1  0.000000  0.836438  0.092834  1
  U  U3  1  0.000000  0.163206  0.907603  1
  U  U4  1  0.000000  0.957719  0.395601  1
  U  U5  1  0.000000  0.044966  0.603469  1
  U  U6  1  0.000000  0.456420  0.104438  1
  U  U7  1  0.000000  0.542936  0.895762  1
  Re  Re8  1  0.000000  0.647783  0.319481  1
  Re  Re9  1  0.000000  0.355292  0.682869  1
  Re  Re10  1  0.000000  0.142996  0.177433  1
  Re  Re11  1  0.000000  0.855232  0.819551  1
  B  B12  1  0.500000  0.552526  0.432462  1
  B  B13  1  0.500000  0.449923  0.569215  1
  B  B14  1  0.500000  0.049631  0.066956  1
  B  B15  1  0.500000  0.949751  0.932308  1
  B  B16  1  0.500000  0.742302  0.424437  1
  B  B17  1  0.500000  0.256908  0.577087  1
  B  B18  1  0.500000  0.242755  0.076335  1
  B  B19  1  0.500000  0.756872  0.923589  1
  B  B20  1  0.500000  0.803893  0.273749  1
  B  B21  1  0.500000  0.196541  0.726641  1
  B  B22  1  0.500000  0.301843  0.225377  1
  B  B23  1  0.500000  0.696102  0.773007  1
  B  B24  1  0.500000  0.644802  0.188581  1
  B  B25  1  0.500000  0.354558  0.812220  1
  B  B26  1  0.500000  0.143950  0.311162  1
  B  B27  1  0.500000  0.854885  0.687834  1
  B  B28  1  0.500000  0.986813  0.218728  1
  B  B29  1  0.500000  0.013554  0.780554  1
  B  B30  1  0.500000  0.488681  0.280944  1
  B  B31  1  0.500000  0.514127  0.718333  1
  B  B32  1  0.500000  0.643324  0.039716  1
  B  B33  1  0.500000  0.356743  0.960648  1
  B  B34  1  0.500000  0.139836  0.461229  1
  B  B35  1  0.500000  0.857434  0.539722  1
