# generated using pymatgen
data_Tm7PaRe3B24Mo
_symmetry_space_group_name_H-M   'P 1'
_cell_length_a   3.66041900
_cell_length_b   9.13200882
_cell_length_c   11.48772500
_cell_angle_alpha   90.14726836
_cell_angle_beta   90.00000000
_cell_angle_gamma   90.00000000
_symmetry_Int_Tables_number   1
_chemical_formula_structural   Tm7PaRe3B24Mo
_chemical_formula_sum   'Tm7 Pa1 Re3 B24 Mo1'
_cell_volume   383.99866921
_cell_formula_units_Z   1
loop_
 _symmetry_equiv_pos_site_id
 _symmetry_equiv_pos_as_xyz
  1  'x, y, z'
loop_
 _atom_site_type_symbol
 _atom_site_label
 _atom_site_symmetry_multiplicity
 _atom_site_fract_x
 _atom_site_fract_y
 _atom_site_fract_z
 _atom_site_occupancy
  Tm  Tm0  1  0.000000  0.679401  0.587611  1
  Tm  Tm1  1  0.000000  0.823129  0.085109  1
  Tm  Tm2  1  0.000000  0.176363  0.913739  1
  Tm  Tm3  1  0.000000  0.943569  0.371405  1
  Tm  Tm4  1  0.000000  0.055776  0.630054  1
  Tm  Tm5  1  0.000000  0.443120  0.126787  1
  Tm  Tm6  1  0.000000  0.557070  0.870331  1
  Pa  Pa7  1  0.000000  0.321732  0.414184  1
  Re  Re8  1  0.000000  0.361298  0.677616  1
  Re  Re9  1  0.000000  0.140686  0.180762  1
  Re  Re10  1  0.000000  0.861589  0.820727  1
  B  B11  1  0.500000  0.551395  0.434094  1
  B  B12  1  0.500000  0.445805  0.567341  1
  B  B13  1  0.500000  0.053458  0.066956  1
  B  B14  1  0.500000  0.947115  0.933812  1
  B  B15  1  0.500000  0.751440  0.420874  1
  B  B16  1  0.500000  0.250216  0.581487  1
  B  B17  1  0.500000  0.249184  0.080093  1
  B  B18  1  0.500000  0.750447  0.919289  1
  B  B19  1  0.500000  0.794586  0.264189  1
  B  B20  1  0.500000  0.207559  0.735428  1
  B  B21  1  0.500000  0.291981  0.234144  1
  B  B22  1  0.500000  0.707508  0.765422  1
  B  B23  1  0.500000  0.631501  0.182576  1
  B  B24  1  0.500000  0.369576  0.814881  1
  B  B25  1  0.500000  0.131086  0.314726  1
  B  B26  1  0.500000  0.869115  0.685497  1
  B  B27  1  0.500000  0.982101  0.211839  1
  B  B28  1  0.500000  0.018292  0.788475  1
  B  B29  1  0.500000  0.479747  0.286606  1
  B  B30  1  0.500000  0.518354  0.713032  1
  B  B31  1  0.500000  0.601208  0.027140  1
  B  B32  1  0.500000  0.399004  0.970911  1
  B  B33  1  0.500000  0.101914  0.471866  1
  B  B34  1  0.500000  0.896709  0.529629  1
  Mo  Mo35  1  0.000000  0.636972  0.321368  1
