# generated using pymatgen
data_Ho2Tm6Tc(B8Ru)3
_symmetry_space_group_name_H-M   'P 1'
_cell_length_a   3.63333600
_cell_length_b   9.08374519
_cell_length_c   11.46600704
_cell_angle_alpha   89.91870102
_cell_angle_beta   90.00000000
_cell_angle_gamma   90.00000000
_symmetry_Int_Tables_number   1
_chemical_formula_structural   Ho2Tm6Tc(B8Ru)3
_chemical_formula_sum   'Ho2 Tm6 Tc1 B24 Ru3'
_cell_volume   378.42713692
_cell_formula_units_Z   1
loop_
 _symmetry_equiv_pos_site_id
 _symmetry_equiv_pos_as_xyz
  1  'x, y, z'
loop_
 _atom_site_type_symbol
 _atom_site_label
 _atom_site_symmetry_multiplicity
 _atom_site_fract_x
 _atom_site_fract_y
 _atom_site_fract_z
 _atom_site_occupancy
  Ho  Ho0  1  0.000000  0.323655  0.413208  1
  Ho  Ho1  1  0.000000  0.677549  0.583519  1
  Tm  Tm2  1  0.000000  0.819837  0.087910  1
  Tm  Tm3  1  0.000000  0.177528  0.915195  1
  Tm  Tm4  1  0.000000  0.943325  0.372134  1
  Tm  Tm5  1  0.000000  0.057189  0.628363  1
  Tm  Tm6  1  0.000000  0.444113  0.127883  1
  Tm  Tm7  1  0.000000  0.556793  0.871719  1
  Tc  Tc8  1  0.000000  0.638154  0.320472  1
  B  B9  1  0.500000  0.553108  0.433104  1
  B  B10  1  0.500000  0.446182  0.567437  1
  B  B11  1  0.500000  0.053443  0.066578  1
  B  B12  1  0.500000  0.946324  0.933740  1
  B  B13  1  0.500000  0.749267  0.419274  1
  B  B14  1  0.500000  0.251155  0.580729  1
  B  B15  1  0.500000  0.248623  0.079837  1
  B  B16  1  0.500000  0.751215  0.920039  1
  B  B17  1  0.500000  0.792300  0.265368  1
  B  B18  1  0.500000  0.208314  0.734673  1
  B  B19  1  0.500000  0.291182  0.233181  1
  B  B20  1  0.500000  0.709135  0.766026  1
  B  B21  1  0.500000  0.631280  0.184670  1
  B  B22  1  0.500000  0.368382  0.815665  1
  B  B23  1  0.500000  0.131016  0.314568  1
  B  B24  1  0.500000  0.869461  0.685025  1
  B  B25  1  0.500000  0.982318  0.212492  1
  B  B26  1  0.500000  0.017726  0.787979  1
  B  B27  1  0.500000  0.481875  0.286852  1
  B  B28  1  0.500000  0.517044  0.713057  1
  B  B29  1  0.500000  0.606117  0.028703  1
  B  B30  1  0.500000  0.393322  0.970276  1
  B  B31  1  0.500000  0.106021  0.471064  1
  B  B32  1  0.500000  0.895582  0.529519  1
  Ru  Ru33  1  0.000000  0.361429  0.680149  1
  Ru  Ru34  1  0.000000  0.137447  0.178297  1
  Ru  Ru35  1  0.000000  0.862590  0.821295  1
