# generated using pymatgen
data_CeNp5(Sb4Au3)2
_symmetry_space_group_name_H-M   'P 1'
_cell_length_a   8.70890441
_cell_length_b   8.70890583
_cell_length_c   8.70890500
_cell_angle_alpha   109.23806471
_cell_angle_beta   109.58792117
_cell_angle_gamma   109.58793397
_symmetry_Int_Tables_number   1
_chemical_formula_structural   CeNp5(Sb4Au3)2
_chemical_formula_sum   'Ce1 Np5 Sb8 Au6'
_cell_volume   508.46768090
_cell_formula_units_Z   1
loop_
 _symmetry_equiv_pos_site_id
 _symmetry_equiv_pos_as_xyz
  1  'x, y, z'
loop_
 _atom_site_type_symbol
 _atom_site_label
 _atom_site_symmetry_multiplicity
 _atom_site_fract_x
 _atom_site_fract_y
 _atom_site_fract_z
 _atom_site_occupancy
  Ce  Ce0  1  0.749991  0.375567  0.623818  1
  Np  Np1  1  0.375193  0.624214  0.749579  1
  Np  Np2  1  0.123124  0.874974  0.249260  1
  Np  Np3  1  0.623502  0.750911  0.373851  1
  Np  Np4  1  0.250506  0.123515  0.874282  1
  Np  Np5  1  0.873998  0.249127  0.123785  1
  Sb  Sb6  1  0.179730  0.500783  0.000844  1
  Sb  Sb7  1  0.320806  0.320394  0.319640  1
  Sb  Sb8  1  0.001124  0.178863  0.502644  1
  Sb  Sb9  1  0.498003  0.999399  0.178584  1
  Sb  Sb10  1  0.679447  0.499123  0.000516  1
  Sb  Sb11  1  0.822813  0.823896  0.822729  1
  Sb  Sb12  1  0.499261  0.999057  0.679609  1
  Sb  Sb13  1  0.002735  0.680108  0.500625  1
  Au  Au14  1  0.875092  0.125462  0.750909  1
  Au  Au15  1  0.625495  0.375562  0.249629  1
  Au  Au16  1  0.125007  0.750233  0.874160  1
  Au  Au17  1  0.250291  0.624923  0.374755  1
  Au  Au18  1  0.374890  0.249684  0.625753  1
  Au  Au19  1  0.748991  0.874206  0.125026  1
