# generated using pymatgen
data_Nd8CdHgPdPt
_symmetry_space_group_name_H-M   'P 1'
_cell_length_a   10.01961678
_cell_length_b   10.01961656
_cell_length_c   10.01221100
_cell_angle_alpha   60.02462533
_cell_angle_beta   60.02462774
_cell_angle_gamma   60.13297483
_symmetry_Int_Tables_number   1
_chemical_formula_structural   Nd8CdHgPdPt
_chemical_formula_sum   'Nd16 Cd2 Hg2 Pd2 Pt2'
_cell_volume   711.72732322
_cell_formula_units_Z   2
loop_
 _symmetry_equiv_pos_site_id
 _symmetry_equiv_pos_as_xyz
  1  'x, y, z'
loop_
 _atom_site_type_symbol
 _atom_site_label
 _atom_site_symmetry_multiplicity
 _atom_site_fract_x
 _atom_site_fract_y
 _atom_site_fract_z
 _atom_site_occupancy
  Nd  Nd0  1  0.351150  0.351150  0.349472  1
  Nd  Nd1  1  0.351148  0.351148  0.948236  1
  Nd  Nd2  1  0.354152  0.941668  0.352089  1
  Nd  Nd3  1  0.941668  0.354152  0.352089  1
  Nd  Nd4  1  0.808166  0.191725  0.191975  1
  Nd  Nd5  1  0.191722  0.808168  0.808135  1
  Nd  Nd6  1  0.191725  0.808166  0.191975  1
  Nd  Nd7  1  0.808168  0.191722  0.808135  1
  Nd  Nd8  1  0.191449  0.191449  0.808550  1
  Nd  Nd9  1  0.807241  0.807241  0.192761  1
  Nd  Nd10  1  0.936326  0.564466  0.564621  1
  Nd  Nd11  1  0.564469  0.936323  0.934586  1
  Nd  Nd12  1  0.564466  0.936326  0.564621  1
  Nd  Nd13  1  0.936323  0.564469  0.934586  1
  Nd  Nd14  1  0.563400  0.563400  0.936598  1
  Nd  Nd15  1  0.934158  0.934158  0.565844  1
  Cd  Cd16  1  0.578989  0.259949  0.580533  1
  Cd  Cd17  1  0.259949  0.578989  0.580533  1
  Hg  Hg18  1  0.583648  0.583648  0.586546  1
  Hg  Hg19  1  0.583648  0.583648  0.246160  1
  Pd  Pd20  1  0.142781  0.142781  0.145281  1
  Pd  Pd21  1  0.142784  0.142784  0.569150  1
  Pt  Pt22  1  0.141780  0.570696  0.143761  1
  Pt  Pt23  1  0.570696  0.141780  0.143761  1
