# generated using pymatgen
data_Ho7Tm3(SnBi2)2
_symmetry_space_group_name_H-M   'P 1'
_cell_length_a   9.05574324
_cell_length_b   9.01397271
_cell_length_c   6.41404706
_cell_angle_alpha   89.98405954
_cell_angle_beta   90.00793325
_cell_angle_gamma   119.84752741
_symmetry_Int_Tables_number   1
_chemical_formula_structural   Ho7Tm3(SnBi2)2
_chemical_formula_sum   'Ho7 Tm3 Sn2 Bi4'
_cell_volume   454.11756940
_cell_formula_units_Z   1
loop_
 _symmetry_equiv_pos_site_id
 _symmetry_equiv_pos_as_xyz
  1  'x, y, z'
loop_
 _atom_site_type_symbol
 _atom_site_label
 _atom_site_symmetry_multiplicity
 _atom_site_fract_x
 _atom_site_fract_y
 _atom_site_fract_z
 _atom_site_occupancy
  Ho  Ho0  1  0.994411  0.758877  0.749880  1
  Ho  Ho1  1  0.994411  0.235534  0.250120  1
  Ho  Ho2  1  0.756998  0.761916  0.250088  1
  Ho  Ho3  1  0.756998  0.995081  0.749912  1
  Ho  Ho4  1  0.244892  0.245232  0.749950  1
  Ho  Ho5  1  0.244892  0.999660  0.250050  1
  Ho  Ho6  1  0.340780  0.670391  0.000000  1
  Tm  Tm7  1  0.341188  0.670594  0.500000  1
  Tm  Tm8  1  0.664731  0.332364  0.000000  1
  Tm  Tm9  1  0.664856  0.332427  0.500000  1
  Sn  Sn10  1  0.607760  0.604900  0.749384  1
  Sn  Sn11  1  0.607760  0.002861  0.250616  1
  Bi  Bi12  1  0.389422  0.999357  0.749619  1
  Bi  Bi13  1  0.389422  0.390065  0.250381  1
  Bi  Bi14  1  0.000740  0.608613  0.250375  1
  Bi  Bi15  1  0.000740  0.392126  0.749625  1
