# generated using pymatgen
data_Tb8Yb3Pr8ScSi15Pd
_symmetry_space_group_name_H-M   'P 1'
_cell_length_a   7.48885400
_cell_length_b   7.86222213
_cell_length_c   14.95135400
_cell_angle_alpha   90.00000000
_cell_angle_beta   90.00000000
_cell_angle_gamma   89.93456571
_symmetry_Int_Tables_number   1
_chemical_formula_structural   Tb8Yb3Pr8ScSi15Pd
_chemical_formula_sum   'Tb8 Yb3 Pr8 Sc1 Si15 Pd1'
_cell_volume   880.32070084
_cell_formula_units_Z   1
loop_
 _symmetry_equiv_pos_site_id
 _symmetry_equiv_pos_as_xyz
  1  'x, y, z'
loop_
 _atom_site_type_symbol
 _atom_site_label
 _atom_site_symmetry_multiplicity
 _atom_site_fract_x
 _atom_site_fract_y
 _atom_site_fract_z
 _atom_site_occupancy
  Tb  Tb0  1  0.322734  0.181185  0.624934  1
  Tb  Tb1  1  0.677061  0.820276  0.376445  1
  Tb  Tb2  1  0.180770  0.676287  0.376941  1
  Tb  Tb3  1  0.820343  0.319729  0.874934  1
  Tb  Tb4  1  0.820343  0.319729  0.625066  1
  Tb  Tb5  1  0.322734  0.181185  0.875066  1
  Tb  Tb6  1  0.180770  0.676287  0.123059  1
  Tb  Tb7  1  0.677061  0.820276  0.123555  1
  Yb  Yb8  1  0.653179  0.984768  0.750000  1
  Yb  Yb9  1  0.840954  0.492587  0.250000  1
  Yb  Yb10  1  0.350501  0.010906  0.250000  1
  Pr  Pr11  1  0.026032  0.182718  0.401752  1
  Pr  Pr12  1  0.524221  0.317179  0.403078  1
  Pr  Pr13  1  0.476708  0.682065  0.900310  1
  Pr  Pr14  1  0.476708  0.682065  0.599690  1
  Pr  Pr15  1  0.976479  0.819536  0.599663  1
  Pr  Pr16  1  0.976479  0.819536  0.900337  1
  Pr  Pr17  1  0.524221  0.317179  0.096922  1
  Pr  Pr18  1  0.026032  0.182718  0.098248  1
  Sc  Sc19  1  0.154123  0.513158  0.750000  1
  Si  Si20  1  0.262044  0.873056  0.750000  1
  Si  Si21  1  0.032318  0.111614  0.750000  1
  Si  Si22  1  0.521478  0.400813  0.750000  1
  Si  Si23  1  0.145745  0.470737  0.542474  1
  Si  Si24  1  0.971817  0.893146  0.250000  1
  Si  Si25  1  0.739246  0.115532  0.250000  1
  Si  Si26  1  0.850423  0.532368  0.034110  1
  Si  Si27  1  0.350219  0.968526  0.034350  1
  Si  Si28  1  0.145745  0.470737  0.957526  1
  Si  Si29  1  0.645524  0.033420  0.535963  1
  Si  Si30  1  0.350219  0.968526  0.465650  1
  Si  Si31  1  0.850423  0.532368  0.465890  1
  Si  Si32  1  0.780369  0.611213  0.750000  1
  Si  Si33  1  0.229872  0.378022  0.250000  1
  Si  Si34  1  0.645524  0.033420  0.964037  1
  Pd  Pd35  1  0.471581  0.607129  0.250000  1
