# generated using pymatgen
data_Y20Cd6ReOs
_symmetry_space_group_name_H-M   'P 1'
_cell_length_a   9.61730500
_cell_length_b   9.61730436
_cell_length_c   9.96344700
_cell_angle_alpha   90.00000000
_cell_angle_beta   90.00000000
_cell_angle_gamma   119.99999875
_symmetry_Int_Tables_number   1
_chemical_formula_structural   Y20Cd6ReOs
_chemical_formula_sum   'Y20 Cd6 Re1 Os1'
_cell_volume   798.08105589
_cell_formula_units_Z   1
loop_
 _symmetry_equiv_pos_site_id
 _symmetry_equiv_pos_as_xyz
  1  'x, y, z'
loop_
 _atom_site_type_symbol
 _atom_site_label
 _atom_site_symmetry_multiplicity
 _atom_site_fract_x
 _atom_site_fract_y
 _atom_site_fract_z
 _atom_site_occupancy
  Y  Y0  1  0.000000  0.000000  0.499605  1
  Y  Y1  1  0.000000  0.000000  0.000395  1
  Y  Y2  1  0.209970  0.790030  0.440730  1
  Y  Y3  1  0.209970  0.419941  0.440730  1
  Y  Y4  1  0.580059  0.790030  0.440730  1
  Y  Y5  1  0.790415  0.209585  0.558923  1
  Y  Y6  1  0.790415  0.580827  0.558923  1
  Y  Y7  1  0.419173  0.209585  0.558923  1
  Y  Y8  1  0.790415  0.209585  0.941077  1
  Y  Y9  1  0.790415  0.580827  0.941077  1
  Y  Y10  1  0.419173  0.209585  0.941077  1
  Y  Y11  1  0.209970  0.790030  0.059270  1
  Y  Y12  1  0.209970  0.419941  0.059270  1
  Y  Y13  1  0.580059  0.790030  0.059270  1
  Y  Y14  1  0.539946  0.460054  0.250000  1
  Y  Y15  1  0.539946  0.079891  0.250000  1
  Y  Y16  1  0.920109  0.460054  0.250000  1
  Y  Y17  1  0.460324  0.539676  0.750000  1
  Y  Y18  1  0.460324  0.920648  0.750000  1
  Y  Y19  1  0.079352  0.539676  0.750000  1
  Cd  Cd20  1  0.885579  0.114421  0.250000  1
  Cd  Cd21  1  0.885579  0.771158  0.250000  1
  Cd  Cd22  1  0.228842  0.114421  0.250000  1
  Cd  Cd23  1  0.114548  0.885452  0.750000  1
  Cd  Cd24  1  0.114548  0.229095  0.750000  1
  Cd  Cd25  1  0.770905  0.885452  0.750000  1
  Re  Re26  1  0.666667  0.333333  0.750000  1
  Os  Os27  1  0.333333  0.666667  0.250000  1
