# generated using pymatgen
data_Tb5Ho5(SiBi)4
_symmetry_space_group_name_H-M   'P 1'
_cell_length_a   8.66945936
_cell_length_b   8.63165416
_cell_length_c   7.92395727
_cell_angle_alpha   90.05284186
_cell_angle_beta   90.09673167
_cell_angle_gamma   125.60470844
_symmetry_Int_Tables_number   1
_chemical_formula_structural   Tb5Ho5(SiBi)4
_chemical_formula_sum   'Tb5 Ho5 Si4 Bi4'
_cell_volume   482.10892799
_cell_formula_units_Z   1
loop_
 _symmetry_equiv_pos_site_id
 _symmetry_equiv_pos_as_xyz
  1  'x, y, z'
loop_
 _atom_site_type_symbol
 _atom_site_label
 _atom_site_symmetry_multiplicity
 _atom_site_fract_x
 _atom_site_fract_y
 _atom_site_fract_z
 _atom_site_occupancy
  Tb  Tb0  1  0.043193  0.288589  0.334756  1
  Tb  Tb1  1  0.956537  0.711496  0.665408  1
  Tb  Tb2  1  0.456577  0.211325  0.834531  1
  Tb  Tb3  1  0.787748  0.542795  0.165147  1
  Tb  Tb4  1  0.543275  0.788722  0.165269  1
  Ho  Ho5  1  0.213748  0.456743  0.835564  1
  Ho  Ho6  1  0.713931  0.956843  0.664396  1
  Ho  Ho7  1  0.285668  0.043191  0.335671  1
  Ho  Ho8  1  0.000288  0.000437  0.999826  1
  Ho  Ho9  1  0.499704  0.500001  0.500355  1
  Si  Si10  1  0.364747  0.364149  0.133384  1
  Si  Si11  1  0.633641  0.635466  0.865643  1
  Si  Si12  1  0.133830  0.135161  0.633190  1
  Si  Si13  1  0.866190  0.866193  0.367509  1
  Bi  Bi14  1  0.794711  0.207966  0.996745  1
  Bi  Bi15  1  0.207200  0.792192  0.001384  1
  Bi  Bi16  1  0.704707  0.289544  0.498918  1
  Bi  Bi17  1  0.294305  0.709187  0.502304  1
