# generated using pymatgen
data_GaMo3RhN
_symmetry_space_group_name_H-M   'P 1'
_cell_length_a   6.84966200
_cell_length_b   6.84966200
_cell_length_c   6.84966200
_cell_angle_alpha   90.00000000
_cell_angle_beta   90.00000000
_cell_angle_gamma   90.00000000
_symmetry_Int_Tables_number   1
_chemical_formula_structural   GaMo3RhN
_chemical_formula_sum   'Ga4 Mo12 Rh4 N4'
_cell_volume   321.37154793
_cell_formula_units_Z   4
loop_
 _symmetry_equiv_pos_site_id
 _symmetry_equiv_pos_as_xyz
  1  'x, y, z'
loop_
 _atom_site_type_symbol
 _atom_site_label
 _atom_site_symmetry_multiplicity
 _atom_site_fract_x
 _atom_site_fract_y
 _atom_site_fract_z
 _atom_site_occupancy
  Ga  Ga0  1  0.180315  0.819685  0.319685  1
  Ga  Ga1  1  0.319685  0.180315  0.819685  1
  Ga  Ga2  1  0.819685  0.319685  0.180315  1
  Ga  Ga3  1  0.680315  0.680315  0.680315  1
  Mo  Mo4  1  0.798700  0.962495  0.374421  1
  Mo  Mo5  1  0.701300  0.037505  0.874421  1
  Mo  Mo6  1  0.201300  0.462495  0.125579  1
  Mo  Mo7  1  0.298700  0.537505  0.625579  1
  Mo  Mo8  1  0.962495  0.374421  0.798700  1
  Mo  Mo9  1  0.037505  0.874421  0.701300  1
  Mo  Mo10  1  0.462495  0.125579  0.201300  1
  Mo  Mo11  1  0.537505  0.625579  0.298700  1
  Mo  Mo12  1  0.374421  0.798700  0.962495  1
  Mo  Mo13  1  0.874421  0.701300  0.037505  1
  Mo  Mo14  1  0.125579  0.201300  0.462495  1
  Mo  Mo15  1  0.625579  0.298700  0.537505  1
  Rh  Rh16  1  0.567229  0.432771  0.932771  1
  Rh  Rh17  1  0.432771  0.932771  0.567229  1
  Rh  Rh18  1  0.932771  0.567229  0.432771  1
  Rh  Rh19  1  0.067229  0.067229  0.067229  1
  N  N20  1  0.871528  0.128472  0.628472  1
  N  N21  1  0.628472  0.871528  0.128472  1
  N  N22  1  0.128472  0.628472  0.871528  1
  N  N23  1  0.371528  0.371528  0.371528  1
