# generated using pymatgen
data_Dy5Y5IrOs3
_symmetry_space_group_name_H-M   'P 1'
_cell_length_a   6.42698919
_cell_length_b   7.35979799
_cell_length_c   8.46603284
_cell_angle_alpha   96.83854212
_cell_angle_beta   112.41667713
_cell_angle_gamma   89.96666871
_symmetry_Int_Tables_number   1
_chemical_formula_structural   Dy5Y5IrOs3
_chemical_formula_sum   'Dy5 Y5 Ir1 Os3'
_cell_volume   367.12210760
_cell_formula_units_Z   1
loop_
 _symmetry_equiv_pos_site_id
 _symmetry_equiv_pos_as_xyz
  1  'x, y, z'
loop_
 _atom_site_type_symbol
 _atom_site_label
 _atom_site_symmetry_multiplicity
 _atom_site_fract_x
 _atom_site_fract_y
 _atom_site_fract_z
 _atom_site_occupancy
  Dy  Dy0  1  0.646177  0.317329  0.436875  1
  Dy  Dy1  1  0.789128  0.816663  0.434779  1
  Dy  Dy2  1  0.356091  0.681262  0.562126  1
  Dy  Dy3  1  0.425559  0.251401  0.001221  1
  Dy  Dy4  1  0.575880  0.749594  0.000010  1
  Y  Y5  1  0.792541  0.084793  0.818131  1
  Y  Y6  1  0.975485  0.416411  0.183285  1
  Y  Y7  1  0.208521  0.916511  0.186733  1
  Y  Y8  1  0.024833  0.582264  0.818276  1
  Y  Y9  1  0.208397  0.184649  0.561827  1
  Ir  Ir10  1  0.175799  0.923489  0.777575  1
  Os  Os11  1  0.603912  0.424786  0.781160  1
  Os  Os12  1  0.822278  0.074405  0.219275  1
  Os  Os13  1  0.395400  0.576443  0.218728  1
