# generated using pymatgen
data_HoTm3Al18(OsRh2)2
_symmetry_space_group_name_H-M   'P 1'
_cell_length_a   7.50112304
_cell_length_b   7.50097179
_cell_length_c   9.46129900
_cell_angle_alpha   90.00000000
_cell_angle_beta   90.00000000
_cell_angle_gamma   118.34686659
_symmetry_Int_Tables_number   1
_chemical_formula_structural   HoTm3Al18(OsRh2)2
_chemical_formula_sum   'Ho1 Tm3 Al18 Os2 Rh4'
_cell_volume   468.51264067
_cell_formula_units_Z   1
loop_
 _symmetry_equiv_pos_site_id
 _symmetry_equiv_pos_as_xyz
  1  'x, y, z'
loop_
 _atom_site_type_symbol
 _atom_site_label
 _atom_site_symmetry_multiplicity
 _atom_site_fract_x
 _atom_site_fract_y
 _atom_site_fract_z
 _atom_site_occupancy
  Ho  Ho0  1  0.993596  0.682359  0.250000  1
  Tm  Tm1  1  0.007085  0.317251  0.750000  1
  Tm  Tm2  1  0.682871  0.993776  0.250000  1
  Tm  Tm3  1  0.317415  0.007115  0.750000  1
  Al  Al4  1  0.135612  0.135691  0.250000  1
  Al  Al5  1  0.864639  0.864818  0.750000  1
  Al  Al6  1  0.002573  0.338647  0.075295  1
  Al  Al7  1  0.997166  0.661004  0.923969  1
  Al  Al8  1  0.997166  0.661004  0.576031  1
  Al  Al9  1  0.339084  0.002906  0.424468  1
  Al  Al10  1  0.002573  0.338647  0.424705  1
  Al  Al11  1  0.661029  0.997288  0.575708  1
  Al  Al12  1  0.661029  0.997288  0.924292  1
  Al  Al13  1  0.339084  0.002906  0.075532  1
  Al  Al14  1  0.331615  0.331523  0.546827  1
  Al  Al15  1  0.668274  0.668588  0.453832  1
  Al  Al16  1  0.668274  0.668588  0.046168  1
  Al  Al17  1  0.331615  0.331523  0.953173  1
  Al  Al18  1  0.341896  0.556160  0.250000  1
  Al  Al19  1  0.658348  0.443615  0.750000  1
  Al  Al20  1  0.555898  0.341159  0.250000  1
  Al  Al21  1  0.443863  0.658462  0.750000  1
  Os  Os22  1  0.000131  0.000338  0.999600  1
  Os  Os23  1  0.000131  0.000338  0.500400  1
  Rh  Rh24  1  0.671841  0.327647  0.999802  1
  Rh  Rh25  1  0.327676  0.671855  0.999878  1
  Rh  Rh26  1  0.327676  0.671855  0.500122  1
  Rh  Rh27  1  0.671841  0.327647  0.500198  1
