# generated using pymatgen
data_Nd2MnCrC3
_symmetry_space_group_name_H-M   'P 1'
_cell_length_a   5.45842125
_cell_length_b   5.45841894
_cell_length_c   5.74006886
_cell_angle_alpha   76.10267954
_cell_angle_beta   76.10268292
_cell_angle_gamma   37.63149545
_symmetry_Int_Tables_number   1
_chemical_formula_structural   Nd2MnCrC3
_chemical_formula_sum   'Nd2 Mn1 Cr1 C3'
_cell_volume   101.00492439
_cell_formula_units_Z   1
loop_
 _symmetry_equiv_pos_site_id
 _symmetry_equiv_pos_as_xyz
  1  'x, y, z'
loop_
 _atom_site_type_symbol
 _atom_site_label
 _atom_site_symmetry_multiplicity
 _atom_site_fract_x
 _atom_site_fract_y
 _atom_site_fract_z
 _atom_site_occupancy
  Nd  Nd0  1  0.400645  0.400645  0.818648  1
  Nd  Nd1  1  0.602863  0.602863  0.184484  1
  Mn  Mn2  1  0.159932  0.159932  0.599821  1
  Cr  Cr3  1  0.840460  0.840460  0.403577  1
  C  C4  1  0.000466  0.000466  0.501193  1
  C  C5  1  0.699809  0.699809  0.703866  1
  C  C6  1  0.295825  0.295825  0.288410  1
