# generated using pymatgen
data_Ho4Al18PdPtRh4
_symmetry_space_group_name_H-M   'P 1'
_cell_length_a   7.57678608
_cell_length_b   7.57678693
_cell_length_c   9.44925550
_cell_angle_alpha   90.00416297
_cell_angle_beta   90.00416008
_cell_angle_gamma   119.59548939
_symmetry_Int_Tables_number   1
_chemical_formula_structural   Ho4Al18PdPtRh4
_chemical_formula_sum   'Ho4 Al18 Pd1 Pt1 Rh4'
_cell_volume   471.68727708
_cell_formula_units_Z   1
loop_
 _symmetry_equiv_pos_site_id
 _symmetry_equiv_pos_as_xyz
  1  'x, y, z'
loop_
 _atom_site_type_symbol
 _atom_site_label
 _atom_site_symmetry_multiplicity
 _atom_site_fract_x
 _atom_site_fract_y
 _atom_site_fract_z
 _atom_site_occupancy
  Ho  Ho0  1  0.995709  0.672796  0.249807  1
  Ho  Ho1  1  0.004291  0.327204  0.750193  1
  Ho  Ho2  1  0.672796  0.995709  0.249807  1
  Ho  Ho3  1  0.327204  0.004291  0.750193  1
  Al  Al4  1  0.133329  0.133329  0.250555  1
  Al  Al5  1  0.866671  0.866671  0.749445  1
  Al  Al6  1  0.999951  0.338604  0.076528  1
  Al  Al7  1  0.000049  0.661396  0.923472  1
  Al  Al8  1  0.999886  0.660943  0.576630  1
  Al  Al9  1  0.339057  0.000114  0.423370  1
  Al  Al10  1  0.000114  0.339057  0.423370  1
  Al  Al11  1  0.660943  0.999886  0.576630  1
  Al  Al12  1  0.661396  0.000049  0.923472  1
  Al  Al13  1  0.338604  0.999951  0.076528  1
  Al  Al14  1  0.336253  0.336253  0.553988  1
  Al  Al15  1  0.663747  0.663748  0.446012  1
  Al  Al16  1  0.663849  0.663850  0.053458  1
  Al  Al17  1  0.336151  0.336151  0.946542  1
  Al  Al18  1  0.339781  0.550698  0.249943  1
  Al  Al19  1  0.660219  0.449302  0.750057  1
  Al  Al20  1  0.550698  0.339781  0.249943  1
  Al  Al21  1  0.449302  0.660219  0.750057  1
  Pd  Pd22  1  0.000000  0.000000  0.500000  1
  Pt  Pt23  1  0.000000  0.000000  0.000000  1
  Rh  Rh24  1  0.672117  0.327883  0.000000  1
  Rh  Rh25  1  0.327883  0.672117  0.000000  1
  Rh  Rh26  1  0.327769  0.672231  0.500000  1
  Rh  Rh27  1  0.672231  0.327769  0.500000  1
