# generated using pymatgen
data_Ca5Pu(PaH12)2
_symmetry_space_group_name_H-M   'P 1'
_cell_length_a   6.65881400
_cell_length_b   6.76492700
_cell_length_c   6.65881400
_cell_angle_alpha   90.00000000
_cell_angle_beta   90.00000000
_cell_angle_gamma   90.00000000
_symmetry_Int_Tables_number   1
_chemical_formula_structural   Ca5Pu(PaH12)2
_chemical_formula_sum   'Ca5 Pu1 Pa2 H24'
_cell_volume   299.95553649
_cell_formula_units_Z   1
loop_
 _symmetry_equiv_pos_site_id
 _symmetry_equiv_pos_as_xyz
  1  'x, y, z'
loop_
 _atom_site_type_symbol
 _atom_site_label
 _atom_site_symmetry_multiplicity
 _atom_site_fract_x
 _atom_site_fract_y
 _atom_site_fract_z
 _atom_site_occupancy
  Ca  Ca0  1  0.247081  0.996904  0.500000  1
  Ca  Ca1  1  0.752919  0.996904  0.500000  1
  Ca  Ca2  1  0.000000  0.503096  0.252919  1
  Ca  Ca3  1  0.000000  0.503096  0.747081  1
  Ca  Ca4  1  0.500000  0.750000  0.000000  1
  Pu  Pu5  1  0.500000  0.250000  0.000000  1
  Pa  Pa6  1  0.000000  0.001748  0.000000  1
  Pa  Pa7  1  0.500000  0.498252  0.500000  1
  H  H8  1  0.000000  0.152195  0.285880  1
  H  H9  1  0.500000  0.214294  0.665423  1
  H  H10  1  0.500000  0.781410  0.347618  1
  H  H11  1  0.787833  0.650432  0.500000  1
  H  H12  1  0.212167  0.650432  0.500000  1
  H  H13  1  0.353298  0.482251  0.804996  1
  H  H14  1  0.646702  0.482251  0.804996  1
  H  H15  1  0.304996  0.017749  0.146702  1
  H  H16  1  0.165423  0.285706  0.000000  1
  H  H17  1  0.847618  0.718590  0.000000  1
  H  H18  1  0.304996  0.017749  0.853298  1
  H  H19  1  0.834577  0.285706  0.000000  1
  H  H20  1  0.695004  0.017749  0.146702  1
  H  H21  1  0.695004  0.017749  0.853298  1
  H  H22  1  0.152382  0.718590  0.000000  1
  H  H23  1  0.000000  0.849568  0.712167  1
  H  H24  1  0.000000  0.152195  0.714120  1
  H  H25  1  0.000000  0.849568  0.287833  1
  H  H26  1  0.646702  0.482251  0.195004  1
  H  H27  1  0.353298  0.482251  0.195004  1
  H  H28  1  0.785880  0.347805  0.500000  1
  H  H29  1  0.214120  0.347805  0.500000  1
  H  H30  1  0.500000  0.781410  0.652382  1
  H  H31  1  0.500000  0.214294  0.334577  1
