# generated using pymatgen
data_Ho8Ti7Si16Mo5
_symmetry_space_group_name_H-M   'P 1'
_cell_length_a   6.77836979
_cell_length_b   6.97377482
_cell_length_c   13.18083911
_cell_angle_alpha   90.04839735
_cell_angle_beta   89.95373531
_cell_angle_gamma   89.95893700
_symmetry_Int_Tables_number   1
_chemical_formula_structural   Ho8Ti7Si16Mo5
_chemical_formula_sum   'Ho8 Ti7 Si16 Mo5'
_cell_volume   623.06854808
_cell_formula_units_Z   1
loop_
 _symmetry_equiv_pos_site_id
 _symmetry_equiv_pos_as_xyz
  1  'x, y, z'
loop_
 _atom_site_type_symbol
 _atom_site_label
 _atom_site_symmetry_multiplicity
 _atom_site_fract_x
 _atom_site_fract_y
 _atom_site_fract_z
 _atom_site_occupancy
  Ho  Ho0  1  0.503232  0.329530  0.096879  1
  Ho  Ho1  1  0.002140  0.171050  0.403504  1
  Ho  Ho2  1  0.497128  0.672094  0.596011  1
  Ho  Ho3  1  0.997178  0.829899  0.903267  1
  Ho  Ho4  1  0.495908  0.670105  0.901999  1
  Ho  Ho5  1  0.998771  0.830335  0.595729  1
  Ho  Ho6  1  0.502686  0.328657  0.405181  1
  Ho  Ho7  1  0.003127  0.171158  0.097229  1
  Ti  Ti8  1  0.836172  0.327172  0.626546  1
  Ti  Ti9  1  0.331945  0.172617  0.872608  1
  Ti  Ti10  1  0.167039  0.671814  0.126814  1
  Ti  Ti11  1  0.666529  0.829163  0.373773  1
  Ti  Ti12  1  0.166803  0.672818  0.374413  1
  Ti  Ti13  1  0.667741  0.827903  0.127118  1
  Ti  Ti14  1  0.832331  0.326296  0.871117  1
  Si  Si15  1  0.657158  0.040041  0.544475  1
  Si  Si16  1  0.158819  0.458992  0.956448  1
  Si  Si17  1  0.340797  0.959290  0.043578  1
  Si  Si18  1  0.840185  0.539652  0.456808  1
  Si  Si19  1  0.337911  0.958745  0.458135  1
  Si  Si20  1  0.841107  0.540522  0.043789  1
  Si  Si21  1  0.658141  0.040292  0.956456  1
  Si  Si22  1  0.162503  0.458270  0.543812  1
  Si  Si23  1  0.534273  0.372311  0.748080  1
  Si  Si24  1  0.037637  0.125388  0.749692  1
  Si  Si25  1  0.463719  0.627069  0.250606  1
  Si  Si26  1  0.964310  0.873742  0.250336  1
  Si  Si27  1  0.797633  0.625318  0.748855  1
  Si  Si28  1  0.299567  0.875943  0.749789  1
  Si  Si29  1  0.203402  0.374559  0.250700  1
  Si  Si30  1  0.701958  0.125798  0.250185  1
  Mo  Mo31  1  0.331622  0.170897  0.626410  1
  Mo  Mo32  1  0.662834  0.010950  0.749602  1
  Mo  Mo33  1  0.159815  0.489257  0.749523  1
  Mo  Mo34  1  0.338385  0.991566  0.250306  1
  Mo  Mo35  1  0.839495  0.510788  0.250224  1
