# generated using pymatgen
data_Hf12Ti4Mn5Pt3
_symmetry_space_group_name_H-M   'P 1'
_cell_length_a   8.46516711
_cell_length_b   8.46516637
_cell_length_c   8.46516700
_cell_angle_alpha   59.72883087
_cell_angle_beta   59.72883377
_cell_angle_gamma   59.72883140
_symmetry_Int_Tables_number   1
_chemical_formula_structural   Hf12Ti4Mn5Pt3
_chemical_formula_sum   'Hf12 Ti4 Mn5 Pt3'
_cell_volume   426.29350171
_cell_formula_units_Z   1
loop_
 _symmetry_equiv_pos_site_id
 _symmetry_equiv_pos_as_xyz
  1  'x, y, z'
loop_
 _atom_site_type_symbol
 _atom_site_label
 _atom_site_symmetry_multiplicity
 _atom_site_fract_x
 _atom_site_fract_y
 _atom_site_fract_z
 _atom_site_occupancy
  Hf  Hf0  1  0.434596  0.814799  0.814799  1
  Hf  Hf1  1  0.817774  0.434313  0.434313  1
  Hf  Hf2  1  0.814799  0.434596  0.814799  1
  Hf  Hf3  1  0.434313  0.817774  0.434313  1
  Hf  Hf4  1  0.814799  0.814799  0.434596  1
  Hf  Hf5  1  0.434313  0.434313  0.817774  1
  Hf  Hf6  1  0.560428  0.180808  0.180808  1
  Hf  Hf7  1  0.179654  0.570661  0.570661  1
  Hf  Hf8  1  0.180808  0.560428  0.180808  1
  Hf  Hf9  1  0.570661  0.179654  0.570661  1
  Hf  Hf10  1  0.180808  0.180808  0.560428  1
  Hf  Hf11  1  0.570661  0.570661  0.179654  1
  Ti  Ti12  1  0.994395  0.994395  0.522409  1
  Ti  Ti13  1  0.994395  0.522409  0.994395  1
  Ti  Ti14  1  0.522409  0.994395  0.994395  1
  Ti  Ti15  1  0.992675  0.992675  0.992675  1
  Mn  Mn16  1  0.206922  0.206922  0.206922  1
  Mn  Mn17  1  0.788299  0.788299  0.136147  1
  Mn  Mn18  1  0.788299  0.136147  0.788299  1
  Mn  Mn19  1  0.136147  0.788299  0.788299  1
  Mn  Mn20  1  0.788421  0.788421  0.788421  1
  Pt  Pt21  1  0.210727  0.210727  0.872969  1
  Pt  Pt22  1  0.210727  0.872969  0.210727  1
  Pt  Pt23  1  0.872969  0.210727  0.210727  1
