# generated using pymatgen
data_NaSmEr(P3Pd10)2
_symmetry_space_group_name_H-M   'P 1'
_cell_length_a   8.67115711
_cell_length_b   8.67136511
_cell_length_c   8.67113500
_cell_angle_alpha   59.99758352
_cell_angle_beta   59.99998891
_cell_angle_gamma   60.00009599
_symmetry_Int_Tables_number   1
_chemical_formula_structural   NaSmEr(P3Pd10)2
_chemical_formula_sum   'Na1 Sm1 Er1 P6 Pd20'
_cell_volume   461.01793902
_cell_formula_units_Z   1
loop_
 _symmetry_equiv_pos_site_id
 _symmetry_equiv_pos_as_xyz
  1  'x, y, z'
loop_
 _atom_site_type_symbol
 _atom_site_label
 _atom_site_symmetry_multiplicity
 _atom_site_fract_x
 _atom_site_fract_y
 _atom_site_fract_z
 _atom_site_occupancy
  Na  Na0  1  0.999998  0.000003  0.000001  1
  Sm  Sm1  1  0.750000  0.750002  0.750000  1
  Er  Er2  1  0.250018  0.249965  0.249985  1
  P  P3  1  0.739550  0.260441  0.260458  1
  P  P4  1  0.260440  0.739552  0.739561  1
  P  P5  1  0.260443  0.739538  0.260464  1
  P  P6  1  0.739550  0.260458  0.739538  1
  P  P7  1  0.260452  0.260461  0.739535  1
  P  P8  1  0.739561  0.739546  0.260453  1
  Pd  Pd9  1  0.384126  0.384111  0.384127  1
  Pd  Pd10  1  0.613795  0.613801  0.613794  1
  Pd  Pd11  1  0.384125  0.384122  0.847628  1
  Pd  Pd12  1  0.384120  0.847641  0.384126  1
  Pd  Pd13  1  0.613796  0.613788  0.158622  1
  Pd  Pd14  1  0.613789  0.158629  0.613784  1
  Pd  Pd15  1  0.847635  0.384113  0.384125  1
  Pd  Pd16  1  0.158618  0.613793  0.613797  1
  Pd  Pd17  1  0.346479  0.000259  0.000249  1
  Pd  Pd18  1  0.653015  0.000267  0.000244  1
  Pd  Pd19  1  0.000257  0.346482  0.653003  1
  Pd  Pd20  1  0.000252  0.653009  0.346492  1
  Pd  Pd21  1  0.000268  0.346472  0.000243  1
  Pd  Pd22  1  0.653009  0.000251  0.346487  1
  Pd  Pd23  1  0.000238  0.653021  0.000262  1
  Pd  Pd24  1  0.346486  0.000273  0.653007  1
  Pd  Pd25  1  0.000257  0.000241  0.346488  1
  Pd  Pd26  1  0.000228  0.000276  0.653014  1
  Pd  Pd27  1  0.653017  0.346468  0.000245  1
  Pd  Pd28  1  0.346479  0.653016  0.000269  1
