# generated using pymatgen
data_Dy4Ho8ZnCo4Bi
_symmetry_space_group_name_H-M   'P 1'
_cell_length_a   8.32872259
_cell_length_b   8.32915949
_cell_length_c   8.32872307
_cell_angle_alpha   111.47862493
_cell_angle_beta   109.52722193
_cell_angle_gamma   107.43094881
_symmetry_Int_Tables_number   1
_chemical_formula_structural   Dy4Ho8ZnCo4Bi
_chemical_formula_sum   'Dy4 Ho8 Zn1 Co4 Bi1'
_cell_volume   444.22761320
_cell_formula_units_Z   1
loop_
 _symmetry_equiv_pos_site_id
 _symmetry_equiv_pos_as_xyz
  1  'x, y, z'
loop_
 _atom_site_type_symbol
 _atom_site_label
 _atom_site_symmetry_multiplicity
 _atom_site_fract_x
 _atom_site_fract_y
 _atom_site_fract_z
 _atom_site_occupancy
  Dy  Dy0  1  0.817556  0.714210  0.531802  1
  Dy  Dy1  1  0.182444  0.285790  0.468198  1
  Dy  Dy2  1  0.182409  0.714210  0.896654  1
  Dy  Dy3  1  0.817591  0.285790  0.103346  1
  Ho  Ho4  1  0.685481  0.377338  0.691857  1
  Ho  Ho5  1  0.314519  0.622662  0.308143  1
  Ho  Ho6  1  0.685502  0.993652  0.308149  1
  Ho  Ho7  1  0.314498  0.006348  0.691851  1
  Ho  Ho8  1  0.574640  0.781065  0.793589  1
  Ho  Ho9  1  0.425360  0.218935  0.206411  1
  Ho  Ho10  1  0.987476  0.781065  0.206425  1
  Ho  Ho11  1  0.012524  0.218935  0.793575  1
  Zn  Zn12  1  0.000000  0.000000  0.000000  1
  Co  Co13  1  0.624478  0.000000  0.624478  1
  Co  Co14  1  0.375522  0.000000  0.375522  1
  Co  Co15  1  0.112692  0.612696  0.500004  1
  Co  Co16  1  0.887308  0.387304  0.499996  1
  Bi  Bi17  1  0.500000  0.500000  0.000000  1
