# generated using pymatgen
data_La9Dy(SnSb)4
_symmetry_space_group_name_H-M   'P 1'
_cell_length_a   9.16609795
_cell_length_b   9.16609870
_cell_length_c   8.60885228
_cell_angle_alpha   89.83412624
_cell_angle_beta   89.83412632
_cell_angle_gamma   124.91232158
_symmetry_Int_Tables_number   1
_chemical_formula_structural   La9Dy(SnSb)4
_chemical_formula_sum   'La9 Dy1 Sn4 Sb4'
_cell_volume   593.10950225
_cell_formula_units_Z   1
loop_
 _symmetry_equiv_pos_site_id
 _symmetry_equiv_pos_as_xyz
  1  'x, y, z'
loop_
 _atom_site_type_symbol
 _atom_site_label
 _atom_site_symmetry_multiplicity
 _atom_site_fract_x
 _atom_site_fract_y
 _atom_site_fract_z
 _atom_site_occupancy
  La  La0  1  0.030721  0.307949  0.335621  1
  La  La1  1  0.969279  0.692051  0.664379  1
  La  La2  1  0.469622  0.194268  0.834576  1
  La  La3  1  0.805732  0.530378  0.165424  1
  La  La4  1  0.530378  0.805732  0.165424  1
  La  La5  1  0.194268  0.469622  0.834576  1
  La  La6  1  0.692051  0.969279  0.664379  1
  La  La7  1  0.307949  0.030721  0.335621  1
  La  La8  1  0.000000  0.000000  0.000000  1
  Dy  Dy9  1  0.500000  0.500000  0.500000  1
  Sn  Sn10  1  0.369174  0.369174  0.134950  1
  Sn  Sn11  1  0.630826  0.630826  0.865050  1
  Sn  Sn12  1  0.135843  0.135843  0.628904  1
  Sn  Sn13  1  0.864157  0.864157  0.371096  1
  Sb  Sb14  1  0.797928  0.202072  0.000000  1
  Sb  Sb15  1  0.202072  0.797928  0.000000  1
  Sb  Sb16  1  0.697056  0.302944  0.500000  1
  Sb  Sb17  1  0.302944  0.697056  0.500000  1
