# generated using pymatgen
data_K2Cd14Pd3
_symmetry_space_group_name_H-M   'P 1'
_cell_length_a   7.65096462
_cell_length_b   7.65096454
_cell_length_c   7.65096287
_cell_angle_alpha   83.33225438
_cell_angle_beta   83.33224816
_cell_angle_gamma   83.33225577
_symmetry_Int_Tables_number   1
_chemical_formula_structural   K2Cd14Pd3
_chemical_formula_sum   'K2 Cd14 Pd3'
_cell_volume   439.43090332
_cell_formula_units_Z   1
loop_
 _symmetry_equiv_pos_site_id
 _symmetry_equiv_pos_as_xyz
  1  'x, y, z'
loop_
 _atom_site_type_symbol
 _atom_site_label
 _atom_site_symmetry_multiplicity
 _atom_site_fract_x
 _atom_site_fract_y
 _atom_site_fract_z
 _atom_site_occupancy
  K  K0  1  0.347179  0.347179  0.347179  1
  K  K1  1  0.652821  0.652821  0.652821  1
  Cd  Cd2  1  0.707064  0.292937  0.000000  1
  Cd  Cd3  1  0.292937  0.707064  0.000000  1
  Cd  Cd4  1  0.106221  0.106221  0.106221  1
  Cd  Cd5  1  0.654858  0.654858  0.135648  1
  Cd  Cd6  1  0.707064  0.000000  0.292936  1
  Cd  Cd7  1  0.000000  0.707064  0.292936  1
  Cd  Cd8  1  0.864352  0.345142  0.345142  1
  Cd  Cd9  1  0.345142  0.864352  0.345142  1
  Cd  Cd10  1  0.654858  0.135648  0.654858  1
  Cd  Cd11  1  0.135648  0.654858  0.654858  1
  Cd  Cd12  1  0.292937  0.000000  0.707063  1
  Cd  Cd13  1  0.000000  0.292937  0.707063  1
  Cd  Cd14  1  0.345142  0.345142  0.864352  1
  Cd  Cd15  1  0.893779  0.893779  0.893779  1
  Pd  Pd16  1  0.500000  0.000000  0.000000  1
  Pd  Pd17  1  0.000000  0.500000  0.000000  1
  Pd  Pd18  1  0.000000  0.000000  0.500001  1
