# generated using pymatgen
data_Dy2Ho5Co2Sn23Rh4
_symmetry_space_group_name_H-M   'P 1'
_cell_length_a   9.79494041
_cell_length_b   9.79697035
_cell_length_c   10.04547013
_cell_angle_alpha   89.99999991
_cell_angle_beta   90.00705400
_cell_angle_gamma   120.00685108
_symmetry_Int_Tables_number   1
_chemical_formula_structural   Dy2Ho5Co2Sn23Rh4
_chemical_formula_sum   'Dy2 Ho5 Co2 Sn23 Rh4'
_cell_volume   834.76551515
_cell_formula_units_Z   1
loop_
 _symmetry_equiv_pos_site_id
 _symmetry_equiv_pos_as_xyz
  1  'x, y, z'
loop_
 _atom_site_type_symbol
 _atom_site_label
 _atom_site_symmetry_multiplicity
 _atom_site_fract_x
 _atom_site_fract_y
 _atom_site_fract_z
 _atom_site_occupancy
  Dy  Dy0  1  0.000013  0.000006  0.000008  1
  Dy  Dy1  1  0.957058  0.478528  0.692998  1
  Ho  Ho2  1  0.479070  0.521203  0.307024  1
  Ho  Ho3  1  0.520932  0.478757  0.692941  1
  Ho  Ho4  1  0.479070  0.957867  0.307024  1
  Ho  Ho5  1  0.520932  0.042175  0.692941  1
  Ho  Ho6  1  0.042661  0.521331  0.306899  1
  Co  Co7  1  0.336896  0.168447  0.198630  1
  Co  Co8  1  0.663055  0.831529  0.801425  1
  Sn  Sn9  1  0.350746  0.004656  0.004757  1
  Sn  Sn10  1  0.649258  0.995387  0.995299  1
  Sn  Sn11  1  0.000011  0.351261  0.000032  1
  Sn  Sn12  1  0.000011  0.648750  0.000032  1
  Sn  Sn13  1  0.649258  0.653870  0.995299  1
  Sn  Sn14  1  0.350746  0.346090  0.004757  1
  Sn  Sn15  1  0.338475  0.669237  0.818997  1
  Sn  Sn16  1  0.661513  0.330757  0.181018  1
  Sn  Sn17  1  0.000022  0.000011  0.499995  1
  Sn  Sn18  1  0.778566  0.221464  0.456053  1
  Sn  Sn19  1  0.221512  0.778629  0.543764  1
  Sn  Sn20  1  0.778566  0.557102  0.456053  1
  Sn  Sn21  1  0.221512  0.442884  0.543764  1
  Sn  Sn22  1  0.439032  0.219515  0.450539  1
  Sn  Sn23  1  0.560964  0.780483  0.549406  1
  Sn  Sn24  1  0.333444  0.666722  0.119320  1
  Sn  Sn25  1  0.666235  0.333117  0.880916  1
  Sn  Sn26  1  0.123727  0.886842  0.276511  1
  Sn  Sn27  1  0.876303  0.113080  0.723483  1
  Sn  Sn28  1  0.123727  0.236885  0.276511  1
  Sn  Sn29  1  0.876303  0.763223  0.723483  1
  Sn  Sn30  1  0.758872  0.879435  0.281847  1
  Sn  Sn31  1  0.241163  0.120582  0.718140  1
  Rh  Rh32  1  0.831185  0.167468  0.197697  1
  Rh  Rh33  1  0.168989  0.832768  0.802370  1
  Rh  Rh34  1  0.831185  0.663717  0.197697  1
  Rh  Rh35  1  0.168989  0.336221  0.802370  1
