# generated using pymatgen
data_Ho6Er4NiBi4Ru
_symmetry_space_group_name_H-M   'P 1'
_cell_length_a   7.94104426
_cell_length_b   8.91360500
_cell_length_c   12.34201004
_cell_angle_alpha   90.00000000
_cell_angle_beta   90.55875917
_cell_angle_gamma   90.00000000
_symmetry_Int_Tables_number   1
_chemical_formula_structural   Ho6Er4NiBi4Ru
_chemical_formula_sum   'Ho12 Er8 Ni2 Bi8 Ru2'
_cell_volume   873.56705010
_cell_formula_units_Z   2
loop_
 _symmetry_equiv_pos_site_id
 _symmetry_equiv_pos_as_xyz
  1  'x, y, z'
loop_
 _atom_site_type_symbol
 _atom_site_label
 _atom_site_symmetry_multiplicity
 _atom_site_fract_x
 _atom_site_fract_y
 _atom_site_fract_z
 _atom_site_occupancy
  Ho  Ho0  1  0.836510  0.750000  0.790832  1
  Ho  Ho1  1  0.163490  0.250000  0.209168  1
  Ho  Ho2  1  0.344227  0.250000  0.703597  1
  Ho  Ho3  1  0.655773  0.750000  0.296403  1
  Ho  Ho4  1  0.377216  0.750000  0.694558  1
  Ho  Ho5  1  0.622784  0.250000  0.305442  1
  Ho  Ho6  1  0.878958  0.250000  0.813314  1
  Ho  Ho7  1  0.121042  0.750000  0.186686  1
  Ho  Ho8  1  0.947647  0.750000  0.503618  1
  Ho  Ho9  1  0.052353  0.250000  0.496382  1
  Ho  Ho10  1  0.450741  0.250000  0.999115  1
  Ho  Ho11  1  0.549259  0.750000  0.000885  1
  Er  Er12  1  0.675653  0.041492  0.564689  1
  Er  Er13  1  0.324347  0.958508  0.435311  1
  Er  Er14  1  0.175754  0.959608  0.935391  1
  Er  Er15  1  0.324347  0.541492  0.435311  1
  Er  Er16  1  0.824246  0.040392  0.064609  1
  Er  Er17  1  0.675653  0.458508  0.564689  1
  Er  Er18  1  0.824246  0.459608  0.064609  1
  Er  Er19  1  0.175754  0.540392  0.935391  1
  Ni  Ni20  1  0.069475  0.250000  0.994431  1
  Ni  Ni21  1  0.930525  0.750000  0.005569  1
  Bi  Bi22  1  0.570083  0.489766  0.828677  1
  Bi  Bi23  1  0.429917  0.510234  0.171323  1
  Bi  Bi24  1  0.066767  0.507239  0.675262  1
  Bi  Bi25  1  0.429917  0.989766  0.171323  1
  Bi  Bi26  1  0.933233  0.492761  0.324738  1
  Bi  Bi27  1  0.570083  0.010234  0.828677  1
  Bi  Bi28  1  0.933233  0.007239  0.324738  1
  Bi  Bi29  1  0.066767  0.992761  0.675262  1
  Ru  Ru30  1  0.574805  0.750000  0.513143  1
  Ru  Ru31  1  0.425195  0.250000  0.486857  1
