# generated using pymatgen
data_Pr4Ga4IrPd3
_symmetry_space_group_name_H-M   'P 1'
_cell_length_a   4.56158700
_cell_length_b   7.16459553
_cell_length_c   7.88656471
_cell_angle_alpha   90.17833515
_cell_angle_beta   90.00000000
_cell_angle_gamma   90.00000000
_symmetry_Int_Tables_number   1
_chemical_formula_structural   Pr4Ga4IrPd3
_chemical_formula_sum   'Pr4 Ga4 Ir1 Pd3'
_cell_volume   257.74687448
_cell_formula_units_Z   1
loop_
 _symmetry_equiv_pos_site_id
 _symmetry_equiv_pos_as_xyz
  1  'x, y, z'
loop_
 _atom_site_type_symbol
 _atom_site_label
 _atom_site_symmetry_multiplicity
 _atom_site_fract_x
 _atom_site_fract_y
 _atom_site_fract_z
 _atom_site_occupancy
  Pr  Pr0  1  0.250000  0.033852  0.686850  1
  Pr  Pr1  1  0.250000  0.530422  0.810126  1
  Pr  Pr2  1  0.750000  0.978783  0.310363  1
  Pr  Pr3  1  0.750000  0.467888  0.193645  1
  Ga  Ga4  1  0.250000  0.163226  0.072562  1
  Ga  Ga5  1  0.250000  0.654262  0.430410  1
  Ga  Ga6  1  0.750000  0.839647  0.931429  1
  Ga  Ga7  1  0.750000  0.336864  0.567508  1
  Ir  Ir8  1  0.250000  0.278522  0.391137  1
  Pd  Pd9  1  0.250000  0.782521  0.107204  1
  Pd  Pd10  1  0.750000  0.717218  0.607916  1
  Pd  Pd11  1  0.750000  0.216795  0.890850  1
