# generated using pymatgen
data_LaNd(Y4Bi3)2
_symmetry_space_group_name_H-M   'P 1'
_cell_length_a   12.25524200
_cell_length_b   9.59805300
_cell_length_c   8.39079800
_cell_angle_alpha   90.00000000
_cell_angle_beta   90.00000000
_cell_angle_gamma   90.00000000
_symmetry_Int_Tables_number   1
_chemical_formula_structural   LaNd(Y4Bi3)2
_chemical_formula_sum   'La2 Nd2 Y16 Bi12'
_cell_volume   986.97988414
_cell_formula_units_Z   2
loop_
 _symmetry_equiv_pos_site_id
 _symmetry_equiv_pos_as_xyz
  1  'x, y, z'
loop_
 _atom_site_type_symbol
 _atom_site_label
 _atom_site_symmetry_multiplicity
 _atom_site_fract_x
 _atom_site_fract_y
 _atom_site_fract_z
 _atom_site_occupancy
  La  La0  1  0.275406  0.750000  0.329646  1
  La  La1  1  0.775406  0.750000  0.170354  1
  Nd  Nd2  1  0.723796  0.250000  0.669679  1
  Nd  Nd3  1  0.223796  0.250000  0.830321  1
  Y  Y4  1  0.563846  0.060978  0.310863  1
  Y  Y5  1  0.063846  0.439022  0.189137  1
  Y  Y6  1  0.436072  0.560460  0.689448  1
  Y  Y7  1  0.936072  0.939540  0.810552  1
  Y  Y8  1  0.436072  0.939540  0.689448  1
  Y  Y9  1  0.936072  0.560460  0.810552  1
  Y  Y10  1  0.563846  0.439022  0.310863  1
  Y  Y11  1  0.063846  0.060978  0.189137  1
  Y  Y12  1  0.502253  0.250000  0.976725  1
  Y  Y13  1  0.002253  0.250000  0.523275  1
  Y  Y14  1  0.497894  0.750000  0.021902  1
  Y  Y15  1  0.997894  0.750000  0.478098  1
  Y  Y16  1  0.788925  0.250000  0.163352  1
  Y  Y17  1  0.288925  0.250000  0.336648  1
  Y  Y18  1  0.211206  0.750000  0.836050  1
  Y  Y19  1  0.711206  0.750000  0.663950  1
  Bi  Bi20  1  0.967389  0.250000  0.904642  1
  Bi  Bi21  1  0.467389  0.250000  0.595358  1
  Bi  Bi22  1  0.033667  0.750000  0.095192  1
  Bi  Bi23  1  0.533667  0.750000  0.404808  1
  Bi  Bi24  1  0.829463  0.007509  0.436166  1
  Bi  Bi25  1  0.329463  0.492491  0.063834  1
  Bi  Bi26  1  0.170350  0.505261  0.565855  1
  Bi  Bi27  1  0.670350  0.994739  0.934145  1
  Bi  Bi28  1  0.170350  0.994739  0.565855  1
  Bi  Bi29  1  0.670350  0.505261  0.934145  1
  Bi  Bi30  1  0.829463  0.492491  0.436166  1
  Bi  Bi31  1  0.329463  0.007509  0.063834  1
