# generated using pymatgen
data_Sc4AlPt11
_symmetry_space_group_name_H-M   'P 1'
_cell_length_a   4.05131700
_cell_length_b   5.65803074
_cell_length_c   11.28496609
_cell_angle_alpha   87.26266436
_cell_angle_beta   90.00000000
_cell_angle_gamma   90.00000000
_symmetry_Int_Tables_number   1
_chemical_formula_structural   Sc4AlPt11
_chemical_formula_sum   'Sc4 Al1 Pt11'
_cell_volume   258.38420408
_cell_formula_units_Z   1
loop_
 _symmetry_equiv_pos_site_id
 _symmetry_equiv_pos_as_xyz
  1  'x, y, z'
loop_
 _atom_site_type_symbol
 _atom_site_label
 _atom_site_symmetry_multiplicity
 _atom_site_fract_x
 _atom_site_fract_y
 _atom_site_fract_z
 _atom_site_occupancy
  Sc  Sc0  1  0.500000  0.756052  0.374137  1
  Sc  Sc1  1  0.500000  0.715716  0.864195  1
  Sc  Sc2  1  0.500000  0.284284  0.135805  1
  Sc  Sc3  1  0.500000  0.243948  0.625863  1
  Al  Al4  1  0.000000  0.000000  0.000000  1
  Pt  Pt5  1  0.000000  0.017305  0.241290  1
  Pt  Pt6  1  0.000000  0.982695  0.758710  1
  Pt  Pt7  1  0.000000  0.500000  0.000000  1
  Pt  Pt8  1  0.000000  0.500000  0.500000  1
  Pt  Pt9  1  0.000000  0.519065  0.248417  1
  Pt  Pt10  1  0.000000  0.480935  0.751583  1
  Pt  Pt11  1  0.500000  0.252259  0.376069  1
  Pt  Pt12  1  0.500000  0.217377  0.890295  1
  Pt  Pt13  1  0.500000  0.782623  0.109705  1
  Pt  Pt14  1  0.500000  0.747741  0.623931  1
  Pt  Pt15  1  0.000000  0.000000  0.500000  1
