# generated using pymatgen
data_Hf6Ti3Nb(Ga2Si)2
_symmetry_space_group_name_H-M   'P 1'
_cell_length_a   7.85795725
_cell_length_b   7.85123157
_cell_length_c   5.40284045
_cell_angle_alpha   90.10927864
_cell_angle_beta   89.94540365
_cell_angle_gamma   119.97170271
_symmetry_Int_Tables_number   1
_chemical_formula_structural   Hf6Ti3Nb(Ga2Si)2
_chemical_formula_sum   'Hf6 Ti3 Nb1 Ga4 Si2'
_cell_volume   288.75080146
_cell_formula_units_Z   1
loop_
 _symmetry_equiv_pos_site_id
 _symmetry_equiv_pos_as_xyz
  1  'x, y, z'
loop_
 _atom_site_type_symbol
 _atom_site_label
 _atom_site_symmetry_multiplicity
 _atom_site_fract_x
 _atom_site_fract_y
 _atom_site_fract_z
 _atom_site_occupancy
  Hf  Hf0  1  0.750886  0.754613  0.249084  1
  Hf  Hf1  1  0.750886  0.996273  0.750916  1
  Hf  Hf2  1  0.996642  0.241318  0.248358  1
  Hf  Hf3  1  0.247030  0.249791  0.751147  1
  Hf  Hf4  1  0.247030  0.997240  0.248853  1
  Hf  Hf5  1  0.996642  0.755324  0.751642  1
  Ti  Ti6  1  0.665895  0.332947  0.000000  1
  Ti  Ti7  1  0.665516  0.332758  0.500000  1
  Ti  Ti8  1  0.339892  0.669946  0.500000  1
  Nb  Nb9  1  0.339897  0.669949  0.000000  1
  Ga  Ga10  1  0.998764  0.398268  0.747602  1
  Ga  Ga11  1  0.998764  0.600496  0.252398  1
  Ga  Ga12  1  0.396418  0.394321  0.252332  1
  Ga  Ga13  1  0.396418  0.002097  0.747668  1
  Si  Si14  1  0.604659  0.003099  0.251469  1
  Si  Si15  1  0.604659  0.601560  0.748531  1
