# generated using pymatgen
data_YbYPdPtO7
_symmetry_space_group_name_H-M   'P 1'
_cell_length_a   7.25918855
_cell_length_b   7.25270488
_cell_length_c   7.25918896
_cell_angle_alpha   60.02953635
_cell_angle_beta   60.11136619
_cell_angle_gamma   60.02954456
_symmetry_Int_Tables_number   1
_chemical_formula_structural   YbYPdPtO7
_chemical_formula_sum   'Yb2 Y2 Pd2 Pt2 O14'
_cell_volume   270.59481719
_cell_formula_units_Z   2
loop_
 _symmetry_equiv_pos_site_id
 _symmetry_equiv_pos_as_xyz
  1  'x, y, z'
loop_
 _atom_site_type_symbol
 _atom_site_label
 _atom_site_symmetry_multiplicity
 _atom_site_fract_x
 _atom_site_fract_y
 _atom_site_fract_z
 _atom_site_occupancy
  Yb  Yb0  1  0.125000  0.125000  0.625000  1
  Yb  Yb1  1  0.625000  0.125000  0.125000  1
  Y  Y2  1  0.125000  0.625000  0.125000  1
  Y  Y3  1  0.125000  0.125000  0.125000  1
  Pd  Pd4  1  0.125000  0.625000  0.625000  1
  Pd  Pd5  1  0.625000  0.625000  0.125000  1
  Pt  Pt6  1  0.625000  0.625000  0.625000  1
  Pt  Pt7  1  0.625000  0.125000  0.625000  1
  O  O8  1  0.291497  0.708434  0.711550  1
  O  O9  1  0.538450  0.961479  0.958503  1
  O  O10  1  0.711550  0.708434  0.291497  1
  O  O11  1  0.291497  0.288521  0.711550  1
  O  O12  1  0.003959  0.996041  0.003959  1
  O  O13  1  0.286604  0.713396  0.286604  1
  O  O14  1  0.706539  0.293461  0.706539  1
  O  O15  1  0.963396  0.536604  0.963396  1
  O  O16  1  0.538450  0.541566  0.958503  1
  O  O17  1  0.958503  0.961479  0.538450  1
  O  O18  1  0.246041  0.253959  0.246041  1
  O  O19  1  0.543461  0.956539  0.543461  1
  O  O20  1  0.711550  0.288521  0.291497  1
  O  O21  1  0.958503  0.541566  0.538450  1
