# generated using pymatgen
data_TbLu10Cd9Pd4
_symmetry_space_group_name_H-M   'P 1'
_cell_length_a   13.04873800
_cell_length_b   13.04873919
_cell_length_c   3.66425000
_cell_angle_alpha   90.00000000
_cell_angle_beta   90.00000000
_cell_angle_gamma   111.63593223
_symmetry_Int_Tables_number   1
_chemical_formula_structural   TbLu10Cd9Pd4
_chemical_formula_sum   'Tb1 Lu10 Cd9 Pd4'
_cell_volume   579.95297801
_cell_formula_units_Z   1
loop_
 _symmetry_equiv_pos_site_id
 _symmetry_equiv_pos_as_xyz
  1  'x, y, z'
loop_
 _atom_site_type_symbol
 _atom_site_label
 _atom_site_symmetry_multiplicity
 _atom_site_fract_x
 _atom_site_fract_y
 _atom_site_fract_z
 _atom_site_occupancy
  Tb  Tb0  1  0.000000  0.000000  0.000000  1
  Lu  Lu1  1  0.416509  0.077765  0.000000  1
  Lu  Lu2  1  0.583491  0.922235  0.000000  1
  Lu  Lu3  1  0.077765  0.416509  0.000000  1
  Lu  Lu4  1  0.922235  0.583491  0.000000  1
  Lu  Lu5  1  0.162091  0.837909  0.000000  1
  Lu  Lu6  1  0.837909  0.162091  0.000000  1
  Lu  Lu7  1  0.371249  0.628751  0.000000  1
  Lu  Lu8  1  0.628751  0.371249  0.000000  1
  Lu  Lu9  1  0.307874  0.307874  0.000000  1
  Lu  Lu10  1  0.692126  0.692126  0.000000  1
  Cd  Cd11  1  0.366530  0.845465  0.500000  1
  Cd  Cd12  1  0.633470  0.154535  0.500000  1
  Cd  Cd13  1  0.845465  0.366530  0.500000  1
  Cd  Cd14  1  0.154535  0.633470  0.500000  1
  Cd  Cd15  1  0.218053  0.070607  0.500000  1
  Cd  Cd16  1  0.781947  0.929393  0.500000  1
  Cd  Cd17  1  0.070607  0.218053  0.500000  1
  Cd  Cd18  1  0.929393  0.781947  0.500000  1
  Cd  Cd19  1  0.500000  0.500000  0.500000  1
  Pd  Pd20  1  0.450546  0.249839  0.500000  1
  Pd  Pd21  1  0.549454  0.750161  0.500000  1
  Pd  Pd22  1  0.249839  0.450546  0.500000  1
  Pd  Pd23  1  0.750161  0.549454  0.500000  1
