# generated using pymatgen
data_Ta8V2GaSi5
_symmetry_space_group_name_H-M   'P 1'
_cell_length_a   7.53161761
_cell_length_b   7.53161726
_cell_length_c   7.53161762
_cell_angle_alpha   129.21138215
_cell_angle_beta   129.21137953
_cell_angle_gamma   74.67068983
_symmetry_Int_Tables_number   1
_chemical_formula_structural   Ta8V2GaSi5
_chemical_formula_sum   'Ta8 V2 Ga1 Si5'
_cell_volume   249.88937089
_cell_formula_units_Z   1
loop_
 _symmetry_equiv_pos_site_id
 _symmetry_equiv_pos_as_xyz
  1  'x, y, z'
loop_
 _atom_site_type_symbol
 _atom_site_label
 _atom_site_symmetry_multiplicity
 _atom_site_fract_x
 _atom_site_fract_y
 _atom_site_fract_z
 _atom_site_occupancy
  Ta  Ta0  1  0.018567  0.512457  0.829086  1
  Ta  Ta1  1  0.683371  0.189482  0.170914  1
  Ta  Ta2  1  0.512457  0.683371  0.493889  1
  Ta  Ta3  1  0.189482  0.018567  0.506111  1
  Ta  Ta4  1  0.987543  0.481433  0.170914  1
  Ta  Ta5  1  0.310518  0.816629  0.829086  1
  Ta  Ta6  1  0.481433  0.310518  0.493889  1
  Ta  Ta7  1  0.816629  0.987543  0.506111  1
  V  V8  1  0.001391  0.001391  0.000000  1
  V  V9  1  0.498609  0.498609  0.000000  1
  Ga  Ga10  1  0.750000  0.750000  0.000000  1
  Si  Si11  1  0.250000  0.250000  0.000000  1
  Si  Si12  1  0.633615  0.133615  0.767230  1
  Si  Si13  1  0.366385  0.866385  0.232770  1
  Si  Si14  1  0.133615  0.366385  0.500000  1
  Si  Si15  1  0.866385  0.633615  0.500000  1
