# generated using pymatgen
data_Rb2Mn(ZnSe2)2
_symmetry_space_group_name_H-M   'P 1'
_cell_length_a   9.66126261
_cell_length_b   9.66126333
_cell_length_c   9.66126300
_cell_angle_alpha   142.95565900
_cell_angle_beta   105.61343558
_cell_angle_gamma   86.14021203
_symmetry_Int_Tables_number   1
_chemical_formula_structural   Rb2Mn(ZnSe2)2
_chemical_formula_sum   'Rb4 Mn2 Zn4 Se8'
_cell_volume   506.02480860
_cell_formula_units_Z   2
loop_
 _symmetry_equiv_pos_site_id
 _symmetry_equiv_pos_as_xyz
  1  'x, y, z'
loop_
 _atom_site_type_symbol
 _atom_site_label
 _atom_site_symmetry_multiplicity
 _atom_site_fract_x
 _atom_site_fract_y
 _atom_site_fract_z
 _atom_site_occupancy
  Rb  Rb0  1  0.123059  0.236453  0.358361  1
  Rb  Rb1  1  0.376949  0.735304  0.113418  1
  Rb  Rb2  1  0.621886  0.263530  0.886582  1
  Rb  Rb3  1  0.878091  0.764698  0.641639  1
  Mn  Mn4  1  0.520191  0.750014  0.770186  1
  Mn  Mn5  1  0.979828  0.750005  0.229814  1
  Zn  Zn6  1  0.477962  0.249997  0.227960  1
  Zn  Zn7  1  0.750000  0.250000  0.500000  1
  Zn  Zn8  1  0.249998  0.749998  0.500000  1
  Zn  Zn9  1  0.022037  0.250001  0.772040  1
  Se  Se10  1  0.221797  0.078168  0.596419  1
  Se  Se11  1  0.278205  0.874617  0.856368  1
  Se  Se12  1  0.018250  0.421837  0.143632  1
  Se  Se13  1  0.481749  0.625378  0.403581  1
  Se  Se14  1  0.779400  0.929391  0.414653  1
  Se  Se15  1  0.720601  0.135251  0.149990  1
  Se  Se16  1  0.985261  0.570610  0.850010  1
  Se  Se17  1  0.514737  0.364748  0.585347  1
