# generated using pymatgen
data_Dy4B4AsIr9
_symmetry_space_group_name_H-M   'P 1'
_cell_length_a   10.78698594
_cell_length_b   10.78698602
_cell_length_c   10.78698633
_cell_angle_alpha   29.66194549
_cell_angle_beta   29.66194653
_cell_angle_gamma   29.66194906
_symmetry_Int_Tables_number   1
_chemical_formula_structural   Dy4B4AsIr9
_chemical_formula_sum   'Dy4 B4 As1 Ir9'
_cell_volume   272.15318074
_cell_formula_units_Z   1
loop_
 _symmetry_equiv_pos_site_id
 _symmetry_equiv_pos_as_xyz
  1  'x, y, z'
loop_
 _atom_site_type_symbol
 _atom_site_label
 _atom_site_symmetry_multiplicity
 _atom_site_fract_x
 _atom_site_fract_y
 _atom_site_fract_z
 _atom_site_occupancy
  Dy  Dy0  1  0.149359  0.149359  0.149359  1
  Dy  Dy1  1  0.950038  0.950038  0.950038  1
  Dy  Dy2  1  0.850641  0.850641  0.850641  1
  Dy  Dy3  1  0.049962  0.049962  0.049962  1
  B  B4  1  0.615956  0.615956  0.615956  1
  B  B5  1  0.718168  0.718168  0.718168  1
  B  B6  1  0.384044  0.384044  0.384044  1
  B  B7  1  0.281832  0.281832  0.281832  1
  As  As8  1  0.500000  0.500000  0.500000  1
  Ir  Ir9  1  0.402061  0.901856  0.402061  1
  Ir  Ir10  1  0.901856  0.402061  0.402061  1
  Ir  Ir11  1  0.500000  0.500000  0.000000  1
  Ir  Ir12  1  0.500000  0.000000  0.500000  1
  Ir  Ir13  1  0.000000  0.500000  0.500000  1
  Ir  Ir14  1  0.597939  0.098144  0.597939  1
  Ir  Ir15  1  0.597939  0.597939  0.098144  1
  Ir  Ir16  1  0.098144  0.597939  0.597939  1
  Ir  Ir17  1  0.402061  0.402061  0.901856  1
