# generated using pymatgen
data_Hf7Zr3Zn2Sn5Sb
_symmetry_space_group_name_H-M   'P 1'
_cell_length_a   8.64822100
_cell_length_b   8.65214284
_cell_length_c   5.84809400
_cell_angle_alpha   90.00000000
_cell_angle_beta   90.00000000
_cell_angle_gamma   119.98501060
_symmetry_Int_Tables_number   1
_chemical_formula_structural   Hf7Zr3Zn2Sn5Sb
_chemical_formula_sum   'Hf7 Zr3 Zn2 Sn5 Sb1'
_cell_volume   379.01902799
_cell_formula_units_Z   1
loop_
 _symmetry_equiv_pos_site_id
 _symmetry_equiv_pos_as_xyz
  1  'x, y, z'
loop_
 _atom_site_type_symbol
 _atom_site_label
 _atom_site_symmetry_multiplicity
 _atom_site_fract_x
 _atom_site_fract_y
 _atom_site_fract_z
 _atom_site_occupancy
  Hf  Hf0  1  0.000270  0.731733  0.750000  1
  Hf  Hf1  1  0.268538  0.268267  0.750000  1
  Hf  Hf2  1  0.268757  0.000000  0.250000  1
  Hf  Hf3  1  0.333423  0.667310  0.500431  1
  Hf  Hf4  1  0.666114  0.332690  0.999569  1
  Hf  Hf5  1  0.666114  0.332690  0.500431  1
  Hf  Hf6  1  0.333423  0.667310  0.999569  1
  Zr  Zr7  1  0.732000  0.732990  0.250000  1
  Zr  Zr8  1  0.730995  0.000000  0.750000  1
  Zr  Zr9  1  0.999011  0.267010  0.250000  1
  Zn  Zn10  1  0.002441  0.000000  0.998205  1
  Zn  Zn11  1  0.002441  0.000000  0.501795  1
  Sn  Sn12  1  0.382952  0.000000  0.750000  1
  Sn  Sn13  1  0.384778  0.384470  0.250000  1
  Sn  Sn14  1  0.000308  0.615530  0.250000  1
  Sn  Sn15  1  0.001153  0.386827  0.750000  1
  Sn  Sn16  1  0.614326  0.613173  0.750000  1
  Sb  Sb17  1  0.612959  0.000000  0.250000  1
