# generated using pymatgen
data_Ce2MnCoC4
_symmetry_space_group_name_H-M   'P 1'
_cell_length_a   3.78328623
_cell_length_b   3.73212855
_cell_length_c   7.39933429
_cell_angle_alpha   82.56814498
_cell_angle_beta   82.00543102
_cell_angle_gamma   90.00538180
_symmetry_Int_Tables_number   1
_chemical_formula_structural   Ce2MnCoC4
_chemical_formula_sum   'Ce2 Mn1 Co1 C4'
_cell_volume   102.57454583
_cell_formula_units_Z   1
loop_
 _symmetry_equiv_pos_site_id
 _symmetry_equiv_pos_as_xyz
  1  'x, y, z'
loop_
 _atom_site_type_symbol
 _atom_site_label
 _atom_site_symmetry_multiplicity
 _atom_site_fract_x
 _atom_site_fract_y
 _atom_site_fract_z
 _atom_site_occupancy
  Ce  Ce0  1  0.067888  0.931707  0.996290  1
  Ce  Ce1  1  0.930510  0.066838  0.497556  1
  Mn  Mn2  1  0.373321  0.507073  0.697420  1
  Co  Co3  1  0.515402  0.373287  0.193479  1
  C  C4  1  0.439911  0.599984  0.431528  1
  C  C5  1  0.588499  0.444462  0.928304  1
  C  C6  1  0.489042  0.854419  0.273503  1
  C  C7  1  0.862426  0.489228  0.775720  1
