# generated using pymatgen
data_La5Pr3(CdIr)2
_symmetry_space_group_name_H-M   'P 1'
_cell_length_a   10.10859073
_cell_length_b   10.10859101
_cell_length_c   10.10859100
_cell_angle_alpha   59.99999675
_cell_angle_beta   59.99999584
_cell_angle_gamma   60.00000192
_symmetry_Int_Tables_number   1
_chemical_formula_structural   La5Pr3(CdIr)2
_chemical_formula_sum   'La10 Pr6 Cd4 Ir4'
_cell_volume   730.39341325
_cell_formula_units_Z   2
loop_
 _symmetry_equiv_pos_site_id
 _symmetry_equiv_pos_as_xyz
  1  'x, y, z'
loop_
 _atom_site_type_symbol
 _atom_site_label
 _atom_site_symmetry_multiplicity
 _atom_site_fract_x
 _atom_site_fract_y
 _atom_site_fract_z
 _atom_site_occupancy
  La  La0  1  0.347012  0.347012  0.347012  1
  La  La1  1  0.347012  0.347012  0.958965  1
  La  La2  1  0.347012  0.958965  0.347012  1
  La  La3  1  0.958965  0.347012  0.347012  1
  La  La4  1  0.809123  0.190877  0.190877  1
  La  La5  1  0.190877  0.809123  0.809123  1
  La  La6  1  0.190877  0.809123  0.190877  1
  La  La7  1  0.809123  0.190877  0.809123  1
  La  La8  1  0.190877  0.190877  0.809123  1
  La  La9  1  0.809123  0.809123  0.190877  1
  Pr  Pr10  1  0.936919  0.563081  0.563081  1
  Pr  Pr11  1  0.563081  0.936919  0.936919  1
  Pr  Pr12  1  0.563081  0.936919  0.563081  1
  Pr  Pr13  1  0.936919  0.563081  0.936919  1
  Pr  Pr14  1  0.563081  0.563081  0.936919  1
  Pr  Pr15  1  0.936919  0.936919  0.563081  1
  Cd  Cd16  1  0.580136  0.580136  0.580136  1
  Cd  Cd17  1  0.580136  0.580136  0.259590  1
  Cd  Cd18  1  0.580136  0.259590  0.580136  1
  Cd  Cd19  1  0.259590  0.580136  0.580136  1
  Ir  Ir20  1  0.140832  0.140832  0.140832  1
  Ir  Ir21  1  0.140832  0.140832  0.577503  1
  Ir  Ir22  1  0.140832  0.577503  0.140832  1
  Ir  Ir23  1  0.577503  0.140832  0.140832  1
