# generated using pymatgen
data_Tb12SmGd7Sn16
_symmetry_space_group_name_H-M   'P 1'
_cell_length_a   8.15141773
_cell_length_b   8.22089030
_cell_length_c   15.62011600
_cell_angle_alpha   90.01031491
_cell_angle_beta   90.13531414
_cell_angle_gamma   90.35763257
_symmetry_Int_Tables_number   1
_chemical_formula_structural   Tb12SmGd7Sn16
_chemical_formula_sum   'Tb12 Sm1 Gd7 Sn16'
_cell_volume   1046.71049328
_cell_formula_units_Z   1
loop_
 _symmetry_equiv_pos_site_id
 _symmetry_equiv_pos_as_xyz
  1  'x, y, z'
loop_
 _atom_site_type_symbol
 _atom_site_label
 _atom_site_symmetry_multiplicity
 _atom_site_fract_x
 _atom_site_fract_y
 _atom_site_fract_z
 _atom_site_occupancy
  Tb  Tb0  1  0.362442  0.837126  0.878693  1
  Tb  Tb1  1  0.860880  0.662764  0.623272  1
  Tb  Tb2  1  0.639409  0.162616  0.377642  1
  Tb  Tb3  1  0.138257  0.337611  0.123144  1
  Tb  Tb4  1  0.638195  0.161560  0.121703  1
  Tb  Tb5  1  0.139553  0.337322  0.376933  1
  Tb  Tb6  1  0.360595  0.837425  0.622391  1
  Tb  Tb7  1  0.861440  0.663328  0.877703  1
  Tb  Tb8  1  0.194673  0.501278  0.750210  1
  Tb  Tb9  1  0.694413  0.998858  0.749909  1
  Tb  Tb10  1  0.805322  0.499459  0.249834  1
  Tb  Tb11  1  0.304641  0.000814  0.249534  1
  Sm  Sm12  1  0.015842  0.178504  0.903327  1
  Gd  Gd13  1  0.514005  0.320778  0.904062  1
  Gd  Gd14  1  0.013373  0.177954  0.596432  1
  Gd  Gd15  1  0.486232  0.679196  0.403454  1
  Gd  Gd16  1  0.985278  0.822254  0.096588  1
  Gd  Gd17  1  0.486554  0.678533  0.096065  1
  Gd  Gd18  1  0.985972  0.821286  0.403390  1
  Gd  Gd19  1  0.513563  0.321621  0.596552  1
  Sn  Sn20  1  0.298246  0.040211  0.041845  1
  Sn  Sn21  1  0.801129  0.462179  0.457977  1
  Sn  Sn22  1  0.699187  0.959156  0.541602  1
  Sn  Sn23  1  0.199884  0.537737  0.958352  1
  Sn  Sn24  1  0.701962  0.962021  0.957739  1
  Sn  Sn25  1  0.198252  0.538530  0.542143  1
  Sn  Sn26  1  0.300278  0.039252  0.457877  1
  Sn  Sn27  1  0.800790  0.460756  0.041630  1
  Sn  Sn28  1  0.559081  0.620590  0.750738  1
  Sn  Sn29  1  0.060543  0.879536  0.750497  1
  Sn  Sn30  1  0.441332  0.378981  0.249114  1
  Sn  Sn31  1  0.939330  0.120490  0.249858  1
  Sn  Sn32  1  0.324040  0.144904  0.750259  1
  Sn  Sn33  1  0.824380  0.355191  0.750262  1
  Sn  Sn34  1  0.675391  0.854912  0.249691  1
  Sn  Sn35  1  0.175541  0.645268  0.249582  1
