# generated using pymatgen
data_Rb3ScAs2
_symmetry_space_group_name_H-M   'P 1'
_cell_length_a   9.47639253
_cell_length_b   9.47639174
_cell_length_c   9.47639206
_cell_angle_alpha   127.54682813
_cell_angle_beta   70.82635763
_cell_angle_gamma   135.97383568
_symmetry_Int_Tables_number   1
_chemical_formula_structural   Rb3ScAs2
_chemical_formula_sum   'Rb6 Sc2 As4'
_cell_volume   459.52620888
_cell_formula_units_Z   2
loop_
 _symmetry_equiv_pos_site_id
 _symmetry_equiv_pos_as_xyz
  1  'x, y, z'
loop_
 _atom_site_type_symbol
 _atom_site_label
 _atom_site_symmetry_multiplicity
 _atom_site_fract_x
 _atom_site_fract_y
 _atom_site_fract_z
 _atom_site_occupancy
  Rb  Rb0  1  0.311771  0.701151  0.012923  1
  Rb  Rb1  1  0.188228  0.201151  0.389381  1
  Rb  Rb2  1  0.750000  0.250000  0.500000  1
  Rb  Rb3  1  0.250000  0.750000  0.500001  1
  Rb  Rb4  1  0.811771  0.798849  0.610620  1
  Rb  Rb5  1  0.688228  0.298849  0.987077  1
  Sc  Sc6  1  0.250000  0.250000  0.000000  1
  Sc  Sc7  1  0.750000  0.750000  0.000000  1
  As  As8  1  0.909990  0.179334  0.089326  1
  As  As9  1  0.590009  0.679335  0.269345  1
  As  As10  1  0.409990  0.320665  0.730655  1
  As  As11  1  0.090010  0.820665  0.910673  1
