# generated using pymatgen
data_Sm5Zn2P4Rh13
_symmetry_space_group_name_H-M   'P 1'
_cell_length_a   4.13133900
_cell_length_b   4.13133900
_cell_length_c   24.36860700
_cell_angle_alpha   90.00000000
_cell_angle_beta   90.00000000
_cell_angle_gamma   90.00000000
_symmetry_Int_Tables_number   1
_chemical_formula_structural   Sm5Zn2P4Rh13
_chemical_formula_sum   'Sm5 Zn2 P4 Rh13'
_cell_volume   415.92245663
_cell_formula_units_Z   1
loop_
 _symmetry_equiv_pos_site_id
 _symmetry_equiv_pos_as_xyz
  1  'x, y, z'
loop_
 _atom_site_type_symbol
 _atom_site_label
 _atom_site_symmetry_multiplicity
 _atom_site_fract_x
 _atom_site_fract_y
 _atom_site_fract_z
 _atom_site_occupancy
  Sm  Sm0  1  0.000000  0.000000  0.887596  1
  Sm  Sm1  1  0.000000  0.000000  0.112404  1
  Sm  Sm2  1  0.000000  0.000000  0.306594  1
  Sm  Sm3  1  0.000000  0.000000  0.500000  1
  Sm  Sm4  1  0.000000  0.000000  0.693406  1
  Zn  Zn5  1  0.500000  0.000000  0.000000  1
  Zn  Zn6  1  0.000000  0.500000  0.000000  1
  P  P7  1  0.500000  0.500000  0.157705  1
  P  P8  1  0.500000  0.500000  0.370898  1
  P  P9  1  0.500000  0.500000  0.629102  1
  P  P10  1  0.500000  0.500000  0.842295  1
  Rh  Rh11  1  0.500000  0.500000  0.938029  1
  Rh  Rh12  1  0.500000  0.500000  0.061971  1
  Rh  Rh13  1  0.500000  0.500000  0.280720  1
  Rh  Rh14  1  0.500000  0.500000  0.500000  1
  Rh  Rh15  1  0.500000  0.500000  0.719280  1
  Rh  Rh16  1  0.500000  0.000000  0.205385  1
  Rh  Rh17  1  0.500000  0.000000  0.411493  1
  Rh  Rh18  1  0.500000  0.000000  0.588507  1
  Rh  Rh19  1  0.500000  0.000000  0.794615  1
  Rh  Rh20  1  0.000000  0.500000  0.205385  1
  Rh  Rh21  1  0.000000  0.500000  0.411493  1
  Rh  Rh22  1  0.000000  0.500000  0.588507  1
  Rh  Rh23  1  0.000000  0.500000  0.794615  1
