# generated using pymatgen
data_ThTi7Bi9
_symmetry_space_group_name_H-M   'P 1'
_cell_length_a   10.47318200
_cell_length_b   10.47318200
_cell_length_c   7.53647800
_cell_angle_alpha   90.00000000
_cell_angle_beta   90.00000000
_cell_angle_gamma   90.00000000
_symmetry_Int_Tables_number   1
_chemical_formula_structural   ThTi7Bi9
_chemical_formula_sum   'Th2 Ti14 Bi18'
_cell_volume   826.65774117
_cell_formula_units_Z   2
loop_
 _symmetry_equiv_pos_site_id
 _symmetry_equiv_pos_as_xyz
  1  'x, y, z'
loop_
 _atom_site_type_symbol
 _atom_site_label
 _atom_site_symmetry_multiplicity
 _atom_site_fract_x
 _atom_site_fract_y
 _atom_site_fract_z
 _atom_site_occupancy
  Th  Th0  1  0.750000  0.750000  0.927267  1
  Th  Th1  1  0.250000  0.250000  0.072733  1
  Ti  Ti2  1  0.000000  0.500000  0.000000  1
  Ti  Ti3  1  0.500000  0.000000  0.000000  1
  Ti  Ti4  1  0.500000  0.500000  0.000000  1
  Ti  Ti5  1  0.000000  0.000000  0.000000  1
  Ti  Ti6  1  0.890798  0.250000  0.146967  1
  Ti  Ti7  1  0.609202  0.250000  0.146967  1
  Ti  Ti8  1  0.109202  0.750000  0.853035  1
  Ti  Ti9  1  0.390798  0.750000  0.853035  1
  Ti  Ti10  1  0.750000  0.109202  0.853035  1
  Ti  Ti11  1  0.750000  0.390798  0.853035  1
  Ti  Ti12  1  0.250000  0.890798  0.146967  1
  Ti  Ti13  1  0.250000  0.609202  0.146967  1
  Ti  Ti14  1  0.750000  0.750000  0.431426  1
  Ti  Ti15  1  0.250000  0.250000  0.568574  1
  Bi  Bi16  1  0.420532  0.079468  0.353786  1
  Bi  Bi17  1  0.079468  0.420532  0.353786  1
  Bi  Bi18  1  0.579468  0.579468  0.646214  1
  Bi  Bi19  1  0.920532  0.920532  0.646214  1
  Bi  Bi20  1  0.920532  0.579468  0.646214  1
  Bi  Bi21  1  0.579468  0.920532  0.646214  1
  Bi  Bi22  1  0.420532  0.420532  0.353786  1
  Bi  Bi23  1  0.079468  0.079468  0.353786  1
  Bi  Bi24  1  0.250000  0.750000  0.499999  1
  Bi  Bi25  1  0.750000  0.250000  0.499999  1
  Bi  Bi26  1  0.496748  0.250000  0.800461  1
  Bi  Bi27  1  0.003251  0.250000  0.800461  1
  Bi  Bi28  1  0.503251  0.750000  0.199538  1
  Bi  Bi29  1  0.996749  0.750000  0.199538  1
  Bi  Bi30  1  0.750000  0.503251  0.199538  1
  Bi  Bi31  1  0.750000  0.996749  0.199538  1
  Bi  Bi32  1  0.250000  0.496748  0.800461  1
  Bi  Bi33  1  0.250000  0.003251  0.800461  1
