# generated using pymatgen
data_LiCd21Pd4
_symmetry_space_group_name_H-M   'P 1'
_cell_length_a   8.82847589
_cell_length_b   8.81290634
_cell_length_c   8.81290572
_cell_angle_alpha   109.43540845
_cell_angle_beta   109.50700852
_cell_angle_gamma   109.50701385
_symmetry_Int_Tables_number   1
_chemical_formula_structural   LiCd21Pd4
_chemical_formula_sum   'Li1 Cd21 Pd4'
_cell_volume   527.60644497
_cell_formula_units_Z   1
loop_
 _symmetry_equiv_pos_site_id
 _symmetry_equiv_pos_as_xyz
  1  'x, y, z'
loop_
 _atom_site_type_symbol
 _atom_site_label
 _atom_site_symmetry_multiplicity
 _atom_site_fract_x
 _atom_site_fract_y
 _atom_site_fract_z
 _atom_site_occupancy
  Li  Li0  1  0.795337  0.000000  0.000000  1
  Cd  Cd1  1  0.650731  0.250944  0.000000  1
  Cd  Cd2  1  0.361595  0.358242  0.000000  1
  Cd  Cd3  1  0.644897  0.654155  0.000000  1
  Cd  Cd4  1  0.257968  0.648961  0.000000  1
  Cd  Cd5  1  0.995102  0.794203  0.000000  1
  Cd  Cd6  1  0.200899  0.205797  0.205797  1
  Cd  Cd7  1  0.650731  0.000000  0.250944  1
  Cd  Cd8  1  0.000641  0.648521  0.260819  1
  Cd  Cd9  1  0.609007  0.351039  0.351039  1
  Cd  Cd10  1  0.352120  0.612298  0.351479  1
  Cd  Cd11  1  0.361595  0.000000  0.358242  1
  Cd  Cd12  1  0.990743  0.345845  0.345845  1
  Cd  Cd13  1  0.739822  0.739181  0.387702  1
  Cd  Cd14  1  0.352120  0.351479  0.612298  1
  Cd  Cd15  1  0.644897  0.000000  0.654155  1
  Cd  Cd16  1  0.003354  0.641758  0.641758  1
  Cd  Cd17  1  0.257968  0.000000  0.648961  1
  Cd  Cd18  1  0.000641  0.260819  0.648521  1
  Cd  Cd19  1  0.399787  0.749056  0.749056  1
  Cd  Cd20  1  0.739822  0.387702  0.739181  1
  Cd  Cd21  1  0.995102  0.000000  0.794203  1
  Pd  Pd22  1  0.342433  0.000000  0.000000  1
  Pd  Pd23  1  0.998280  0.342153  0.000000  1
  Pd  Pd24  1  0.998280  0.000000  0.342153  1
  Pd  Pd25  1  0.656127  0.657847  0.657847  1
