# generated using pymatgen
data_Y2IrRu2W
_symmetry_space_group_name_H-M   'P 1'
_cell_length_a   5.25393051
_cell_length_b   5.64360453
_cell_length_c   5.64360616
_cell_angle_alpha   59.24611635
_cell_angle_beta   56.81456730
_cell_angle_gamma   56.81456989
_symmetry_Int_Tables_number   1
_chemical_formula_structural   Y2IrRu2W
_chemical_formula_sum   'Y2 Ir1 Ru2 W1'
_cell_volume   111.72052572
_cell_formula_units_Z   1
loop_
 _symmetry_equiv_pos_site_id
 _symmetry_equiv_pos_as_xyz
  1  'x, y, z'
loop_
 _atom_site_type_symbol
 _atom_site_label
 _atom_site_symmetry_multiplicity
 _atom_site_fract_x
 _atom_site_fract_y
 _atom_site_fract_z
 _atom_site_occupancy
  Y  Y0  1  0.117298  0.125835  0.125835  1
  Y  Y1  1  0.882702  0.874165  0.874165  1
  Ir  Ir2  1  0.500000  0.500000  0.500000  1
  Ru  Ru3  1  0.500000  0.000000  0.500000  1
  Ru  Ru4  1  0.500000  0.500000  0.000000  1
  W  W5  1  0.000000  0.500000  0.500000  1
