# generated using pymatgen
data_Ho3Lu(TcB4)4
_symmetry_space_group_name_H-M   'P 1'
_cell_length_a   3.58590500
_cell_length_b   5.94765168
_cell_length_c   11.50475331
_cell_angle_alpha   89.94538312
_cell_angle_beta   90.00000000
_cell_angle_gamma   90.00000000
_symmetry_Int_Tables_number   1
_chemical_formula_structural   Ho3Lu(TcB4)4
_chemical_formula_sum   'Ho3 Lu1 Tc4 B16'
_cell_volume   245.36997532
_cell_formula_units_Z   1
loop_
 _symmetry_equiv_pos_site_id
 _symmetry_equiv_pos_as_xyz
  1  'x, y, z'
loop_
 _atom_site_type_symbol
 _atom_site_label
 _atom_site_symmetry_multiplicity
 _atom_site_fract_x
 _atom_site_fract_y
 _atom_site_fract_z
 _atom_site_occupancy
  Ho  Ho0  1  0.500000  0.372106  0.150391  1
  Ho  Ho1  1  0.500000  0.627826  0.849891  1
  Ho  Ho2  1  0.500000  0.128046  0.649755  1
  Lu  Lu3  1  0.500000  0.872352  0.350217  1
  Tc  Tc4  1  0.500000  0.366200  0.411760  1
  Tc  Tc5  1  0.500000  0.634093  0.587047  1
  Tc  Tc6  1  0.500000  0.132882  0.912680  1
  Tc  Tc7  1  0.500000  0.866767  0.088626  1
  B  B8  1  0.000000  0.112965  0.048039  1
  B  B9  1  0.000000  0.886345  0.952836  1
  B  B10  1  0.000000  0.387173  0.546805  1
  B  B11  1  0.000000  0.614934  0.451581  1
  B  B12  1  0.000000  0.135128  0.468211  1
  B  B13  1  0.000000  0.865180  0.530336  1
  B  B14  1  0.000000  0.364424  0.969037  1
  B  B15  1  0.000000  0.635340  0.031684  1
  B  B16  1  0.000000  0.021373  0.193775  1
  B  B17  1  0.000000  0.977524  0.807356  1
  B  B18  1  0.000000  0.477708  0.692269  1
  B  B19  1  0.000000  0.523010  0.307169  1
  B  B20  1  0.000000  0.210427  0.315118  1
  B  B21  1  0.000000  0.788278  0.684615  1
  B  B22  1  0.000000  0.288094  0.815004  1
  B  B23  1  0.000000  0.711824  0.185800  1
