# generated using pymatgen
data_La3DyZrMo3O14
_symmetry_space_group_name_H-M   'P 1'
_cell_length_a   7.60088982
_cell_length_b   7.57044146
_cell_length_c   7.52930564
_cell_angle_alpha   59.81910341
_cell_angle_beta   59.90635978
_cell_angle_gamma   60.13242107
_symmetry_Int_Tables_number   1
_chemical_formula_structural   La3DyZrMo3O14
_chemical_formula_sum   'La3 Dy1 Zr1 Mo3 O14'
_cell_volume   306.02139831
_cell_formula_units_Z   1
loop_
 _symmetry_equiv_pos_site_id
 _symmetry_equiv_pos_as_xyz
  1  'x, y, z'
loop_
 _atom_site_type_symbol
 _atom_site_label
 _atom_site_symmetry_multiplicity
 _atom_site_fract_x
 _atom_site_fract_y
 _atom_site_fract_z
 _atom_site_occupancy
  La  La0  1  0.625000  0.125000  0.125000  1
  La  La1  1  0.125000  0.625000  0.125000  1
  La  La2  1  0.125000  0.125000  0.125000  1
  Dy  Dy3  1  0.125000  0.125000  0.625000  1
  Zr  Zr4  1  0.125000  0.625000  0.625000  1
  Mo  Mo5  1  0.625000  0.125000  0.625000  1
  Mo  Mo6  1  0.625000  0.625000  0.125000  1
  Mo  Mo7  1  0.625000  0.625000  0.625000  1
  O  O8  1  0.702708  0.710233  0.295502  1
  O  O9  1  0.290802  0.286929  0.706517  1
  O  O10  1  0.718852  0.291368  0.698411  1
  O  O11  1  0.299059  0.708389  0.284163  1
  O  O12  1  0.290802  0.715753  0.706517  1
  O  O13  1  0.702708  0.291557  0.295502  1
  O  O14  1  0.547292  0.539767  0.954498  1
  O  O15  1  0.959198  0.963071  0.543483  1
  O  O16  1  0.531148  0.958632  0.551589  1
  O  O17  1  0.950941  0.541611  0.965837  1
  O  O18  1  0.959198  0.534247  0.543483  1
  O  O19  1  0.547292  0.958443  0.954498  1
  O  O20  1  0.246837  0.245576  0.262009  1
  O  O21  1  0.003163  0.004424  0.987991  1
