# generated using pymatgen
data_NdTh5Ir18
_symmetry_space_group_name_H-M   'P 1'
_cell_length_a   5.36892000
_cell_length_b   5.36891904
_cell_length_c   17.72469400
_cell_angle_alpha   90.00000000
_cell_angle_beta   90.00000000
_cell_angle_gamma   120.00000593
_symmetry_Int_Tables_number   1
_chemical_formula_structural   NdTh5Ir18
_chemical_formula_sum   'Nd1 Th5 Ir18'
_cell_volume   442.46929638
_cell_formula_units_Z   1
loop_
 _symmetry_equiv_pos_site_id
 _symmetry_equiv_pos_as_xyz
  1  'x, y, z'
loop_
 _atom_site_type_symbol
 _atom_site_label
 _atom_site_symmetry_multiplicity
 _atom_site_fract_x
 _atom_site_fract_y
 _atom_site_fract_z
 _atom_site_occupancy
  Nd  Nd0  1  0.333333  0.666667  0.540707  1
  Th  Th1  1  0.333333  0.666667  0.956864  1
  Th  Th2  1  0.666667  0.333333  0.042528  1
  Th  Th3  1  0.666667  0.333333  0.459931  1
  Th  Th4  1  0.333333  0.666667  0.746729  1
  Th  Th5  1  0.666667  0.333333  0.251377  1
  Ir  Ir6  1  0.166958  0.833042  0.373553  1
  Ir  Ir7  1  0.166958  0.333916  0.373553  1
  Ir  Ir8  1  0.666084  0.833042  0.373553  1
  Ir  Ir9  1  0.833131  0.166869  0.627030  1
  Ir  Ir10  1  0.833131  0.666260  0.627030  1
  Ir  Ir11  1  0.333740  0.166869  0.627030  1
  Ir  Ir12  1  0.832869  0.167131  0.872407  1
  Ir  Ir13  1  0.832869  0.665736  0.872407  1
  Ir  Ir14  1  0.334264  0.167131  0.872407  1
  Ir  Ir15  1  0.167131  0.832869  0.127373  1
  Ir  Ir16  1  0.167131  0.334264  0.127373  1
  Ir  Ir17  1  0.665736  0.832869  0.127373  1
  Ir  Ir18  1  0.333333  0.666667  0.250310  1
  Ir  Ir19  1  0.666667  0.333333  0.749562  1
  Ir  Ir20  1  0.000000  0.000000  0.250564  1
  Ir  Ir21  1  0.000000  0.000000  0.749772  1
  Ir  Ir22  1  0.000000  0.000000  0.500528  1
  Ir  Ir23  1  0.000000  0.000000  0.000036  1
