# generated using pymatgen
data_Dy3Mg2ZnGe2Pt
_symmetry_space_group_name_H-M   'P 1'
_cell_length_a   7.12941722
_cell_length_b   7.09998939
_cell_length_c   4.31892900
_cell_angle_alpha   90.00000000
_cell_angle_beta   90.00000000
_cell_angle_gamma   119.86355851
_symmetry_Int_Tables_number   1
_chemical_formula_structural   Dy3Mg2ZnGe2Pt
_chemical_formula_sum   'Dy3 Mg2 Zn1 Ge2 Pt1'
_cell_volume   189.58932776
_cell_formula_units_Z   1
loop_
 _symmetry_equiv_pos_site_id
 _symmetry_equiv_pos_as_xyz
  1  'x, y, z'
loop_
 _atom_site_type_symbol
 _atom_site_label
 _atom_site_symmetry_multiplicity
 _atom_site_fract_x
 _atom_site_fract_y
 _atom_site_fract_z
 _atom_site_occupancy
  Dy  Dy0  1  0.408642  0.411486  0.500000  1
  Dy  Dy1  1  0.591358  0.002844  0.500000  1
  Dy  Dy2  1  0.000000  0.580610  0.500000  1
  Mg  Mg3  1  0.763574  0.765373  0.000000  1
  Mg  Mg4  1  0.236426  0.001799  0.000000  1
  Zn  Zn5  1  0.000000  0.241195  0.000000  1
  Ge  Ge6  1  0.669136  0.332014  0.000000  1
  Ge  Ge7  1  0.330864  0.662879  0.000000  1
  Pt  Pt8  1  0.000000  0.001800  0.500000  1
