# generated using pymatgen
data_Ho12IrOsPd2
_symmetry_space_group_name_H-M   'P 1'
_cell_length_a   6.37774351
_cell_length_b   7.14480201
_cell_length_c   9.38017800
_cell_angle_alpha   90.00000000
_cell_angle_beta   90.00000000
_cell_angle_gamma   89.93736588
_symmetry_Int_Tables_number   1
_chemical_formula_structural   Ho12IrOsPd2
_chemical_formula_sum   'Ho12 Ir1 Os1 Pd2'
_cell_volume   427.43301874
_cell_formula_units_Z   1
loop_
 _symmetry_equiv_pos_site_id
 _symmetry_equiv_pos_as_xyz
  1  'x, y, z'
loop_
 _atom_site_type_symbol
 _atom_site_label
 _atom_site_symmetry_multiplicity
 _atom_site_fract_x
 _atom_site_fract_y
 _atom_site_fract_z
 _atom_site_occupancy
  Ho  Ho0  1  0.321929  0.684819  0.059794  1
  Ho  Ho1  1  0.171067  0.175076  0.437204  1
  Ho  Ho2  1  0.670804  0.323374  0.563063  1
  Ho  Ho3  1  0.826252  0.815411  0.942781  1
  Ho  Ho4  1  0.670804  0.323374  0.936937  1
  Ho  Ho5  1  0.826252  0.815411  0.557219  1
  Ho  Ho6  1  0.321929  0.684819  0.440206  1
  Ho  Ho7  1  0.171067  0.175076  0.062796  1
  Ho  Ho8  1  0.876497  0.535417  0.250000  1
  Ho  Ho9  1  0.633712  0.026087  0.250000  1
  Ho  Ho10  1  0.136187  0.475318  0.750000  1
  Ho  Ho11  1  0.376503  0.965158  0.750000  1
  Ir  Ir12  1  0.552073  0.615006  0.750000  1
  Os  Os13  1  0.048110  0.885202  0.250000  1
  Pd  Pd14  1  0.447974  0.388495  0.250000  1
  Pd  Pd15  1  0.948842  0.111959  0.750000  1
