# generated using pymatgen
data_YPa3Ga12Tc
_symmetry_space_group_name_H-M   'P 1'
_cell_length_a   7.51574962
_cell_length_b   7.46376381
_cell_length_c   7.46376465
_cell_angle_alpha   109.32969208
_cell_angle_beta   109.61236968
_cell_angle_gamma   109.61238434
_symmetry_Int_Tables_number   1
_chemical_formula_structural   YPa3Ga12Tc
_chemical_formula_sum   'Y1 Pa3 Ga12 Tc1'
_cell_volume   321.74123549
_cell_formula_units_Z   1
loop_
 _symmetry_equiv_pos_site_id
 _symmetry_equiv_pos_as_xyz
  1  'x, y, z'
loop_
 _atom_site_type_symbol
 _atom_site_label
 _atom_site_symmetry_multiplicity
 _atom_site_fract_x
 _atom_site_fract_y
 _atom_site_fract_z
 _atom_site_occupancy
  Y  Y0  1  0.500000  0.000000  0.000000  1
  Pa  Pa1  1  0.000000  0.000000  0.500000  1
  Pa  Pa2  1  0.000000  0.500000  0.000000  1
  Pa  Pa3  1  0.500000  0.500000  0.500000  1
  Ga  Ga4  1  0.750799  0.250799  0.501599  1
  Ga  Ga5  1  0.750799  0.501599  0.250799  1
  Ga  Ga6  1  0.500000  0.250799  0.749201  1
  Ga  Ga7  1  0.249201  0.498401  0.749201  1
  Ga  Ga8  1  0.249201  0.749201  0.498401  1
  Ga  Ga9  1  0.500000  0.749201  0.250799  1
  Ga  Ga10  1  0.706920  0.706569  0.000000  1
  Ga  Ga11  1  0.293080  0.000000  0.293431  1
  Ga  Ga12  1  0.000350  0.293431  0.293431  1
  Ga  Ga13  1  0.293080  0.293431  0.000000  1
  Ga  Ga14  1  0.706920  0.000000  0.706569  1
  Ga  Ga15  1  0.999650  0.706569  0.706569  1
  Tc  Tc16  1  0.000000  0.000000  0.000000  1
