# generated using pymatgen
data_Tb11In7(HgIr2)2
_symmetry_space_group_name_H-M   'P 1'
_cell_length_a   3.78816200
_cell_length_b   13.06490104
_cell_length_c   13.05050139
_cell_angle_alpha   112.41170723
_cell_angle_beta   90.00000000
_cell_angle_gamma   90.00000000
_symmetry_Int_Tables_number   1
_chemical_formula_structural   Tb11In7(HgIr2)2
_chemical_formula_sum   'Tb11 In7 Hg2 Ir4'
_cell_volume   597.10927691
_cell_formula_units_Z   1
loop_
 _symmetry_equiv_pos_site_id
 _symmetry_equiv_pos_as_xyz
  1  'x, y, z'
loop_
 _atom_site_type_symbol
 _atom_site_label
 _atom_site_symmetry_multiplicity
 _atom_site_fract_x
 _atom_site_fract_y
 _atom_site_fract_z
 _atom_site_occupancy
  Tb  Tb0  1  0.000000  0.913044  0.576942  1
  Tb  Tb1  1  0.000000  0.086956  0.423058  1
  Tb  Tb2  1  0.000000  0.583793  0.919538  1
  Tb  Tb3  1  0.000000  0.416207  0.080462  1
  Tb  Tb4  1  0.000000  0.162014  0.834564  1
  Tb  Tb5  1  0.000000  0.837986  0.165436  1
  Tb  Tb6  1  0.000000  0.372627  0.623930  1
  Tb  Tb7  1  0.000000  0.627373  0.376070  1
  Tb  Tb8  1  0.000000  0.687034  0.690227  1
  Tb  Tb9  1  0.000000  0.312966  0.309773  1
  Tb  Tb10  1  0.000000  0.000000  0.000000  1
  In  In11  1  0.500000  0.630720  0.157357  1
  In  In12  1  0.500000  0.369280  0.842643  1
  In  In13  1  0.500000  0.925615  0.781508  1
  In  In14  1  0.500000  0.074385  0.218492  1
  In  In15  1  0.500000  0.783481  0.926540  1
  In  In16  1  0.500000  0.216519  0.073460  1
  In  In17  1  0.500000  0.500000  0.500000  1
  Hg  Hg18  1  0.500000  0.153103  0.637107  1
  Hg  Hg19  1  0.500000  0.846897  0.362893  1
  Ir  Ir20  1  0.500000  0.749260  0.557535  1
  Ir  Ir21  1  0.500000  0.250740  0.442465  1
  Ir  Ir22  1  0.500000  0.546642  0.751726  1
  Ir  Ir23  1  0.500000  0.453358  0.248274  1
