# generated using pymatgen
data_MnRuIF12
_symmetry_space_group_name_H-M   'P 1'
_cell_length_a   5.47569820
_cell_length_b   5.82446973
_cell_length_c   9.38843356
_cell_angle_alpha   73.23611986
_cell_angle_beta   87.95361497
_cell_angle_gamma   62.19661529
_symmetry_Int_Tables_number   1
_chemical_formula_structural   MnRuIF12
_chemical_formula_sum   'Mn1 Ru1 I1 F12'
_cell_volume   251.86965150
_cell_formula_units_Z   1
loop_
 _symmetry_equiv_pos_site_id
 _symmetry_equiv_pos_as_xyz
  1  'x, y, z'
loop_
 _atom_site_type_symbol
 _atom_site_label
 _atom_site_symmetry_multiplicity
 _atom_site_fract_x
 _atom_site_fract_y
 _atom_site_fract_z
 _atom_site_occupancy
  Mn  Mn0  1  0.495264  0.504455  0.491265  1
  Ru  Ru1  1  0.770868  0.999407  0.247977  1
  I  I2  1  0.235329  0.000465  0.751731  1
  F  F3  1  0.939016  0.220626  0.198977  1
  F  F4  1  0.059089  0.777234  0.805271  1
  F  F5  1  0.000175  0.772725  0.141295  1
  F  F6  1  0.487739  0.739489  0.626656  1
  F  F7  1  0.538329  0.224857  0.369825  1
  F  F8  1  0.923632  0.247006  0.566753  1
  F  F9  1  0.054282  0.763863  0.422160  1
  F  F10  1  0.413709  0.269603  0.685495  1
  F  F11  1  0.595753  0.766431  0.313870  1
  F  F12  1  0.492392  0.778167  0.928574  1
  F  F13  1  0.500215  0.215097  0.085015  1
  F  F14  1  0.994209  0.220573  0.865135  1
