# generated using pymatgen
data_Sr2ScRhO6
_symmetry_space_group_name_H-M   'P 1'
_cell_length_a   5.66801100
_cell_length_b   5.70502577
_cell_length_c   9.86614261
_cell_angle_alpha   54.48678907
_cell_angle_beta   90.00000000
_cell_angle_gamma   90.00000000
_symmetry_Int_Tables_number   1
_chemical_formula_structural   Sr2ScRhO6
_chemical_formula_sum   'Sr4 Sc2 Rh2 O12'
_cell_volume   259.68703771
_cell_formula_units_Z   2
loop_
 _symmetry_equiv_pos_site_id
 _symmetry_equiv_pos_as_xyz
  1  'x, y, z'
loop_
 _atom_site_type_symbol
 _atom_site_label
 _atom_site_symmetry_multiplicity
 _atom_site_fract_x
 _atom_site_fract_y
 _atom_site_fract_z
 _atom_site_occupancy
  Sr  Sr0  1  0.480204  0.753392  0.250439  1
  Sr  Sr1  1  0.519796  0.246608  0.749561  1
  Sr  Sr2  1  0.980204  0.246608  0.249561  1
  Sr  Sr3  1  0.019796  0.753392  0.750439  1
  Sc  Sc4  1  0.000000  0.000000  0.000000  1
  Sc  Sc5  1  0.500000  0.000000  0.500000  1
  Rh  Rh6  1  0.000000  0.500000  0.500000  1
  Rh  Rh7  1  0.500000  0.500000  0.000000  1
  O  O8  1  0.720028  0.203347  0.029834  1
  O  O9  1  0.279972  0.796653  0.970166  1
  O  O10  1  0.220028  0.796653  0.470166  1
  O  O11  1  0.779972  0.203347  0.529834  1
  O  O12  1  0.007453  0.685912  0.256637  1
  O  O13  1  0.992547  0.314088  0.743363  1
  O  O14  1  0.507453  0.314088  0.243363  1
  O  O15  1  0.492547  0.685912  0.756637  1
  O  O16  1  0.231871  0.251241  0.030226  1
  O  O17  1  0.768129  0.748759  0.969774  1
  O  O18  1  0.731871  0.748759  0.469774  1
  O  O19  1  0.268129  0.251241  0.530226  1
