# generated using pymatgen
data_Er2P7Ru12
_symmetry_space_group_name_H-M   'P 1'
_cell_length_a   9.40639500
_cell_length_b   9.40639559
_cell_length_c   3.95036900
_cell_angle_alpha   90.00000000
_cell_angle_beta   90.00000000
_cell_angle_gamma   119.99999440
_symmetry_Int_Tables_number   1
_chemical_formula_structural   Er2P7Ru12
_chemical_formula_sum   'Er2 P7 Ru12'
_cell_volume   302.70163869
_cell_formula_units_Z   1
loop_
 _symmetry_equiv_pos_site_id
 _symmetry_equiv_pos_as_xyz
  1  'x, y, z'
loop_
 _atom_site_type_symbol
 _atom_site_label
 _atom_site_symmetry_multiplicity
 _atom_site_fract_x
 _atom_site_fract_y
 _atom_site_fract_z
 _atom_site_occupancy
  Er  Er0  1  0.000000  0.000000  0.000000  1
  Er  Er1  1  0.333333  0.666667  0.500000  1
  P  P2  1  0.089938  0.641155  0.000000  1
  P  P3  1  0.551218  0.910062  0.000000  1
  P  P4  1  0.358845  0.448782  0.000000  1
  P  P5  1  0.783872  0.733750  0.500000  1
  P  P6  1  0.949878  0.216128  0.500000  1
  P  P7  1  0.266250  0.050122  0.500000  1
  P  P8  1  0.666667  0.333333  0.000000  1
  Ru  Ru9  1  0.093148  0.399072  0.000000  1
  Ru  Ru10  1  0.305924  0.906852  0.000000  1
  Ru  Ru11  1  0.600928  0.694076  0.000000  1
  Ru  Ru12  1  0.829364  0.605277  0.000000  1
  Ru  Ru13  1  0.775913  0.170636  0.000000  1
  Ru  Ru14  1  0.394723  0.224087  0.000000  1
  Ru  Ru15  1  0.057750  0.776684  0.500000  1
  Ru  Ru16  1  0.718934  0.942250  0.500000  1
  Ru  Ru17  1  0.223316  0.281066  0.500000  1
  Ru  Ru18  1  0.876157  0.420263  0.500000  1
  Ru  Ru19  1  0.544105  0.123843  0.500000  1
  Ru  Ru20  1  0.579737  0.455895  0.500000  1
