# generated using pymatgen
data_NdSmZn5Sn
_symmetry_space_group_name_H-M   'P 1'
_cell_length_a   8.53075703
_cell_length_b   8.53075671
_cell_length_c   9.05575900
_cell_angle_alpha   90.00000000
_cell_angle_beta   90.00000000
_cell_angle_gamma   149.65711840
_symmetry_Int_Tables_number   1
_chemical_formula_structural   NdSmZn5Sn
_chemical_formula_sum   'Nd2 Sm2 Zn10 Sn2'
_cell_volume   332.92061737
_cell_formula_units_Z   2
loop_
 _symmetry_equiv_pos_site_id
 _symmetry_equiv_pos_as_xyz
  1  'x, y, z'
loop_
 _atom_site_type_symbol
 _atom_site_label
 _atom_site_symmetry_multiplicity
 _atom_site_fract_x
 _atom_site_fract_y
 _atom_site_fract_z
 _atom_site_occupancy
  Nd  Nd0  1  0.000000  0.000000  0.500000  1
  Nd  Nd1  1  0.000000  0.000000  0.000000  1
  Sm  Sm2  1  0.205018  0.794982  0.250000  1
  Sm  Sm3  1  0.794982  0.205018  0.750000  1
  Zn  Zn4  1  0.813451  0.186549  0.391341  1
  Zn  Zn5  1  0.186549  0.813451  0.608659  1
  Zn  Zn6  1  0.813451  0.186549  0.108659  1
  Zn  Zn7  1  0.186549  0.813451  0.891341  1
  Zn  Zn8  1  0.656378  0.343622  0.482787  1
  Zn  Zn9  1  0.343622  0.656378  0.517213  1
  Zn  Zn10  1  0.656378  0.343622  0.017213  1
  Zn  Zn11  1  0.343622  0.656378  0.982787  1
  Zn  Zn12  1  0.394328  0.605672  0.250000  1
  Zn  Zn13  1  0.605672  0.394328  0.750000  1
  Sn  Sn14  1  0.555436  0.444564  0.250000  1
  Sn  Sn15  1  0.444564  0.555436  0.750000  1
