# generated using pymatgen
data_Nd3YHo12(CdPt)4
_symmetry_space_group_name_H-M   'P 1'
_cell_length_a   9.73235016
_cell_length_b   9.71393077
_cell_length_c   9.69727590
_cell_angle_alpha   60.18234176
_cell_angle_beta   59.87838672
_cell_angle_gamma   59.82400326
_symmetry_Int_Tables_number   1
_chemical_formula_structural   Nd3YHo12(CdPt)4
_chemical_formula_sum   'Nd3 Y1 Ho12 Cd4 Pt4'
_cell_volume   647.67777993
_cell_formula_units_Z   1
loop_
 _symmetry_equiv_pos_site_id
 _symmetry_equiv_pos_as_xyz
  1  'x, y, z'
loop_
 _atom_site_type_symbol
 _atom_site_label
 _atom_site_symmetry_multiplicity
 _atom_site_fract_x
 _atom_site_fract_y
 _atom_site_fract_z
 _atom_site_occupancy
  Nd  Nd0  1  0.935056  0.564944  0.935056  1
  Nd  Nd1  1  0.565239  0.566298  0.933781  1
  Nd  Nd2  1  0.933781  0.934682  0.565239  1
  Y  Y3  1  0.563211  0.936789  0.563211  1
  Ho  Ho4  1  0.352686  0.349734  0.351223  1
  Ho  Ho5  1  0.351246  0.352114  0.946333  1
  Ho  Ho6  1  0.351223  0.946359  0.352686  1
  Ho  Ho7  1  0.946333  0.350308  0.351246  1
  Ho  Ho8  1  0.810832  0.187431  0.190323  1
  Ho  Ho9  1  0.190323  0.811414  0.810832  1
  Ho  Ho10  1  0.189457  0.810543  0.189457  1
  Ho  Ho11  1  0.811087  0.188913  0.811087  1
  Ho  Ho12  1  0.190414  0.188103  0.810480  1
  Ho  Ho13  1  0.810480  0.811003  0.190414  1
  Ho  Ho14  1  0.940281  0.559766  0.557608  1
  Ho  Ho15  1  0.557608  0.942345  0.940281  1
  Cd  Cd16  1  0.583115  0.580638  0.578892  1
  Cd  Cd17  1  0.579202  0.583152  0.258646  1
  Cd  Cd18  1  0.578892  0.257355  0.583115  1
  Cd  Cd19  1  0.258646  0.579000  0.579202  1
  Pt  Pt20  1  0.145596  0.141303  0.141220  1
  Pt  Pt21  1  0.142362  0.144944  0.571713  1
  Pt  Pt22  1  0.141220  0.571883  0.145596  1
  Pt  Pt23  1  0.571713  0.140981  0.142362  1
