# generated using pymatgen
data_Tb13Yb3(HoIr3)4
_symmetry_space_group_name_H-M   'P 1'
_cell_length_a   10.90259242
_cell_length_b   10.94383269
_cell_length_c   6.39077329
_cell_angle_alpha   89.95178980
_cell_angle_beta   90.10599777
_cell_angle_gamma   90.10669671
_symmetry_Int_Tables_number   1
_chemical_formula_structural   Tb13Yb3(HoIr3)4
_chemical_formula_sum   'Tb13 Yb3 Ho4 Ir12'
_cell_volume   762.51955250
_cell_formula_units_Z   1
loop_
 _symmetry_equiv_pos_site_id
 _symmetry_equiv_pos_as_xyz
  1  'x, y, z'
loop_
 _atom_site_type_symbol
 _atom_site_label
 _atom_site_symmetry_multiplicity
 _atom_site_fract_x
 _atom_site_fract_y
 _atom_site_fract_z
 _atom_site_occupancy
  Tb  Tb0  1  0.708225  0.913791  0.379003  1
  Tb  Tb1  1  0.587005  0.794343  0.878509  1
  Tb  Tb2  1  0.586339  0.206654  0.378411  1
  Tb  Tb3  1  0.411288  0.794286  0.378696  1
  Tb  Tb4  1  0.413456  0.205994  0.878730  1
  Tb  Tb5  1  0.209951  0.412344  0.622769  1
  Tb  Tb6  1  0.209806  0.586989  0.122505  1
  Tb  Tb7  1  0.790913  0.412433  0.121742  1
  Tb  Tb8  1  0.789967  0.587538  0.621230  1
  Tb  Tb9  1  0.912823  0.709861  0.122545  1
  Tb  Tb10  1  0.911838  0.289666  0.622331  1
  Tb  Tb11  1  0.087529  0.710104  0.621244  1
  Tb  Tb12  1  0.088553  0.289904  0.121940  1
  Yb  Yb13  1  0.290539  0.086563  0.375956  1
  Yb  Yb14  1  0.289944  0.912782  0.876328  1
  Yb  Yb15  1  0.709868  0.087021  0.876341  1
  Ho  Ho16  1  0.001720  0.000341  0.498292  1
  Ho  Ho17  1  0.999511  0.000418  0.998507  1
  Ho  Ho18  1  0.500044  0.500092  0.998653  1
  Ho  Ho19  1  0.499544  0.500046  0.498809  1
  Ir  Ir20  1  0.850446  0.153327  0.254943  1
  Ir  Ir21  1  0.850944  0.844077  0.747585  1
  Ir  Ir22  1  0.148385  0.156875  0.753192  1
  Ir  Ir23  1  0.147955  0.843248  0.251978  1
  Ir  Ir24  1  0.650835  0.350608  0.748645  1
  Ir  Ir25  1  0.651664  0.653179  0.249695  1
  Ir  Ir26  1  0.348813  0.350362  0.247403  1
  Ir  Ir27  1  0.348382  0.649519  0.748190  1
  Ir  Ir28  1  0.501401  0.999269  0.123670  1
  Ir  Ir29  1  0.502021  0.998773  0.622162  1
  Ir  Ir30  1  0.000222  0.499930  0.879842  1
  Ir  Ir31  1  0.000068  0.499664  0.380157  1
