# generated using pymatgen
data_Mn6V2Si3W
_symmetry_space_group_name_H-M   'P 1'
_cell_length_a   4.04205900
_cell_length_b   5.71354700
_cell_length_c   12.11218500
_cell_angle_alpha   90.00000000
_cell_angle_beta   89.99994327
_cell_angle_gamma   90.00000000
_symmetry_Int_Tables_number   1
_chemical_formula_structural   Mn6V2Si3W
_chemical_formula_sum   'Mn12 V4 Si6 W2'
_cell_volume   279.72478470
_cell_formula_units_Z   2
loop_
 _symmetry_equiv_pos_site_id
 _symmetry_equiv_pos_as_xyz
  1  'x, y, z'
loop_
 _atom_site_type_symbol
 _atom_site_label
 _atom_site_symmetry_multiplicity
 _atom_site_fract_x
 _atom_site_fract_y
 _atom_site_fract_z
 _atom_site_occupancy
  Mn  Mn0  1  0.500001  0.247690  0.002969  1
  Mn  Mn1  1  0.500001  0.752309  0.002969  1
  Mn  Mn2  1  0.999921  0.249950  0.167374  1
  Mn  Mn3  1  0.999921  0.750049  0.167374  1
  Mn  Mn4  1  0.499925  0.250029  0.332594  1
  Mn  Mn5  1  0.499925  0.749972  0.332594  1
  Mn  Mn6  1  0.000001  0.252294  0.497016  1
  Mn  Mn7  1  0.000001  0.747704  0.497016  1
  Mn  Mn8  1  0.500069  0.252702  0.664565  1
  Mn  Mn9  1  0.500069  0.747299  0.664565  1
  Mn  Mn10  1  0.000074  0.247284  0.835494  1
  Mn  Mn11  1  0.000074  0.752715  0.835494  1
  V  V12  1  0.000006  0.000000  0.004260  1
  V  V13  1  0.499918  0.500000  0.168447  1
  V  V14  1  0.999920  0.000000  0.331473  1
  V  V15  1  0.500003  0.500000  0.495718  1
  Si  Si16  1  0.000004  0.500000  0.003920  1
  Si  Si17  1  0.499919  0.000000  0.167949  1
  Si  Si18  1  0.999923  0.500000  0.331966  1
  Si  Si19  1  0.500003  0.000000  0.496090  1
  Si  Si20  1  0.000082  0.500000  0.664029  1
  Si  Si21  1  0.500082  0.000000  0.836081  1
  W  W22  1  0.000076  0.000000  0.664128  1
  W  W23  1  0.500083  0.500000  0.835911  1
