# generated using pymatgen
data_CsCu(AuSe)2
_symmetry_space_group_name_H-M   'P 1'
_cell_length_a   6.61609300
_cell_length_b   5.92486689
_cell_length_c   6.05984993
_cell_angle_alpha   88.01437864
_cell_angle_beta   90.00000000
_cell_angle_gamma   123.94057193
_symmetry_Int_Tables_number   1
_chemical_formula_structural   CsCu(AuSe)2
_chemical_formula_sum   'Cs1 Cu1 Au2 Se2'
_cell_volume   196.89771704
_cell_formula_units_Z   1
loop_
 _symmetry_equiv_pos_site_id
 _symmetry_equiv_pos_as_xyz
  1  'x, y, z'
loop_
 _atom_site_type_symbol
 _atom_site_label
 _atom_site_symmetry_multiplicity
 _atom_site_fract_x
 _atom_site_fract_y
 _atom_site_fract_z
 _atom_site_occupancy
  Cs  Cs0  1  0.000000  0.000000  0.500000  1
  Cu  Cu1  1  0.500000  0.000000  0.000000  1
  Au  Au2  1  0.000000  0.500000  0.000000  1
  Au  Au3  1  0.500000  0.500000  0.000000  1
  Se  Se4  1  0.342572  0.685146  0.728130  1
  Se  Se5  1  0.657428  0.314854  0.271870  1
