# generated using pymatgen
data_Ac3Sn7Ir2
_symmetry_space_group_name_H-M   'P 1'
_cell_length_a   4.82549551
_cell_length_b   4.76818000
_cell_length_c   14.62315999
_cell_angle_alpha   90.00000000
_cell_angle_beta   100.26463175
_cell_angle_gamma   90.00000000
_symmetry_Int_Tables_number   1
_chemical_formula_structural   Ac3Sn7Ir2
_chemical_formula_sum   'Ac3 Sn7 Ir2'
_cell_volume   331.07682365
_cell_formula_units_Z   1
loop_
 _symmetry_equiv_pos_site_id
 _symmetry_equiv_pos_as_xyz
  1  'x, y, z'
loop_
 _atom_site_type_symbol
 _atom_site_label
 _atom_site_symmetry_multiplicity
 _atom_site_fract_x
 _atom_site_fract_y
 _atom_site_fract_z
 _atom_site_occupancy
  Ac  Ac0  1  0.500001  0.500001  0.000000  1
  Ac  Ac1  1  0.173904  0.000000  0.364747  1
  Ac  Ac2  1  0.826096  0.000000  0.635253  1
  Sn  Sn3  1  0.000000  0.000000  0.000000  1
  Sn  Sn4  1  0.580558  0.000000  0.173360  1
  Sn  Sn5  1  0.091519  0.500001  0.174850  1
  Sn  Sn6  1  0.714468  0.500001  0.439957  1
  Sn  Sn7  1  0.285533  0.500001  0.560043  1
  Sn  Sn8  1  0.908482  0.500001  0.825150  1
  Sn  Sn9  1  0.419443  0.000000  0.826640  1
  Ir  Ir10  1  0.638835  0.500001  0.257566  1
  Ir  Ir11  1  0.361165  0.500001  0.742434  1
