# generated using pymatgen
data_BaHoF5
_symmetry_space_group_name_H-M   'P 1'
_cell_length_a   8.40975124
_cell_length_b   8.40975032
_cell_length_c   5.92320704
_cell_angle_alpha   89.28676882
_cell_angle_beta   89.28676089
_cell_angle_gamma   149.37277835
_symmetry_Int_Tables_number   1
_chemical_formula_structural   BaHoF5
_chemical_formula_sum   'Ba2 Ho2 F10'
_cell_volume   213.17783769
_cell_formula_units_Z   2
loop_
 _symmetry_equiv_pos_site_id
 _symmetry_equiv_pos_as_xyz
  1  'x, y, z'
loop_
 _atom_site_type_symbol
 _atom_site_label
 _atom_site_symmetry_multiplicity
 _atom_site_fract_x
 _atom_site_fract_y
 _atom_site_fract_z
 _atom_site_occupancy
  Ba  Ba0  1  0.327387  0.672613  0.750000  1
  Ba  Ba1  1  0.672613  0.327387  0.250000  1
  Ho  Ho2  1  0.073455  0.926545  0.750000  1
  Ho  Ho3  1  0.926545  0.073455  0.250000  1
  F  F4  1  0.739475  0.807863  0.591954  1
  F  F5  1  0.807863  0.739475  0.091954  1
  F  F6  1  0.804659  0.171057  0.012115  1
  F  F7  1  0.617460  0.382540  0.750000  1
  F  F8  1  0.828943  0.195341  0.487885  1
  F  F9  1  0.171057  0.804659  0.512115  1
  F  F10  1  0.382540  0.617460  0.250000  1
  F  F11  1  0.195341  0.828943  0.987885  1
  F  F12  1  0.192137  0.260525  0.908046  1
  F  F13  1  0.260525  0.192137  0.408046  1
