# generated using pymatgen
data_Li3Tb4ScPt4
_symmetry_space_group_name_H-M   'P 1'
_cell_length_a   4.05883700
_cell_length_b   7.11775079
_cell_length_c   8.66897088
_cell_angle_alpha   91.43179935
_cell_angle_beta   90.00000000
_cell_angle_gamma   90.00000000
_symmetry_Int_Tables_number   1
_chemical_formula_structural   Li3Tb4ScPt4
_chemical_formula_sum   'Li3 Tb4 Sc1 Pt4'
_cell_volume   250.36655549
_cell_formula_units_Z   1
loop_
 _symmetry_equiv_pos_site_id
 _symmetry_equiv_pos_as_xyz
  1  'x, y, z'
loop_
 _atom_site_type_symbol
 _atom_site_label
 _atom_site_symmetry_multiplicity
 _atom_site_fract_x
 _atom_site_fract_y
 _atom_site_fract_z
 _atom_site_occupancy
  Li  Li0  1  0.250000  0.128445  0.056585  1
  Li  Li1  1  0.250000  0.639266  0.430627  1
  Li  Li2  1  0.750000  0.877361  0.947744  1
  Tb  Tb3  1  0.250000  0.027015  0.690568  1
  Tb  Tb4  1  0.250000  0.554465  0.831794  1
  Tb  Tb5  1  0.750000  0.947708  0.318597  1
  Tb  Tb6  1  0.750000  0.459140  0.173980  1
  Sc  Sc7  1  0.750000  0.373355  0.555930  1
  Pt  Pt8  1  0.250000  0.242177  0.381817  1
  Pt  Pt9  1  0.250000  0.749128  0.124724  1
  Pt  Pt10  1  0.750000  0.743440  0.622728  1
  Pt  Pt11  1  0.750000  0.258501  0.864906  1
