# generated using pymatgen
data_BaDyCu17Si8Ni
_symmetry_space_group_name_H-M   'P 1'
_cell_length_a   8.19623508
_cell_length_b   8.19623648
_cell_length_c   8.15168105
_cell_angle_alpha   120.38627099
_cell_angle_beta   120.38627935
_cell_angle_gamma   89.64734510
_symmetry_Int_Tables_number   1
_chemical_formula_structural   BaDyCu17Si8Ni
_chemical_formula_sum   'Ba1 Dy1 Cu17 Si8 Ni1'
_cell_volume   383.87428717
_cell_formula_units_Z   1
loop_
 _symmetry_equiv_pos_site_id
 _symmetry_equiv_pos_as_xyz
  1  'x, y, z'
loop_
 _atom_site_type_symbol
 _atom_site_label
 _atom_site_symmetry_multiplicity
 _atom_site_fract_x
 _atom_site_fract_y
 _atom_site_fract_z
 _atom_site_occupancy
  Ba  Ba0  1  0.750000  0.750000  0.000000  1
  Dy  Dy1  1  0.250000  0.250000  0.000000  1
  Cu  Cu2  1  0.936540  0.205601  0.137024  1
  Cu  Cu3  1  0.204264  0.070117  0.269450  1
  Cu  Cu4  1  0.800667  0.934813  0.730550  1
  Cu  Cu5  1  0.429883  0.295736  0.730550  1
  Cu  Cu6  1  0.068578  0.799517  0.862976  1
  Cu  Cu7  1  0.809608  0.060720  0.504772  1
  Cu  Cu8  1  0.555948  0.304836  0.495228  1
  Cu  Cu9  1  0.195164  0.944052  0.504772  1
  Cu  Cu10  1  0.439280  0.690392  0.495228  1
  Cu  Cu11  1  0.946530  0.441582  0.754768  1
  Cu  Cu12  1  0.686814  0.191761  0.245232  1
  Cu  Cu13  1  0.058418  0.553470  0.245232  1
  Cu  Cu14  1  0.700483  0.431422  0.137024  1
  Cu  Cu15  1  0.565187  0.699333  0.269450  1
  Cu  Cu16  1  0.000000  0.500000  0.500000  1
  Cu  Cu17  1  0.308239  0.813186  0.754768  1
  Cu  Cu18  1  0.294399  0.563460  0.862976  1
  Si  Si19  1  0.787277  0.281751  0.840555  1
  Si  Si20  1  0.553277  0.058803  0.840555  1
  Si  Si21  1  0.059387  0.211702  0.506753  1
  Si  Si22  1  0.288298  0.440613  0.493247  1
  Si  Si23  1  0.947366  0.795050  0.506753  1
  Si  Si24  1  0.441197  0.946723  0.159445  1
  Si  Si25  1  0.218249  0.712723  0.159445  1
  Si  Si26  1  0.704950  0.552634  0.493247  1
  Ni  Ni27  1  0.500000  0.000000  0.500000  1
