# generated using pymatgen
data_Tb4Ho3Lu3Pb8
_symmetry_space_group_name_H-M   'P 1'
_cell_length_a   8.15585200
_cell_length_b   8.23895408
_cell_length_c   15.57266703
_cell_angle_alpha   89.99544178
_cell_angle_beta   90.00000000
_cell_angle_gamma   90.00000000
_symmetry_Int_Tables_number   1
_chemical_formula_structural   Tb4Ho3Lu3Pb8
_chemical_formula_sum   'Tb8 Ho6 Lu6 Pb16'
_cell_volume   1046.41610519
_cell_formula_units_Z   2
loop_
 _symmetry_equiv_pos_site_id
 _symmetry_equiv_pos_as_xyz
  1  'x, y, z'
loop_
 _atom_site_type_symbol
 _atom_site_label
 _atom_site_symmetry_multiplicity
 _atom_site_fract_x
 _atom_site_fract_y
 _atom_site_fract_z
 _atom_site_occupancy
  Tb  Tb0  1  0.533780  0.323380  0.901158  1
  Tb  Tb1  1  0.033780  0.176620  0.598842  1
  Tb  Tb2  1  0.466018  0.676856  0.401790  1
  Tb  Tb3  1  0.966018  0.823144  0.098210  1
  Tb  Tb4  1  0.468570  0.678692  0.096827  1
  Tb  Tb5  1  0.968570  0.821308  0.403173  1
  Tb  Tb6  1  0.532955  0.324864  0.599676  1
  Tb  Tb7  1  0.032955  0.175136  0.900324  1
  Ho  Ho8  1  0.626978  0.157217  0.380074  1
  Ho  Ho9  1  0.126978  0.342783  0.119926  1
  Ho  Ho10  1  0.624995  0.158819  0.121574  1
  Ho  Ho11  1  0.124995  0.341181  0.378426  1
  Ho  Ho12  1  0.375147  0.842669  0.621467  1
  Ho  Ho13  1  0.875147  0.657331  0.878533  1
  Lu  Lu14  1  0.372420  0.843970  0.876204  1
  Lu  Lu15  1  0.872420  0.656030  0.623796  1
  Lu  Lu16  1  0.206109  0.505707  0.749958  1
  Lu  Lu17  1  0.706109  0.994293  0.750042  1
  Lu  Lu18  1  0.793957  0.494895  0.250741  1
  Lu  Lu19  1  0.293957  0.005105  0.249259  1
  Pb  Pb20  1  0.284442  0.033462  0.041669  1
  Pb  Pb21  1  0.784442  0.466538  0.458331  1
  Pb  Pb22  1  0.718486  0.961857  0.544637  1
  Pb  Pb23  1  0.218486  0.538143  0.955363  1
  Pb  Pb24  1  0.711894  0.963860  0.955811  1
  Pb  Pb25  1  0.211894  0.536140  0.544189  1
  Pb  Pb26  1  0.284423  0.034569  0.456055  1
  Pb  Pb27  1  0.784423  0.465431  0.043945  1
  Pb  Pb28  1  0.568326  0.626602  0.750512  1
  Pb  Pb29  1  0.068326  0.873398  0.749488  1
  Pb  Pb30  1  0.431087  0.375138  0.250641  1
  Pb  Pb31  1  0.931087  0.124862  0.249359  1
  Pb  Pb32  1  0.346142  0.156060  0.750219  1
  Pb  Pb33  1  0.846142  0.343940  0.749781  1
  Pb  Pb34  1  0.654271  0.844348  0.250169  1
  Pb  Pb35  1  0.154271  0.655652  0.249831  1
