# generated using pymatgen
data_La2Nd2GeI6
_symmetry_space_group_name_H-M   'P 1'
_cell_length_a   4.48062300
_cell_length_b   14.57903500
_cell_length_c   15.36702800
_cell_angle_alpha   90.00000000
_cell_angle_beta   90.00000000
_cell_angle_gamma   90.00000000
_symmetry_Int_Tables_number   1
_chemical_formula_structural   La2Nd2GeI6
_chemical_formula_sum   'La4 Nd4 Ge2 I12'
_cell_volume   1003.82282168
_cell_formula_units_Z   2
loop_
 _symmetry_equiv_pos_site_id
 _symmetry_equiv_pos_as_xyz
  1  'x, y, z'
loop_
 _atom_site_type_symbol
 _atom_site_label
 _atom_site_symmetry_multiplicity
 _atom_site_fract_x
 _atom_site_fract_y
 _atom_site_fract_z
 _atom_site_occupancy
  La  La0  1  0.500000  0.117186  0.342227  1
  La  La1  1  0.500000  0.882814  0.657773  1
  La  La2  1  0.500000  0.617186  0.157773  1
  La  La3  1  0.500000  0.382814  0.842227  1
  Nd  Nd4  1  0.000000  0.111529  0.574264  1
  Nd  Nd5  1  0.000000  0.888471  0.425736  1
  Nd  Nd6  1  0.000000  0.611529  0.925736  1
  Nd  Nd7  1  0.000000  0.388471  0.074264  1
  Ge  Ge8  1  0.500000  0.000000  0.500000  1
  Ge  Ge9  1  0.500000  0.500000  0.000000  1
  I  I10  1  0.500000  0.247374  0.159727  1
  I  I11  1  0.500000  0.752626  0.840273  1
  I  I12  1  0.500000  0.747374  0.340273  1
  I  I13  1  0.500000  0.252626  0.659727  1
  I  I14  1  0.000000  0.258544  0.415682  1
  I  I15  1  0.000000  0.741456  0.584318  1
  I  I16  1  0.000000  0.758544  0.084318  1
  I  I17  1  0.000000  0.241456  0.915682  1
  I  I18  1  0.000000  0.996495  0.240800  1
  I  I19  1  0.000000  0.003505  0.759200  1
  I  I20  1  0.000000  0.496495  0.259200  1
  I  I21  1  0.000000  0.503505  0.740800  1
