# generated using pymatgen
data_Y12Co6Pb
_symmetry_space_group_name_H-M   'P 1'
_cell_length_a   8.45046624
_cell_length_b   8.45046686
_cell_length_c   8.45046600
_cell_angle_alpha   109.47121857
_cell_angle_beta   109.47122007
_cell_angle_gamma   109.47122648
_symmetry_Int_Tables_number   1
_chemical_formula_structural   Y12Co6Pb
_chemical_formula_sum   'Y12 Co6 Pb1'
_cell_volume   464.53680056
_cell_formula_units_Z   1
loop_
 _symmetry_equiv_pos_site_id
 _symmetry_equiv_pos_as_xyz
  1  'x, y, z'
loop_
 _atom_site_type_symbol
 _atom_site_label
 _atom_site_symmetry_multiplicity
 _atom_site_fract_x
 _atom_site_fract_y
 _atom_site_fract_z
 _atom_site_occupancy
  Y  Y0  1  0.805205  0.695437  0.500642  1
  Y  Y1  1  0.194795  0.304563  0.499358  1
  Y  Y2  1  0.194795  0.695437  0.890232  1
  Y  Y3  1  0.805205  0.304563  0.109768  1
  Y  Y4  1  0.695437  0.500642  0.805205  1
  Y  Y5  1  0.304563  0.499358  0.194795  1
  Y  Y6  1  0.695437  0.890232  0.194795  1
  Y  Y7  1  0.304563  0.109768  0.805205  1
  Y  Y8  1  0.500642  0.805205  0.695437  1
  Y  Y9  1  0.499358  0.194795  0.304563  1
  Y  Y10  1  0.109768  0.805205  0.304563  1
  Y  Y11  1  0.890232  0.194795  0.695437  1
  Co  Co12  1  0.888073  0.388073  0.500000  1
  Co  Co13  1  0.111927  0.611927  0.500000  1
  Co  Co14  1  0.388073  0.500000  0.888073  1
  Co  Co15  1  0.611927  0.500000  0.111927  1
  Co  Co16  1  0.500000  0.888073  0.388073  1
  Co  Co17  1  0.500000  0.111927  0.611927  1
  Pb  Pb18  1  0.000000  0.000000  0.000000  1
