# generated using pymatgen
data_Ho6Al24Ru7Pt
_symmetry_space_group_name_H-M   'P 1'
_cell_length_a   8.81573984
_cell_length_b   8.81573971
_cell_length_c   9.55033219
_cell_angle_alpha   89.80597979
_cell_angle_beta   90.19401806
_cell_angle_gamma   119.82632807
_symmetry_Int_Tables_number   1
_chemical_formula_structural   Ho6Al24Ru7Pt
_chemical_formula_sum   'Ho6 Al24 Ru7 Pt1'
_cell_volume   643.90334423
_cell_formula_units_Z   1
loop_
 _symmetry_equiv_pos_site_id
 _symmetry_equiv_pos_as_xyz
  1  'x, y, z'
loop_
 _atom_site_type_symbol
 _atom_site_label
 _atom_site_symmetry_multiplicity
 _atom_site_fract_x
 _atom_site_fract_y
 _atom_site_fract_z
 _atom_site_occupancy
  Ho  Ho0  1  0.192463  0.387295  0.250272  1
  Ho  Ho1  1  0.807537  0.612705  0.749728  1
  Ho  Ho2  1  0.612705  0.807537  0.250272  1
  Ho  Ho3  1  0.387295  0.192463  0.749728  1
  Ho  Ho4  1  0.194620  0.805380  0.250431  1
  Ho  Ho5  1  0.805380  0.194620  0.749569  1
  Al  Al6  1  0.330803  0.669197  0.019800  1
  Al  Al7  1  0.669197  0.330803  0.980200  1
  Al  Al8  1  0.666845  0.333155  0.516613  1
  Al  Al9  1  0.333155  0.666845  0.483387  1
  Al  Al10  1  0.162621  0.323906  0.578805  1
  Al  Al11  1  0.837379  0.676094  0.421195  1
  Al  Al12  1  0.676094  0.837379  0.578805  1
  Al  Al13  1  0.842429  0.676512  0.078065  1
  Al  Al14  1  0.323906  0.162621  0.421195  1
  Al  Al15  1  0.157571  0.323488  0.921935  1
  Al  Al16  1  0.162530  0.837470  0.578485  1
  Al  Al17  1  0.323488  0.157571  0.078065  1
  Al  Al18  1  0.837470  0.162530  0.421515  1
  Al  Al19  1  0.676512  0.842429  0.921935  1
  Al  Al20  1  0.837555  0.162445  0.077948  1
  Al  Al21  1  0.162445  0.837555  0.922052  1
  Al  Al22  1  0.560449  0.121507  0.248634  1
  Al  Al23  1  0.439551  0.878493  0.751366  1
  Al  Al24  1  0.878493  0.439551  0.248634  1
  Al  Al25  1  0.121507  0.560449  0.751366  1
  Al  Al26  1  0.561882  0.438118  0.252005  1
  Al  Al27  1  0.438118  0.561882  0.747995  1
  Al  Al28  1  0.999560  0.000440  0.249963  1
  Al  Al29  1  0.000440  0.999560  0.750037  1
  Ru  Ru30  1  0.500000  0.000000  0.000000  1
  Ru  Ru31  1  0.000000  0.500000  0.000000  1
  Ru  Ru32  1  0.500000  0.000000  0.500000  1
  Ru  Ru33  1  0.000000  0.500000  0.500000  1
  Ru  Ru34  1  0.500000  0.500000  0.500000  1
  Ru  Ru35  1  0.000000  0.000000  0.000000  1
  Ru  Ru36  1  0.000000  0.000000  0.500000  1
  Pt  Pt37  1  0.500000  0.500000  0.000000  1
