# generated using pymatgen
data_Li(Ac4Pd3)2
_symmetry_space_group_name_H-M   'P 1'
_cell_length_a   8.05469796
_cell_length_b   8.05469736
_cell_length_c   8.05469757
_cell_angle_alpha   72.42284434
_cell_angle_beta   72.42284425
_cell_angle_gamma   72.42283126
_symmetry_Int_Tables_number   1
_chemical_formula_structural   Li(Ac4Pd3)2
_chemical_formula_sum   'Li1 Ac8 Pd6'
_cell_volume   461.96479580
_cell_formula_units_Z   1
loop_
 _symmetry_equiv_pos_site_id
 _symmetry_equiv_pos_as_xyz
  1  'x, y, z'
loop_
 _atom_site_type_symbol
 _atom_site_label
 _atom_site_symmetry_multiplicity
 _atom_site_fract_x
 _atom_site_fract_y
 _atom_site_fract_z
 _atom_site_occupancy
  Li  Li0  1  0.000000  0.000000  0.000000  1
  Ac  Ac1  1  0.805193  0.805193  0.805193  1
  Ac  Ac2  1  0.194807  0.194807  0.194807  1
  Ac  Ac3  1  0.323670  0.624639  0.837724  1
  Ac  Ac4  1  0.837724  0.323670  0.624639  1
  Ac  Ac5  1  0.624638  0.837724  0.323670  1
  Ac  Ac6  1  0.676330  0.375361  0.162276  1
  Ac  Ac7  1  0.162276  0.676330  0.375361  1
  Ac  Ac8  1  0.375361  0.162276  0.676330  1
  Pd  Pd9  1  0.157750  0.960546  0.583101  1
  Pd  Pd10  1  0.583101  0.157750  0.960546  1
  Pd  Pd11  1  0.960546  0.583101  0.157750  1
  Pd  Pd12  1  0.842250  0.039454  0.416899  1
  Pd  Pd13  1  0.416899  0.842250  0.039454  1
  Pd  Pd14  1  0.039454  0.416899  0.842250  1
