# generated using pymatgen
data_Tb4Er8GaNi2HgOs2
_symmetry_space_group_name_H-M   'P 1'
_cell_length_a   8.31549399
_cell_length_b   8.31549451
_cell_length_c   8.31549500
_cell_angle_alpha   113.25568177
_cell_angle_beta   110.13605049
_cell_angle_gamma   105.12433106
_symmetry_Int_Tables_number   1
_chemical_formula_structural   Tb4Er8GaNi2HgOs2
_chemical_formula_sum   'Tb4 Er8 Ga1 Ni2 Hg1 Os2'
_cell_volume   440.38496395
_cell_formula_units_Z   1
loop_
 _symmetry_equiv_pos_site_id
 _symmetry_equiv_pos_as_xyz
  1  'x, y, z'
loop_
 _atom_site_type_symbol
 _atom_site_label
 _atom_site_symmetry_multiplicity
 _atom_site_fract_x
 _atom_site_fract_y
 _atom_site_fract_z
 _atom_site_occupancy
  Tb  Tb0  1  0.049486  0.742534  0.306950  1
  Tb  Tb1  1  0.950514  0.257466  0.693050  1
  Tb  Tb2  1  0.564418  0.257466  0.306953  1
  Tb  Tb3  1  0.435582  0.742534  0.693047  1
  Er  Er4  1  0.669046  0.855271  0.186223  1
  Er  Er5  1  0.330953  0.517174  0.186221  1
  Er  Er6  1  0.330954  0.144729  0.813777  1
  Er  Er7  1  0.669047  0.482826  0.813779  1
  Er  Er8  1  0.178833  0.222803  0.401636  1
  Er  Er9  1  0.821167  0.222803  0.043970  1
  Er  Er10  1  0.178833  0.777197  0.956030  1
  Er  Er11  1  0.821167  0.777197  0.598364  1
  Ga  Ga12  1  0.000000  0.500000  0.500000  1
  Ni  Ni13  1  0.884003  0.884081  0.000078  1
  Ni  Ni14  1  0.115997  0.115919  0.999922  1
  Hg  Hg15  1  0.500000  0.000000  0.500000  1
  Os  Os16  1  0.670072  0.500000  0.170072  1
  Os  Os17  1  0.329928  0.500000  0.829928  1
