# generated using pymatgen
data_Ti4Si3MoN
_symmetry_space_group_name_H-M   'P 1'
_cell_length_a   7.41316800
_cell_length_b   7.41316816
_cell_length_c   5.14935100
_cell_angle_alpha   90.00000000
_cell_angle_beta   90.00000000
_cell_angle_gamma   119.99999927
_symmetry_Int_Tables_number   1
_chemical_formula_structural   Ti4Si3MoN
_chemical_formula_sum   'Ti8 Si6 Mo2 N2'
_cell_volume   245.07038064
_cell_formula_units_Z   2
loop_
 _symmetry_equiv_pos_site_id
 _symmetry_equiv_pos_as_xyz
  1  'x, y, z'
loop_
 _atom_site_type_symbol
 _atom_site_label
 _atom_site_symmetry_multiplicity
 _atom_site_fract_x
 _atom_site_fract_y
 _atom_site_fract_z
 _atom_site_occupancy
  Ti  Ti0  1  0.666667  0.333333  0.000000  1
  Ti  Ti1  1  0.333333  0.666667  0.500000  1
  Ti  Ti2  1  0.772247  0.000000  0.750000  1
  Ti  Ti3  1  0.772247  0.772247  0.250000  1
  Ti  Ti4  1  0.000000  0.227753  0.250000  1
  Ti  Ti5  1  0.000000  0.772247  0.750000  1
  Ti  Ti6  1  0.227753  0.227753  0.750000  1
  Ti  Ti7  1  0.227753  0.000000  0.250000  1
  Si  Si8  1  0.409122  0.000000  0.750000  1
  Si  Si9  1  0.409122  0.409122  0.250000  1
  Si  Si10  1  0.000000  0.590878  0.250000  1
  Si  Si11  1  0.000000  0.409122  0.750000  1
  Si  Si12  1  0.590878  0.590878  0.750000  1
  Si  Si13  1  0.590878  0.000000  0.250000  1
  Mo  Mo14  1  0.666667  0.333333  0.500000  1
  Mo  Mo15  1  0.333333  0.666667  0.000000  1
  N  N16  1  0.000000  0.000000  0.500000  1
  N  N17  1  0.000000  0.000000  0.000000  1
