# generated using pymatgen
data_Tb2Y10InGaCo4
_symmetry_space_group_name_H-M   'P 1'
_cell_length_a   8.33050019
_cell_length_b   8.32951677
_cell_length_c   8.35410423
_cell_angle_alpha   106.90894274
_cell_angle_beta   109.54430310
_cell_angle_gamma   111.88041850
_symmetry_Int_Tables_number   1
_chemical_formula_structural   Tb2Y10InGaCo4
_chemical_formula_sum   'Tb2 Y10 In1 Ga1 Co4'
_cell_volume   446.04961973
_cell_formula_units_Z   1
loop_
 _symmetry_equiv_pos_site_id
 _symmetry_equiv_pos_as_xyz
  1  'x, y, z'
loop_
 _atom_site_type_symbol
 _atom_site_label
 _atom_site_symmetry_multiplicity
 _atom_site_fract_x
 _atom_site_fract_y
 _atom_site_fract_z
 _atom_site_occupancy
  Tb  Tb0  1  0.299524  0.268690  0.568207  1
  Tb  Tb1  1  0.700476  0.731310  0.431793  1
  Y  Y2  1  0.300543  0.733478  0.034042  1
  Y  Y3  1  0.699457  0.266522  0.965958  1
  Y  Y4  1  0.187963  0.513511  0.324693  1
  Y  Y5  1  0.188841  0.863271  0.675317  1
  Y  Y6  1  0.812037  0.486489  0.675307  1
  Y  Y7  1  0.811159  0.136729  0.324683  1
  Y  Y8  1  0.398900  0.218192  0.181814  1
  Y  Y9  1  0.036380  0.217079  0.818191  1
  Y  Y10  1  0.963620  0.782921  0.181809  1
  Y  Y11  1  0.601100  0.781808  0.818186  1
  In  In12  1  0.500000  0.000000  0.500000  1
  Ga  Ga13  1  0.500000  0.500000  0.000000  1
  Co  Co14  1  0.159758  0.499165  0.658913  1
  Co  Co15  1  0.840242  0.500835  0.341087  1
  Co  Co16  1  0.999143  0.113036  0.112179  1
  Co  Co17  1  0.000857  0.886964  0.887821  1
