# generated using pymatgen
data_Tm4ZnSb5Rh7
_symmetry_space_group_name_H-M   'P 1'
_cell_length_a   7.51726227
_cell_length_b   7.51726364
_cell_length_c   7.51726221
_cell_angle_alpha   108.91401851
_cell_angle_beta   109.75053529
_cell_angle_gamma   109.75053794
_symmetry_Int_Tables_number   1
_chemical_formula_structural   Tm4ZnSb5Rh7
_chemical_formula_sum   'Tm4 Zn1 Sb5 Rh7'
_cell_volume   326.98402657
_cell_formula_units_Z   1
loop_
 _symmetry_equiv_pos_site_id
 _symmetry_equiv_pos_as_xyz
  1  'x, y, z'
loop_
 _atom_site_type_symbol
 _atom_site_label
 _atom_site_symmetry_multiplicity
 _atom_site_fract_x
 _atom_site_fract_y
 _atom_site_fract_z
 _atom_site_occupancy
  Tm  Tm0  1  0.515480  0.011977  0.011977  1
  Tm  Tm1  1  0.000000  0.496497  0.011977  1
  Tm  Tm2  1  0.000000  0.011977  0.496497  1
  Tm  Tm3  1  0.484520  0.496497  0.496497  1
  Zn  Zn4  1  0.000000  0.315810  0.315810  1
  Sb  Sb5  1  0.686282  0.002022  0.688304  1
  Sb  Sb6  1  0.686282  0.688304  0.002022  1
  Sb  Sb7  1  0.000000  0.676381  0.676381  1
  Sb  Sb8  1  0.313718  0.002022  0.315741  1
  Sb  Sb9  1  0.313718  0.315741  0.002022  1
  Rh  Rh10  1  0.000000  0.994644  0.994644  1
  Rh  Rh11  1  0.500000  0.751276  0.251276  1
  Rh  Rh12  1  0.751131  0.496394  0.247525  1
  Rh  Rh13  1  0.248869  0.745263  0.496394  1
  Rh  Rh14  1  0.248869  0.496394  0.745263  1
  Rh  Rh15  1  0.500000  0.251276  0.751276  1
  Rh  Rh16  1  0.751131  0.247525  0.496394  1
