# generated using pymatgen
data_La2PrZn3Co2
_symmetry_space_group_name_H-M   'P 1'
_cell_length_a   8.71395908
_cell_length_b   8.71395872
_cell_length_c   5.08980980
_cell_angle_alpha   98.83026740
_cell_angle_beta   98.83026801
_cell_angle_gamma   27.55849170
_symmetry_Int_Tables_number   1
_chemical_formula_structural   La2PrZn3Co2
_chemical_formula_sum   'La2 Pr1 Zn3 Co2'
_cell_volume   176.56114338
_cell_formula_units_Z   1
loop_
 _symmetry_equiv_pos_site_id
 _symmetry_equiv_pos_as_xyz
  1  'x, y, z'
loop_
 _atom_site_type_symbol
 _atom_site_label
 _atom_site_symmetry_multiplicity
 _atom_site_fract_x
 _atom_site_fract_y
 _atom_site_fract_z
 _atom_site_occupancy
  La  La0  1  0.837756  0.837756  0.419423  1
  La  La1  1  0.162244  0.162244  0.580578  1
  Pr  Pr2  1  0.000000  0.000000  0.000000  1
  Zn  Zn3  1  0.640659  0.640659  0.067470  1
  Zn  Zn4  1  0.500000  0.500000  0.499999  1
  Zn  Zn5  1  0.359341  0.359341  0.932531  1
  Co  Co6  1  0.219856  0.219856  0.061236  1
  Co  Co7  1  0.780144  0.780144  0.938765  1
