# generated using pymatgen
data_Ce2MgSi4Pd
_symmetry_space_group_name_H-M   'P 1'
_cell_length_a   9.19285761
_cell_length_b   9.19285831
_cell_length_c   4.12820200
_cell_angle_alpha   90.00000000
_cell_angle_beta   90.00000000
_cell_angle_gamma   154.05151909
_symmetry_Int_Tables_number   1
_chemical_formula_structural   Ce2MgSi4Pd
_chemical_formula_sum   'Ce2 Mg1 Si4 Pd1'
_cell_volume   152.65197463
_cell_formula_units_Z   1
loop_
 _symmetry_equiv_pos_site_id
 _symmetry_equiv_pos_as_xyz
  1  'x, y, z'
loop_
 _atom_site_type_symbol
 _atom_site_label
 _atom_site_symmetry_multiplicity
 _atom_site_fract_x
 _atom_site_fract_y
 _atom_site_fract_z
 _atom_site_occupancy
  Ce  Ce0  1  0.595183  0.404817  0.250000  1
  Ce  Ce1  1  0.404944  0.595056  0.750000  1
  Mg  Mg2  1  0.749459  0.250541  0.750000  1
  Si  Si3  1  0.967671  0.032329  0.250000  1
  Si  Si4  1  0.031347  0.968653  0.750000  1
  Si  Si5  1  0.837835  0.162165  0.250000  1
  Si  Si6  1  0.161498  0.838502  0.750000  1
  Pd  Pd7  1  0.252063  0.747937  0.250000  1
