# generated using pymatgen
data_LiEr2Th2Pd11
_symmetry_space_group_name_H-M   'P 1'
_cell_length_a   5.92486000
_cell_length_b   5.87578256
_cell_length_c   9.63666300
_cell_angle_alpha   90.00000000
_cell_angle_beta   90.00000000
_cell_angle_gamma   120.27667378
_symmetry_Int_Tables_number   1
_chemical_formula_structural   LiEr2Th2Pd11
_chemical_formula_sum   'Li1 Er2 Th2 Pd11'
_cell_volume   289.72338950
_cell_formula_units_Z   1
loop_
 _symmetry_equiv_pos_site_id
 _symmetry_equiv_pos_as_xyz
  1  'x, y, z'
loop_
 _atom_site_type_symbol
 _atom_site_label
 _atom_site_symmetry_multiplicity
 _atom_site_fract_x
 _atom_site_fract_y
 _atom_site_fract_z
 _atom_site_occupancy
  Li  Li0  1  0.799861  0.599722  0.250000  1
  Er  Er1  1  0.332068  0.664136  0.250000  1
  Er  Er2  1  0.667662  0.335323  0.750000  1
  Th  Th3  1  0.004109  0.008217  0.504606  1
  Th  Th4  1  0.004109  0.008217  0.995394  1
  Pd  Pd5  1  0.506209  0.506528  0.496230  1
  Pd  Pd6  1  0.501320  0.002639  0.496671  1
  Pd  Pd7  1  0.000318  0.506528  0.496230  1
  Pd  Pd8  1  0.506209  0.506528  0.003770  1
  Pd  Pd9  1  0.501320  0.002639  0.003329  1
  Pd  Pd10  1  0.000318  0.506528  0.003770  1
  Pd  Pd11  1  0.347117  0.173473  0.250000  1
  Pd  Pd12  1  0.826356  0.173473  0.250000  1
  Pd  Pd13  1  0.175465  0.350929  0.750000  1
  Pd  Pd14  1  0.651103  0.827560  0.750000  1
  Pd  Pd15  1  0.176457  0.827560  0.750000  1
