# generated using pymatgen
data_Tb4Fe3CoBr2
_symmetry_space_group_name_H-M   'P 1'
_cell_length_a   3.90554900
_cell_length_b   3.90554819
_cell_length_c   16.71192900
_cell_angle_alpha   90.00000000
_cell_angle_beta   90.00000000
_cell_angle_gamma   119.99999841
_symmetry_Int_Tables_number   1
_chemical_formula_structural   Tb4Fe3CoBr2
_chemical_formula_sum   'Tb4 Fe3 Co1 Br2'
_cell_volume   220.76047104
_cell_formula_units_Z   1
loop_
 _symmetry_equiv_pos_site_id
 _symmetry_equiv_pos_as_xyz
  1  'x, y, z'
loop_
 _atom_site_type_symbol
 _atom_site_label
 _atom_site_symmetry_multiplicity
 _atom_site_fract_x
 _atom_site_fract_y
 _atom_site_fract_z
 _atom_site_occupancy
  Tb  Tb0  1  0.000000  0.000000  0.110352  1
  Tb  Tb1  1  0.000000  0.000000  0.890225  1
  Tb  Tb2  1  0.000000  0.000000  0.610624  1
  Tb  Tb3  1  0.000000  0.000000  0.389201  1
  Fe  Fe4  1  0.333333  0.666667  0.504023  1
  Fe  Fe5  1  0.666667  0.333333  0.495832  1
  Fe  Fe6  1  0.666667  0.333333  0.002414  1
  Co  Co7  1  0.333333  0.666667  0.997605  1
  Br  Br8  1  0.333333  0.666667  0.249114  1
  Br  Br9  1  0.666667  0.333333  0.750611  1
