# generated using pymatgen
data_DyLu3Cu3Sb8
_symmetry_space_group_name_H-M   'P 1'
_cell_length_a   10.47168711
_cell_length_b   10.47168634
_cell_length_c   10.46654055
_cell_angle_alpha   146.22021182
_cell_angle_beta   146.22020169
_cell_angle_gamma   48.51965084
_symmetry_Int_Tables_number   1
_chemical_formula_structural   DyLu3Cu3Sb8
_chemical_formula_sum   'Dy1 Lu3 Cu3 Sb8'
_cell_volume   353.29437297
_cell_formula_units_Z   1
loop_
 _symmetry_equiv_pos_site_id
 _symmetry_equiv_pos_as_xyz
  1  'x, y, z'
loop_
 _atom_site_type_symbol
 _atom_site_label
 _atom_site_symmetry_multiplicity
 _atom_site_fract_x
 _atom_site_fract_y
 _atom_site_fract_z
 _atom_site_occupancy
  Dy  Dy0  1  0.633304  0.633304  0.509885  1
  Lu  Lu1  1  0.123513  0.123513  0.489502  1
  Lu  Lu2  1  0.366087  0.876830  0.000033  1
  Lu  Lu3  1  0.876830  0.366087  0.000033  1
  Cu  Cu4  1  0.000520  0.000520  0.000613  1
  Cu  Cu5  1  0.000317  0.499939  0.499924  1
  Cu  Cu6  1  0.499939  0.000317  0.499924  1
  Sb  Sb7  1  0.336477  0.336477  0.517263  1
  Sb  Sb8  1  0.819348  0.819348  0.483214  1
  Sb  Sb9  1  0.664339  0.180559  0.999539  1
  Sb  Sb10  1  0.180559  0.664339  0.999539  1
  Sb  Sb11  1  0.249350  0.249350  0.998850  1
  Sb  Sb12  1  0.750065  0.750065  0.001368  1
  Sb  Sb13  1  0.750333  0.249020  0.500156  1
  Sb  Sb14  1  0.249020  0.750333  0.500156  1
