# generated using pymatgen
data_Th2Si2Ni4GeP
_symmetry_space_group_name_H-M   'P 1'
_cell_length_a   4.08294700
_cell_length_b   4.08294700
_cell_length_c   9.48354700
_cell_angle_alpha   90.00000000
_cell_angle_beta   90.00000000
_cell_angle_gamma   90.00000000
_symmetry_Int_Tables_number   1
_chemical_formula_structural   Th2Si2Ni4GeP
_chemical_formula_sum   'Th2 Si2 Ni4 Ge1 P1'
_cell_volume   158.09505493
_cell_formula_units_Z   1
loop_
 _symmetry_equiv_pos_site_id
 _symmetry_equiv_pos_as_xyz
  1  'x, y, z'
loop_
 _atom_site_type_symbol
 _atom_site_label
 _atom_site_symmetry_multiplicity
 _atom_site_fract_x
 _atom_site_fract_y
 _atom_site_fract_z
 _atom_site_occupancy
  Th  Th0  1  0.000000  0.500000  0.750281  1
  Th  Th1  1  0.500000  0.000000  0.245977  1
  Si  Si2  1  0.000000  0.000000  0.496864  1
  Si  Si3  1  0.500000  0.500000  0.496864  1
  Ni  Ni4  1  0.000000  0.500000  0.374700  1
  Ni  Ni5  1  0.500000  0.000000  0.615088  1
  Ni  Ni6  1  0.500000  0.500000  0.009750  1
  Ni  Ni7  1  0.000000  0.000000  0.009750  1
  Ge  Ge8  1  0.500000  0.000000  0.872055  1
  P  P9  1  0.000000  0.500000  0.128671  1
