# generated using pymatgen
data_Na2TcH2F8
_symmetry_space_group_name_H-M   'P 1'
_cell_length_a   5.60550937
_cell_length_b   5.62657079
_cell_length_c   5.62656741
_cell_angle_alpha   96.40557022
_cell_angle_beta   105.68784955
_cell_angle_gamma   105.68809484
_symmetry_Int_Tables_number   1
_chemical_formula_structural   Na2TcH2F8
_chemical_formula_sum   'Na2 Tc1 H2 F8'
_cell_volume   161.18757358
_cell_formula_units_Z   1
loop_
 _symmetry_equiv_pos_site_id
 _symmetry_equiv_pos_as_xyz
  1  'x, y, z'
loop_
 _atom_site_type_symbol
 _atom_site_label
 _atom_site_symmetry_multiplicity
 _atom_site_fract_x
 _atom_site_fract_y
 _atom_site_fract_z
 _atom_site_occupancy
  Na  Na0  1  0.499999  0.727476  0.272522  1
  Na  Na1  1  0.499999  0.272522  0.727476  1
  Tc  Tc2  1  0.000000  0.000000  0.000000  1
  H  H3  1  0.774511  0.346628  0.346627  1
  H  H4  1  0.225489  0.653373  0.653374  1
  F  F5  1  0.765707  0.670194  0.002381  1
  F  F6  1  0.774648  0.147288  0.147286  1
  F  F7  1  0.234292  0.997621  0.329807  1
  F  F8  1  0.732418  0.461380  0.461379  1
  F  F9  1  0.267582  0.538620  0.538621  1
  F  F10  1  0.765708  0.002380  0.670194  1
  F  F11  1  0.225352  0.852711  0.852713  1
  F  F12  1  0.234293  0.329807  0.997620  1
