# generated using pymatgen
data_CeEr(BIr)8
_symmetry_space_group_name_H-M   'P 1'
_cell_length_a   3.97707600
_cell_length_b   7.67238300
_cell_length_c   7.67238300
_cell_angle_alpha   90.00000000
_cell_angle_beta   90.00000000
_cell_angle_gamma   90.00000000
_symmetry_Int_Tables_number   1
_chemical_formula_structural   CeEr(BIr)8
_chemical_formula_sum   'Ce1 Er1 B8 Ir8'
_cell_volume   234.11241177
_cell_formula_units_Z   1
loop_
 _symmetry_equiv_pos_site_id
 _symmetry_equiv_pos_as_xyz
  1  'x, y, z'
loop_
 _atom_site_type_symbol
 _atom_site_label
 _atom_site_symmetry_multiplicity
 _atom_site_fract_x
 _atom_site_fract_y
 _atom_site_fract_z
 _atom_site_occupancy
  Ce  Ce0  1  0.750000  0.750000  0.750000  1
  Er  Er1  1  0.250000  0.250000  0.250000  1
  B  B2  1  0.358605  0.908071  0.029852  1
  B  B3  1  0.358605  0.591929  0.470148  1
  B  B4  1  0.864213  0.526571  0.091957  1
  B  B5  1  0.864213  0.973429  0.408043  1
  B  B6  1  0.635787  0.091957  0.973429  1
  B  B7  1  0.635787  0.408043  0.526571  1
  B  B8  1  0.141395  0.470148  0.908071  1
  B  B9  1  0.141395  0.029852  0.591929  1
  Ir  Ir10  1  0.136016  0.409787  0.640637  1
  Ir  Ir11  1  0.136016  0.090213  0.859363  1
  Ir  Ir12  1  0.638713  0.142060  0.587049  1
  Ir  Ir13  1  0.638713  0.357940  0.912951  1
  Ir  Ir14  1  0.861287  0.587049  0.357940  1
  Ir  Ir15  1  0.861287  0.912951  0.142060  1
  Ir  Ir16  1  0.363984  0.859363  0.409787  1
  Ir  Ir17  1  0.363984  0.640637  0.090213  1
