# generated using pymatgen
data_Hf16Nb3InNi4
_symmetry_space_group_name_H-M   'P 1'
_cell_length_a   8.78596587
_cell_length_b   8.78596523
_cell_length_c   8.78596700
_cell_angle_alpha   59.98633649
_cell_angle_beta   59.98633891
_cell_angle_gamma   59.98634112
_symmetry_Int_Tables_number   1
_chemical_formula_structural   Hf16Nb3InNi4
_chemical_formula_sum   'Hf16 Nb3 In1 Ni4'
_cell_volume   479.42316463
_cell_formula_units_Z   1
loop_
 _symmetry_equiv_pos_site_id
 _symmetry_equiv_pos_as_xyz
  1  'x, y, z'
loop_
 _atom_site_type_symbol
 _atom_site_label
 _atom_site_symmetry_multiplicity
 _atom_site_fract_x
 _atom_site_fract_y
 _atom_site_fract_z
 _atom_site_occupancy
  Hf  Hf0  1  0.704229  0.096865  0.096865  1
  Hf  Hf1  1  0.096865  0.704229  0.096865  1
  Hf  Hf2  1  0.096865  0.096865  0.704229  1
  Hf  Hf3  1  0.102361  0.102361  0.102361  1
  Hf  Hf4  1  0.316242  0.316242  0.692331  1
  Hf  Hf5  1  0.685866  0.685866  0.315064  1
  Hf  Hf6  1  0.316242  0.692331  0.316242  1
  Hf  Hf7  1  0.685866  0.315064  0.685866  1
  Hf  Hf8  1  0.692331  0.316242  0.316242  1
  Hf  Hf9  1  0.315064  0.685866  0.685866  1
  Hf  Hf10  1  0.951348  0.951348  0.546342  1
  Hf  Hf11  1  0.556631  0.556631  0.939865  1
  Hf  Hf12  1  0.951348  0.546342  0.951348  1
  Hf  Hf13  1  0.556631  0.939865  0.556631  1
  Hf  Hf14  1  0.546342  0.951348  0.951348  1
  Hf  Hf15  1  0.939865  0.556631  0.556631  1
  Nb  Nb16  1  0.993076  0.333109  0.333109  1
  Nb  Nb17  1  0.333109  0.993076  0.333109  1
  Nb  Nb18  1  0.333109  0.333109  0.993076  1
  In  In19  1  0.331907  0.331907  0.331907  1
  Ni  Ni20  1  0.325205  0.889684  0.889684  1
  Ni  Ni21  1  0.889684  0.325205  0.889684  1
  Ni  Ni22  1  0.889684  0.889684  0.325205  1
  Ni  Ni23  1  0.890128  0.890128  0.890128  1
