# generated using pymatgen
data_Zr3BeSiPRu3
_symmetry_space_group_name_H-M   'P 1'
_cell_length_a   6.66595100
_cell_length_b   6.66595047
_cell_length_c   3.57026000
_cell_angle_alpha   90.00000000
_cell_angle_beta   90.00000000
_cell_angle_gamma   120.00000762
_symmetry_Int_Tables_number   1
_chemical_formula_structural   Zr3BeSiPRu3
_chemical_formula_sum   'Zr3 Be1 Si1 P1 Ru3'
_cell_volume   137.38984755
_cell_formula_units_Z   1
loop_
 _symmetry_equiv_pos_site_id
 _symmetry_equiv_pos_as_xyz
  1  'x, y, z'
loop_
 _atom_site_type_symbol
 _atom_site_label
 _atom_site_symmetry_multiplicity
 _atom_site_fract_x
 _atom_site_fract_y
 _atom_site_fract_z
 _atom_site_occupancy
  Zr  Zr0  1  0.400064  0.402547  0.500000  1
  Zr  Zr1  1  0.597453  0.997516  0.500000  1
  Zr  Zr2  1  0.002484  0.599936  0.500000  1
  Be  Be3  1  0.000000  0.000000  0.500000  1
  Si  Si4  1  0.666667  0.333333  0.000000  1
  P  P5  1  0.333333  0.666667  0.000000  1
  Ru  Ru6  1  0.758866  0.759616  0.000000  1
  Ru  Ru7  1  0.240384  0.999251  0.000000  1
  Ru  Ru8  1  0.000749  0.241134  0.000000  1
