# generated using pymatgen
data_Ho7Er9(AgRh)4
_symmetry_space_group_name_H-M   'P 1'
_cell_length_a   9.44715520
_cell_length_b   9.43885694
_cell_length_c   9.44616621
_cell_angle_alpha   60.43810770
_cell_angle_beta   60.43407160
_cell_angle_gamma   60.41969059
_symmetry_Int_Tables_number   1
_chemical_formula_structural   Ho7Er9(AgRh)4
_chemical_formula_sum   'Ho7 Er9 Ag4 Rh4'
_cell_volume   601.40778292
_cell_formula_units_Z   1
loop_
 _symmetry_equiv_pos_site_id
 _symmetry_equiv_pos_as_xyz
  1  'x, y, z'
loop_
 _atom_site_type_symbol
 _atom_site_label
 _atom_site_symmetry_multiplicity
 _atom_site_fract_x
 _atom_site_fract_y
 _atom_site_fract_z
 _atom_site_occupancy
  Ho  Ho0  1  0.187735  0.188184  0.813114  1
  Ho  Ho1  1  0.435161  0.064525  0.064954  1
  Ho  Ho2  1  0.435456  0.065682  0.434887  1
  Ho  Ho3  1  0.064558  0.435024  0.065089  1
  Ho  Ho4  1  0.647029  0.058738  0.646553  1
  Ho  Ho5  1  0.187736  0.812749  0.813022  1
  Ho  Ho6  1  0.064762  0.064881  0.434916  1
  Er  Er7  1  0.813101  0.187818  0.187736  1
  Er  Er8  1  0.813003  0.813058  0.187700  1
  Er  Er9  1  0.646826  0.646684  0.058747  1
  Er  Er10  1  0.646907  0.646443  0.646518  1
  Er  Er11  1  0.065087  0.435846  0.435220  1
  Er  Er12  1  0.058177  0.647045  0.646735  1
  Er  Er13  1  0.812828  0.187807  0.813194  1
  Er  Er14  1  0.435569  0.435608  0.065262  1
  Er  Er15  1  0.187956  0.812733  0.188278  1
  Ag  Ag16  1  0.417540  0.746339  0.417311  1
  Ag  Ag17  1  0.417469  0.417673  0.746635  1
  Ag  Ag18  1  0.746603  0.417779  0.417365  1
  Ag  Ag19  1  0.417037  0.417755  0.416960  1
  Rh  Rh20  1  0.855300  0.431179  0.855810  1
  Rh  Rh21  1  0.856263  0.855177  0.430518  1
  Rh  Rh22  1  0.431194  0.854793  0.856341  1
  Rh  Rh23  1  0.856702  0.856479  0.857136  1
