# generated using pymatgen
data_Y4VRe2B16Mo
_symmetry_space_group_name_H-M   'P 1'
_cell_length_a   3.58861800
_cell_length_b   6.00401758
_cell_length_c   11.60207200
_cell_angle_alpha   89.87070661
_cell_angle_beta   90.00000000
_cell_angle_gamma   90.00000000
_symmetry_Int_Tables_number   1
_chemical_formula_structural   Y4VRe2B16Mo
_chemical_formula_sum   'Y4 V1 Re2 B16 Mo1'
_cell_volume   249.97906366
_cell_formula_units_Z   1
loop_
 _symmetry_equiv_pos_site_id
 _symmetry_equiv_pos_as_xyz
  1  'x, y, z'
loop_
 _atom_site_type_symbol
 _atom_site_label
 _atom_site_symmetry_multiplicity
 _atom_site_fract_x
 _atom_site_fract_y
 _atom_site_fract_z
 _atom_site_occupancy
  Y  Y0  1  0.000000  0.625678  0.351999  1
  Y  Y1  1  0.000000  0.375419  0.648818  1
  Y  Y2  1  0.000000  0.126666  0.151602  1
  Y  Y3  1  0.000000  0.873320  0.847024  1
  V  V4  1  0.000000  0.872020  0.582618  1
  Re  Re5  1  0.000000  0.369159  0.915309  1
  Re  Re6  1  0.000000  0.126861  0.417124  1
  B  B7  1  0.500000  0.787375  0.187146  1
  B  B8  1  0.500000  0.214771  0.814137  1
  B  B9  1  0.500000  0.284937  0.315896  1
  B  B10  1  0.500000  0.714489  0.684668  1
  B  B11  1  0.500000  0.866668  0.031336  1
  B  B12  1  0.500000  0.135498  0.967474  1
  B  B13  1  0.500000  0.364030  0.467955  1
  B  B14  1  0.500000  0.635598  0.532488  1
  B  B15  1  0.500000  0.886246  0.453414  1
  B  B16  1  0.500000  0.113476  0.547184  1
  B  B17  1  0.500000  0.384602  0.046579  1
  B  B18  1  0.500000  0.613298  0.951492  1
  B  B19  1  0.500000  0.976982  0.308292  1
  B  B20  1  0.500000  0.023509  0.692115  1
  B  B21  1  0.500000  0.474773  0.193853  1
  B  B22  1  0.500000  0.523704  0.806671  1
  Mo  Mo23  1  0.000000  0.630919  0.084806  1
