# generated using pymatgen
data_DyY2Np7O20
_symmetry_space_group_name_H-M   'P 1'
_cell_length_a   6.58210490
_cell_length_b   7.59146208
_cell_length_c   8.49069940
_cell_angle_alpha   102.75245794
_cell_angle_beta   97.33826456
_cell_angle_gamma   106.83942475
_symmetry_Int_Tables_number   1
_chemical_formula_structural   DyY2Np7O20
_chemical_formula_sum   'Dy1 Y2 Np7 O20'
_cell_volume   387.61446640
_cell_formula_units_Z   1
loop_
 _symmetry_equiv_pos_site_id
 _symmetry_equiv_pos_as_xyz
  1  'x, y, z'
loop_
 _atom_site_type_symbol
 _atom_site_label
 _atom_site_symmetry_multiplicity
 _atom_site_fract_x
 _atom_site_fract_y
 _atom_site_fract_z
 _atom_site_occupancy
  Dy  Dy0  1  0.999673  0.999750  0.999773  1
  Y  Y1  1  0.800087  0.600203  0.600222  1
  Y  Y2  1  0.600360  0.200143  0.200139  1
  Np  Np3  1  0.999728  0.499974  0.999988  1
  Np  Np4  1  0.800053  0.099919  0.600244  1
  Np  Np5  1  0.600676  0.700212  0.199876  1
  Np  Np6  1  0.199472  0.398898  0.397995  1
  Np  Np7  1  0.399500  0.298567  0.800664  1
  Np  Np8  1  0.200078  0.901268  0.399101  1
  Np  Np9  1  0.400324  0.800950  0.801834  1
  O  O10  1  0.859167  0.320171  0.454304  1
  O  O11  1  0.643643  0.914248  0.050310  1
  O  O12  1  0.950467  0.768543  0.153240  1
  O  O13  1  0.855999  0.832975  0.447191  1
  O  O14  1  0.440703  0.520810  0.654846  1
  O  O15  1  0.650189  0.431880  0.046467  1
  O  O16  1  0.744206  0.367215  0.753099  1
  O  O17  1  0.245707  0.124114  0.257648  1
  O  O18  1  0.446895  0.026962  0.646909  1
  O  O19  1  0.957438  0.285528  0.149492  1
  O  O20  1  0.547977  0.968576  0.355199  1
  O  O21  1  0.056780  0.718981  0.851952  1
  O  O22  1  0.250662  0.628435  0.246616  1
  O  O23  1  0.741036  0.880122  0.746469  1
  O  O24  1  0.349207  0.571471  0.952955  1
  O  O25  1  0.051677  0.231002  0.845218  1
  O  O26  1  0.543375  0.481624  0.348372  1
  O  O27  1  0.152780  0.172951  0.553081  1
  O  O28  1  0.353173  0.075547  0.942005  1
  O  O29  1  0.158968  0.678960  0.544788  1
