# generated using pymatgen
data_Yb10CdPd3PbAu
_symmetry_space_group_name_H-M   'P 1'
_cell_length_a   8.99099434
_cell_length_b   8.99099321
_cell_length_c   9.02520100
_cell_angle_alpha   128.13687643
_cell_angle_beta   128.13687887
_cell_angle_gamma   76.16538661
_symmetry_Int_Tables_number   1
_chemical_formula_structural   Yb10CdPd3PbAu
_chemical_formula_sum   'Yb10 Cd1 Pd3 Pb1 Au1'
_cell_volume   439.25598436
_cell_formula_units_Z   1
loop_
 _symmetry_equiv_pos_site_id
 _symmetry_equiv_pos_as_xyz
  1  'x, y, z'
loop_
 _atom_site_type_symbol
 _atom_site_label
 _atom_site_symmetry_multiplicity
 _atom_site_fract_x
 _atom_site_fract_y
 _atom_site_fract_z
 _atom_site_occupancy
  Yb  Yb0  1  0.500396  0.502127  0.004146  1
  Yb  Yb1  1  0.997873  0.999604  0.995854  1
  Yb  Yb2  1  0.534052  0.031167  0.837518  1
  Yb  Yb3  1  0.198031  0.692644  0.162619  1
  Yb  Yb4  1  0.027181  0.203193  0.501428  1
  Yb  Yb5  1  0.698221  0.531635  0.498501  1
  Yb  Yb6  1  0.468833  0.965948  0.162482  1
  Yb  Yb7  1  0.807356  0.301969  0.837381  1
  Yb  Yb8  1  0.968365  0.801779  0.501499  1
  Yb  Yb9  1  0.296807  0.472819  0.498572  1
  Cd  Cd10  1  0.750857  0.749143  0.000000  1
  Pd  Pd11  1  0.129668  0.629948  0.759639  1
  Pd  Pd12  1  0.870052  0.370332  0.240361  1
  Pd  Pd13  1  0.630137  0.869863  0.500000  1
  Pb  Pb14  1  0.251006  0.248994  0.000000  1
  Au  Au15  1  0.371166  0.128834  0.500000  1
