# generated using pymatgen
data_ScNbB2SbRu5
_symmetry_space_group_name_H-M   'P 1'
_cell_length_a   9.51858037
_cell_length_b   9.51858071
_cell_length_c   3.07003700
_cell_angle_alpha   90.00000000
_cell_angle_beta   90.00000000
_cell_angle_gamma   89.48691390
_symmetry_Int_Tables_number   1
_chemical_formula_structural   ScNbB2SbRu5
_chemical_formula_sum   'Sc2 Nb2 B4 Sb2 Ru10'
_cell_volume   278.14456197
_cell_formula_units_Z   2
loop_
 _symmetry_equiv_pos_site_id
 _symmetry_equiv_pos_as_xyz
  1  'x, y, z'
loop_
 _atom_site_type_symbol
 _atom_site_label
 _atom_site_symmetry_multiplicity
 _atom_site_fract_x
 _atom_site_fract_y
 _atom_site_fract_z
 _atom_site_occupancy
  Sc  Sc0  1  0.174051  0.174051  0.000000  1
  Sc  Sc1  1  0.825949  0.825949  0.000000  1
  Nb  Nb2  1  0.674419  0.325581  0.000000  1
  Nb  Nb3  1  0.325581  0.674419  0.000000  1
  B  B4  1  0.377764  0.377764  0.000000  1
  B  B5  1  0.622236  0.622236  0.000000  1
  B  B6  1  0.879652  0.120348  0.000000  1
  B  B7  1  0.120348  0.879652  0.000000  1
  Sb  Sb8  1  0.500000  0.000000  0.000000  1
  Sb  Sb9  1  0.000000  0.500000  0.000000  1
  Ru  Ru10  1  0.500000  0.500000  0.500000  1
  Ru  Ru11  1  0.000000  0.000000  0.500000  1
  Ru  Ru12  1  0.437032  0.223209  0.500000  1
  Ru  Ru13  1  0.562968  0.776791  0.500000  1
  Ru  Ru14  1  0.921385  0.282878  0.500000  1
  Ru  Ru15  1  0.078615  0.717122  0.500000  1
  Ru  Ru16  1  0.717122  0.078615  0.500000  1
  Ru  Ru17  1  0.282878  0.921385  0.500000  1
  Ru  Ru18  1  0.776791  0.562968  0.500000  1
  Ru  Ru19  1  0.223209  0.437032  0.500000  1
