# generated using pymatgen
data_Dy4Tm(SiAs)2
_symmetry_space_group_name_H-M   'P 1'
_cell_length_a   8.19262772
_cell_length_b   8.19262744
_cell_length_c   7.62024700
_cell_angle_alpha   90.00000000
_cell_angle_beta   90.00000000
_cell_angle_gamma   124.97400023
_symmetry_Int_Tables_number   1
_chemical_formula_structural   Dy4Tm(SiAs)2
_chemical_formula_sum   'Dy8 Tm2 Si4 As4'
_cell_volume   419.10025131
_cell_formula_units_Z   2
loop_
 _symmetry_equiv_pos_site_id
 _symmetry_equiv_pos_as_xyz
  1  'x, y, z'
loop_
 _atom_site_type_symbol
 _atom_site_label
 _atom_site_symmetry_multiplicity
 _atom_site_fract_x
 _atom_site_fract_y
 _atom_site_fract_z
 _atom_site_occupancy
  Dy  Dy0  1  0.034184  0.305538  0.333527  1
  Dy  Dy1  1  0.965816  0.694462  0.666473  1
  Dy  Dy2  1  0.465816  0.194462  0.833527  1
  Dy  Dy3  1  0.805538  0.534184  0.166473  1
  Dy  Dy4  1  0.534184  0.805538  0.166473  1
  Dy  Dy5  1  0.194462  0.465816  0.833527  1
  Dy  Dy6  1  0.694462  0.965816  0.666473  1
  Dy  Dy7  1  0.305538  0.034184  0.333527  1
  Tm  Tm8  1  0.000000  0.000000  0.000000  1
  Tm  Tm9  1  0.500000  0.500000  0.500000  1
  Si  Si10  1  0.375862  0.375862  0.124816  1
  Si  Si11  1  0.624138  0.624138  0.875184  1
  Si  Si12  1  0.124138  0.124138  0.624816  1
  Si  Si13  1  0.875862  0.875862  0.375184  1
  As  As14  1  0.799787  0.200213  0.000000  1
  As  As15  1  0.200213  0.799787  0.000000  1
  As  As16  1  0.700213  0.299787  0.500000  1
  As  As17  1  0.299787  0.700213  0.500000  1
