# generated using pymatgen
data_Gd5(SiB4)2
_symmetry_space_group_name_H-M   'P 1'
_cell_length_a   7.27942000
_cell_length_b   7.27942000
_cell_length_c   8.23103500
_cell_angle_alpha   90.00000000
_cell_angle_beta   90.00000000
_cell_angle_gamma   90.00000000
_symmetry_Int_Tables_number   1
_chemical_formula_structural   Gd5(SiB4)2
_chemical_formula_sum   'Gd10 Si4 B16'
_cell_volume   436.16217867
_cell_formula_units_Z   2
loop_
 _symmetry_equiv_pos_site_id
 _symmetry_equiv_pos_as_xyz
  1  'x, y, z'
loop_
 _atom_site_type_symbol
 _atom_site_label
 _atom_site_symmetry_multiplicity
 _atom_site_fract_x
 _atom_site_fract_y
 _atom_site_fract_z
 _atom_site_occupancy
  Gd  Gd0  1  0.681043  0.181043  0.224814  1
  Gd  Gd1  1  0.318957  0.818957  0.775186  1
  Gd  Gd2  1  0.318957  0.818957  0.224814  1
  Gd  Gd3  1  0.818957  0.681043  0.224814  1
  Gd  Gd4  1  0.818957  0.681043  0.775186  1
  Gd  Gd5  1  0.681043  0.181043  0.775186  1
  Gd  Gd6  1  0.181043  0.318957  0.775186  1
  Gd  Gd7  1  0.181043  0.318957  0.224814  1
  Gd  Gd8  1  0.000000  0.000000  0.500000  1
  Gd  Gd9  1  0.500000  0.500000  0.500000  1
  Si  Si10  1  0.114136  0.614136  0.500000  1
  Si  Si11  1  0.885864  0.385864  0.500000  1
  Si  Si12  1  0.385864  0.114136  0.500000  1
  Si  Si13  1  0.614136  0.885864  0.500000  1
  B  B14  1  0.172425  0.039322  0.000000  1
  B  B15  1  0.827575  0.960678  0.000000  1
  B  B16  1  0.960678  0.172425  0.000000  1
  B  B17  1  0.327575  0.539322  0.000000  1
  B  B18  1  0.039322  0.827575  0.000000  1
  B  B19  1  0.672425  0.460678  0.000000  1
  B  B20  1  0.539322  0.672425  0.000000  1
  B  B21  1  0.460678  0.327575  0.000000  1
  B  B22  1  0.090589  0.590589  0.000000  1
  B  B23  1  0.909411  0.409411  0.000000  1
  B  B24  1  0.409411  0.090589  0.000000  1
  B  B25  1  0.590589  0.909411  0.000000  1
  B  B26  1  0.000000  0.000000  0.158270  1
  B  B27  1  0.000000  0.000000  0.841730  1
  B  B28  1  0.500000  0.500000  0.841730  1
  B  B29  1  0.500000  0.500000  0.158270  1
