# generated using pymatgen
data_Sr2Li(As3Pd10)2
_symmetry_space_group_name_H-M   'P 1'
_cell_length_a   8.91898784
_cell_length_b   8.91898781
_cell_length_c   8.91898800
_cell_angle_alpha   59.99999931
_cell_angle_beta   59.99999941
_cell_angle_gamma   59.99999950
_symmetry_Int_Tables_number   1
_chemical_formula_structural   Sr2Li(As3Pd10)2
_chemical_formula_sum   'Sr2 Li1 As6 Pd20'
_cell_volume   501.68569556
_cell_formula_units_Z   1
loop_
 _symmetry_equiv_pos_site_id
 _symmetry_equiv_pos_as_xyz
  1  'x, y, z'
loop_
 _atom_site_type_symbol
 _atom_site_label
 _atom_site_symmetry_multiplicity
 _atom_site_fract_x
 _atom_site_fract_y
 _atom_site_fract_z
 _atom_site_occupancy
  Sr  Sr0  1  0.250000  0.250000  0.250000  1
  Sr  Sr1  1  0.750000  0.750000  0.750000  1
  Li  Li2  1  0.000000  0.000000  0.000000  1
  As  As3  1  0.737936  0.262064  0.262064  1
  As  As4  1  0.262064  0.737936  0.737936  1
  As  As5  1  0.262064  0.737936  0.262064  1
  As  As6  1  0.737936  0.262064  0.737936  1
  As  As7  1  0.262064  0.262064  0.737936  1
  As  As8  1  0.737936  0.737936  0.262064  1
  Pd  Pd9  1  0.386478  0.386478  0.386478  1
  Pd  Pd10  1  0.613522  0.613522  0.613522  1
  Pd  Pd11  1  0.386478  0.386478  0.840564  1
  Pd  Pd12  1  0.386478  0.840564  0.386478  1
  Pd  Pd13  1  0.613522  0.613522  0.159436  1
  Pd  Pd14  1  0.613522  0.159436  0.613522  1
  Pd  Pd15  1  0.840564  0.386478  0.386478  1
  Pd  Pd16  1  0.159436  0.613522  0.613522  1
  Pd  Pd17  1  0.347368  0.000000  0.000000  1
  Pd  Pd18  1  0.652632  0.000000  0.000000  1
  Pd  Pd19  1  0.000000  0.347368  0.652632  1
  Pd  Pd20  1  0.000000  0.652632  0.347368  1
  Pd  Pd21  1  0.000000  0.347368  0.000000  1
  Pd  Pd22  1  0.652632  0.000000  0.347368  1
  Pd  Pd23  1  0.000000  0.652632  0.000000  1
  Pd  Pd24  1  0.347368  0.000000  0.652632  1
  Pd  Pd25  1  0.000000  0.000000  0.347368  1
  Pd  Pd26  1  0.000000  0.000000  0.652632  1
  Pd  Pd27  1  0.652632  0.347368  0.000000  1
  Pd  Pd28  1  0.347368  0.652632  0.000000  1
