# generated using pymatgen
data_La4Re3TcF28
_symmetry_space_group_name_H-M   'P 1'
_cell_length_a   5.84260906
_cell_length_b   9.35706668
_cell_length_c   12.55330901
_cell_angle_alpha   62.09070581
_cell_angle_beta   90.00434374
_cell_angle_gamma   90.01545499
_symmetry_Int_Tables_number   1
_chemical_formula_structural   La4Re3TcF28
_chemical_formula_sum   'La4 Re3 Tc1 F28'
_cell_volume   606.46334165
_cell_formula_units_Z   1
loop_
 _symmetry_equiv_pos_site_id
 _symmetry_equiv_pos_as_xyz
  1  'x, y, z'
loop_
 _atom_site_type_symbol
 _atom_site_label
 _atom_site_symmetry_multiplicity
 _atom_site_fract_x
 _atom_site_fract_y
 _atom_site_fract_z
 _atom_site_occupancy
  La  La0  1  0.758304  0.810440  0.265133  1
  La  La1  1  0.258406  0.189597  0.234902  1
  La  La2  1  0.241627  0.189732  0.734774  1
  La  La3  1  0.741268  0.810598  0.764905  1
  Re  Re4  1  0.243858  0.726026  0.543263  1
  Re  Re5  1  0.743878  0.273931  0.956743  1
  Re  Re6  1  0.756138  0.273817  0.456859  1
  Tc  Tc7  1  0.256134  0.725909  0.043304  1
  F  F8  1  0.964731  0.715257  0.456784  1
  F  F9  1  0.464845  0.284413  0.043412  1
  F  F10  1  0.035217  0.284694  0.543346  1
  F  F11  1  0.532908  0.715550  0.956956  1
  F  F12  1  0.057774  0.709388  0.923285  1
  F  F13  1  0.556090  0.291033  0.577574  1
  F  F14  1  0.943857  0.290674  0.077644  1
  F  F15  1  0.444074  0.708964  0.422559  1
  F  F16  1  0.736098  0.513081  0.860631  1
  F  F17  1  0.236072  0.487010  0.639112  1
  F  F18  1  0.263951  0.488699  0.138392  1
  F  F19  1  0.763926  0.512984  0.361142  1
  F  F20  1  0.740757  0.035489  0.050962  1
  F  F21  1  0.240696  0.964485  0.449317  1
  F  F22  1  0.259198  0.962507  0.949856  1
  F  F23  1  0.759344  0.035249  0.550772  1
  F  F24  1  0.047682  0.742582  0.666454  1
  F  F25  1  0.547865  0.257538  0.833407  1
  F  F26  1  0.952154  0.257022  0.333689  1
  F  F27  1  0.450906  0.742611  0.165721  1
  F  F28  1  0.015945  0.268537  0.864410  1
  F  F29  1  0.516062  0.731537  0.635415  1
  F  F30  1  0.986312  0.731741  0.134965  1
  F  F31  1  0.484045  0.268045  0.364742  1
  F  F32  1  0.086401  0.969112  0.232080  1
  F  F33  1  0.586595  0.030973  0.268381  1
  F  F34  1  0.913313  0.031344  0.767832  1
  F  F35  1  0.413569  0.969432  0.731276  1
