# generated using pymatgen
data_TbSc2AuO7
_symmetry_space_group_name_H-M   'P 1'
_cell_length_a   6.26458658
_cell_length_b   6.26458675
_cell_length_c   7.24371000
_cell_angle_alpha   90.00000000
_cell_angle_beta   90.00000000
_cell_angle_gamma   108.93136572
_symmetry_Int_Tables_number   1
_chemical_formula_structural   TbSc2AuO7
_chemical_formula_sum   'Tb2 Sc4 Au2 O14'
_cell_volume   268.90244293
_cell_formula_units_Z   2
loop_
 _symmetry_equiv_pos_site_id
 _symmetry_equiv_pos_as_xyz
  1  'x, y, z'
loop_
 _atom_site_type_symbol
 _atom_site_label
 _atom_site_symmetry_multiplicity
 _atom_site_fract_x
 _atom_site_fract_y
 _atom_site_fract_z
 _atom_site_occupancy
  Tb  Tb0  1  0.500000  0.500000  0.500000  1
  Tb  Tb1  1  0.500000  0.500000  0.000000  1
  Sc  Sc2  1  0.527511  0.000257  0.750000  1
  Sc  Sc3  1  0.000257  0.527511  0.250000  1
  Sc  Sc4  1  0.472489  0.999743  0.250000  1
  Sc  Sc5  1  0.999743  0.472489  0.750000  1
  Au  Au6  1  0.000000  0.000000  0.500000  1
  Au  Au7  1  0.000000  0.000000  0.000000  1
  O  O8  1  0.660224  0.920773  0.474832  1
  O  O9  1  0.920773  0.660224  0.525168  1
  O  O10  1  0.660224  0.920773  0.025168  1
  O  O11  1  0.920773  0.660224  0.974832  1
  O  O12  1  0.339776  0.079227  0.525168  1
  O  O13  1  0.079227  0.339776  0.474832  1
  O  O14  1  0.339776  0.079227  0.974832  1
  O  O15  1  0.079227  0.339776  0.025168  1
  O  O16  1  0.913637  0.086363  0.750000  1
  O  O17  1  0.086363  0.913637  0.250000  1
  O  O18  1  0.357263  0.642737  0.750000  1
  O  O19  1  0.642737  0.357263  0.250000  1
  O  O20  1  0.649644  0.350356  0.750000  1
  O  O21  1  0.350356  0.649644  0.250000  1
