# generated using pymatgen
data_Tm4B12MoOs
_symmetry_space_group_name_H-M   'P 1'
_cell_length_a   3.61178500
_cell_length_b   9.13630293
_cell_length_c   11.51356751
_cell_angle_alpha   89.83108514
_cell_angle_beta   90.00000000
_cell_angle_gamma   90.00000000
_symmetry_Int_Tables_number   1
_chemical_formula_structural   Tm4B12MoOs
_chemical_formula_sum   'Tm8 B24 Mo2 Os2'
_cell_volume   379.92721593
_cell_formula_units_Z   2
loop_
 _symmetry_equiv_pos_site_id
 _symmetry_equiv_pos_as_xyz
  1  'x, y, z'
loop_
 _atom_site_type_symbol
 _atom_site_label
 _atom_site_symmetry_multiplicity
 _atom_site_fract_x
 _atom_site_fract_y
 _atom_site_fract_z
 _atom_site_occupancy
  Tm  Tm0  1  0.000000  0.321729  0.414236  1
  Tm  Tm1  1  0.000000  0.678271  0.585764  1
  Tm  Tm2  1  0.000000  0.821533  0.086111  1
  Tm  Tm3  1  0.000000  0.178467  0.913889  1
  Tm  Tm4  1  0.000000  0.944402  0.371513  1
  Tm  Tm5  1  0.000000  0.055598  0.628488  1
  Tm  Tm6  1  0.000000  0.442548  0.128075  1
  Tm  Tm7  1  0.000000  0.557452  0.871924  1
  B  B8  1  0.500000  0.551574  0.434296  1
  B  B9  1  0.500000  0.448426  0.565704  1
  B  B10  1  0.500000  0.053622  0.066465  1
  B  B11  1  0.500000  0.946378  0.933535  1
  B  B12  1  0.500000  0.750843  0.421548  1
  B  B13  1  0.500000  0.249157  0.578452  1
  B  B14  1  0.500000  0.249122  0.080564  1
  B  B15  1  0.500000  0.750878  0.919436  1
  B  B16  1  0.500000  0.795664  0.263860  1
  B  B17  1  0.500000  0.204336  0.736140  1
  B  B18  1  0.500000  0.291013  0.233878  1
  B  B19  1  0.500000  0.708986  0.766122  1
  B  B20  1  0.500000  0.631819  0.182120  1
  B  B21  1  0.500000  0.368181  0.817880  1
  B  B22  1  0.500000  0.130586  0.313651  1
  B  B23  1  0.500000  0.869414  0.686349  1
  B  B24  1  0.500000  0.982783  0.211762  1
  B  B25  1  0.500000  0.017217  0.788238  1
  B  B26  1  0.500000  0.478056  0.287050  1
  B  B27  1  0.500000  0.521944  0.712950  1
  B  B28  1  0.500000  0.602751  0.027863  1
  B  B29  1  0.500000  0.397249  0.972137  1
  B  B30  1  0.500000  0.103020  0.470470  1
  B  B31  1  0.500000  0.896980  0.529530  1
  Mo  Mo32  1  0.000000  0.639320  0.318893  1
  Mo  Mo33  1  0.000000  0.360680  0.681107  1
  Os  Os34  1  0.000000  0.137763  0.177601  1
  Os  Os35  1  0.000000  0.862237  0.822399  1
