# generated using pymatgen
data_Zr4Sc4Os7Ru
_symmetry_space_group_name_H-M   'P 1'
_cell_length_a   6.46284700
_cell_length_b   4.61285700
_cell_length_c   9.24065000
_cell_angle_alpha   90.00000000
_cell_angle_beta   90.00091363
_cell_angle_gamma   90.00000000
_symmetry_Int_Tables_number   1
_chemical_formula_structural   Zr4Sc4Os7Ru
_chemical_formula_sum   'Zr4 Sc4 Os7 Ru1'
_cell_volume   275.48400449
_cell_formula_units_Z   1
loop_
 _symmetry_equiv_pos_site_id
 _symmetry_equiv_pos_as_xyz
  1  'x, y, z'
loop_
 _atom_site_type_symbol
 _atom_site_label
 _atom_site_symmetry_multiplicity
 _atom_site_fract_x
 _atom_site_fract_y
 _atom_site_fract_z
 _atom_site_occupancy
  Zr  Zr0  1  0.750053  0.250000  0.125063  1
  Zr  Zr1  1  0.249806  0.750000  0.374978  1
  Zr  Zr2  1  0.750302  0.250000  0.624969  1
  Zr  Zr3  1  0.249937  0.750000  0.874980  1
  Sc  Sc4  1  0.249971  0.250000  0.124820  1
  Sc  Sc5  1  0.749812  0.750000  0.375004  1
  Sc  Sc6  1  0.250249  0.250000  0.625151  1
  Sc  Sc7  1  0.749966  0.750000  0.875020  1
  Os  Os8  1  0.500382  0.750000  0.125000  1
  Os  Os9  1  0.999359  0.750000  0.124792  1
  Os  Os10  1  0.499466  0.250000  0.374981  1
  Os  Os11  1  0.000280  0.250000  0.374982  1
  Os  Os12  1  0.999536  0.750000  0.625240  1
  Os  Os13  1  0.500557  0.750000  0.625031  1
  Os  Os14  1  0.000688  0.250000  0.874978  1
  Ru  Ru15  1  0.499635  0.250000  0.875012  1
