# generated using pymatgen
data_Tm4ReOs3Ru4
_symmetry_space_group_name_H-M   'P 1'
_cell_length_a   5.19070679
_cell_length_b   5.37048980
_cell_length_c   8.94479800
_cell_angle_alpha   90.00000000
_cell_angle_beta   90.00000000
_cell_angle_gamma   121.15250641
_symmetry_Int_Tables_number   1
_chemical_formula_structural   Tm4ReOs3Ru4
_chemical_formula_sum   'Tm4 Re1 Os3 Ru4'
_cell_volume   213.39284226
_cell_formula_units_Z   1
loop_
 _symmetry_equiv_pos_site_id
 _symmetry_equiv_pos_as_xyz
  1  'x, y, z'
loop_
 _atom_site_type_symbol
 _atom_site_label
 _atom_site_symmetry_multiplicity
 _atom_site_fract_x
 _atom_site_fract_y
 _atom_site_fract_z
 _atom_site_occupancy
  Tm  Tm0  1  0.330654  0.665328  0.433722  1
  Tm  Tm1  1  0.657826  0.328912  0.565586  1
  Tm  Tm2  1  0.657826  0.328912  0.934414  1
  Tm  Tm3  1  0.330654  0.665328  0.066278  1
  Re  Re4  1  0.681362  0.840681  0.750000  1
  Os  Os5  1  0.832709  0.169370  0.250000  1
  Os  Os6  1  0.832709  0.663338  0.250000  1
  Os  Os7  1  0.347434  0.173717  0.250000  1
  Ru  Ru8  1  0.981540  0.990771  0.500521  1
  Ru  Ru9  1  0.981540  0.990771  0.999479  1
  Ru  Ru10  1  0.182874  0.831380  0.750000  1
  Ru  Ru11  1  0.182874  0.351495  0.750000  1
