# generated using pymatgen
data_DyHo3(CI)2
_symmetry_space_group_name_H-M   'P 1'
_cell_length_a   3.75290800
_cell_length_b   3.75290879
_cell_length_c   14.72313300
_cell_angle_alpha   90.00000000
_cell_angle_beta   90.00000000
_cell_angle_gamma   120.00001067
_symmetry_Int_Tables_number   1
_chemical_formula_structural   DyHo3(CI)2
_chemical_formula_sum   'Dy1 Ho3 C2 I2'
_cell_volume   179.58363079
_cell_formula_units_Z   1
loop_
 _symmetry_equiv_pos_site_id
 _symmetry_equiv_pos_as_xyz
  1  'x, y, z'
loop_
 _atom_site_type_symbol
 _atom_site_label
 _atom_site_symmetry_multiplicity
 _atom_site_fract_x
 _atom_site_fract_y
 _atom_site_fract_z
 _atom_site_occupancy
  Dy  Dy0  1  0.333333  0.666667  0.415421  1
  Ho  Ho1  1  0.333333  0.666667  0.084060  1
  Ho  Ho2  1  0.666667  0.333333  0.586067  1
  Ho  Ho3  1  0.666667  0.333333  0.914674  1
  C  C4  1  0.000000  0.000000  0.999109  1
  C  C5  1  0.000000  0.000000  0.501676  1
  I  I6  1  0.333333  0.666667  0.751161  1
  I  I7  1  0.666667  0.333333  0.247831  1
