# generated using pymatgen
data_Ce3Er5B24MoRu3
_symmetry_space_group_name_H-M   'P 1'
_cell_length_a   3.69913800
_cell_length_b   9.16959096
_cell_length_c   11.55189552
_cell_angle_alpha   89.92253446
_cell_angle_beta   90.00000000
_cell_angle_gamma   90.00000000
_symmetry_Int_Tables_number   1
_chemical_formula_structural   Ce3Er5B24MoRu3
_chemical_formula_sum   'Ce3 Er5 B24 Mo1 Ru3'
_cell_volume   391.83511344
_cell_formula_units_Z   1
loop_
 _symmetry_equiv_pos_site_id
 _symmetry_equiv_pos_as_xyz
  1  'x, y, z'
loop_
 _atom_site_type_symbol
 _atom_site_label
 _atom_site_symmetry_multiplicity
 _atom_site_fract_x
 _atom_site_fract_y
 _atom_site_fract_z
 _atom_site_occupancy
  Ce  Ce0  1  0.000000  0.323465  0.412985  1
  Ce  Ce1  1  0.000000  0.677911  0.584380  1
  Ce  Ce2  1  0.000000  0.820699  0.087852  1
  Er  Er3  1  0.000000  0.178347  0.915547  1
  Er  Er4  1  0.000000  0.945295  0.373186  1
  Er  Er5  1  0.000000  0.057055  0.628447  1
  Er  Er6  1  0.000000  0.444015  0.125390  1
  Er  Er7  1  0.000000  0.555362  0.872070  1
  B  B8  1  0.500000  0.552999  0.432985  1
  B  B9  1  0.500000  0.444744  0.569227  1
  B  B10  1  0.500000  0.054701  0.067144  1
  B  B11  1  0.500000  0.945924  0.932466  1
  B  B12  1  0.500000  0.750164  0.419875  1
  B  B13  1  0.500000  0.251068  0.582283  1
  B  B14  1  0.500000  0.248879  0.079178  1
  B  B15  1  0.500000  0.751108  0.918768  1
  B  B16  1  0.500000  0.793264  0.264623  1
  B  B17  1  0.500000  0.207899  0.735900  1
  B  B18  1  0.500000  0.290668  0.232203  1
  B  B19  1  0.500000  0.709901  0.766063  1
  B  B20  1  0.500000  0.631595  0.183653  1
  B  B21  1  0.500000  0.367168  0.816520  1
  B  B22  1  0.500000  0.131489  0.313980  1
  B  B23  1  0.500000  0.870019  0.685563  1
  B  B24  1  0.500000  0.984225  0.212325  1
  B  B25  1  0.500000  0.017552  0.788028  1
  B  B26  1  0.500000  0.481204  0.285463  1
  B  B27  1  0.500000  0.514591  0.714171  1
  B  B28  1  0.500000  0.605855  0.027419  1
  B  B29  1  0.500000  0.391240  0.969575  1
  B  B30  1  0.500000  0.106204  0.471621  1
  B  B31  1  0.500000  0.896292  0.530401  1
  Mo  Mo32  1  0.000000  0.638481  0.320572  1
  Ru  Ru33  1  0.000000  0.359892  0.680364  1
  Ru  Ru34  1  0.000000  0.138575  0.178856  1
  Ru  Ru35  1  0.000000  0.862146  0.820920  1
