# generated using pymatgen
data_TbScB6W
_symmetry_space_group_name_H-M   'P 1'
_cell_length_a   3.51482800
_cell_length_b   9.18154600
_cell_length_c   11.58269900
_cell_angle_alpha   90.00000000
_cell_angle_beta   90.00000000
_cell_angle_gamma   90.00000000
_symmetry_Int_Tables_number   1
_chemical_formula_structural   TbScB6W
_chemical_formula_sum   'Tb4 Sc4 B24 W4'
_cell_volume   373.79170741
_cell_formula_units_Z   4
loop_
 _symmetry_equiv_pos_site_id
 _symmetry_equiv_pos_as_xyz
  1  'x, y, z'
loop_
 _atom_site_type_symbol
 _atom_site_label
 _atom_site_symmetry_multiplicity
 _atom_site_fract_x
 _atom_site_fract_y
 _atom_site_fract_z
 _atom_site_occupancy
  Tb  Tb0  1  0.500000  0.320294  0.414342  1
  Tb  Tb1  1  0.500000  0.679706  0.585658  1
  Tb  Tb2  1  0.500000  0.179706  0.914342  1
  Tb  Tb3  1  0.500000  0.820294  0.085658  1
  Sc  Sc4  1  0.500000  0.445475  0.127278  1
  Sc  Sc5  1  0.500000  0.554525  0.872722  1
  Sc  Sc6  1  0.500000  0.054525  0.627278  1
  Sc  Sc7  1  0.500000  0.945475  0.372722  1
  B  B8  1  0.000000  0.095067  0.473936  1
  B  B9  1  0.000000  0.904933  0.526064  1
  B  B10  1  0.000000  0.404933  0.973936  1
  B  B11  1  0.000000  0.595067  0.026064  1
  B  B12  1  0.000000  0.128997  0.319354  1
  B  B13  1  0.000000  0.871003  0.680646  1
  B  B14  1  0.000000  0.371003  0.819354  1
  B  B15  1  0.000000  0.628997  0.180646  1
  B  B16  1  0.000000  0.052715  0.065990  1
  B  B17  1  0.000000  0.947285  0.934010  1
  B  B18  1  0.000000  0.447285  0.565990  1
  B  B19  1  0.000000  0.552715  0.434010  1
  B  B20  1  0.000000  0.479134  0.284730  1
  B  B21  1  0.000000  0.520866  0.715270  1
  B  B22  1  0.000000  0.020866  0.784730  1
  B  B23  1  0.000000  0.979134  0.215270  1
  B  B24  1  0.000000  0.257143  0.079717  1
  B  B25  1  0.000000  0.742857  0.920283  1
  B  B26  1  0.000000  0.242857  0.579717  1
  B  B27  1  0.000000  0.757143  0.420283  1
  B  B28  1  0.000000  0.297936  0.235494  1
  B  B29  1  0.000000  0.702064  0.764506  1
  B  B30  1  0.000000  0.202064  0.735494  1
  B  B31  1  0.000000  0.797936  0.264506  1
  W  W32  1  0.500000  0.141781  0.181565  1
  W  W33  1  0.500000  0.858219  0.818435  1
  W  W34  1  0.500000  0.358219  0.681565  1
  W  W35  1  0.500000  0.641781  0.318435  1
