# generated using pymatgen
data_Ba4Cr(IrO5)2
_symmetry_space_group_name_H-M   'P 1'
_cell_length_a   7.31093683
_cell_length_b   7.31093702
_cell_length_c   13.35306200
_cell_angle_alpha   90.00000000
_cell_angle_beta   90.00000000
_cell_angle_gamma   132.89289603
_symmetry_Int_Tables_number   1
_chemical_formula_structural   Ba4Cr(IrO5)2
_chemical_formula_sum   'Ba8 Cr2 Ir4 O20'
_cell_volume   522.88963574
_cell_formula_units_Z   2
loop_
 _symmetry_equiv_pos_site_id
 _symmetry_equiv_pos_as_xyz
  1  'x, y, z'
loop_
 _atom_site_type_symbol
 _atom_site_label
 _atom_site_symmetry_multiplicity
 _atom_site_fract_x
 _atom_site_fract_y
 _atom_site_fract_z
 _atom_site_occupancy
  Ba  Ba0  1  0.488815  0.511185  0.879707  1
  Ba  Ba1  1  0.006507  0.993493  0.117869  1
  Ba  Ba2  1  0.511185  0.488815  0.379707  1
  Ba  Ba3  1  0.993493  0.006507  0.617869  1
  Ba  Ba4  1  0.286367  0.713633  0.638507  1
  Ba  Ba5  1  0.214111  0.785889  0.357391  1
  Ba  Ba6  1  0.713633  0.286367  0.138507  1
  Ba  Ba7  1  0.785889  0.214111  0.857391  1
  Cr  Cr8  1  0.619810  0.380191  0.652880  1
  Cr  Cr9  1  0.380190  0.619810  0.152880  1
  Ir  Ir10  1  0.751998  0.248002  0.498943  1
  Ir  Ir11  1  0.248002  0.751998  0.998943  1
  Ir  Ir12  1  0.871615  0.128385  0.351798  1
  Ir  Ir13  1  0.128385  0.871615  0.851798  1
  O  O14  1  0.784081  0.215919  0.646013  1
  O  O15  1  0.713466  0.286534  0.349015  1
  O  O16  1  0.215919  0.784081  0.146013  1
  O  O17  1  0.286534  0.713466  0.849015  1
  O  O18  1  0.420020  0.134577  0.534867  1
  O  O19  1  0.634482  0.905630  0.466576  1
  O  O20  1  0.134577  0.420020  0.034867  1
  O  O21  1  0.905630  0.634482  0.966576  1
  O  O22  1  0.094370  0.365518  0.466576  1
  O  O23  1  0.865423  0.579980  0.534867  1
  O  O24  1  0.365518  0.094370  0.966576  1
  O  O25  1  0.579980  0.865423  0.034867  1
  O  O26  1  0.476998  0.523002  0.662038  1
  O  O27  1  0.017893  0.982107  0.342859  1
  O  O28  1  0.523002  0.476998  0.162038  1
  O  O29  1  0.982107  0.017893  0.842859  1
  O  O30  1  0.378530  0.108510  0.750050  1
  O  O31  1  0.621470  0.891490  0.250050  1
  O  O32  1  0.108510  0.378530  0.250050  1
  O  O33  1  0.891490  0.621470  0.750050  1
