# generated using pymatgen
data_Lu3Mn8Si6Ni
_symmetry_space_group_name_H-M   'P 1'
_cell_length_a   3.73633100
_cell_length_b   10.98280000
_cell_length_c   12.98826400
_cell_angle_alpha   90.00000000
_cell_angle_beta   90.00000000
_cell_angle_gamma   90.00000000
_symmetry_Int_Tables_number   1
_chemical_formula_structural   Lu3Mn8Si6Ni
_chemical_formula_sum   'Lu6 Mn16 Si12 Ni2'
_cell_volume   532.97829821
_cell_formula_units_Z   2
loop_
 _symmetry_equiv_pos_site_id
 _symmetry_equiv_pos_as_xyz
  1  'x, y, z'
loop_
 _atom_site_type_symbol
 _atom_site_label
 _atom_site_symmetry_multiplicity
 _atom_site_fract_x
 _atom_site_fract_y
 _atom_site_fract_z
 _atom_site_occupancy
  Lu  Lu0  1  0.000000  0.500000  0.530739  1
  Lu  Lu1  1  0.500000  0.000000  0.469261  1
  Lu  Lu2  1  0.500000  0.820658  0.206307  1
  Lu  Lu3  1  0.500000  0.179342  0.206307  1
  Lu  Lu4  1  0.000000  0.679342  0.793693  1
  Lu  Lu5  1  0.000000  0.320658  0.793693  1
  Mn  Mn6  1  0.000000  0.500000  0.988382  1
  Mn  Mn7  1  0.500000  0.000000  0.011618  1
  Mn  Mn8  1  0.500000  0.298624  0.433755  1
  Mn  Mn9  1  0.500000  0.701376  0.433755  1
  Mn  Mn10  1  0.000000  0.201376  0.566245  1
  Mn  Mn11  1  0.000000  0.798624  0.566245  1
  Mn  Mn12  1  0.500000  0.883091  0.700668  1
  Mn  Mn13  1  0.500000  0.116909  0.700668  1
  Mn  Mn14  1  0.000000  0.616909  0.299332  1
  Mn  Mn15  1  0.000000  0.383091  0.299332  1
  Mn  Mn16  1  0.500000  0.331686  0.996092  1
  Mn  Mn17  1  0.500000  0.668314  0.996092  1
  Mn  Mn18  1  0.000000  0.168314  0.003908  1
  Mn  Mn19  1  0.000000  0.831686  0.003908  1
  Mn  Mn20  1  0.500000  0.500000  0.162607  1
  Mn  Mn21  1  0.000000  0.000000  0.837393  1
  Si  Si22  1  0.500000  0.315731  0.618778  1
  Si  Si23  1  0.500000  0.684269  0.618778  1
  Si  Si24  1  0.000000  0.184269  0.381222  1
  Si  Si25  1  0.000000  0.815731  0.381222  1
  Si  Si26  1  0.500000  0.500000  0.878639  1
  Si  Si27  1  0.000000  0.000000  0.121361  1
  Si  Si28  1  0.500000  0.847923  0.883719  1
  Si  Si29  1  0.500000  0.152077  0.883719  1
  Si  Si30  1  0.000000  0.652077  0.116281  1
  Si  Si31  1  0.000000  0.347923  0.116281  1
  Si  Si32  1  0.500000  0.500000  0.357536  1
  Si  Si33  1  0.000000  0.000000  0.642464  1
  Ni  Ni34  1  0.500000  0.500000  0.703495  1
  Ni  Ni35  1  0.000000  0.000000  0.296505  1
