# generated using pymatgen
data_K(Nb2Cl5)3
_symmetry_space_group_name_H-M   'P 1'
_cell_length_a   9.48283800
_cell_length_b   13.70425500
_cell_length_c   18.20218900
_cell_angle_alpha   90.00000000
_cell_angle_beta   90.00000000
_cell_angle_gamma   90.00000000
_symmetry_Int_Tables_number   1
_chemical_formula_structural   K(Nb2Cl5)3
_chemical_formula_sum   'K4 Nb24 Cl60'
_cell_volume   2365.46965938
_cell_formula_units_Z   4
loop_
 _symmetry_equiv_pos_site_id
 _symmetry_equiv_pos_as_xyz
  1  'x, y, z'
loop_
 _atom_site_type_symbol
 _atom_site_label
 _atom_site_symmetry_multiplicity
 _atom_site_fract_x
 _atom_site_fract_y
 _atom_site_fract_z
 _atom_site_occupancy
  K  K0  1  0.817497  0.255183  0.750000  1
  K  K1  1  0.182503  0.744817  0.250000  1
  K  K2  1  0.817497  0.744817  0.750000  1
  K  K3  1  0.182503  0.255183  0.250000  1
  Nb  Nb4  1  0.078871  0.500000  0.105225  1
  Nb  Nb5  1  0.921129  0.500000  0.894775  1
  Nb  Nb6  1  0.078871  0.500000  0.394775  1
  Nb  Nb7  1  0.921129  0.500000  0.605225  1
  Nb  Nb8  1  0.145789  0.392058  0.529063  1
  Nb  Nb9  1  0.854211  0.607942  0.470937  1
  Nb  Nb10  1  0.145789  0.607942  0.970937  1
  Nb  Nb11  1  0.854211  0.392058  0.470937  1
  Nb  Nb12  1  0.854211  0.392058  0.029063  1
  Nb  Nb13  1  0.145789  0.607942  0.529063  1
  Nb  Nb14  1  0.854211  0.607942  0.029063  1
  Nb  Nb15  1  0.145789  0.392058  0.970937  1
  Nb  Nb16  1  0.333081  0.108388  0.668523  1
  Nb  Nb17  1  0.666919  0.891612  0.331477  1
  Nb  Nb18  1  0.333081  0.891612  0.831477  1
  Nb  Nb19  1  0.666919  0.108388  0.331477  1
  Nb  Nb20  1  0.666919  0.108388  0.168523  1
  Nb  Nb21  1  0.333081  0.891612  0.668523  1
  Nb  Nb22  1  0.666919  0.891612  0.168523  1
  Nb  Nb23  1  0.333081  0.108388  0.831477  1
  Nb  Nb24  1  0.549098  0.000000  0.750000  1
  Nb  Nb25  1  0.450902  0.000000  0.250000  1
  Nb  Nb26  1  0.118884  0.000000  0.750000  1
  Nb  Nb27  1  0.881116  0.000000  0.250000  1
  Cl  Cl28  1  0.332213  0.250300  0.565300  1
  Cl  Cl29  1  0.667787  0.749700  0.434700  1
  Cl  Cl30  1  0.332213  0.749700  0.934700  1
  Cl  Cl31  1  0.667787  0.250300  0.434700  1
  Cl  Cl32  1  0.667787  0.250300  0.065301  1
  Cl  Cl33  1  0.332213  0.749700  0.565300  1
  Cl  Cl34  1  0.667787  0.749700  0.065301  1
  Cl  Cl35  1  0.332213  0.250300  0.934700  1
  Cl  Cl36  1  0.078460  0.376525  0.659187  1
  Cl  Cl37  1  0.921540  0.623475  0.340813  1
  Cl  Cl38  1  0.078460  0.623475  0.840813  1
  Cl  Cl39  1  0.921540  0.376525  0.340813  1
  Cl  Cl40  1  0.921540  0.376525  0.159187  1
  Cl  Cl41  1  0.078460  0.623475  0.659187  1
  Cl  Cl42  1  0.921540  0.623475  0.159187  1
  Cl  Cl43  1  0.078460  0.376525  0.840813  1
  Cl  Cl44  1  0.592218  0.124168  0.652420  1
  Cl  Cl45  1  0.407782  0.875832  0.347580  1
  Cl  Cl46  1  0.592218  0.875832  0.847580  1
  Cl  Cl47  1  0.407782  0.124168  0.347580  1
  Cl  Cl48  1  0.407782  0.124168  0.152420  1
  Cl  Cl49  1  0.592218  0.875832  0.652420  1
  Cl  Cl50  1  0.407782  0.875832  0.152420  1
  Cl  Cl51  1  0.592218  0.124168  0.847580  1
  Cl  Cl52  1  0.340172  0.500000  0.568895  1
  Cl  Cl53  1  0.659828  0.500000  0.431105  1
  Cl  Cl54  1  0.340172  0.500000  0.931105  1
  Cl  Cl55  1  0.659828  0.500000  0.068895  1
  Cl  Cl56  1  0.344413  0.252345  0.750000  1
  Cl  Cl57  1  0.655587  0.747655  0.250000  1
  Cl  Cl58  1  0.344413  0.747655  0.750000  1
  Cl  Cl59  1  0.655587  0.252345  0.250000  1
  Cl  Cl60  1  0.330400  0.000000  0.559989  1
  Cl  Cl61  1  0.669600  0.000000  0.440011  1
  Cl  Cl62  1  0.330400  0.000000  0.940011  1
  Cl  Cl63  1  0.669600  0.000000  0.059989  1
  Cl  Cl64  1  0.814215  0.500000  0.750000  1
  Cl  Cl65  1  0.185785  0.500000  0.250000  1
  Cl  Cl66  1  0.832765  0.000000  0.750000  1
  Cl  Cl67  1  0.167235  0.000000  0.250000  1
  Cl  Cl68  1  0.266479  0.374424  0.092042  1
  Cl  Cl69  1  0.733521  0.625576  0.907958  1
  Cl  Cl70  1  0.266479  0.625576  0.407958  1
  Cl  Cl71  1  0.733521  0.374424  0.907958  1
  Cl  Cl72  1  0.733521  0.374424  0.592042  1
  Cl  Cl73  1  0.266479  0.625576  0.092042  1
  Cl  Cl74  1  0.733521  0.625576  0.592042  1
  Cl  Cl75  1  0.266479  0.374424  0.407958  1
  Cl  Cl76  1  0.074709  0.123814  0.654457  1
  Cl  Cl77  1  0.925291  0.876186  0.345543  1
  Cl  Cl78  1  0.074709  0.876186  0.845543  1
  Cl  Cl79  1  0.925291  0.123814  0.345543  1
  Cl  Cl80  1  0.925291  0.123814  0.154457  1
  Cl  Cl81  1  0.074709  0.876186  0.654457  1
  Cl  Cl82  1  0.925291  0.876186  0.154457  1
  Cl  Cl83  1  0.074709  0.123814  0.845543  1
  Cl  Cl84  1  0.000000  0.248491  0.500000  1
  Cl  Cl85  1  0.000000  0.751509  0.500000  1
  Cl  Cl86  1  0.000000  0.751509  0.000000  1
  Cl  Cl87  1  0.000000  0.248491  0.000000  1
