# generated using pymatgen
data_Ho6Sn(P3Rh5)4
_symmetry_space_group_name_H-M   'P 1'
_cell_length_a   13.47440400
_cell_length_b   13.47440199
_cell_length_c   3.91061800
_cell_angle_alpha   90.00000000
_cell_angle_beta   90.00000000
_cell_angle_gamma   119.99999511
_symmetry_Int_Tables_number   1
_chemical_formula_structural   Ho6Sn(P3Rh5)4
_chemical_formula_sum   'Ho6 Sn1 P12 Rh20'
_cell_volume   614.88671848
_cell_formula_units_Z   1
loop_
 _symmetry_equiv_pos_site_id
 _symmetry_equiv_pos_as_xyz
  1  'x, y, z'
loop_
 _atom_site_type_symbol
 _atom_site_label
 _atom_site_symmetry_multiplicity
 _atom_site_fract_x
 _atom_site_fract_y
 _atom_site_fract_z
 _atom_site_occupancy
  Ho  Ho0  1  0.529268  0.716910  0.251133  1
  Ho  Ho1  1  0.283090  0.812358  0.251133  1
  Ho  Ho2  1  0.187642  0.470732  0.251133  1
  Ho  Ho3  1  0.470732  0.283090  0.748867  1
  Ho  Ho4  1  0.716910  0.187642  0.748867  1
  Ho  Ho5  1  0.812358  0.529268  0.748867  1
  Sn  Sn6  1  0.000000  0.000000  0.000000  1
  P  P7  1  0.527989  0.139080  0.249519  1
  P  P8  1  0.860920  0.388912  0.249519  1
  P  P9  1  0.611088  0.472011  0.249519  1
  P  P10  1  0.946579  0.714279  0.246255  1
  P  P11  1  0.285721  0.232300  0.246255  1
  P  P12  1  0.767700  0.053421  0.246255  1
  P  P13  1  0.388912  0.527989  0.750481  1
  P  P14  1  0.472011  0.860920  0.750481  1
  P  P15  1  0.139080  0.611088  0.750481  1
  P  P16  1  0.714279  0.767700  0.753745  1
  P  P17  1  0.232300  0.946579  0.753745  1
  P  P18  1  0.053421  0.285721  0.753745  1
  Rh  Rh19  1  0.333333  0.666667  0.752861  1
  Rh  Rh20  1  0.918445  0.253487  0.243992  1
  Rh  Rh21  1  0.746513  0.664958  0.243992  1
  Rh  Rh22  1  0.335042  0.081555  0.243992  1
  Rh  Rh23  1  0.441140  0.024305  0.748877  1
  Rh  Rh24  1  0.975695  0.416836  0.748877  1
  Rh  Rh25  1  0.583164  0.558860  0.748877  1
  Rh  Rh26  1  0.666667  0.333333  0.247139  1
  Rh  Rh27  1  0.099690  0.206631  0.264452  1
  Rh  Rh28  1  0.793369  0.893060  0.264452  1
  Rh  Rh29  1  0.106940  0.900310  0.264452  1
  Rh  Rh30  1  0.024305  0.583164  0.251123  1
  Rh  Rh31  1  0.416836  0.441140  0.251123  1
  Rh  Rh32  1  0.558860  0.975695  0.251123  1
  Rh  Rh33  1  0.664958  0.918445  0.756008  1
  Rh  Rh34  1  0.081555  0.746513  0.756008  1
  Rh  Rh35  1  0.253487  0.335042  0.756008  1
  Rh  Rh36  1  0.900310  0.793369  0.735548  1
  Rh  Rh37  1  0.206631  0.106940  0.735548  1
  Rh  Rh38  1  0.893060  0.099690  0.735548  1
