# generated using pymatgen
data_Er5FeSb2
_symmetry_space_group_name_H-M   'P 1'
_cell_length_a   7.78800200
_cell_length_b   8.76176600
_cell_length_c   12.11016100
_cell_angle_alpha   90.00000000
_cell_angle_beta   90.00000000
_cell_angle_gamma   90.00000000
_symmetry_Int_Tables_number   1
_chemical_formula_structural   Er5FeSb2
_chemical_formula_sum   'Er20 Fe4 Sb8'
_cell_volume   826.35683130
_cell_formula_units_Z   4
loop_
 _symmetry_equiv_pos_site_id
 _symmetry_equiv_pos_as_xyz
  1  'x, y, z'
loop_
 _atom_site_type_symbol
 _atom_site_label
 _atom_site_symmetry_multiplicity
 _atom_site_fract_x
 _atom_site_fract_y
 _atom_site_fract_z
 _atom_site_occupancy
  Er  Er0  1  0.157990  0.750000  0.205402  1
  Er  Er1  1  0.657990  0.250000  0.294598  1
  Er  Er2  1  0.842010  0.250000  0.794598  1
  Er  Er3  1  0.342010  0.750000  0.705402  1
  Er  Er4  1  0.448460  0.750000  0.996203  1
  Er  Er5  1  0.948460  0.250000  0.503797  1
  Er  Er6  1  0.551540  0.250000  0.003797  1
  Er  Er7  1  0.051540  0.750000  0.496203  1
  Er  Er8  1  0.623161  0.750000  0.308567  1
  Er  Er9  1  0.123161  0.250000  0.191433  1
  Er  Er10  1  0.376839  0.250000  0.691433  1
  Er  Er11  1  0.876839  0.750000  0.808567  1
  Er  Er12  1  0.825219  0.963995  0.064339  1
  Er  Er13  1  0.325219  0.036005  0.435661  1
  Er  Er14  1  0.174781  0.463995  0.935661  1
  Er  Er15  1  0.674781  0.536005  0.564339  1
  Er  Er16  1  0.174781  0.036005  0.935661  1
  Er  Er17  1  0.674781  0.963995  0.564339  1
  Er  Er18  1  0.825219  0.536005  0.064339  1
  Er  Er19  1  0.325219  0.463995  0.435661  1
  Fe  Fe20  1  0.427487  0.750000  0.489283  1
  Fe  Fe21  1  0.927487  0.250000  0.010717  1
  Fe  Fe22  1  0.572513  0.250000  0.510717  1
  Fe  Fe23  1  0.072513  0.750000  0.989283  1
  Sb  Sb24  1  0.931115  0.992570  0.327925  1
  Sb  Sb25  1  0.431115  0.007430  0.172075  1
  Sb  Sb26  1  0.068885  0.492570  0.672075  1
  Sb  Sb27  1  0.568885  0.507430  0.827925  1
  Sb  Sb28  1  0.068885  0.007430  0.672075  1
  Sb  Sb29  1  0.568885  0.992570  0.827925  1
  Sb  Sb30  1  0.931115  0.507430  0.327925  1
  Sb  Sb31  1  0.431115  0.492570  0.172075  1
