# generated using pymatgen
data_Hf4Mn2ZnSi4Pt
_symmetry_space_group_name_H-M   'P 1'
_cell_length_a   3.83389500
_cell_length_b   6.50964836
_cell_length_c   7.58390647
_cell_angle_alpha   89.12501826
_cell_angle_beta   90.00000000
_cell_angle_gamma   90.00000000
_symmetry_Int_Tables_number   1
_chemical_formula_structural   Hf4Mn2ZnSi4Pt
_chemical_formula_sum   'Hf4 Mn2 Zn1 Si4 Pt1'
_cell_volume   189.25182185
_cell_formula_units_Z   1
loop_
 _symmetry_equiv_pos_site_id
 _symmetry_equiv_pos_as_xyz
  1  'x, y, z'
loop_
 _atom_site_type_symbol
 _atom_site_label
 _atom_site_symmetry_multiplicity
 _atom_site_fract_x
 _atom_site_fract_y
 _atom_site_fract_z
 _atom_site_occupancy
  Hf  Hf0  1  0.250000  0.973535  0.315915  1
  Hf  Hf1  1  0.250000  0.468116  0.171835  1
  Hf  Hf2  1  0.750000  0.026027  0.683014  1
  Hf  Hf3  1  0.750000  0.524206  0.831084  1
  Mn  Mn4  1  0.250000  0.860028  0.939704  1
  Mn  Mn5  1  0.750000  0.143132  0.060371  1
  Zn  Zn6  1  0.750000  0.651182  0.436835  1
  Si  Si7  1  0.250000  0.740264  0.639074  1
  Si  Si8  1  0.250000  0.224254  0.883070  1
  Si  Si9  1  0.750000  0.253850  0.365885  1
  Si  Si10  1  0.750000  0.774499  0.113048  1
  Pt  Pt11  1  0.250000  0.360908  0.560163  1
