# generated using pymatgen
data_LiLu16Tl3Rh4
_symmetry_space_group_name_H-M   'P 1'
_cell_length_a   9.48795209
_cell_length_b   9.48822814
_cell_length_c   9.48829947
_cell_angle_alpha   59.67525180
_cell_angle_beta   59.67469839
_cell_angle_gamma   59.67732249
_symmetry_Int_Tables_number   1
_chemical_formula_structural   LiLu16Tl3Rh4
_chemical_formula_sum   'Li1 Lu16 Tl3 Rh4'
_cell_volume   599.54257965
_cell_formula_units_Z   1
loop_
 _symmetry_equiv_pos_site_id
 _symmetry_equiv_pos_as_xyz
  1  'x, y, z'
loop_
 _atom_site_type_symbol
 _atom_site_label
 _atom_site_symmetry_multiplicity
 _atom_site_fract_x
 _atom_site_fract_y
 _atom_site_fract_z
 _atom_site_occupancy
  Li  Li0  1  0.822531  0.822502  0.822360  1
  Lu  Lu1  1  0.599179  0.599187  0.599190  1
  Lu  Lu2  1  0.599417  0.599442  0.203071  1
  Lu  Lu3  1  0.599372  0.203085  0.599513  1
  Lu  Lu4  1  0.203099  0.599379  0.599505  1
  Lu  Lu5  1  0.061090  0.439326  0.439568  1
  Lu  Lu6  1  0.437312  0.063598  0.063668  1
  Lu  Lu7  1  0.439317  0.061094  0.439545  1
  Lu  Lu8  1  0.063619  0.437314  0.063653  1
  Lu  Lu9  1  0.439470  0.439457  0.061118  1
  Lu  Lu10  1  0.063754  0.063727  0.437382  1
  Lu  Lu11  1  0.185493  0.813076  0.813055  1
  Lu  Lu12  1  0.811899  0.188204  0.188066  1
  Lu  Lu13  1  0.813072  0.185465  0.813091  1
  Lu  Lu14  1  0.188172  0.811903  0.188098  1
  Lu  Lu15  1  0.812917  0.812958  0.185445  1
  Lu  Lu16  1  0.188039  0.188107  0.812024  1
  Tl  Tl17  1  0.836670  0.836666  0.496656  1
  Tl  Tl18  1  0.836194  0.497263  0.836334  1
  Tl  Tl19  1  0.497260  0.836189  0.836333  1
  Rh  Rh20  1  0.392968  0.392934  0.392964  1
  Rh  Rh21  1  0.392937  0.392898  0.823367  1
  Rh  Rh22  1  0.393027  0.823205  0.392976  1
  Rh  Rh23  1  0.823195  0.393023  0.393019  1
