# generated using pymatgen
data_BeNb2CoB4
_symmetry_space_group_name_H-M   'P 1'
_cell_length_a   3.07515500
_cell_length_b   6.00905000
_cell_length_c   8.10392500
_cell_angle_alpha   90.00000000
_cell_angle_beta   90.00000000
_cell_angle_gamma   90.00000000
_symmetry_Int_Tables_number   1
_chemical_formula_structural   BeNb2CoB4
_chemical_formula_sum   'Be2 Nb4 Co2 B8'
_cell_volume   149.75048637
_cell_formula_units_Z   2
loop_
 _symmetry_equiv_pos_site_id
 _symmetry_equiv_pos_as_xyz
  1  'x, y, z'
loop_
 _atom_site_type_symbol
 _atom_site_label
 _atom_site_symmetry_multiplicity
 _atom_site_fract_x
 _atom_site_fract_y
 _atom_site_fract_z
 _atom_site_occupancy
  Be  Be0  1  0.750000  0.505689  0.893814  1
  Be  Be1  1  0.750000  0.005689  0.606186  1
  Nb  Nb2  1  0.250000  0.137949  0.864166  1
  Nb  Nb3  1  0.750000  0.864898  0.134485  1
  Nb  Nb4  1  0.250000  0.637949  0.635834  1
  Nb  Nb5  1  0.750000  0.364898  0.365515  1
  Co  Co6  1  0.250000  0.495112  0.103112  1
  Co  Co7  1  0.250000  0.995112  0.396888  1
  B  B8  1  0.250000  0.171399  0.170922  1
  B  B9  1  0.750000  0.828249  0.827883  1
  B  B10  1  0.250000  0.671399  0.329078  1
  B  B11  1  0.750000  0.328249  0.672117  1
  B  B12  1  0.250000  0.237721  0.579780  1
  B  B13  1  0.750000  0.258982  0.075985  1
  B  B14  1  0.250000  0.737721  0.920220  1
  B  B15  1  0.750000  0.758982  0.424015  1
