# generated using pymatgen
data_Tb2Sm4YFeI12
_symmetry_space_group_name_H-M   'P 1'
_cell_length_a   9.78621511
_cell_length_b   9.87277312
_cell_length_c   9.88187870
_cell_angle_alpha   106.90828155
_cell_angle_beta   107.13847428
_cell_angle_gamma   106.77623915
_symmetry_Int_Tables_number   1
_chemical_formula_structural   Tb2Sm4YFeI12
_chemical_formula_sum   'Tb2 Sm4 Y1 Fe1 I12'
_cell_volume   796.40181537
_cell_formula_units_Z   1
loop_
 _symmetry_equiv_pos_site_id
 _symmetry_equiv_pos_as_xyz
  1  'x, y, z'
loop_
 _atom_site_type_symbol
 _atom_site_label
 _atom_site_symmetry_multiplicity
 _atom_site_fract_x
 _atom_site_fract_y
 _atom_site_fract_z
 _atom_site_occupancy
  Tb  Tb0  1  0.906636  0.707943  0.977739  1
  Tb  Tb1  1  0.021836  0.092603  0.292070  1
  Sm  Sm2  1  0.716015  0.978072  0.909800  1
  Sm  Sm3  1  0.977457  0.904287  0.702846  1
  Sm  Sm4  1  0.094727  0.297056  0.022969  1
  Sm  Sm5  1  0.283867  0.021870  0.091867  1
  Y  Y6  1  0.499887  0.499749  0.500475  1
  Fe  Fe7  1  0.000090  0.000032  0.999906  1
  I  I8  1  0.072000  0.226445  0.676893  1
  I  I9  1  0.385861  0.163785  0.464875  1
  I  I10  1  0.610296  0.835306  0.534628  1
  I  I11  1  0.224840  0.679285  0.071799  1
  I  I12  1  0.771478  0.322291  0.927533  1
  I  I13  1  0.682375  0.072319  0.228100  1
  I  I14  1  0.536986  0.612272  0.836792  1
  I  I15  1  0.837789  0.534317  0.615459  1
  I  I16  1  0.927809  0.774095  0.317568  1
  I  I17  1  0.321950  0.928356  0.774918  1
  I  I18  1  0.467249  0.387911  0.165660  1
  I  I19  1  0.160854  0.462006  0.388102  1
