# generated using pymatgen
data_Tb2Y2MnV(CoB8)2
_symmetry_space_group_name_H-M   'P 1'
_cell_length_a   3.42800000
_cell_length_b   5.92808150
_cell_length_c   11.47636262
_cell_angle_alpha   90.18768987
_cell_angle_beta   90.00000000
_cell_angle_gamma   90.00000000
_symmetry_Int_Tables_number   1
_chemical_formula_structural   Tb2Y2MnV(CoB8)2
_chemical_formula_sum   'Tb2 Y2 Mn1 V1 Co2 B16'
_cell_volume   233.21523125
_cell_formula_units_Z   1
loop_
 _symmetry_equiv_pos_site_id
 _symmetry_equiv_pos_as_xyz
  1  'x, y, z'
loop_
 _atom_site_type_symbol
 _atom_site_label
 _atom_site_symmetry_multiplicity
 _atom_site_fract_x
 _atom_site_fract_y
 _atom_site_fract_z
 _atom_site_occupancy
  Tb  Tb0  1  0.500000  0.372149  0.149620  1
  Tb  Tb1  1  0.500000  0.627033  0.851697  1
  Y  Y2  1  0.500000  0.125811  0.651657  1
  Y  Y3  1  0.500000  0.876014  0.347925  1
  Mn  Mn4  1  0.500000  0.377385  0.417631  1
  V  V5  1  0.500000  0.623957  0.581353  1
  Co  Co6  1  0.500000  0.134360  0.912481  1
  Co  Co7  1  0.500000  0.864260  0.089603  1
  B  B8  1  0.000000  0.111274  0.046202  1
  B  B9  1  0.000000  0.888780  0.954491  1
  B  B10  1  0.000000  0.384000  0.543980  1
  B  B11  1  0.000000  0.610213  0.451329  1
  B  B12  1  0.000000  0.138240  0.465825  1
  B  B13  1  0.000000  0.865219  0.531204  1
  B  B14  1  0.000000  0.360256  0.967854  1
  B  B15  1  0.000000  0.639561  0.032439  1
  B  B16  1  0.000000  0.023180  0.189990  1
  B  B17  1  0.000000  0.977751  0.810534  1
  B  B18  1  0.000000  0.473375  0.692321  1
  B  B19  1  0.000000  0.522809  0.308347  1
  B  B20  1  0.000000  0.219417  0.316376  1
  B  B21  1  0.000000  0.785431  0.686513  1
  B  B22  1  0.000000  0.280630  0.817083  1
  B  B23  1  0.000000  0.718895  0.183545  1
