# generated using pymatgen
data_Er4TcB12Ir
_symmetry_space_group_name_H-M   'P 1'
_cell_length_a   3.64738500
_cell_length_b   9.11270353
_cell_length_c   11.49018095
_cell_angle_alpha   89.74164946
_cell_angle_beta   90.00000000
_cell_angle_gamma   90.00000000
_symmetry_Int_Tables_number   1
_chemical_formula_structural   Er4TcB12Ir
_chemical_formula_sum   'Er8 Tc2 B24 Ir2'
_cell_volume   381.90144562
_cell_formula_units_Z   2
loop_
 _symmetry_equiv_pos_site_id
 _symmetry_equiv_pos_as_xyz
  1  'x, y, z'
loop_
 _atom_site_type_symbol
 _atom_site_label
 _atom_site_symmetry_multiplicity
 _atom_site_fract_x
 _atom_site_fract_y
 _atom_site_fract_z
 _atom_site_occupancy
  Er  Er0  1  0.000000  0.325963  0.417698  1
  Er  Er1  1  0.000000  0.674037  0.582302  1
  Er  Er2  1  0.000000  0.816886  0.089411  1
  Er  Er3  1  0.000000  0.183114  0.910589  1
  Er  Er4  1  0.000000  0.940957  0.373874  1
  Er  Er5  1  0.000000  0.059043  0.626126  1
  Er  Er6  1  0.000000  0.446744  0.128292  1
  Er  Er7  1  0.000000  0.553256  0.871708  1
  Tc  Tc8  1  0.000000  0.638583  0.319827  1
  Tc  Tc9  1  0.000000  0.361417  0.680173  1
  B  B10  1  0.500000  0.553541  0.433139  1
  B  B11  1  0.500000  0.446459  0.566861  1
  B  B12  1  0.500000  0.054277  0.065899  1
  B  B13  1  0.500000  0.945723  0.934101  1
  B  B14  1  0.500000  0.748071  0.419522  1
  B  B15  1  0.500000  0.251929  0.580478  1
  B  B16  1  0.500000  0.250115  0.078917  1
  B  B17  1  0.500000  0.749885  0.921083  1
  B  B18  1  0.500000  0.792285  0.265214  1
  B  B19  1  0.500000  0.207715  0.734786  1
  B  B20  1  0.500000  0.291253  0.234636  1
  B  B21  1  0.500000  0.708747  0.765364  1
  B  B22  1  0.500000  0.631488  0.184770  1
  B  B23  1  0.500000  0.368512  0.815230  1
  B  B24  1  0.500000  0.131133  0.316392  1
  B  B25  1  0.500000  0.868867  0.683608  1
  B  B26  1  0.500000  0.981870  0.212538  1
  B  B27  1  0.500000  0.018130  0.787462  1
  B  B28  1  0.500000  0.482617  0.287254  1
  B  B29  1  0.500000  0.517383  0.712746  1
  B  B30  1  0.500000  0.606565  0.028731  1
  B  B31  1  0.500000  0.393435  0.971269  1
  B  B32  1  0.500000  0.106114  0.470263  1
  B  B33  1  0.500000  0.893886  0.529737  1
  Ir  Ir34  1  0.000000  0.137027  0.177923  1
  Ir  Ir35  1  0.000000  0.862973  0.822077  1
