# generated using pymatgen
data_Na2Cu3P4(O3F)4
_symmetry_space_group_name_H-M   'P 1'
_cell_length_a   9.61414800
_cell_length_b   7.86967100
_cell_length_c   9.37608890
_cell_angle_alpha   84.60750628
_cell_angle_beta   90.00000000
_cell_angle_gamma   90.00000000
_symmetry_Int_Tables_number   1
_chemical_formula_structural   Na2Cu3P4(O3F)4
_chemical_formula_sum   'Na4 Cu6 P8 O24 F8'
_cell_volume   706.25700253
_cell_formula_units_Z   2
loop_
 _symmetry_equiv_pos_site_id
 _symmetry_equiv_pos_as_xyz
  1  'x, y, z'
loop_
 _atom_site_type_symbol
 _atom_site_label
 _atom_site_symmetry_multiplicity
 _atom_site_fract_x
 _atom_site_fract_y
 _atom_site_fract_z
 _atom_site_occupancy
  Na  Na0  1  0.498523  0.244141  0.184070  1
  Na  Na1  1  0.998523  0.755859  0.315930  1
  Na  Na2  1  0.501477  0.755859  0.815930  1
  Na  Na3  1  0.001477  0.244141  0.684070  1
  Cu  Cu4  1  0.648529  0.884176  0.184933  1
  Cu  Cu5  1  0.148529  0.115824  0.315067  1
  Cu  Cu6  1  0.351471  0.115824  0.815067  1
  Cu  Cu7  1  0.851471  0.884176  0.684933  1
  Cu  Cu8  1  0.500000  0.000000  0.500000  1
  Cu  Cu9  1  0.000000  0.000000  0.000000  1
  P  P10  1  0.693646  0.109466  0.891356  1
  P  P11  1  0.193646  0.890534  0.608644  1
  P  P12  1  0.306354  0.890534  0.108644  1
  P  P13  1  0.806354  0.109466  0.391356  1
  P  P14  1  0.816600  0.685778  0.984583  1
  P  P15  1  0.316600  0.314222  0.515417  1
  P  P16  1  0.183400  0.314222  0.015417  1
  P  P17  1  0.683400  0.685778  0.484583  1
  O  O18  1  0.669140  0.098354  0.053369  1
  O  O19  1  0.169140  0.901646  0.446631  1
  O  O20  1  0.330860  0.901646  0.946631  1
  O  O21  1  0.830860  0.098354  0.553369  1
  O  O22  1  0.667601  0.740082  0.022205  1
  O  O23  1  0.167601  0.259918  0.477795  1
  O  O24  1  0.332399  0.259918  0.977795  1
  O  O25  1  0.832399  0.740082  0.522205  1
  O  O26  1  0.162715  0.316490  0.176707  1
  O  O27  1  0.662715  0.683510  0.323293  1
  O  O28  1  0.837285  0.683510  0.823293  1
  O  O29  1  0.337285  0.316490  0.676707  1
  O  O30  1  0.658788  0.038706  0.354489  1
  O  O31  1  0.158788  0.961294  0.145511  1
  O  O32  1  0.341212  0.961294  0.645511  1
  O  O33  1  0.841212  0.038706  0.854489  1
  O  O34  1  0.429351  0.222913  0.433650  1
  O  O35  1  0.929351  0.777087  0.066350  1
  O  O36  1  0.570649  0.777087  0.566350  1
  O  O37  1  0.070649  0.222913  0.933650  1
  O  O38  1  0.418258  0.957052  0.200950  1
  O  O39  1  0.918258  0.042948  0.299050  1
  O  O40  1  0.581742  0.042948  0.799050  1
  O  O41  1  0.081742  0.957052  0.700950  1
  F  F42  1  0.706486  0.308147  0.846486  1
  F  F43  1  0.206486  0.691853  0.653514  1
  F  F44  1  0.293514  0.691853  0.153514  1
  F  F45  1  0.793514  0.308147  0.346486  1
  F  F46  1  0.832050  0.494203  0.048335  1
  F  F47  1  0.332050  0.505797  0.451665  1
  F  F48  1  0.167950  0.505797  0.951665  1
  F  F49  1  0.667950  0.494203  0.548335  1
