# generated using pymatgen
data_Tm16Lu3MgIr12
_symmetry_space_group_name_H-M   'P 1'
_cell_length_a   10.70644000
_cell_length_b   10.70644000
_cell_length_c   6.25741500
_cell_angle_alpha   90.00000000
_cell_angle_beta   90.00000000
_cell_angle_gamma   90.00000000
_symmetry_Int_Tables_number   1
_chemical_formula_structural   Tm16Lu3MgIr12
_chemical_formula_sum   'Tm16 Lu3 Mg1 Ir12'
_cell_volume   717.27407477
_cell_formula_units_Z   1
loop_
 _symmetry_equiv_pos_site_id
 _symmetry_equiv_pos_as_xyz
  1  'x, y, z'
loop_
 _atom_site_type_symbol
 _atom_site_label
 _atom_site_symmetry_multiplicity
 _atom_site_fract_x
 _atom_site_fract_y
 _atom_site_fract_z
 _atom_site_occupancy
  Tm  Tm0  1  0.284362  0.084476  0.377865  1
  Tm  Tm1  1  0.290778  0.912453  0.879046  1
  Tm  Tm2  1  0.709222  0.087547  0.879046  1
  Tm  Tm3  1  0.715638  0.915524  0.377865  1
  Tm  Tm4  1  0.588233  0.791905  0.877305  1
  Tm  Tm5  1  0.587092  0.208018  0.376099  1
  Tm  Tm6  1  0.412908  0.791982  0.376099  1
  Tm  Tm7  1  0.411767  0.208095  0.877305  1
  Tm  Tm8  1  0.208018  0.412908  0.623901  1
  Tm  Tm9  1  0.208095  0.588233  0.122695  1
  Tm  Tm10  1  0.791905  0.411767  0.122695  1
  Tm  Tm11  1  0.791982  0.587092  0.623901  1
  Tm  Tm12  1  0.912453  0.709222  0.120954  1
  Tm  Tm13  1  0.915524  0.284362  0.622135  1
  Tm  Tm14  1  0.084476  0.715638  0.622135  1
  Tm  Tm15  1  0.087547  0.290778  0.120954  1
  Lu  Lu16  1  0.000000  0.000000  0.000000  1
  Lu  Lu17  1  0.500000  0.500000  0.000000  1
  Lu  Lu18  1  0.500000  0.500000  0.500000  1
  Mg  Mg19  1  0.000000  0.000000  0.500000  1
  Ir  Ir20  1  0.846153  0.154617  0.246545  1
  Ir  Ir21  1  0.845383  0.846153  0.753455  1
  Ir  Ir22  1  0.154617  0.153847  0.753455  1
  Ir  Ir23  1  0.153847  0.845383  0.246545  1
  Ir  Ir24  1  0.653625  0.346711  0.748818  1
  Ir  Ir25  1  0.653289  0.653625  0.251182  1
  Ir  Ir26  1  0.346711  0.346375  0.251182  1
  Ir  Ir27  1  0.346375  0.653289  0.748818  1
  Ir  Ir28  1  0.500000  0.000000  0.124434  1
  Ir  Ir29  1  0.500000  0.000000  0.620988  1
  Ir  Ir30  1  0.000000  0.500000  0.875566  1
  Ir  Ir31  1  0.000000  0.500000  0.379012  1
