# generated using pymatgen
data_Ac4Tm5LuSi8
_symmetry_space_group_name_H-M   'P 1'
_cell_length_a   7.90073142
_cell_length_b   7.90077100
_cell_length_c   14.52780500
_cell_angle_alpha   90.00000000
_cell_angle_beta   89.98131895
_cell_angle_gamma   90.00000000
_symmetry_Int_Tables_number   1
_chemical_formula_structural   Ac4Tm5LuSi8
_chemical_formula_sum   'Ac8 Tm10 Lu2 Si16'
_cell_volume   906.85270227
_cell_formula_units_Z   2
loop_
 _symmetry_equiv_pos_site_id
 _symmetry_equiv_pos_as_xyz
  1  'x, y, z'
loop_
 _atom_site_type_symbol
 _atom_site_label
 _atom_site_symmetry_multiplicity
 _atom_site_fract_x
 _atom_site_fract_y
 _atom_site_fract_z
 _atom_site_occupancy
  Ac  Ac0  1  0.647129  0.991188  0.461037  1
  Ac  Ac1  1  0.353005  0.008621  0.960934  1
  Ac  Ac2  1  0.991287  0.646998  0.539265  1
  Ac  Ac3  1  0.491293  0.853224  0.210793  1
  Ac  Ac4  1  0.508713  0.146998  0.710735  1
  Ac  Ac5  1  0.852871  0.491188  0.788963  1
  Ac  Ac6  1  0.146995  0.508621  0.289066  1
  Ac  Ac7  1  0.008707  0.353224  0.039207  1
  Tm  Tm8  1  0.495647  0.358087  0.125587  1
  Tm  Tm9  1  0.996082  0.141760  0.624362  1
  Tm  Tm10  1  0.858163  0.004124  0.875318  1
  Tm  Tm11  1  0.141791  0.995950  0.375858  1
  Tm  Tm12  1  0.503918  0.641760  0.625638  1
  Tm  Tm13  1  0.358209  0.495950  0.874142  1
  Tm  Tm14  1  0.641837  0.504124  0.374682  1
  Tm  Tm15  1  0.004353  0.858087  0.124413  1
  Tm  Tm16  1  0.819298  0.181120  0.250004  1
  Tm  Tm17  1  0.680702  0.681120  0.999996  1
  Lu  Lu18  1  0.319448  0.319548  0.499843  1
  Lu  Lu19  1  0.180552  0.819548  0.750157  1
  Si  Si20  1  0.285575  0.937979  0.564329  1
  Si  Si21  1  0.714598  0.061975  0.063665  1
  Si  Si22  1  0.938407  0.285509  0.436355  1
  Si  Si23  1  0.437703  0.214436  0.314312  1
  Si  Si24  1  0.561593  0.785509  0.813645  1
  Si  Si25  1  0.214425  0.437979  0.685671  1
  Si  Si26  1  0.785402  0.561975  0.186335  1
  Si  Si27  1  0.062297  0.714436  0.935688  1
  Si  Si28  1  0.796313  0.853965  0.691305  1
  Si  Si29  1  0.203624  0.146145  0.191603  1
  Si  Si30  1  0.853952  0.796031  0.308636  1
  Si  Si31  1  0.353706  0.703339  0.441597  1
  Si  Si32  1  0.646048  0.296031  0.941364  1
  Si  Si33  1  0.703687  0.353965  0.558695  1
  Si  Si34  1  0.296376  0.646145  0.058397  1
  Si  Si35  1  0.146294  0.203339  0.808403  1
