# generated using pymatgen
data_Pr3Y(SeO3)6
_symmetry_space_group_name_H-M   'P 1'
_cell_length_a   7.34037429
_cell_length_b   8.39867009
_cell_length_c   9.32950143
_cell_angle_alpha   70.76137777
_cell_angle_beta   70.03570934
_cell_angle_gamma   66.20992100
_symmetry_Int_Tables_number   1
_chemical_formula_structural   Pr3Y(SeO3)6
_chemical_formula_sum   'Pr3 Y1 Se6 O18'
_cell_volume   482.20551192
_cell_formula_units_Z   1
loop_
 _symmetry_equiv_pos_site_id
 _symmetry_equiv_pos_as_xyz
  1  'x, y, z'
loop_
 _atom_site_type_symbol
 _atom_site_label
 _atom_site_symmetry_multiplicity
 _atom_site_fract_x
 _atom_site_fract_y
 _atom_site_fract_z
 _atom_site_occupancy
  Pr  Pr0  1  0.332152  0.734106  0.588332  1
  Pr  Pr1  1  0.663938  0.272356  0.410026  1
  Pr  Pr2  1  0.740771  0.733086  0.802747  1
  Y  Y3  1  0.260128  0.262159  0.197500  1
  Se  Se4  1  0.424401  0.782435  0.197729  1
  Se  Se5  1  0.571601  0.227434  0.803330  1
  Se  Se6  1  0.152140  0.741885  0.969256  1
  Se  Se7  1  0.850424  0.243678  0.039271  1
  Se  Se8  1  0.888639  0.759789  0.415425  1
  Se  Se9  1  0.113103  0.243846  0.576121  1
  O  O10  1  0.642523  0.795751  0.058811  1
  O  O11  1  0.359082  0.210621  0.949866  1
  O  O12  1  0.358200  0.948392  0.298193  1
  O  O13  1  0.632344  0.064310  0.701793  1
  O  O14  1  0.509244  0.603339  0.347001  1
  O  O15  1  0.481930  0.405801  0.654849  1
  O  O16  1  0.174923  0.558226  0.118361  1
  O  O17  1  0.834498  0.421065  0.884311  1
  O  O18  1  0.401689  0.710930  0.853874  1
  O  O19  1  0.596749  0.286113  0.151187  1
  O  O20  1  0.339137  0.248157  0.431631  1
  O  O21  1  0.662204  0.750025  0.557301  1
  O  O22  1  0.975516  0.289617  0.438310  1
  O  O23  1  0.029809  0.709207  0.552374  1
  O  O24  1  0.152087  0.024122  0.655071  1
  O  O25  1  0.846142  0.980463  0.344915  1
  O  O26  1  0.939707  0.298264  0.162169  1
  O  O27  1  0.066919  0.694824  0.840247  1
