# generated using pymatgen
data_Er4Al18CuOs2Pd3
_symmetry_space_group_name_H-M   'P 1'
_cell_length_a   7.56822566
_cell_length_b   7.56822571
_cell_length_c   9.41905625
_cell_angle_alpha   89.96002889
_cell_angle_beta   89.96002853
_cell_angle_gamma   119.29769197
_symmetry_Int_Tables_number   1
_chemical_formula_structural   Er4Al18CuOs2Pd3
_chemical_formula_sum   'Er4 Al18 Cu1 Os2 Pd3'
_cell_volume   470.49599038
_cell_formula_units_Z   1
loop_
 _symmetry_equiv_pos_site_id
 _symmetry_equiv_pos_as_xyz
  1  'x, y, z'
loop_
 _atom_site_type_symbol
 _atom_site_label
 _atom_site_symmetry_multiplicity
 _atom_site_fract_x
 _atom_site_fract_y
 _atom_site_fract_z
 _atom_site_occupancy
  Er  Er0  1  0.994520  0.672604  0.249444  1
  Er  Er1  1  0.004534  0.327102  0.750578  1
  Er  Er2  1  0.672898  0.995466  0.249422  1
  Er  Er3  1  0.327396  0.005480  0.750556  1
  Al  Al4  1  0.127867  0.127889  0.249901  1
  Al  Al5  1  0.872111  0.872133  0.750099  1
  Al  Al6  1  0.999011  0.332203  0.076061  1
  Al  Al7  1  0.999460  0.667642  0.923864  1
  Al  Al8  1  0.999807  0.667871  0.575761  1
  Al  Al9  1  0.332129  0.000193  0.424239  1
  Al  Al10  1  0.999882  0.331607  0.423922  1
  Al  Al11  1  0.668393  0.000118  0.576078  1
  Al  Al12  1  0.667797  0.000989  0.923939  1
  Al  Al13  1  0.332358  0.000540  0.076136  1
  Al  Al14  1  0.328961  0.328623  0.554114  1
  Al  Al15  1  0.671377  0.671039  0.445886  1
  Al  Al16  1  0.670596  0.669763  0.054696  1
  Al  Al17  1  0.330237  0.329404  0.945304  1
  Al  Al18  1  0.342609  0.549556  0.250110  1
  Al  Al19  1  0.657397  0.449206  0.750996  1
  Al  Al20  1  0.550794  0.342603  0.249004  1
  Al  Al21  1  0.450444  0.657391  0.749890  1
  Cu  Cu22  1  0.672145  0.327855  0.000000  1
  Os  Os23  1  0.999482  0.000518  0.000000  1
  Os  Os24  1  0.000101  0.999899  0.500000  1
  Pd  Pd25  1  0.327678  0.672322  0.000000  1
  Pd  Pd26  1  0.327731  0.672269  0.500000  1
  Pd  Pd27  1  0.672285  0.327715  0.500000  1
