# generated using pymatgen
data_Lu5Sc11(In3Co)2
_symmetry_space_group_name_H-M   'P 1'
_cell_length_a   9.86088522
_cell_length_b   9.86105074
_cell_length_c   6.64641999
_cell_angle_alpha   89.92719077
_cell_angle_beta   90.08055983
_cell_angle_gamma   120.09260886
_symmetry_Int_Tables_number   1
_chemical_formula_structural   Lu5Sc11(In3Co)2
_chemical_formula_sum   'Lu5 Sc11 In6 Co2'
_cell_volume   559.17912727
_cell_formula_units_Z   1
loop_
 _symmetry_equiv_pos_site_id
 _symmetry_equiv_pos_as_xyz
  1  'x, y, z'
loop_
 _atom_site_type_symbol
 _atom_site_label
 _atom_site_symmetry_multiplicity
 _atom_site_fract_x
 _atom_site_fract_y
 _atom_site_fract_z
 _atom_site_occupancy
  Lu  Lu0  1  0.533908  0.066963  0.519642  1
  Lu  Lu1  1  0.933014  0.466069  0.519552  1
  Lu  Lu2  1  0.532471  0.467556  0.520148  1
  Lu  Lu3  1  0.466304  0.933524  0.021144  1
  Lu  Lu4  1  0.066460  0.533688  0.021084  1
  Sc  Sc5  1  0.465377  0.534541  0.020472  1
  Sc  Sc6  1  0.180984  0.358208  0.732228  1
  Sc  Sc7  1  0.641896  0.819095  0.732327  1
  Sc  Sc8  1  0.179001  0.821083  0.727971  1
  Sc  Sc9  1  0.819187  0.642184  0.225902  1
  Sc  Sc10  1  0.357908  0.180944  0.225811  1
  Sc  Sc11  1  0.822117  0.177797  0.226330  1
  Sc  Sc12  1  0.665735  0.334385  0.914241  1
  Sc  Sc13  1  0.333821  0.666169  0.414908  1
  Sc  Sc14  1  0.999309  0.000540  0.511254  1
  Sc  Sc15  1  0.000111  0.999762  0.011766  1
  In  In16  1  0.839420  0.678593  0.773175  1
  In  In17  1  0.321375  0.160553  0.773012  1
  In  In18  1  0.839516  0.160556  0.773442  1
  In  In19  1  0.163331  0.323944  0.272275  1
  In  In20  1  0.675938  0.836489  0.272385  1
  In  In21  1  0.160152  0.839983  0.274928  1
  Co  Co22  1  0.667184  0.332784  0.283463  1
  Co  Co23  1  0.335481  0.664590  0.788219  1
