# generated using pymatgen
data_Ca3Ni8Pd
_symmetry_space_group_name_H-M   'P 1'
_cell_length_a   5.04234192
_cell_length_b   5.04234277
_cell_length_c   8.78784840
_cell_angle_alpha   73.32796077
_cell_angle_beta   73.32795854
_cell_angle_gamma   60.00000192
_symmetry_Int_Tables_number   1
_chemical_formula_structural   Ca3Ni8Pd
_chemical_formula_sum   'Ca3 Ni8 Pd1'
_cell_volume   182.57252615
_cell_formula_units_Z   1
loop_
 _symmetry_equiv_pos_site_id
 _symmetry_equiv_pos_as_xyz
  1  'x, y, z'
loop_
 _atom_site_type_symbol
 _atom_site_label
 _atom_site_symmetry_multiplicity
 _atom_site_fract_x
 _atom_site_fract_y
 _atom_site_fract_z
 _atom_site_occupancy
  Ca  Ca0  1  0.138520  0.138520  0.584438  1
  Ca  Ca1  1  0.861480  0.861480  0.415562  1
  Ca  Ca2  1  0.000000  0.000000  0.000000  1
  Ni  Ni3  1  0.076525  0.578675  0.766125  1
  Ni  Ni4  1  0.578675  0.578675  0.766125  1
  Ni  Ni5  1  0.578675  0.076525  0.766125  1
  Ni  Ni6  1  0.923475  0.421325  0.233875  1
  Ni  Ni7  1  0.421325  0.421325  0.233875  1
  Ni  Ni8  1  0.421325  0.923475  0.233875  1
  Ni  Ni9  1  0.332932  0.332932  0.001204  1
  Ni  Ni10  1  0.667068  0.667068  0.998796  1
  Pd  Pd11  1  0.500000  0.500000  0.500000  1
