# generated using pymatgen
data_TbY3Al17Co6Si
_symmetry_space_group_name_H-M   'P 1'
_cell_length_a   7.37925903
_cell_length_b   7.37998081
_cell_length_c   9.27097200
_cell_angle_alpha   90.00000000
_cell_angle_beta   90.00000000
_cell_angle_gamma   119.25673535
_symmetry_Int_Tables_number   1
_chemical_formula_structural   TbY3Al17Co6Si
_chemical_formula_sum   'Tb1 Y3 Al17 Co6 Si1'
_cell_volume   440.48194393
_cell_formula_units_Z   1
loop_
 _symmetry_equiv_pos_site_id
 _symmetry_equiv_pos_as_xyz
  1  'x, y, z'
loop_
 _atom_site_type_symbol
 _atom_site_label
 _atom_site_symmetry_multiplicity
 _atom_site_fract_x
 _atom_site_fract_y
 _atom_site_fract_z
 _atom_site_occupancy
  Tb  Tb0  1  0.992710  0.677170  0.250000  1
  Y  Y1  1  0.005955  0.328430  0.750000  1
  Y  Y2  1  0.677072  0.992704  0.250000  1
  Y  Y3  1  0.328455  0.005997  0.750000  1
  Al  Al4  1  0.876203  0.876242  0.750000  1
  Al  Al5  1  0.331655  0.331669  0.545455  1
  Al  Al6  1  0.665193  0.665303  0.040948  1
  Al  Al7  1  0.331655  0.331669  0.954545  1
  Al  Al8  1  0.665193  0.665303  0.459052  1
  Al  Al9  1  0.336284  0.553893  0.250000  1
  Al  Al10  1  0.661295  0.446151  0.750000  1
  Al  Al11  1  0.553820  0.336156  0.250000  1
  Al  Al12  1  0.446181  0.661337  0.750000  1
  Al  Al13  1  0.999071  0.336928  0.073378  1
  Al  Al14  1  0.001904  0.665146  0.571168  1
  Al  Al15  1  0.337174  0.999143  0.426655  1
  Al  Al16  1  0.665148  0.001903  0.928940  1
  Al  Al17  1  0.001904  0.665146  0.928832  1
  Al  Al18  1  0.999071  0.336928  0.426622  1
  Al  Al19  1  0.665148  0.001903  0.571060  1
  Al  Al20  1  0.337174  0.999143  0.073345  1
  Co  Co21  1  0.000964  0.000965  0.008357  1
  Co  Co22  1  0.000964  0.000965  0.491643  1
  Co  Co23  1  0.669412  0.327789  0.000666  1
  Co  Co24  1  0.327813  0.669435  0.499325  1
  Co  Co25  1  0.327813  0.669435  0.000675  1
  Co  Co26  1  0.669412  0.327789  0.499334  1
  Si  Si27  1  0.125356  0.125355  0.250000  1
