# generated using pymatgen
data_SmDy5(SiRh2)6
_symmetry_space_group_name_H-M   'P 1'
_cell_length_a   5.58151000
_cell_length_b   5.58150911
_cell_length_c   15.01107400
_cell_angle_alpha   90.00000000
_cell_angle_beta   90.00000000
_cell_angle_gamma   119.99999343
_symmetry_Int_Tables_number   1
_chemical_formula_structural   SmDy5(SiRh2)6
_chemical_formula_sum   'Sm1 Dy5 Si6 Rh12'
_cell_volume   404.99137232
_cell_formula_units_Z   1
loop_
 _symmetry_equiv_pos_site_id
 _symmetry_equiv_pos_as_xyz
  1  'x, y, z'
loop_
 _atom_site_type_symbol
 _atom_site_label
 _atom_site_symmetry_multiplicity
 _atom_site_fract_x
 _atom_site_fract_y
 _atom_site_fract_z
 _atom_site_occupancy
  Sm  Sm0  1  0.333333  0.666667  0.250000  1
  Dy  Dy1  1  0.666667  0.333333  0.962912  1
  Dy  Dy2  1  0.666667  0.333333  0.537088  1
  Dy  Dy3  1  0.333333  0.666667  0.036563  1
  Dy  Dy4  1  0.666667  0.333333  0.750000  1
  Dy  Dy5  1  0.333333  0.666667  0.463437  1
  Si  Si6  1  0.666667  0.333333  0.250000  1
  Si  Si7  1  0.000000  0.000000  0.500194  1
  Si  Si8  1  0.000000  0.000000  0.250000  1
  Si  Si9  1  0.000000  0.000000  0.750000  1
  Si  Si10  1  0.333333  0.666667  0.750000  1
  Si  Si11  1  0.000000  0.000000  0.999806  1
  Rh  Rh12  1  0.166710  0.333419  0.869277  1
  Rh  Rh13  1  0.166710  0.333419  0.630723  1
  Rh  Rh14  1  0.666581  0.833290  0.869277  1
  Rh  Rh15  1  0.333683  0.166842  0.370157  1
  Rh  Rh16  1  0.833158  0.666317  0.370157  1
  Rh  Rh17  1  0.833158  0.166842  0.370157  1
  Rh  Rh18  1  0.833158  0.166842  0.129843  1
  Rh  Rh19  1  0.333683  0.166842  0.129843  1
  Rh  Rh20  1  0.666581  0.833290  0.630723  1
  Rh  Rh21  1  0.166710  0.833290  0.630723  1
  Rh  Rh22  1  0.833158  0.666317  0.129843  1
  Rh  Rh23  1  0.166710  0.833290  0.869277  1
