# generated using pymatgen
data_Ce4Y15ErIr12
_symmetry_space_group_name_H-M   'P 1'
_cell_length_a   11.05341700
_cell_length_b   10.98705787
_cell_length_c   6.31383400
_cell_angle_alpha   90.00000000
_cell_angle_beta   90.00000000
_cell_angle_gamma   89.95858893
_symmetry_Int_Tables_number   1
_chemical_formula_structural   Ce4Y15ErIr12
_chemical_formula_sum   'Ce4 Y15 Er1 Ir12'
_cell_volume   766.78041648
_cell_formula_units_Z   1
loop_
 _symmetry_equiv_pos_site_id
 _symmetry_equiv_pos_as_xyz
  1  'x, y, z'
loop_
 _atom_site_type_symbol
 _atom_site_label
 _atom_site_symmetry_multiplicity
 _atom_site_fract_x
 _atom_site_fract_y
 _atom_site_fract_z
 _atom_site_occupancy
  Ce  Ce0  1  0.294319  0.092331  0.384941  1
  Ce  Ce1  1  0.294493  0.907112  0.885310  1
  Ce  Ce2  1  0.705507  0.092888  0.885310  1
  Ce  Ce3  1  0.705681  0.907669  0.384941  1
  Y  Y4  1  0.589222  0.785956  0.881379  1
  Y  Y5  1  0.588585  0.214256  0.381419  1
  Y  Y6  1  0.411415  0.785744  0.381419  1
  Y  Y7  1  0.410778  0.214044  0.881379  1
  Y  Y8  1  0.207201  0.413315  0.621111  1
  Y  Y9  1  0.207101  0.587315  0.120977  1
  Y  Y10  1  0.792899  0.412685  0.120977  1
  Y  Y11  1  0.792799  0.586685  0.621111  1
  Y  Y12  1  0.911687  0.709124  0.115516  1
  Y  Y13  1  0.912318  0.290855  0.615451  1
  Y  Y14  1  0.087682  0.709145  0.615451  1
  Y  Y15  1  0.088313  0.290876  0.115516  1
  Y  Y16  1  0.000000  0.000000  0.488196  1
  Y  Y17  1  0.000000  0.000000  0.988371  1
  Y  Y18  1  0.500000  0.500000  0.014394  1
  Er  Er19  1  0.500000  0.500000  0.514200  1
  Ir  Ir20  1  0.843572  0.152974  0.237923  1
  Ir  Ir21  1  0.843345  0.847632  0.738065  1
  Ir  Ir22  1  0.156655  0.152368  0.738065  1
  Ir  Ir23  1  0.156428  0.847026  0.237923  1
  Ir  Ir24  1  0.652888  0.346078  0.757608  1
  Ir  Ir25  1  0.652211  0.655186  0.261716  1
  Ir  Ir26  1  0.347789  0.344814  0.261716  1
  Ir  Ir27  1  0.347112  0.653922  0.757608  1
  Ir  Ir28  1  0.500000  0.000000  0.124928  1
  Ir  Ir29  1  0.500000  0.000000  0.624726  1
  Ir  Ir30  1  0.000000  0.500000  0.871402  1
  Ir  Ir31  1  0.000000  0.500000  0.370956  1
