# generated using pymatgen
data_DyHo4Tm11(InIr)4
_symmetry_space_group_name_H-M   'P 1'
_cell_length_a   9.58282637
_cell_length_b   9.57994312
_cell_length_c   9.58053261
_cell_angle_alpha   59.89895662
_cell_angle_beta   59.87223688
_cell_angle_gamma   59.86755084
_symmetry_Int_Tables_number   1
_chemical_formula_structural   DyHo4Tm11(InIr)4
_chemical_formula_sum   'Dy1 Ho4 Tm11 In4 Ir4'
_cell_volume   620.21591126
_cell_formula_units_Z   1
loop_
 _symmetry_equiv_pos_site_id
 _symmetry_equiv_pos_as_xyz
  1  'x, y, z'
loop_
 _atom_site_type_symbol
 _atom_site_label
 _atom_site_symmetry_multiplicity
 _atom_site_fract_x
 _atom_site_fract_y
 _atom_site_fract_z
 _atom_site_occupancy
  Dy  Dy0  1  0.190155  0.189712  0.810836  1
  Ho  Ho1  1  0.809371  0.191551  0.191751  1
  Ho  Ho2  1  0.810746  0.189401  0.810408  1
  Ho  Ho3  1  0.190369  0.810476  0.190124  1
  Ho  Ho4  1  0.811042  0.810509  0.189302  1
  Tm  Tm5  1  0.598225  0.597402  0.597213  1
  Tm  Tm6  1  0.599615  0.600607  0.203753  1
  Tm  Tm7  1  0.599665  0.203686  0.600546  1
  Tm  Tm8  1  0.204062  0.599643  0.599537  1
  Tm  Tm9  1  0.058260  0.440381  0.440047  1
  Tm  Tm10  1  0.439244  0.059400  0.059490  1
  Tm  Tm11  1  0.440276  0.058033  0.440691  1
  Tm  Tm12  1  0.059253  0.439926  0.059048  1
  Tm  Tm13  1  0.440177  0.440923  0.058029  1
  Tm  Tm14  1  0.059255  0.058958  0.439806  1
  Tm  Tm15  1  0.191014  0.809113  0.809312  1
  In  In16  1  0.833619  0.832987  0.833211  1
  In  In17  1  0.832523  0.832698  0.501736  1
  In  In18  1  0.832609  0.501773  0.832594  1
  In  In19  1  0.500392  0.832904  0.832836  1
  Ir  Ir20  1  0.391500  0.390871  0.390693  1
  Ir  Ir21  1  0.390697  0.391711  0.826766  1
  Ir  Ir22  1  0.390667  0.826733  0.391667  1
  Ir  Ir23  1  0.827267  0.390599  0.390602  1
