# generated using pymatgen
data_Ti6GaSiP
_symmetry_space_group_name_H-M   'P 1'
_cell_length_a   6.88575100
_cell_length_b   6.88575223
_cell_length_c   3.44622900
_cell_angle_alpha   90.00000000
_cell_angle_beta   90.00000000
_cell_angle_gamma   119.99998928
_symmetry_Int_Tables_number   1
_chemical_formula_structural   Ti6GaSiP
_chemical_formula_sum   'Ti6 Ga1 Si1 P1'
_cell_volume   141.50686731
_cell_formula_units_Z   1
loop_
 _symmetry_equiv_pos_site_id
 _symmetry_equiv_pos_as_xyz
  1  'x, y, z'
loop_
 _atom_site_type_symbol
 _atom_site_label
 _atom_site_symmetry_multiplicity
 _atom_site_fract_x
 _atom_site_fract_y
 _atom_site_fract_z
 _atom_site_occupancy
  Ti  Ti0  1  0.001020  0.254747  0.500000  1
  Ti  Ti1  1  0.253727  0.998980  0.500000  1
  Ti  Ti2  1  0.745253  0.746273  0.500000  1
  Ti  Ti3  1  0.598949  0.988638  0.000000  1
  Ti  Ti4  1  0.389689  0.401051  0.000000  1
  Ti  Ti5  1  0.011362  0.610311  0.000000  1
  Ga  Ga6  1  0.666667  0.333333  0.500000  1
  Si  Si7  1  0.333333  0.666667  0.500000  1
  P  P8  1  0.000000  0.000000  0.000000  1
