# generated using pymatgen
data_Nd4Al23SiPt9
_symmetry_space_group_name_H-M   'P 1'
_cell_length_a   7.55635452
_cell_length_b   7.55788947
_cell_length_c   13.28627017
_cell_angle_alpha   84.63723222
_cell_angle_beta   100.80101712
_cell_angle_gamma   119.84318931
_symmetry_Int_Tables_number   1
_chemical_formula_structural   Nd4Al23SiPt9
_chemical_formula_sum   'Nd4 Al23 Si1 Pt9'
_cell_volume   646.49872355
_cell_formula_units_Z   1
loop_
 _symmetry_equiv_pos_site_id
 _symmetry_equiv_pos_as_xyz
  1  'x, y, z'
loop_
 _atom_site_type_symbol
 _atom_site_label
 _atom_site_symmetry_multiplicity
 _atom_site_fract_x
 _atom_site_fract_y
 _atom_site_fract_z
 _atom_site_occupancy
  Nd  Nd0  1  0.730978  0.998568  0.191374  1
  Nd  Nd1  1  0.263160  0.002819  0.808572  1
  Nd  Nd2  1  0.062468  0.667649  0.191484  1
  Nd  Nd3  1  0.939112  0.326834  0.808438  1
  Al  Al4  1  0.192908  0.131585  0.184591  1
  Al  Al5  1  0.980096  0.665457  0.945158  1
  Al  Al6  1  0.020904  0.334034  0.053965  1
  Al  Al7  1  0.401578  0.669253  0.815084  1
  Al  Al8  1  0.599677  0.335518  0.184266  1
  Al  Al9  1  0.881015  0.662867  0.666649  1
  Al  Al10  1  0.119099  0.334037  0.333812  1
  Al  Al11  1  0.607733  0.462473  0.814679  1
  Al  Al12  1  0.396760  0.538736  0.184555  1
  Al  Al13  1  0.231174  0.342043  0.665457  1
  Al  Al14  1  0.770401  0.659697  0.334211  1
  Al  Al15  1  0.852280  0.332476  0.558424  1
  Al  Al16  1  0.185798  0.000069  0.558445  1
  Al  Al17  1  0.813734  0.999487  0.442732  1
  Al  Al18  1  0.352054  0.002664  0.053933  1
  Al  Al19  1  0.647225  0.998959  0.945118  1
  Al  Al20  1  0.552656  0.993419  0.666933  1
  Al  Al21  1  0.444372  0.006677  0.333404  1
  Al  Al22  1  0.520376  0.666832  0.560223  1
  Al  Al23  1  0.478974  0.332805  0.438761  1
  Al  Al24  1  0.682781  0.666922  0.047519  1
  Al  Al25  1  0.323172  0.337525  0.956738  1
  Al  Al26  1  0.147144  0.666603  0.441558  1
  Si  Si27  1  0.801786  0.862867  0.815224  1
  Pt  Pt28  1  0.330284  0.672611  0.998848  1
  Pt  Pt29  1  0.545889  0.327497  0.635861  1
  Pt  Pt30  1  0.454542  0.673032  0.364346  1
  Pt  Pt31  1  0.883089  0.002844  0.640403  1
  Pt  Pt32  1  0.114836  0.994092  0.363732  1
  Pt  Pt33  1  0.672799  0.331191  0.998774  1
  Pt  Pt34  1  0.206431  0.667184  0.637004  1
  Pt  Pt35  1  0.794376  0.332906  0.363620  1
  Pt  Pt36  1  0.998339  0.999766  0.996112  1
