# generated using pymatgen
data_Ac4Zn5Pt3
_symmetry_space_group_name_H-M   'P 1'
_cell_length_a   4.56221400
_cell_length_b   8.20990066
_cell_length_c   7.97653900
_cell_angle_alpha   90.02298365
_cell_angle_beta   90.00000000
_cell_angle_gamma   90.00000000
_symmetry_Int_Tables_number   1
_chemical_formula_structural   Ac4Zn5Pt3
_chemical_formula_sum   'Ac4 Zn5 Pt3'
_cell_volume   298.76382630
_cell_formula_units_Z   1
loop_
 _symmetry_equiv_pos_site_id
 _symmetry_equiv_pos_as_xyz
  1  'x, y, z'
loop_
 _atom_site_type_symbol
 _atom_site_label
 _atom_site_symmetry_multiplicity
 _atom_site_fract_x
 _atom_site_fract_y
 _atom_site_fract_z
 _atom_site_occupancy
  Ac  Ac0  1  0.250000  0.993408  0.259507  1
  Ac  Ac1  1  0.250000  0.508108  0.255821  1
  Ac  Ac2  1  0.750000  0.995665  0.741934  1
  Ac  Ac3  1  0.750000  0.503310  0.744956  1
  Zn  Zn4  1  0.250000  0.747817  0.584318  1
  Zn  Zn5  1  0.250000  0.247481  0.916025  1
  Zn  Zn6  1  0.750000  0.252323  0.416954  1
  Zn  Zn7  1  0.750000  0.752668  0.081842  1
  Zn  Zn8  1  0.750000  0.248399  0.083661  1
  Pt  Pt9  1  0.250000  0.250635  0.585232  1
  Pt  Pt10  1  0.250000  0.751044  0.914949  1
  Pt  Pt11  1  0.750000  0.749140  0.414799  1
