# generated using pymatgen
data_HoEr5Zr4(Sn3O)2
_symmetry_space_group_name_H-M   'P 1'
_cell_length_a   8.71588900
_cell_length_b   8.71553413
_cell_length_c   6.01007500
_cell_angle_alpha   90.00000000
_cell_angle_beta   90.00000000
_cell_angle_gamma   119.99865190
_symmetry_Int_Tables_number   1
_chemical_formula_structural   HoEr5Zr4(Sn3O)2
_chemical_formula_sum   'Ho1 Er5 Zr4 Sn6 O2'
_cell_volume   395.38675918
_cell_formula_units_Z   1
loop_
 _symmetry_equiv_pos_site_id
 _symmetry_equiv_pos_as_xyz
  1  'x, y, z'
loop_
 _atom_site_type_symbol
 _atom_site_label
 _atom_site_symmetry_multiplicity
 _atom_site_fract_x
 _atom_site_fract_y
 _atom_site_fract_z
 _atom_site_occupancy
  Ho  Ho0  1  0.000000  0.773226  0.750000  1
  Er  Er1  1  0.000000  0.226564  0.250000  1
  Er  Er2  1  0.226591  0.226622  0.750000  1
  Er  Er3  1  0.226618  0.000026  0.250000  1
  Er  Er4  1  0.773382  0.773409  0.250000  1
  Er  Er5  1  0.773409  0.000031  0.750000  1
  Zr  Zr6  1  0.333340  0.666657  0.999993  1
  Zr  Zr7  1  0.333340  0.666657  0.500007  1
  Zr  Zr8  1  0.666660  0.333316  0.999993  1
  Zr  Zr9  1  0.666660  0.333316  0.500007  1
  Sn  Sn10  1  0.000000  0.595410  0.250000  1
  Sn  Sn11  1  0.000000  0.404472  0.750000  1
  Sn  Sn12  1  0.404552  0.404550  0.250000  1
  Sn  Sn13  1  0.595297  0.595364  0.750000  1
  Sn  Sn14  1  0.404703  0.000068  0.750000  1
  Sn  Sn15  1  0.595448  0.999998  0.250000  1
  O  O16  1  0.000000  0.000157  0.000196  1
  O  O17  1  0.000000  0.000157  0.499804  1
