# generated using pymatgen
data_Dy2Er2Al24Pt7Rh2
_symmetry_space_group_name_H-M   'P 1'
_cell_length_a   7.51297825
_cell_length_b   7.50744709
_cell_length_c   13.17958116
_cell_angle_alpha   84.53900520
_cell_angle_beta   100.91408824
_cell_angle_gamma   119.78162315
_symmetry_Int_Tables_number   1
_chemical_formula_structural   Dy2Er2Al24Pt7Rh2
_chemical_formula_sum   'Dy2 Er2 Al24 Pt7 Rh2'
_cell_volume   633.52009253
_cell_formula_units_Z   1
loop_
 _symmetry_equiv_pos_site_id
 _symmetry_equiv_pos_as_xyz
  1  'x, y, z'
loop_
 _atom_site_type_symbol
 _atom_site_label
 _atom_site_symmetry_multiplicity
 _atom_site_fract_x
 _atom_site_fract_y
 _atom_site_fract_z
 _atom_site_occupancy
  Dy  Dy0  1  0.732491  0.999455  0.190732  1
  Dy  Dy1  1  0.267874  0.001588  0.809090  1
  Er  Er2  1  0.061783  0.667881  0.191427  1
  Er  Er3  1  0.937523  0.331569  0.808775  1
  Al  Al4  1  0.810523  0.871251  0.818295  1
  Al  Al5  1  0.189669  0.128388  0.181710  1
  Al  Al6  1  0.986083  0.668861  0.946399  1
  Al  Al7  1  0.020747  0.334684  0.053244  1
  Al  Al8  1  0.396177  0.663205  0.819557  1
  Al  Al9  1  0.600563  0.336094  0.182608  1
  Al  Al10  1  0.882083  0.664697  0.672418  1
  Al  Al11  1  0.118476  0.335188  0.327172  1
  Al  Al12  1  0.603696  0.459590  0.816978  1
  Al  Al13  1  0.396102  0.544167  0.180876  1
  Al  Al14  1  0.230725  0.340587  0.670256  1
  Al  Al15  1  0.769392  0.659446  0.329779  1
  Al  Al16  1  0.853295  0.333585  0.558950  1
  Al  Al17  1  0.186190  0.999475  0.558815  1
  Al  Al18  1  0.814278  0.000056  0.441190  1
  Al  Al19  1  0.348025  0.995374  0.053821  1
  Al  Al20  1  0.648577  0.997731  0.946590  1
  Al  Al21  1  0.557059  0.992002  0.672810  1
  Al  Al22  1  0.443092  0.007265  0.327500  1
  Al  Al23  1  0.521402  0.668226  0.561707  1
  Al  Al24  1  0.478725  0.331800  0.438212  1
  Al  Al25  1  0.682895  0.671547  0.043092  1
  Al  Al26  1  0.313652  0.331825  0.956903  1
  Al  Al27  1  0.147083  0.665957  0.441141  1
  Pt  Pt28  1  0.546471  0.324648  0.637329  1
  Pt  Pt29  1  0.453972  0.674827  0.362558  1
  Pt  Pt30  1  0.887811  0.008448  0.638424  1
  Pt  Pt31  1  0.112542  0.991201  0.361603  1
  Pt  Pt32  1  0.671870  0.328549  0.999992  1
  Pt  Pt33  1  0.203978  0.666418  0.638602  1
  Pt  Pt34  1  0.796667  0.333309  0.361487  1
  Rh  Rh35  1  0.328475  0.671136  0.999988  1
  Rh  Rh36  1  0.000038  0.999970  0.999973  1
