# generated using pymatgen
data_In6PtCl10
_symmetry_space_group_name_H-M   'P 1'
_cell_length_a   7.42383954
_cell_length_b   8.96067379
_cell_length_c   8.48547676
_cell_angle_alpha   99.47216567
_cell_angle_beta   100.76246249
_cell_angle_gamma   104.97638878
_symmetry_Int_Tables_number   1
_chemical_formula_structural   In6PtCl10
_chemical_formula_sum   'In6 Pt1 Cl10'
_cell_volume   522.06607352
_cell_formula_units_Z   1
loop_
 _symmetry_equiv_pos_site_id
 _symmetry_equiv_pos_as_xyz
  1  'x, y, z'
loop_
 _atom_site_type_symbol
 _atom_site_label
 _atom_site_symmetry_multiplicity
 _atom_site_fract_x
 _atom_site_fract_y
 _atom_site_fract_z
 _atom_site_occupancy
  In  In0  1  0.892319  0.015764  0.279891  1
  In  In1  1  0.107681  0.984236  0.720109  1
  In  In2  1  0.374496  0.119741  0.144689  1
  In  In3  1  0.625504  0.880259  0.855311  1
  In  In4  1  0.036837  0.306557  0.036531  1
  In  In5  1  0.963163  0.693443  0.963469  1
  Pt  Pt6  1  0.000000  0.000000  0.000000  1
  Cl  Cl7  1  0.373470  0.420622  0.231890  1
  Cl  Cl8  1  0.626530  0.579378  0.768110  1
  Cl  Cl9  1  0.921695  0.525808  0.179947  1
  Cl  Cl10  1  0.078305  0.474192  0.820053  1
  Cl  Cl11  1  0.459899  0.821875  0.089620  1
  Cl  Cl12  1  0.540101  0.178125  0.910380  1
  Cl  Cl13  1  0.183744  0.173538  0.536001  1
  Cl  Cl14  1  0.816256  0.826462  0.463999  1
  Cl  Cl15  1  0.683061  0.189838  0.371696  1
  Cl  Cl16  1  0.316939  0.810162  0.628304  1
