# generated using pymatgen
data_DyHo15ZnIn3Rh4
_symmetry_space_group_name_H-M   'P 1'
_cell_length_a   9.57994890
_cell_length_b   9.57994956
_cell_length_c   9.57903139
_cell_angle_alpha   60.10423017
_cell_angle_beta   60.10422314
_cell_angle_gamma   60.10103454
_symmetry_Int_Tables_number   1
_chemical_formula_structural   DyHo15ZnIn3Rh4
_chemical_formula_sum   'Dy1 Ho15 Zn1 In3 Rh4'
_cell_volume   623.08451838
_cell_formula_units_Z   1
loop_
 _symmetry_equiv_pos_site_id
 _symmetry_equiv_pos_as_xyz
  1  'x, y, z'
loop_
 _atom_site_type_symbol
 _atom_site_label
 _atom_site_symmetry_multiplicity
 _atom_site_fract_x
 _atom_site_fract_y
 _atom_site_fract_z
 _atom_site_occupancy
  Dy  Dy0  1  0.187927  0.187927  0.811847  1
  Ho  Ho1  1  0.603050  0.603050  0.196313  1
  Ho  Ho2  1  0.440151  0.059295  0.439771  1
  Ho  Ho3  1  0.440001  0.440001  0.059299  1
  Ho  Ho4  1  0.813894  0.180949  0.814234  1
  Ho  Ho5  1  0.187979  0.811530  0.188233  1
  Ho  Ho6  1  0.437767  0.060770  0.060843  1
  Ho  Ho7  1  0.180949  0.813894  0.814234  1
  Ho  Ho8  1  0.060770  0.437767  0.060843  1
  Ho  Ho9  1  0.814221  0.814221  0.180902  1
  Ho  Ho10  1  0.196191  0.603170  0.602923  1
  Ho  Ho11  1  0.059295  0.440151  0.439771  1
  Ho  Ho12  1  0.060799  0.060799  0.437638  1
  Ho  Ho13  1  0.811530  0.187979  0.188233  1
  Ho  Ho14  1  0.603170  0.196191  0.602923  1
  Ho  Ho15  1  0.598427  0.598427  0.598361  1
  Zn  Zn16  1  0.833736  0.833736  0.833645  1
  In  In17  1  0.832449  0.832449  0.504947  1
  In  In18  1  0.505270  0.832082  0.832499  1
  In  In19  1  0.832082  0.505270  0.832499  1
  Rh  Rh20  1  0.391775  0.822766  0.391770  1
  Rh  Rh21  1  0.393950  0.393950  0.393680  1
  Rh  Rh22  1  0.822766  0.391775  0.391770  1
  Rh  Rh23  1  0.391850  0.391850  0.822822  1
