# generated using pymatgen
data_Er8Ga12IrPt3
_symmetry_space_group_name_H-M   'P 1'
_cell_length_a   6.99498100
_cell_length_b   8.80506751
_cell_length_c   8.80506700
_cell_angle_alpha   120.00000185
_cell_angle_beta   90.00000000
_cell_angle_gamma   90.00000000
_symmetry_Int_Tables_number   1
_chemical_formula_structural   Er8Ga12IrPt3
_chemical_formula_sum   'Er8 Ga12 Ir1 Pt3'
_cell_volume   469.65885792
_cell_formula_units_Z   1
loop_
 _symmetry_equiv_pos_site_id
 _symmetry_equiv_pos_as_xyz
  1  'x, y, z'
loop_
 _atom_site_type_symbol
 _atom_site_label
 _atom_site_symmetry_multiplicity
 _atom_site_fract_x
 _atom_site_fract_y
 _atom_site_fract_z
 _atom_site_occupancy
  Er  Er0  1  0.748078  0.000000  0.000000  1
  Er  Er1  1  0.249840  0.000000  0.000000  1
  Er  Er2  1  0.749845  0.480934  0.519066  1
  Er  Er3  1  0.253569  0.523031  0.476969  1
  Er  Er4  1  0.749845  0.038133  0.519066  1
  Er  Er5  1  0.253569  0.953939  0.476969  1
  Er  Er6  1  0.749845  0.480934  0.961867  1
  Er  Er7  1  0.253569  0.523031  0.046061  1
  Ga  Ga8  1  0.953749  0.833669  0.166331  1
  Ga  Ga9  1  0.047852  0.167186  0.832814  1
  Ga  Ga10  1  0.953749  0.332663  0.166331  1
  Ga  Ga11  1  0.453233  0.166903  0.833097  1
  Ga  Ga12  1  0.047852  0.665626  0.832814  1
  Ga  Ga13  1  0.546418  0.831560  0.168440  1
  Ga  Ga14  1  0.953749  0.833669  0.667337  1
  Ga  Ga15  1  0.453233  0.666194  0.833097  1
  Ga  Ga16  1  0.047852  0.167186  0.334374  1
  Ga  Ga17  1  0.546418  0.336881  0.168440  1
  Ga  Ga18  1  0.453233  0.166903  0.333806  1
  Ga  Ga19  1  0.546418  0.831560  0.663119  1
  Ir  Ir20  1  0.524276  0.666667  0.333333  1
  Pt  Pt21  1  0.963657  0.666667  0.333333  1
  Pt  Pt22  1  0.029412  0.333333  0.666667  1
  Pt  Pt23  1  0.470742  0.333333  0.666667  1
