# generated using pymatgen
data_Cs5Eu3Br12
_symmetry_space_group_name_H-M   'P 1'
_cell_length_a   4.64880900
_cell_length_b   14.81569281
_cell_length_c   14.81569300
_cell_angle_alpha   120.00000267
_cell_angle_beta   90.00000000
_cell_angle_gamma   90.00000000
_symmetry_Int_Tables_number   1
_chemical_formula_structural   Cs5Eu3Br12
_chemical_formula_sum   'Cs5 Eu3 Br12'
_cell_volume   883.72320339
_cell_formula_units_Z   1
loop_
 _symmetry_equiv_pos_site_id
 _symmetry_equiv_pos_as_xyz
  1  'x, y, z'
loop_
 _atom_site_type_symbol
 _atom_site_label
 _atom_site_symmetry_multiplicity
 _atom_site_fract_x
 _atom_site_fract_y
 _atom_site_fract_z
 _atom_site_occupancy
  Cs  Cs0  1  0.000000  0.666667  0.333333  1
  Cs  Cs1  1  0.000000  0.333333  0.666667  1
  Cs  Cs2  1  0.000000  0.285341  0.285341  1
  Cs  Cs3  1  0.000000  0.000000  0.714659  1
  Cs  Cs4  1  0.000000  0.714659  0.000000  1
  Eu  Eu5  1  0.500000  0.672622  0.672622  1
  Eu  Eu6  1  0.500000  0.000000  0.327378  1
  Eu  Eu7  1  0.500000  0.327378  0.000000  1
  Br  Br8  1  0.000000  0.807345  0.807345  1
  Br  Br9  1  0.000000  0.000000  0.192655  1
  Br  Br10  1  0.000000  0.192655  0.000000  1
  Br  Br11  1  0.000000  0.542306  0.542306  1
  Br  Br12  1  0.000000  0.000000  0.457694  1
  Br  Br13  1  0.000000  0.457694  0.000000  1
  Br  Br14  1  0.500000  0.769947  0.210305  1
  Br  Br15  1  0.500000  0.440358  0.230053  1
  Br  Br16  1  0.500000  0.559642  0.789695  1
  Br  Br17  1  0.500000  0.789695  0.559642  1
  Br  Br18  1  0.500000  0.210305  0.769947  1
  Br  Br19  1  0.500000  0.230053  0.440358  1
