# generated using pymatgen
data_Nd6Co3Ni13(P6W)2
_symmetry_space_group_name_H-M   'P 1'
_cell_length_a   3.84973200
_cell_length_b   10.74351880
_cell_length_c   12.51315560
_cell_angle_alpha   90.09729840
_cell_angle_beta   90.00000000
_cell_angle_gamma   90.00000000
_symmetry_Int_Tables_number   1
_chemical_formula_structural   Nd6Co3Ni13(P6W)2
_chemical_formula_sum   'Nd6 Co3 Ni13 P12 W2'
_cell_volume   517.53921632
_cell_formula_units_Z   1
loop_
 _symmetry_equiv_pos_site_id
 _symmetry_equiv_pos_as_xyz
  1  'x, y, z'
loop_
 _atom_site_type_symbol
 _atom_site_label
 _atom_site_symmetry_multiplicity
 _atom_site_fract_x
 _atom_site_fract_y
 _atom_site_fract_z
 _atom_site_occupancy
  Nd  Nd0  1  0.000000  0.498296  0.519349  1
  Nd  Nd1  1  0.500000  0.000331  0.479813  1
  Nd  Nd2  1  0.500000  0.817470  0.205554  1
  Nd  Nd3  1  0.500000  0.183840  0.205945  1
  Nd  Nd4  1  0.000000  0.682659  0.794042  1
  Nd  Nd5  1  0.000000  0.316647  0.794347  1
  Co  Co6  1  0.000000  0.498604  0.984860  1
  Co  Co7  1  0.500000  0.000320  0.015403  1
  Co  Co8  1  0.000000  0.384192  0.287205  1
  Ni  Ni9  1  0.500000  0.499679  0.701410  1
  Ni  Ni10  1  0.000000  0.000567  0.298899  1
  Ni  Ni11  1  0.500000  0.332405  0.989008  1
  Ni  Ni12  1  0.500000  0.666955  0.988216  1
  Ni  Ni13  1  0.000000  0.169399  0.012435  1
  Ni  Ni14  1  0.000000  0.833134  0.011611  1
  Ni  Ni15  1  0.500000  0.301402  0.424614  1
  Ni  Ni16  1  0.500000  0.696597  0.424701  1
  Ni  Ni17  1  0.000000  0.197884  0.574097  1
  Ni  Ni18  1  0.000000  0.801246  0.574181  1
  Ni  Ni19  1  0.500000  0.882011  0.713231  1
  Ni  Ni20  1  0.500000  0.116506  0.714132  1
  Ni  Ni21  1  0.000000  0.618568  0.286041  1
  P  P22  1  0.500000  0.499509  0.882652  1
  P  P23  1  0.000000  0.001066  0.117335  1
  P  P24  1  0.500000  0.496826  0.340054  1
  P  P25  1  0.000000  0.000067  0.658841  1
  P  P26  1  0.500000  0.308862  0.612620  1
  P  P27  1  0.500000  0.689892  0.611872  1
  P  P28  1  0.000000  0.193848  0.386412  1
  P  P29  1  0.000000  0.809284  0.387526  1
  P  P30  1  0.500000  0.848374  0.896579  1
  P  P31  1  0.500000  0.151537  0.896673  1
  P  P32  1  0.000000  0.651806  0.102543  1
  P  P33  1  0.000000  0.349865  0.106708  1
  W  W34  1  0.500000  0.499924  0.148857  1
  W  W35  1  0.000000  0.000427  0.852235  1
