# generated using pymatgen
data_Ba2NdAuO6
_symmetry_space_group_name_H-M   'P 1'
_cell_length_a   6.09078644
_cell_length_b   6.09078565
_cell_length_c   6.12000306
_cell_angle_alpha   119.61961849
_cell_angle_beta   90.12313035
_cell_angle_gamma   120.08142830
_symmetry_Int_Tables_number   1
_chemical_formula_structural   Ba2NdAuO6
_chemical_formula_sum   'Ba2 Nd1 Au1 O6'
_cell_volume   161.08911266
_cell_formula_units_Z   1
loop_
 _symmetry_equiv_pos_site_id
 _symmetry_equiv_pos_as_xyz
  1  'x, y, z'
loop_
 _atom_site_type_symbol
 _atom_site_label
 _atom_site_symmetry_multiplicity
 _atom_site_fract_x
 _atom_site_fract_y
 _atom_site_fract_z
 _atom_site_occupancy
  Ba  Ba0  1  0.752904  0.502919  0.255822  1
  Ba  Ba1  1  0.247096  0.497080  0.744176  1
  Nd  Nd2  1  0.000000  0.000000  0.000000  1
  Au  Au3  1  0.500000  0.000000  0.500001  1
  O  O4  1  0.265718  0.957598  0.223315  1
  O  O5  1  0.759212  0.003237  0.289889  1
  O  O6  1  0.286652  0.530679  0.289890  1
  O  O7  1  0.713347  0.469322  0.710110  1
  O  O8  1  0.240788  0.996764  0.710111  1
  O  O9  1  0.734282  0.042403  0.776685  1
