# generated using pymatgen
data_KRb3(Ni3S4)2
_symmetry_space_group_name_H-M   'P 1'
_cell_length_a   5.88057000
_cell_length_b   5.88056999
_cell_length_c   14.68796500
_cell_angle_alpha   90.00000000
_cell_angle_beta   90.00000000
_cell_angle_gamma   120.00000004
_symmetry_Int_Tables_number   1
_chemical_formula_structural   KRb3(Ni3S4)2
_chemical_formula_sum   'K1 Rb3 Ni6 S8'
_cell_volume   439.87685160
_cell_formula_units_Z   1
loop_
 _symmetry_equiv_pos_site_id
 _symmetry_equiv_pos_as_xyz
  1  'x, y, z'
loop_
 _atom_site_type_symbol
 _atom_site_label
 _atom_site_symmetry_multiplicity
 _atom_site_fract_x
 _atom_site_fract_y
 _atom_site_fract_z
 _atom_site_occupancy
  K  K0  1  0.333333  0.666667  0.606236  1
  Rb  Rb1  1  0.333333  0.666667  0.902095  1
  Rb  Rb2  1  0.666667  0.333333  0.403137  1
  Rb  Rb3  1  0.666667  0.333333  0.096411  1
  Ni  Ni4  1  0.166410  0.833590  0.249941  1
  Ni  Ni5  1  0.833250  0.666499  0.749105  1
  Ni  Ni6  1  0.833250  0.166750  0.749105  1
  Ni  Ni7  1  0.166410  0.332820  0.249941  1
  Ni  Ni8  1  0.333501  0.166750  0.749105  1
  Ni  Ni9  1  0.667180  0.833590  0.249941  1
  S  S10  1  0.333333  0.666667  0.347912  1
  S  S11  1  0.666667  0.333333  0.847175  1
  S  S12  1  0.666667  0.333333  0.650496  1
  S  S13  1  0.333333  0.666667  0.151903  1
  S  S14  1  0.000000  0.000000  0.652297  1
  S  S15  1  0.000000  0.000000  0.153288  1
  S  S16  1  0.000000  0.000000  0.845240  1
  S  S17  1  0.000000  0.000000  0.346673  1
