# generated using pymatgen
data_NpF12
_symmetry_space_group_name_H-M   'P 1'
_cell_length_a   10.57787400
_cell_length_b   10.57787361
_cell_length_c   5.82264500
_cell_angle_alpha   90.00000000
_cell_angle_beta   90.00000000
_cell_angle_gamma   120.00000289
_symmetry_Int_Tables_number   1
_chemical_formula_structural   NpF12
_chemical_formula_sum   'Np2 F24'
_cell_volume   564.21898422
_cell_formula_units_Z   2
loop_
 _symmetry_equiv_pos_site_id
 _symmetry_equiv_pos_as_xyz
  1  'x, y, z'
loop_
 _atom_site_type_symbol
 _atom_site_label
 _atom_site_symmetry_multiplicity
 _atom_site_fract_x
 _atom_site_fract_y
 _atom_site_fract_z
 _atom_site_occupancy
  Np  Np0  1  0.333333  0.666667  0.601657  1
  Np  Np1  1  0.666667  0.333333  0.101657  1
  F  F2  1  0.289156  0.241182  0.492297  1
  F  F3  1  0.952026  0.710844  0.492297  1
  F  F4  1  0.047974  0.289156  0.992297  1
  F  F5  1  0.241182  0.952026  0.992297  1
  F  F6  1  0.710844  0.758818  0.992297  1
  F  F7  1  0.758818  0.047974  0.492297  1
  F  F8  1  0.733153  0.222835  0.902524  1
  F  F9  1  0.510319  0.733153  0.402524  1
  F  F10  1  0.222835  0.489681  0.402524  1
  F  F11  1  0.777165  0.510319  0.902524  1
  F  F12  1  0.489681  0.266847  0.902524  1
  F  F13  1  0.266847  0.777165  0.402524  1
  F  F14  1  0.443217  0.844558  0.799815  1
  F  F15  1  0.598659  0.443217  0.299815  1
  F  F16  1  0.858015  0.077009  0.307143  1
  F  F17  1  0.781007  0.858015  0.807143  1
  F  F18  1  0.077009  0.218993  0.807143  1
  F  F19  1  0.922991  0.781007  0.307143  1
  F  F20  1  0.218993  0.141985  0.307143  1
  F  F21  1  0.844558  0.401341  0.299815  1
  F  F22  1  0.556783  0.155442  0.299815  1
  F  F23  1  0.401341  0.556783  0.799815  1
  F  F24  1  0.155442  0.598659  0.799815  1
  F  F25  1  0.141985  0.922991  0.807143  1
