# generated using pymatgen
data_Al2HgBr8
_symmetry_space_group_name_H-M   'P 1'
_cell_length_a   7.56386000
_cell_length_b   7.60971145
_cell_length_c   14.20748309
_cell_angle_alpha   87.49219051
_cell_angle_beta   90.00000000
_cell_angle_gamma   90.00000000
_symmetry_Int_Tables_number   1
_chemical_formula_structural   Al2HgBr8
_chemical_formula_sum   'Al4 Hg2 Br16'
_cell_volume   816.98236374
_cell_formula_units_Z   2
loop_
 _symmetry_equiv_pos_site_id
 _symmetry_equiv_pos_as_xyz
  1  'x, y, z'
loop_
 _atom_site_type_symbol
 _atom_site_label
 _atom_site_symmetry_multiplicity
 _atom_site_fract_x
 _atom_site_fract_y
 _atom_site_fract_z
 _atom_site_occupancy
  Al  Al0  1  0.931381  0.220108  0.577048  1
  Al  Al1  1  0.068619  0.220108  0.077048  1
  Al  Al2  1  0.578738  0.640047  0.777225  1
  Al  Al3  1  0.421262  0.640047  0.277225  1
  Hg  Hg4  1  0.756374  0.081938  0.812802  1
  Hg  Hg5  1  0.243626  0.081938  0.312802  1
  Br  Br6  1  0.423169  0.614839  0.642366  1
  Br  Br7  1  0.576831  0.614839  0.142366  1
  Br  Br8  1  0.874555  0.726338  0.759137  1
  Br  Br9  1  0.125445  0.726338  0.259137  1
  Br  Br10  1  0.939461  0.483840  0.497397  1
  Br  Br11  1  0.060539  0.483840  0.997397  1
  Br  Br12  1  0.916410  0.998477  0.998655  1
  Br  Br13  1  0.083590  0.998477  0.498655  1
  Br  Br14  1  0.642952  0.123985  0.612888  1
  Br  Br15  1  0.357048  0.123985  0.112888  1
  Br  Br16  1  0.566099  0.379310  0.875858  1
  Br  Br17  1  0.433901  0.379310  0.375858  1
  Br  Br18  1  0.461068  0.867838  0.868130  1
  Br  Br19  1  0.538932  0.867838  0.368130  1
  Br  Br20  1  0.940332  0.230680  0.230696  1
  Br  Br21  1  0.059668  0.230680  0.730696  1
