# generated using pymatgen
data_Re5GeAs13W
_symmetry_space_group_name_H-M   'P 1'
_cell_length_a   7.66104416
_cell_length_b   7.66100602
_cell_length_c   7.66100206
_cell_angle_alpha   109.60345190
_cell_angle_beta   109.20275964
_cell_angle_gamma   109.60761287
_symmetry_Int_Tables_number   1
_chemical_formula_structural   Re5GeAs13W
_chemical_formula_sum   'Re5 Ge1 As13 W1'
_cell_volume   346.12361137
_cell_formula_units_Z   1
loop_
 _symmetry_equiv_pos_site_id
 _symmetry_equiv_pos_as_xyz
  1  'x, y, z'
loop_
 _atom_site_type_symbol
 _atom_site_label
 _atom_site_symmetry_multiplicity
 _atom_site_fract_x
 _atom_site_fract_y
 _atom_site_fract_z
 _atom_site_occupancy
  Re  Re0  1  0.002377  0.338679  0.341062  1
  Re  Re1  1  0.002371  0.661313  0.663692  1
  Re  Re2  1  0.336531  0.338648  0.997879  1
  Re  Re3  1  0.659230  0.661357  0.997876  1
  Re  Re4  1  0.662567  0.000001  0.662564  1
  Ge  Ge5  1  0.750436  0.499991  0.250435  1
  As  As6  1  0.499820  0.748456  0.248275  1
  As  As7  1  0.499831  0.251542  0.751371  1
  As  As8  1  0.750489  0.251637  0.498860  1
  As  As9  1  0.247226  0.748364  0.498859  1
  As  As10  1  0.250619  0.500001  0.750623  1
  As  As11  1  0.998075  0.997610  0.330268  1
  As  As12  1  0.669135  0.002360  0.001086  1
  As  As13  1  0.998072  0.667808  0.000466  1
  As  As14  1  0.332658  0.332197  0.330266  1
  As  As15  1  0.998731  0.331957  0.001091  1
  As  As16  1  0.669136  0.668050  0.666778  1
  As  As17  1  0.332654  0.002389  0.000460  1
  As  As18  1  0.998734  0.997645  0.666775  1
  W  W19  1  0.341311  0.999993  0.341312  1
