# generated using pymatgen
data_Sm3Y(B4Ru)4
_symmetry_space_group_name_H-M   'P 1'
_cell_length_a   3.59371000
_cell_length_b   6.00566600
_cell_length_c   11.62014864
_cell_angle_alpha   89.94507919
_cell_angle_beta   90.00000000
_cell_angle_gamma   90.00000000
_symmetry_Int_Tables_number   1
_chemical_formula_structural   Sm3Y(B4Ru)4
_chemical_formula_sum   'Sm3 Y1 B16 Ru4'
_cell_volume   250.79315998
_cell_formula_units_Z   1
loop_
 _symmetry_equiv_pos_site_id
 _symmetry_equiv_pos_as_xyz
  1  'x, y, z'
loop_
 _atom_site_type_symbol
 _atom_site_label
 _atom_site_symmetry_multiplicity
 _atom_site_fract_x
 _atom_site_fract_y
 _atom_site_fract_z
 _atom_site_occupancy
  Sm  Sm0  1  0.000000  0.627460  0.349680  1
  Sm  Sm1  1  0.000000  0.372297  0.650701  1
  Sm  Sm2  1  0.000000  0.127697  0.149962  1
  Y  Y3  1  0.000000  0.872506  0.849851  1
  B  B4  1  0.500000  0.785937  0.184131  1
  B  B5  1  0.500000  0.212066  0.815464  1
  B  B6  1  0.500000  0.285688  0.315457  1
  B  B7  1  0.500000  0.714121  0.685730  1
  B  B8  1  0.500000  0.862996  0.029528  1
  B  B9  1  0.500000  0.137236  0.968422  1
  B  B10  1  0.500000  0.361831  0.469646  1
  B  B11  1  0.500000  0.637878  0.531379  1
  B  B12  1  0.500000  0.888516  0.454467  1
  B  B13  1  0.500000  0.110695  0.546661  1
  B  B14  1  0.500000  0.389281  0.045162  1
  B  B15  1  0.500000  0.612992  0.952986  1
  B  B16  1  0.500000  0.975309  0.309662  1
  B  B17  1  0.500000  0.023730  0.691849  1
  B  B18  1  0.500000  0.475535  0.189946  1
  B  B19  1  0.500000  0.525884  0.809314  1
  Ru  Ru20  1  0.000000  0.639211  0.090929  1
  Ru  Ru21  1  0.000000  0.361402  0.907784  1
  Ru  Ru22  1  0.000000  0.138125  0.408488  1
  Ru  Ru23  1  0.000000  0.861611  0.592799  1
