# generated using pymatgen
data_Zr3TaB4(Ru5W)2
_symmetry_space_group_name_H-M   'P 1'
_cell_length_a   9.49447402
_cell_length_b   9.49447464
_cell_length_c   3.05881100
_cell_angle_alpha   90.00000000
_cell_angle_beta   90.00000000
_cell_angle_gamma   90.10095965
_symmetry_Int_Tables_number   1
_chemical_formula_structural   Zr3TaB4(Ru5W)2
_chemical_formula_sum   'Zr3 Ta1 B4 Ru10 W2'
_cell_volume   275.73622041
_cell_formula_units_Z   1
loop_
 _symmetry_equiv_pos_site_id
 _symmetry_equiv_pos_as_xyz
  1  'x, y, z'
loop_
 _atom_site_type_symbol
 _atom_site_label
 _atom_site_symmetry_multiplicity
 _atom_site_fract_x
 _atom_site_fract_y
 _atom_site_fract_z
 _atom_site_occupancy
  Zr  Zr0  1  0.823982  0.676043  0.000000  1
  Zr  Zr1  1  0.176043  0.323982  0.000000  1
  Zr  Zr2  1  0.324643  0.824643  0.000000  1
  Ta  Ta3  1  0.676292  0.176292  0.000000  1
  B  B4  1  0.620831  0.879977  0.000000  1
  B  B5  1  0.379977  0.120831  0.000000  1
  B  B6  1  0.119904  0.619904  0.000000  1
  B  B7  1  0.878491  0.378491  0.000000  1
  Ru  Ru8  1  0.571396  0.717962  0.500000  1
  Ru  Ru9  1  0.433987  0.282909  0.500000  1
  Ru  Ru10  1  0.069721  0.782841  0.500000  1
  Ru  Ru11  1  0.923852  0.214377  0.500000  1
  Ru  Ru12  1  0.282841  0.569721  0.500000  1
  Ru  Ru13  1  0.714377  0.423852  0.500000  1
  Ru  Ru14  1  0.217962  0.071396  0.500000  1
  Ru  Ru15  1  0.782909  0.933987  0.500000  1
  Ru  Ru16  1  0.504467  0.004467  0.500000  1
  Ru  Ru17  1  0.998439  0.498439  0.500000  1
  W  W18  1  0.499245  0.500644  0.000000  1
  W  W19  1  0.000644  0.999245  0.000000  1
