# generated using pymatgen
data_Dy5VSi2(P5Ir9)2
_symmetry_space_group_name_H-M   'P 1'
_cell_length_a   12.70137856
_cell_length_b   12.81891043
_cell_length_c   3.97372600
_cell_angle_alpha   90.00000000
_cell_angle_beta   90.00000000
_cell_angle_gamma   120.64325650
_symmetry_Int_Tables_number   1
_chemical_formula_structural   Dy5VSi2(P5Ir9)2
_chemical_formula_sum   'Dy5 V1 Si2 P10 Ir18'
_cell_volume   556.64565806
_cell_formula_units_Z   1
loop_
 _symmetry_equiv_pos_site_id
 _symmetry_equiv_pos_as_xyz
  1  'x, y, z'
loop_
 _atom_site_type_symbol
 _atom_site_label
 _atom_site_symmetry_multiplicity
 _atom_site_fract_x
 _atom_site_fract_y
 _atom_site_fract_z
 _atom_site_occupancy
  Dy  Dy0  1  0.329882  0.664581  0.500000  1
  Dy  Dy1  1  0.672277  0.335915  0.500000  1
  Dy  Dy2  1  0.001540  0.810582  0.000000  1
  Dy  Dy3  1  0.183288  0.186103  0.000000  1
  Dy  Dy4  1  0.816197  0.000275  0.000000  1
  V  V5  1  0.001128  0.449115  0.500000  1
  Si  Si6  1  0.516388  0.683248  0.000000  1
  Si  Si7  1  0.319200  0.838043  0.000000  1
  P  P8  1  0.002524  0.632272  0.500000  1
  P  P9  1  0.357113  0.357611  0.500000  1
  P  P10  1  0.639795  0.995199  0.500000  1
  P  P11  1  0.159935  0.483144  0.000000  1
  P  P12  1  0.486008  0.180181  0.000000  1
  P  P13  1  0.692488  0.517088  0.000000  1
  P  P14  1  0.833660  0.316500  0.000000  1
  P  P15  1  0.997152  0.174373  0.500000  1
  P  P16  1  0.823763  0.817996  0.500000  1
  P  P17  1  0.180800  0.001814  0.500000  1
  Ir  Ir18  1  0.519221  0.873401  0.000000  1
  Ir  Ir19  1  0.132038  0.643377  0.000000  1
  Ir  Ir20  1  0.346358  0.487901  0.000000  1
  Ir  Ir21  1  0.491381  0.368111  0.000000  1
  Ir  Ir22  1  0.872714  0.509533  0.000000  1
  Ir  Ir23  1  0.638756  0.137109  0.000000  1
  Ir  Ir24  1  0.527266  0.549475  0.500000  1
  Ir  Ir25  1  0.454690  0.989217  0.500000  1
  Ir  Ir26  1  0.996857  0.283213  0.000000  1
  Ir  Ir27  1  0.718608  0.714102  0.000000  1
  Ir  Ir28  1  0.286617  0.006489  0.000000  1
  Ir  Ir29  1  0.629238  0.805554  0.500000  1
  Ir  Ir30  1  0.192944  0.823001  0.500000  1
  Ir  Ir31  1  0.175789  0.368877  0.500000  1
  Ir  Ir32  1  0.383235  0.185842  0.500000  1
  Ir  Ir33  1  0.803840  0.621782  0.500000  1
  Ir  Ir34  1  0.816461  0.190235  0.500000  1
  Ir  Ir35  1  0.000849  0.998741  0.500000  1
