# generated using pymatgen
data_Zr5P12Ru19
_symmetry_space_group_name_H-M   'P 1'
_cell_length_a   12.42080600
_cell_length_b   12.42080641
_cell_length_c   3.91643800
_cell_angle_alpha   90.00000000
_cell_angle_beta   90.00000000
_cell_angle_gamma   119.99999892
_symmetry_Int_Tables_number   1
_chemical_formula_structural   Zr5P12Ru19
_chemical_formula_sum   'Zr5 P12 Ru19'
_cell_volume   523.26473111
_cell_formula_units_Z   1
loop_
 _symmetry_equiv_pos_site_id
 _symmetry_equiv_pos_as_xyz
  1  'x, y, z'
loop_
 _atom_site_type_symbol
 _atom_site_label
 _atom_site_symmetry_multiplicity
 _atom_site_fract_x
 _atom_site_fract_y
 _atom_site_fract_z
 _atom_site_occupancy
  Zr  Zr0  1  0.189561  0.189561  0.500000  1
  Zr  Zr1  1  0.810439  0.000000  0.500000  1
  Zr  Zr2  1  0.000000  0.810439  0.500000  1
  Zr  Zr3  1  0.333333  0.666667  0.000000  1
  Zr  Zr4  1  0.666667  0.333333  0.000000  1
  P  P5  1  0.819476  0.819476  0.000000  1
  P  P6  1  0.180524  0.000000  0.000000  1
  P  P7  1  0.000000  0.180524  0.000000  1
  P  P8  1  0.172742  0.479179  0.500000  1
  P  P9  1  0.520821  0.693564  0.500000  1
  P  P10  1  0.306436  0.827258  0.500000  1
  P  P11  1  0.693564  0.520821  0.500000  1
  P  P12  1  0.827258  0.306436  0.500000  1
  P  P13  1  0.479179  0.172742  0.500000  1
  P  P14  1  0.370157  0.370157  0.000000  1
  P  P15  1  0.629843  0.000000  0.000000  1
  P  P16  1  0.000000  0.629843  0.000000  1
  Ru  Ru17  1  0.555108  0.555108  0.000000  1
  Ru  Ru18  1  0.444892  0.000000  0.000000  1
  Ru  Ru19  1  0.000000  0.444892  0.000000  1
  Ru  Ru20  1  0.720990  0.720990  0.500000  1
  Ru  Ru21  1  0.279010  0.000000  0.500000  1
  Ru  Ru22  1  0.000000  0.279010  0.500000  1
  Ru  Ru23  1  0.184234  0.374071  0.000000  1
  Ru  Ru24  1  0.625929  0.810163  0.000000  1
  Ru  Ru25  1  0.189837  0.815766  0.000000  1
  Ru  Ru26  1  0.810163  0.625929  0.000000  1
  Ru  Ru27  1  0.815766  0.189837  0.000000  1
  Ru  Ru28  1  0.374071  0.184234  0.000000  1
  Ru  Ru29  1  0.365739  0.493924  0.500000  1
  Ru  Ru30  1  0.506076  0.871815  0.500000  1
  Ru  Ru31  1  0.128185  0.634261  0.500000  1
  Ru  Ru32  1  0.871815  0.506076  0.500000  1
  Ru  Ru33  1  0.634261  0.128185  0.500000  1
  Ru  Ru34  1  0.493924  0.365739  0.500000  1
  Ru  Ru35  1  0.000000  0.000000  0.000000  1
