# generated using pymatgen
data_LiY19(Cd3Ru)2
_symmetry_space_group_name_H-M   'P 1'
_cell_length_a   9.58509000
_cell_length_b   9.58508962
_cell_length_c   9.80022200
_cell_angle_alpha   90.00000000
_cell_angle_beta   90.00000000
_cell_angle_gamma   120.00000131
_symmetry_Int_Tables_number   1
_chemical_formula_structural   LiY19(Cd3Ru)2
_chemical_formula_sum   'Li1 Y19 Cd6 Ru2'
_cell_volume   779.75633651
_cell_formula_units_Z   1
loop_
 _symmetry_equiv_pos_site_id
 _symmetry_equiv_pos_as_xyz
  1  'x, y, z'
loop_
 _atom_site_type_symbol
 _atom_site_label
 _atom_site_symmetry_multiplicity
 _atom_site_fract_x
 _atom_site_fract_y
 _atom_site_fract_z
 _atom_site_occupancy
  Li  Li0  1  0.000000  0.000000  0.500000  1
  Y  Y1  1  0.000000  0.000000  0.000000  1
  Y  Y2  1  0.207919  0.792081  0.440480  1
  Y  Y3  1  0.207919  0.415838  0.440480  1
  Y  Y4  1  0.584162  0.792081  0.440480  1
  Y  Y5  1  0.792081  0.207919  0.559520  1
  Y  Y6  1  0.792081  0.584162  0.559520  1
  Y  Y7  1  0.415838  0.207919  0.559520  1
  Y  Y8  1  0.789435  0.210565  0.941295  1
  Y  Y9  1  0.789435  0.578869  0.941295  1
  Y  Y10  1  0.421131  0.210565  0.941295  1
  Y  Y11  1  0.210565  0.789435  0.058705  1
  Y  Y12  1  0.210565  0.421131  0.058705  1
  Y  Y13  1  0.578869  0.789435  0.058705  1
  Y  Y14  1  0.541775  0.458225  0.251915  1
  Y  Y15  1  0.541775  0.083549  0.251915  1
  Y  Y16  1  0.916451  0.458225  0.251915  1
  Y  Y17  1  0.458225  0.541775  0.748085  1
  Y  Y18  1  0.458225  0.916451  0.748085  1
  Y  Y19  1  0.083549  0.541775  0.748085  1
  Cd  Cd20  1  0.888156  0.111844  0.257615  1
  Cd  Cd21  1  0.888156  0.776314  0.257615  1
  Cd  Cd22  1  0.223686  0.111844  0.257615  1
  Cd  Cd23  1  0.111844  0.888156  0.742385  1
  Cd  Cd24  1  0.111844  0.223686  0.742385  1
  Cd  Cd25  1  0.776314  0.888156  0.742385  1
  Ru  Ru26  1  0.333333  0.666667  0.250782  1
  Ru  Ru27  1  0.666667  0.333333  0.749218  1
