# generated using pymatgen
data_Sm8SiPtI12
_symmetry_space_group_name_H-M   'P 1'
_cell_length_a   4.30252400
_cell_length_b   14.32451781
_cell_length_c   15.07405297
_cell_angle_alpha   89.73641852
_cell_angle_beta   90.00000000
_cell_angle_gamma   90.00000000
_symmetry_Int_Tables_number   1
_chemical_formula_structural   Sm8SiPtI12
_chemical_formula_sum   'Sm8 Si1 Pt1 I12'
_cell_volume   929.02789565
_cell_formula_units_Z   1
loop_
 _symmetry_equiv_pos_site_id
 _symmetry_equiv_pos_as_xyz
  1  'x, y, z'
loop_
 _atom_site_type_symbol
 _atom_site_label
 _atom_site_symmetry_multiplicity
 _atom_site_fract_x
 _atom_site_fract_y
 _atom_site_fract_z
 _atom_site_occupancy
  Sm  Sm0  1  0.500000  0.113769  0.347875  1
  Sm  Sm1  1  0.500000  0.886231  0.652125  1
  Sm  Sm2  1  0.500000  0.614312  0.153307  1
  Sm  Sm3  1  0.500000  0.385688  0.846693  1
  Sm  Sm4  1  0.000000  0.111694  0.574927  1
  Sm  Sm5  1  0.000000  0.888306  0.425073  1
  Sm  Sm6  1  0.000000  0.612281  0.924659  1
  Sm  Sm7  1  0.000000  0.387719  0.075341  1
  Si  Si8  1  0.500000  0.500000  0.000000  1
  Pt  Pt9  1  0.500000  0.000000  0.500000  1
  I  I10  1  0.500000  0.244318  0.162255  1
  I  I11  1  0.500000  0.755682  0.837745  1
  I  I12  1  0.500000  0.743408  0.337113  1
  I  I13  1  0.500000  0.256592  0.662887  1
  I  I14  1  0.000000  0.260449  0.413508  1
  I  I15  1  0.000000  0.739551  0.586492  1
  I  I16  1  0.000000  0.758249  0.085542  1
  I  I17  1  0.000000  0.241751  0.914458  1
  I  I18  1  0.000000  0.998899  0.238486  1
  I  I19  1  0.000000  0.001101  0.761514  1
  I  I20  1  0.000000  0.498560  0.259259  1
  I  I21  1  0.000000  0.501440  0.740741  1
