# generated using pymatgen
data_PtPb3O7
_symmetry_space_group_name_H-M   'P 1'
_cell_length_a   6.63581259
_cell_length_b   6.63581118
_cell_length_c   7.46269800
_cell_angle_alpha   90.00000000
_cell_angle_beta   90.00000000
_cell_angle_gamma   109.24510446
_symmetry_Int_Tables_number   1
_chemical_formula_structural   PtPb3O7
_chemical_formula_sum   'Pt2 Pb6 O14'
_cell_volume   310.24865148
_cell_formula_units_Z   2
loop_
 _symmetry_equiv_pos_site_id
 _symmetry_equiv_pos_as_xyz
  1  'x, y, z'
loop_
 _atom_site_type_symbol
 _atom_site_label
 _atom_site_symmetry_multiplicity
 _atom_site_fract_x
 _atom_site_fract_y
 _atom_site_fract_z
 _atom_site_occupancy
  Pt  Pt0  1  0.000000  0.000000  0.500000  1
  Pt  Pt1  1  0.000000  0.000000  0.000000  1
  Pb  Pb2  1  0.500000  0.500000  0.500000  1
  Pb  Pb3  1  0.500000  0.500000  0.000000  1
  Pb  Pb4  1  0.531341  0.996300  0.750000  1
  Pb  Pb5  1  0.996300  0.531341  0.250000  1
  Pb  Pb6  1  0.468659  0.003700  0.250000  1
  Pb  Pb7  1  0.003700  0.468659  0.750000  1
  O  O8  1  0.678857  0.930361  0.476076  1
  O  O9  1  0.930361  0.678857  0.523924  1
  O  O10  1  0.678857  0.930361  0.023924  1
  O  O11  1  0.930361  0.678857  0.976076  1
  O  O12  1  0.321143  0.069639  0.523924  1
  O  O13  1  0.069639  0.321143  0.476076  1
  O  O14  1  0.321143  0.069639  0.976076  1
  O  O15  1  0.069639  0.321143  0.023924  1
  O  O16  1  0.931175  0.068825  0.750000  1
  O  O17  1  0.068825  0.931175  0.250000  1
  O  O18  1  0.345467  0.654533  0.750000  1
  O  O19  1  0.654533  0.345467  0.250000  1
  O  O20  1  0.658296  0.341704  0.750000  1
  O  O21  1  0.341704  0.658296  0.250000  1
