# generated using pymatgen
data_Sb8Pd5I2
_symmetry_space_group_name_H-M   'P 1'
_cell_length_a   21.21624610
_cell_length_b   21.21624550
_cell_length_c   6.87714375
_cell_angle_alpha   76.04091952
_cell_angle_beta   76.04091954
_cell_angle_gamma   7.79935029
_symmetry_Int_Tables_number   1
_chemical_formula_structural   Sb8Pd5I2
_chemical_formula_sum   'Sb8 Pd5 I2'
_cell_volume   407.62225581
_cell_formula_units_Z   1
loop_
 _symmetry_equiv_pos_site_id
 _symmetry_equiv_pos_as_xyz
  1  'x, y, z'
loop_
 _atom_site_type_symbol
 _atom_site_label
 _atom_site_symmetry_multiplicity
 _atom_site_fract_x
 _atom_site_fract_y
 _atom_site_fract_z
 _atom_site_occupancy
  Sb  Sb0  1  0.689699  0.689699  0.627397  1
  Sb  Sb1  1  0.279156  0.279156  0.733215  1
  Sb  Sb2  1  0.873172  0.873172  0.783927  1
  Sb  Sb3  1  0.539191  0.539191  0.241791  1
  Sb  Sb4  1  0.148240  0.148240  0.154761  1
  Sb  Sb5  1  0.738077  0.738077  0.218003  1
  Sb  Sb6  1  0.326971  0.326971  0.303877  1
  Sb  Sb7  1  0.924850  0.924850  0.333502  1
  Pd  Pd8  1  0.988451  0.988451  0.132172  1
  Pd  Pd9  1  0.601091  0.601091  0.008195  1
  Pd  Pd10  1  0.211522  0.211522  0.929466  1
  Pd  Pd11  1  0.807323  0.807323  0.003987  1
  Pd  Pd12  1  0.390225  0.390225  0.097014  1
  I  I13  1  0.087926  0.087926  0.667432  1
  I  I14  1  0.479830  0.479830  0.765262  1
