# generated using pymatgen
data_Ho3Zr(Si5Os3)2
_symmetry_space_group_name_H-M   'P 1'
_cell_length_a   8.07061587
_cell_length_b   8.07552999
_cell_length_c   5.78237762
_cell_angle_alpha   70.63903863
_cell_angle_beta   70.83422750
_cell_angle_gamma   94.14879793
_symmetry_Int_Tables_number   1
_chemical_formula_structural   Ho3Zr(Si5Os3)2
_chemical_formula_sum   'Ho3 Zr1 Si10 Os6'
_cell_volume   328.82955952
_cell_formula_units_Z   1
loop_
 _symmetry_equiv_pos_site_id
 _symmetry_equiv_pos_as_xyz
  1  'x, y, z'
loop_
 _atom_site_type_symbol
 _atom_site_label
 _atom_site_symmetry_multiplicity
 _atom_site_fract_x
 _atom_site_fract_y
 _atom_site_fract_z
 _atom_site_occupancy
  Ho  Ho0  1  0.398560  0.132493  0.744974  1
  Ho  Ho1  1  0.132325  0.399151  0.245465  1
  Ho  Ho2  1  0.600454  0.871050  0.251843  1
  Zr  Zr3  1  0.868665  0.596443  0.752425  1
  Si  Si4  1  0.066101  0.262920  0.833894  1
  Si  Si5  1  0.739275  0.924597  0.668713  1
  Si  Si6  1  0.931825  0.738887  0.164660  1
  Si  Si7  1  0.263210  0.068365  0.333849  1
  Si  Si8  1  0.203404  0.793056  0.751027  1
  Si  Si9  1  0.794742  0.205692  0.249649  1
  Si  Si10  1  0.515504  0.485976  0.749854  1
  Si  Si11  1  0.487181  0.515349  0.251030  1
  Si  Si12  1  0.775386  0.229942  0.751358  1
  Si  Si13  1  0.223789  0.774209  0.251116  1
  Os  Os14  1  0.254654  0.545471  0.630631  1
  Os  Os15  1  0.455414  0.743523  0.868595  1
  Os  Os16  1  0.747097  0.456982  0.365522  1
  Os  Os17  1  0.545030  0.258857  0.132039  1
  Os  Os18  1  0.001253  0.996281  0.750146  1
  Os  Os19  1  0.996131  0.000757  0.253208  1
