# generated using pymatgen
data_PSBr3
_symmetry_space_group_name_H-M   'P 1'
_cell_length_a   11.19296100
_cell_length_b   6.88345800
_cell_length_c   10.30593100
_cell_angle_alpha   90.00000000
_cell_angle_beta   90.00000000
_cell_angle_gamma   90.00000000
_symmetry_Int_Tables_number   1
_chemical_formula_structural   PSBr3
_chemical_formula_sum   'P4 S4 Br12'
_cell_volume   794.03361394
_cell_formula_units_Z   4
loop_
 _symmetry_equiv_pos_site_id
 _symmetry_equiv_pos_as_xyz
  1  'x, y, z'
loop_
 _atom_site_type_symbol
 _atom_site_label
 _atom_site_symmetry_multiplicity
 _atom_site_fract_x
 _atom_site_fract_y
 _atom_site_fract_z
 _atom_site_occupancy
  P  P0  1  0.681190  0.140082  0.242468  1
  P  P1  1  0.181190  0.359918  0.242468  1
  P  P2  1  0.818810  0.640081  0.742468  1
  P  P3  1  0.318810  0.859919  0.742468  1
  S  S4  1  0.834955  0.016993  0.237371  1
  S  S5  1  0.334955  0.483006  0.237371  1
  S  S6  1  0.665045  0.516993  0.737371  1
  S  S7  1  0.165045  0.983007  0.737371  1
  Br  Br8  1  0.143722  0.166688  0.074903  1
  Br  Br9  1  0.643721  0.333312  0.074903  1
  Br  Br10  1  0.024512  0.558419  0.245529  1
  Br  Br11  1  0.524512  0.941581  0.245529  1
  Br  Br12  1  0.151412  0.172000  0.414530  1
  Br  Br13  1  0.651412  0.328000  0.414530  1
  Br  Br14  1  0.356278  0.666687  0.574903  1
  Br  Br15  1  0.856278  0.833313  0.574903  1
  Br  Br16  1  0.475487  0.058418  0.745529  1
  Br  Br17  1  0.975487  0.441581  0.745529  1
  Br  Br18  1  0.348588  0.671999  0.914530  1
  Br  Br19  1  0.848588  0.828001  0.914530  1
