# generated using pymatgen
data_Er3Lu7NiAg3
_symmetry_space_group_name_H-M   'P 1'
_cell_length_a   9.40632000
_cell_length_b   9.40632030
_cell_length_c   9.36684900
_cell_angle_alpha   90.00000000
_cell_angle_beta   90.00000000
_cell_angle_gamma   119.99999191
_symmetry_Int_Tables_number   1
_chemical_formula_structural   Er3Lu7NiAg3
_chemical_formula_sum   'Er6 Lu14 Ni2 Ag6'
_cell_volume   717.73429539
_cell_formula_units_Z   2
loop_
 _symmetry_equiv_pos_site_id
 _symmetry_equiv_pos_as_xyz
  1  'x, y, z'
loop_
 _atom_site_type_symbol
 _atom_site_label
 _atom_site_symmetry_multiplicity
 _atom_site_fract_x
 _atom_site_fract_y
 _atom_site_fract_z
 _atom_site_occupancy
  Er  Er0  1  0.542688  0.457312  0.250000  1
  Er  Er1  1  0.542688  0.085375  0.250000  1
  Er  Er2  1  0.914625  0.457312  0.250000  1
  Er  Er3  1  0.457312  0.542688  0.750000  1
  Er  Er4  1  0.457312  0.914625  0.750000  1
  Er  Er5  1  0.085375  0.542688  0.750000  1
  Lu  Lu6  1  0.000000  0.000000  0.500000  1
  Lu  Lu7  1  0.000000  0.000000  0.000000  1
  Lu  Lu8  1  0.209626  0.790374  0.439136  1
  Lu  Lu9  1  0.209626  0.419251  0.439136  1
  Lu  Lu10  1  0.580749  0.790374  0.439136  1
  Lu  Lu11  1  0.790374  0.209626  0.560864  1
  Lu  Lu12  1  0.790374  0.580749  0.560864  1
  Lu  Lu13  1  0.419251  0.209626  0.560864  1
  Lu  Lu14  1  0.790374  0.209626  0.939136  1
  Lu  Lu15  1  0.790374  0.580749  0.939136  1
  Lu  Lu16  1  0.419251  0.209626  0.939136  1
  Lu  Lu17  1  0.209626  0.790374  0.060864  1
  Lu  Lu18  1  0.209626  0.419251  0.060864  1
  Lu  Lu19  1  0.580749  0.790374  0.060864  1
  Ni  Ni20  1  0.333333  0.666667  0.250000  1
  Ni  Ni21  1  0.666667  0.333333  0.750000  1
  Ag  Ag22  1  0.884092  0.115908  0.250000  1
  Ag  Ag23  1  0.884092  0.768182  0.250000  1
  Ag  Ag24  1  0.231818  0.115908  0.250000  1
  Ag  Ag25  1  0.115908  0.884092  0.750000  1
  Ag  Ag26  1  0.115908  0.231818  0.750000  1
  Ag  Ag27  1  0.768182  0.884092  0.750000  1
