# generated using pymatgen
data_Er8Si8Pt7Rh
_symmetry_space_group_name_H-M   'P 1'
_cell_length_a   4.28304100
_cell_length_b   7.39845068
_cell_length_c   13.95128300
_cell_angle_alpha   89.82456823
_cell_angle_beta   90.00000000
_cell_angle_gamma   90.00000000
_symmetry_Int_Tables_number   1
_chemical_formula_structural   Er8Si8Pt7Rh
_chemical_formula_sum   'Er8 Si8 Pt7 Rh1'
_cell_volume   442.08433627
_cell_formula_units_Z   1
loop_
 _symmetry_equiv_pos_site_id
 _symmetry_equiv_pos_as_xyz
  1  'x, y, z'
loop_
 _atom_site_type_symbol
 _atom_site_label
 _atom_site_symmetry_multiplicity
 _atom_site_fract_x
 _atom_site_fract_y
 _atom_site_fract_z
 _atom_site_occupancy
  Er  Er0  1  0.000000  0.302258  0.999124  1
  Er  Er1  1  0.500000  0.697405  0.500491  1
  Er  Er2  1  0.000000  0.294700  0.502108  1
  Er  Er3  1  0.500000  0.706240  0.999099  1
  Er  Er4  1  0.000000  0.205467  0.249942  1
  Er  Er5  1  0.500000  0.794500  0.251020  1
  Er  Er6  1  0.000000  0.204990  0.750075  1
  Er  Er7  1  0.500000  0.795205  0.747586  1
  Si  Si8  1  0.000000  0.901702  0.593320  1
  Si  Si9  1  0.500000  0.093386  0.907271  1
  Si  Si10  1  0.000000  0.907253  0.408543  1
  Si  Si11  1  0.500000  0.092910  0.092073  1
  Si  Si12  1  0.000000  0.591453  0.149250  1
  Si  Si13  1  0.500000  0.407986  0.351924  1
  Si  Si14  1  0.000000  0.593694  0.848973  1
  Si  Si15  1  0.500000  0.410284  0.647797  1
  Pt  Pt16  1  0.500000  0.078010  0.607796  1
  Pt  Pt17  1  0.000000  0.922792  0.891545  1
  Pt  Pt18  1  0.500000  0.077218  0.391740  1
  Pt  Pt19  1  0.000000  0.923543  0.108319  1
  Pt  Pt20  1  0.500000  0.419017  0.152785  1
  Pt  Pt21  1  0.000000  0.580684  0.345945  1
  Pt  Pt22  1  0.500000  0.420704  0.845065  1
  Rh  Rh23  1  0.000000  0.578597  0.658208  1
