# generated using pymatgen
data_Mn2V(PO4)2
_symmetry_space_group_name_H-M   'P 1'
_cell_length_a   4.91507300
_cell_length_b   6.25659900
_cell_length_c   10.71258139
_cell_angle_alpha   89.69119984
_cell_angle_beta   90.00000000
_cell_angle_gamma   90.00000000
_symmetry_Int_Tables_number   1
_chemical_formula_structural   Mn2V(PO4)2
_chemical_formula_sum   'Mn4 V2 P4 O16'
_cell_volume   329.42467072
_cell_formula_units_Z   2
loop_
 _symmetry_equiv_pos_site_id
 _symmetry_equiv_pos_as_xyz
  1  'x, y, z'
loop_
 _atom_site_type_symbol
 _atom_site_label
 _atom_site_symmetry_multiplicity
 _atom_site_fract_x
 _atom_site_fract_y
 _atom_site_fract_z
 _atom_site_occupancy
  Mn  Mn0  1  0.515952  0.765003  0.782281  1
  Mn  Mn1  1  0.015952  0.234997  0.717719  1
  Mn  Mn2  1  0.484048  0.234997  0.217719  1
  Mn  Mn3  1  0.984048  0.765003  0.282281  1
  V  V4  1  0.500000  0.500000  0.500000  1
  V  V5  1  0.000000  0.500000  0.000000  1
  P  P6  1  0.071985  0.737654  0.599871  1
  P  P7  1  0.571985  0.262346  0.900129  1
  P  P8  1  0.928015  0.262346  0.400129  1
  P  P9  1  0.428015  0.737654  0.099871  1
  O  O10  1  0.223845  0.535916  0.659380  1
  O  O11  1  0.723845  0.464084  0.840620  1
  O  O12  1  0.776155  0.464084  0.340620  1
  O  O13  1  0.276155  0.535916  0.159380  1
  O  O14  1  0.177527  0.926950  0.678795  1
  O  O15  1  0.677527  0.073050  0.821205  1
  O  O16  1  0.822473  0.073050  0.321205  1
  O  O17  1  0.322473  0.926950  0.178795  1
  O  O18  1  0.319252  0.743058  0.963490  1
  O  O19  1  0.819252  0.256942  0.536510  1
  O  O20  1  0.740546  0.718689  0.106667  1
  O  O21  1  0.240546  0.281311  0.393333  1
  O  O22  1  0.259454  0.281311  0.893333  1
  O  O23  1  0.759454  0.718689  0.606667  1
  O  O24  1  0.180748  0.743058  0.463490  1
  O  O25  1  0.680748  0.256942  0.036510  1
