# generated using pymatgen
data_La11Cd9Au4
_symmetry_space_group_name_H-M   'P 1'
_cell_length_a   13.94267201
_cell_length_b   13.94267018
_cell_length_c   3.81170600
_cell_angle_alpha   90.00000000
_cell_angle_beta   90.00000000
_cell_angle_gamma   68.67801419
_symmetry_Int_Tables_number   1
_chemical_formula_structural   La11Cd9Au4
_chemical_formula_sum   'La11 Cd9 Au4'
_cell_volume   690.26897913
_cell_formula_units_Z   1
loop_
 _symmetry_equiv_pos_site_id
 _symmetry_equiv_pos_as_xyz
  1  'x, y, z'
loop_
 _atom_site_type_symbol
 _atom_site_label
 _atom_site_symmetry_multiplicity
 _atom_site_fract_x
 _atom_site_fract_y
 _atom_site_fract_z
 _atom_site_occupancy
  La  La0  1  0.301877  0.698124  0.000000  1
  La  La1  1  0.698124  0.301877  0.000000  1
  La  La2  1  0.000000  0.000000  0.000000  1
  La  La3  1  0.418152  0.937360  0.000000  1
  La  La4  1  0.581848  0.062640  0.000000  1
  La  La5  1  0.062640  0.581848  0.000000  1
  La  La6  1  0.937360  0.418152  0.000000  1
  La  La7  1  0.161882  0.161882  0.000000  1
  La  La8  1  0.838117  0.838117  0.000000  1
  La  La9  1  0.368794  0.368794  0.000000  1
  La  La10  1  0.631206  0.631206  0.000000  1
  Cd  Cd11  1  0.364566  0.163398  0.500002  1
  Cd  Cd12  1  0.635434  0.836602  0.500002  1
  Cd  Cd13  1  0.836602  0.635434  0.500002  1
  Cd  Cd14  1  0.163398  0.364566  0.500002  1
  Cd  Cd15  1  0.215902  0.927613  0.500002  1
  Cd  Cd16  1  0.784098  0.072387  0.500002  1
  Cd  Cd17  1  0.072387  0.784098  0.500002  1
  Cd  Cd18  1  0.927613  0.215902  0.500002  1
  Cd  Cd19  1  0.500000  0.500000  0.500002  1
  Au  Au20  1  0.450135  0.751821  0.500002  1
  Au  Au21  1  0.549865  0.248179  0.500002  1
  Au  Au22  1  0.248179  0.549865  0.500002  1
  Au  Au23  1  0.751821  0.450135  0.500002  1
