# generated using pymatgen
data_TbMgCuNi3
_symmetry_space_group_name_H-M   'P 1'
_cell_length_a   5.00182635
_cell_length_b   5.00182666
_cell_length_c   4.95234544
_cell_angle_alpha   59.66893030
_cell_angle_beta   59.66892662
_cell_angle_gamma   60.00000587
_symmetry_Int_Tables_number   1
_chemical_formula_structural   TbMgCuNi3
_chemical_formula_sum   'Tb1 Mg1 Cu1 Ni3'
_cell_volume   87.16892759
_cell_formula_units_Z   1
loop_
 _symmetry_equiv_pos_site_id
 _symmetry_equiv_pos_as_xyz
  1  'x, y, z'
loop_
 _atom_site_type_symbol
 _atom_site_label
 _atom_site_symmetry_multiplicity
 _atom_site_fract_x
 _atom_site_fract_y
 _atom_site_fract_z
 _atom_site_occupancy
  Tb  Tb0  1  0.248880  0.248880  0.253360  1
  Mg  Mg1  1  0.999971  0.999971  0.000089  1
  Cu  Cu2  1  0.626006  0.626006  0.121983  1
  Ni  Ni3  1  0.626680  0.121784  0.624855  1
  Ni  Ni4  1  0.121784  0.626680  0.624855  1
  Ni  Ni5  1  0.626680  0.626680  0.624855  1
