# generated using pymatgen
data_DyY5OsO12
_symmetry_space_group_name_H-M   'P 1'
_cell_length_a   6.51062883
_cell_length_b   6.48244080
_cell_length_c   6.48063453
_cell_angle_alpha   98.59540017
_cell_angle_beta   98.67460290
_cell_angle_gamma   98.65122420
_symmetry_Int_Tables_number   1
_chemical_formula_structural   DyY5OsO12
_chemical_formula_sum   'Dy1 Y5 Os1 O12'
_cell_volume   263.12926850
_cell_formula_units_Z   1
loop_
 _symmetry_equiv_pos_site_id
 _symmetry_equiv_pos_as_xyz
  1  'x, y, z'
loop_
 _atom_site_type_symbol
 _atom_site_label
 _atom_site_symmetry_multiplicity
 _atom_site_fract_x
 _atom_site_fract_y
 _atom_site_fract_z
 _atom_site_occupancy
  Dy  Dy0  1  0.856655  0.389576  0.686340  1
  Y  Y1  1  0.610343  0.313310  0.143387  1
  Y  Y2  1  0.315569  0.144648  0.611131  1
  Y  Y3  1  0.684725  0.855455  0.389085  1
  Y  Y4  1  0.389578  0.686412  0.856438  1
  Y  Y5  1  0.143206  0.609666  0.313485  1
  Os  Os6  1  0.999802  0.999973  0.999785  1
  O  O7  1  0.926682  0.034969  0.704757  1
  O  O8  1  0.964222  0.296431  0.072840  1
  O  O9  1  0.593350  0.177487  0.434144  1
  O  O10  1  0.823299  0.567051  0.409575  1
  O  O11  1  0.296266  0.072087  0.964888  1
  O  O12  1  0.567708  0.408608  0.822552  1
  O  O13  1  0.432661  0.591497  0.177479  1
  O  O14  1  0.703570  0.927986  0.035053  1
  O  O15  1  0.176707  0.432512  0.591628  1
  O  O16  1  0.407547  0.822946  0.566391  1
  O  O17  1  0.034917  0.703563  0.926132  1
  O  O18  1  0.073193  0.965825  0.294909  1
