# generated using pymatgen
data_Li7Ho8ZnPt8
_symmetry_space_group_name_H-M   'P 1'
_cell_length_a   9.35345036
_cell_length_b   7.96354262
_cell_length_c   7.02980206
_cell_angle_alpha   90.08779211
_cell_angle_beta   89.90269009
_cell_angle_gamma   115.40654300
_symmetry_Int_Tables_number   1
_chemical_formula_structural   Li7Ho8ZnPt8
_chemical_formula_sum   'Li7 Ho8 Zn1 Pt8'
_cell_volume   472.98337714
_cell_formula_units_Z   1
loop_
 _symmetry_equiv_pos_site_id
 _symmetry_equiv_pos_as_xyz
  1  'x, y, z'
loop_
 _atom_site_type_symbol
 _atom_site_label
 _atom_site_symmetry_multiplicity
 _atom_site_fract_x
 _atom_site_fract_y
 _atom_site_fract_z
 _atom_site_occupancy
  Li  Li0  1  0.194676  0.847446  0.373955  1
  Li  Li1  1  0.694133  0.846849  0.121365  1
  Li  Li2  1  0.806896  0.654266  0.874946  1
  Li  Li3  1  0.807882  0.153833  0.874137  1
  Li  Li4  1  0.304289  0.153778  0.621052  1
  Li  Li5  1  0.304550  0.651384  0.618342  1
  Li  Li6  1  0.693457  0.346284  0.120215  1
  Ho  Ho7  1  0.569837  0.036530  0.444185  1
  Ho  Ho8  1  0.568631  0.534296  0.447567  1
  Ho  Ho9  1  0.929866  0.464380  0.546101  1
  Ho  Ho10  1  0.430734  0.963994  0.946088  1
  Ho  Ho11  1  0.428688  0.463992  0.947560  1
  Ho  Ho12  1  0.072827  0.535747  0.051122  1
  Ho  Ho13  1  0.930456  0.964574  0.547382  1
  Ho  Ho14  1  0.073315  0.038365  0.051803  1
  Zn  Zn15  1  0.190124  0.344132  0.375521  1
  Pt  Pt16  1  0.124390  0.314060  0.753993  1
  Pt  Pt17  1  0.121275  0.810219  0.757366  1
  Pt  Pt18  1  0.622092  0.810722  0.737648  1
  Pt  Pt19  1  0.879323  0.689475  0.255980  1
  Pt  Pt20  1  0.876781  0.188571  0.254191  1
  Pt  Pt21  1  0.375927  0.188653  0.241507  1
  Pt  Pt22  1  0.377567  0.686012  0.241446  1
  Pt  Pt23  1  0.622285  0.312440  0.738499  1
