# generated using pymatgen
data_SrAc(PRh)2
_symmetry_space_group_name_H-M   'P 1'
_cell_length_a   6.41795500
_cell_length_b   6.42084249
_cell_length_c   6.41037300
_cell_angle_alpha   90.21567029
_cell_angle_beta   90.00000000
_cell_angle_gamma   90.00000000
_symmetry_Int_Tables_number   1
_chemical_formula_structural   SrAc(PRh)2
_chemical_formula_sum   'Sr2 Ac2 P4 Rh4'
_cell_volume   264.16112634
_cell_formula_units_Z   2
loop_
 _symmetry_equiv_pos_site_id
 _symmetry_equiv_pos_as_xyz
  1  'x, y, z'
loop_
 _atom_site_type_symbol
 _atom_site_label
 _atom_site_symmetry_multiplicity
 _atom_site_fract_x
 _atom_site_fract_y
 _atom_site_fract_z
 _atom_site_occupancy
  Sr  Sr0  1  0.390847  0.887146  0.608427  1
  Sr  Sr1  1  0.890847  0.612854  0.391573  1
  Ac  Ac2  1  0.613674  0.389878  0.884216  1
  Ac  Ac3  1  0.113674  0.110122  0.115784  1
  P  P4  1  0.665222  0.168794  0.333677  1
  P  P5  1  0.165222  0.331206  0.666323  1
  P  P6  1  0.332666  0.665675  0.167428  1
  P  P7  1  0.832666  0.834325  0.832572  1
  Rh  Rh8  1  0.087025  0.586097  0.912407  1
  Rh  Rh9  1  0.587025  0.913903  0.087593  1
  Rh  Rh10  1  0.910565  0.088679  0.587571  1
  Rh  Rh11  1  0.410565  0.411321  0.412429  1
