# generated using pymatgen
data_La9Nd11(Ge2Rh)4
_symmetry_space_group_name_H-M   'P 1'
_cell_length_a   8.05149132
_cell_length_b   8.90645000
_cell_length_c   12.52836203
_cell_angle_alpha   90.00000000
_cell_angle_beta   89.89657297
_cell_angle_gamma   90.00000000
_symmetry_Int_Tables_number   1
_chemical_formula_structural   La9Nd11(Ge2Rh)4
_chemical_formula_sum   'La9 Nd11 Ge8 Rh4'
_cell_volume   898.40994482
_cell_formula_units_Z   1
loop_
 _symmetry_equiv_pos_site_id
 _symmetry_equiv_pos_as_xyz
  1  'x, y, z'
loop_
 _atom_site_type_symbol
 _atom_site_label
 _atom_site_symmetry_multiplicity
 _atom_site_fract_x
 _atom_site_fract_y
 _atom_site_fract_z
 _atom_site_occupancy
  La  La0  1  0.681931  0.465635  0.073218  1
  La  La1  1  0.182066  0.533644  0.427152  1
  La  La2  1  0.316946  0.966845  0.927344  1
  La  La3  1  0.818115  0.033815  0.572640  1
  La  La4  1  0.316946  0.533155  0.927344  1
  La  La5  1  0.818115  0.466185  0.572640  1
  La  La6  1  0.681931  0.034365  0.073218  1
  La  La7  1  0.182066  0.966356  0.427152  1
  La  La8  1  0.668751  0.750000  0.782603  1
  Nd  Nd9  1  0.964224  0.750000  0.999834  1
  Nd  Nd10  1  0.462506  0.250000  0.500523  1
  Nd  Nd11  1  0.037645  0.250000  0.001459  1
  Nd  Nd12  1  0.536944  0.750000  0.498433  1
  Nd  Nd13  1  0.350985  0.750000  0.207525  1
  Nd  Nd14  1  0.851164  0.250000  0.292190  1
  Nd  Nd15  1  0.648634  0.250000  0.792223  1
  Nd  Nd16  1  0.149558  0.750000  0.707303  1
  Nd  Nd17  1  0.830802  0.750000  0.281547  1
  Nd  Nd18  1  0.330497  0.250000  0.218601  1
  Nd  Nd19  1  0.169520  0.250000  0.718346  1
  Ge  Ge20  1  0.562985  0.495285  0.328894  1
  Ge  Ge21  1  0.063130  0.504749  0.170974  1
  Ge  Ge22  1  0.435570  0.996318  0.670328  1
  Ge  Ge23  1  0.939038  0.006477  0.829195  1
  Ge  Ge24  1  0.435570  0.503682  0.670328  1
  Ge  Ge25  1  0.939038  0.493523  0.829195  1
  Ge  Ge26  1  0.562985  0.004715  0.328894  1
  Ge  Ge27  1  0.063130  0.995251  0.170974  1
  Rh  Rh28  1  0.577053  0.750000  0.018471  1
  Rh  Rh29  1  0.076092  0.250000  0.481686  1
  Rh  Rh30  1  0.422964  0.250000  0.982074  1
  Rh  Rh31  1  0.923103  0.750000  0.517692  1
