# generated using pymatgen
data_Sc8FeSi16Tc11
_symmetry_space_group_name_H-M   'P 1'
_cell_length_a   6.61338714
_cell_length_b   6.63181027
_cell_length_c   12.31250421
_cell_angle_alpha   90.01458489
_cell_angle_beta   89.68957253
_cell_angle_gamma   90.14961295
_symmetry_Int_Tables_number   1
_chemical_formula_structural   Sc8FeSi16Tc11
_chemical_formula_sum   'Sc8 Fe1 Si16 Tc11'
_cell_volume   540.00100000
_cell_formula_units_Z   1
loop_
 _symmetry_equiv_pos_site_id
 _symmetry_equiv_pos_as_xyz
  1  'x, y, z'
loop_
 _atom_site_type_symbol
 _atom_site_label
 _atom_site_symmetry_multiplicity
 _atom_site_fract_x
 _atom_site_fract_y
 _atom_site_fract_z
 _atom_site_occupancy
  Sc  Sc0  1  0.999870  0.661991  0.031457  1
  Sc  Sc1  1  0.840159  0.503179  0.279906  1
  Sc  Sc2  1  0.160706  0.497228  0.780801  1
  Sc  Sc3  1  0.507325  0.845298  0.716639  1
  Sc  Sc4  1  0.490622  0.158438  0.221450  1
  Sc  Sc5  1  0.994668  0.346300  0.532178  1
  Sc  Sc6  1  0.657356  0.007566  0.968718  1
  Sc  Sc7  1  0.338847  0.000118  0.472168  1
  Fe  Fe8  1  0.806128  0.029408  0.364607  1
  Si  Si9  1  0.280876  0.971285  0.065600  1
  Si  Si10  1  0.530327  0.788389  0.319057  1
  Si  Si11  1  0.475672  0.224333  0.811322  1
  Si  Si12  1  0.775431  0.525938  0.688275  1
  Si  Si13  1  0.212147  0.466823  0.183930  1
  Si  Si14  1  0.736219  0.021491  0.555613  1
  Si  Si15  1  0.974207  0.280304  0.935854  1
  Si  Si16  1  0.023423  0.732031  0.434645  1
  Si  Si17  1  0.692360  0.376927  0.068710  1
  Si  Si18  1  0.108522  0.188511  0.319703  1
  Si  Si19  1  0.878622  0.807055  0.818354  1
  Si  Si20  1  0.195459  0.121666  0.682231  1
  Si  Si21  1  0.804614  0.880358  0.188248  1
  Si  Si22  1  0.309097  0.617544  0.563759  1
  Si  Si23  1  0.379322  0.693266  0.935496  1
  Si  Si24  1  0.628088  0.298761  0.428925  1
  Tc  Tc25  1  0.331319  0.331266  0.000153  1
  Tc  Tc26  1  0.164924  0.833706  0.255077  1
  Tc  Tc27  1  0.833347  0.170251  0.749405  1
  Tc  Tc28  1  0.670435  0.669597  0.497149  1
  Tc  Tc29  1  0.976701  0.178782  0.129544  1
  Tc  Tc30  1  0.326771  0.474196  0.373885  1
  Tc  Tc31  1  0.684794  0.521458  0.883872  1
  Tc  Tc32  1  0.485639  0.311606  0.613223  1
  Tc  Tc33  1  0.515562  0.674413  0.127761  1
  Tc  Tc34  1  0.026093  0.812557  0.632123  1
  Tc  Tc35  1  0.184348  0.977959  0.870160  1
