# generated using pymatgen
data_YHoZn2Ga7Pd3
_symmetry_space_group_name_H-M   'P 1'
_cell_length_a   7.60340603
_cell_length_b   7.63829636
_cell_length_c   9.50393600
_cell_angle_alpha   90.00000000
_cell_angle_beta   90.00000000
_cell_angle_gamma   119.34745361
_symmetry_Int_Tables_number   1
_chemical_formula_structural   YHoZn2Ga7Pd3
_chemical_formula_sum   'Y2 Ho2 Zn4 Ga14 Pd6'
_cell_volume   481.12411914
_cell_formula_units_Z   2
loop_
 _symmetry_equiv_pos_site_id
 _symmetry_equiv_pos_as_xyz
  1  'x, y, z'
loop_
 _atom_site_type_symbol
 _atom_site_label
 _atom_site_symmetry_multiplicity
 _atom_site_fract_x
 _atom_site_fract_y
 _atom_site_fract_z
 _atom_site_occupancy
  Y  Y0  1  0.672851  0.997554  0.250000  1
  Y  Y1  1  0.327149  0.002446  0.750000  1
  Ho  Ho2  1  0.995447  0.670759  0.250000  1
  Ho  Ho3  1  0.004553  0.329241  0.750000  1
  Zn  Zn4  1  0.138194  0.137428  0.250000  1
  Zn  Zn5  1  0.861806  0.862572  0.750000  1
  Zn  Zn6  1  0.341869  0.544294  0.250000  1
  Zn  Zn7  1  0.658131  0.455706  0.750000  1
  Ga  Ga8  1  0.008713  0.336875  0.085140  1
  Ga  Ga9  1  0.991287  0.663125  0.914860  1
  Ga  Ga10  1  0.991287  0.663125  0.585140  1
  Ga  Ga11  1  0.332989  0.000944  0.415790  1
  Ga  Ga12  1  0.008713  0.336875  0.414860  1
  Ga  Ga13  1  0.667011  0.999056  0.584210  1
  Ga  Ga14  1  0.667011  0.999056  0.915790  1
  Ga  Ga15  1  0.332989  0.000944  0.084210  1
  Ga  Ga16  1  0.335838  0.333149  0.563608  1
  Ga  Ga17  1  0.664162  0.666851  0.436392  1
  Ga  Ga18  1  0.664162  0.666851  0.063608  1
  Ga  Ga19  1  0.335838  0.333149  0.936392  1
  Ga  Ga20  1  0.539585  0.342156  0.250000  1
  Ga  Ga21  1  0.460415  0.657844  0.750000  1
  Pd  Pd22  1  0.675161  0.325479  0.003477  1
  Pd  Pd23  1  0.324839  0.674521  0.996523  1
  Pd  Pd24  1  0.324839  0.674521  0.503477  1
  Pd  Pd25  1  0.675161  0.325479  0.496523  1
  Pd  Pd26  1  0.000000  0.000000  0.000000  1
  Pd  Pd27  1  0.000000  0.000000  0.500000  1
