# generated using pymatgen
data_Np(AlGa)2
_symmetry_space_group_name_H-M   'P 1'
_cell_length_a   7.94096615
_cell_length_b   7.94096604
_cell_length_c   7.94096717
_cell_angle_alpha   148.63347202
_cell_angle_beta   133.40391189
_cell_angle_gamma   57.24879437
_symmetry_Int_Tables_number   1
_chemical_formula_structural   Np(AlGa)2
_chemical_formula_sum   'Np2 Al4 Ga4'
_cell_volume   187.97680560
_cell_formula_units_Z   2
loop_
 _symmetry_equiv_pos_site_id
 _symmetry_equiv_pos_as_xyz
  1  'x, y, z'
loop_
 _atom_site_type_symbol
 _atom_site_label
 _atom_site_symmetry_multiplicity
 _atom_site_fract_x
 _atom_site_fract_y
 _atom_site_fract_z
 _atom_site_occupancy
  Np  Np0  1  0.135791  0.885791  0.250000  1
  Np  Np1  1  0.864209  0.114209  0.750000  1
  Al  Al2  1  0.355234  0.105234  0.250000  1
  Al  Al3  1  0.644766  0.894766  0.750000  1
  Al  Al4  1  0.500000  0.500000  0.000000  1
  Al  Al5  1  0.000000  0.500000  0.500000  1
  Ga  Ga6  1  0.664721  0.696794  0.967926  1
  Ga  Ga7  1  0.335279  0.303206  0.032074  1
  Ga  Ga8  1  0.771132  0.303206  0.467926  1
  Ga  Ga9  1  0.228868  0.696794  0.532074  1
