# generated using pymatgen
data_Pu2U2ReB12W
_symmetry_space_group_name_H-M   'P 1'
_cell_length_a   3.66370600
_cell_length_b   9.34366289
_cell_length_c   11.41556977
_cell_angle_alpha   89.89531049
_cell_angle_beta   90.00000000
_cell_angle_gamma   90.00000000
_symmetry_Int_Tables_number   1
_chemical_formula_structural   Pu2U2ReB12W
_chemical_formula_sum   'Pu4 U4 Re2 B24 W2'
_cell_volume   390.78208421
_cell_formula_units_Z   2
loop_
 _symmetry_equiv_pos_site_id
 _symmetry_equiv_pos_as_xyz
  1  'x, y, z'
loop_
 _atom_site_type_symbol
 _atom_site_label
 _atom_site_symmetry_multiplicity
 _atom_site_fract_x
 _atom_site_fract_y
 _atom_site_fract_z
 _atom_site_occupancy
  Pu  Pu0  1  0.000000  0.336147  0.406900  1
  Pu  Pu1  1  0.000000  0.663853  0.593100  1
  Pu  Pu2  1  0.000000  0.835603  0.092818  1
  Pu  Pu3  1  0.000000  0.164397  0.907182  1
  U  U4  1  0.000000  0.956132  0.395568  1
  U  U5  1  0.000000  0.043868  0.604432  1
  U  U6  1  0.000000  0.456419  0.105067  1
  U  U7  1  0.000000  0.543581  0.894933  1
  Re  Re8  1  0.000000  0.146051  0.180765  1
  Re  Re9  1  0.000000  0.853949  0.819235  1
  B  B10  1  0.500000  0.551247  0.432707  1
  B  B11  1  0.500000  0.448753  0.567293  1
  B  B12  1  0.500000  0.051890  0.068430  1
  B  B13  1  0.500000  0.948110  0.931570  1
  B  B14  1  0.500000  0.744492  0.424399  1
  B  B15  1  0.500000  0.255508  0.575601  1
  B  B16  1  0.500000  0.243284  0.076940  1
  B  B17  1  0.500000  0.756716  0.923060  1
  B  B18  1  0.500000  0.804784  0.273694  1
  B  B19  1  0.500000  0.195216  0.726306  1
  B  B20  1  0.500000  0.302726  0.225647  1
  B  B21  1  0.500000  0.697274  0.774353  1
  B  B22  1  0.500000  0.644317  0.186828  1
  B  B23  1  0.500000  0.355683  0.813172  1
  B  B24  1  0.500000  0.144007  0.311483  1
  B  B25  1  0.500000  0.855993  0.688517  1
  B  B26  1  0.500000  0.988869  0.219116  1
  B  B27  1  0.500000  0.011131  0.780884  1
  B  B28  1  0.500000  0.486765  0.280099  1
  B  B29  1  0.500000  0.513235  0.719901  1
  B  B30  1  0.500000  0.641093  0.038463  1
  B  B31  1  0.500000  0.358907  0.961537  1
  B  B32  1  0.500000  0.140670  0.460238  1
  B  B33  1  0.500000  0.859330  0.539762  1
  W  W34  1  0.000000  0.646241  0.319306  1
  W  W35  1  0.000000  0.353759  0.680694  1
