# generated using pymatgen
data_Ca2BRu4C3
_symmetry_space_group_name_H-M   'P 1'
_cell_length_a   6.67501465
_cell_length_b   5.89455455
_cell_length_c   5.47888907
_cell_angle_alpha   71.76817730
_cell_angle_beta   56.25905748
_cell_angle_gamma   51.22395220
_symmetry_Int_Tables_number   1
_chemical_formula_structural   Ca2BRu4C3
_chemical_formula_sum   'Ca2 B1 Ru4 C3'
_cell_volume   139.54875723
_cell_formula_units_Z   1
loop_
 _symmetry_equiv_pos_site_id
 _symmetry_equiv_pos_as_xyz
  1  'x, y, z'
loop_
 _atom_site_type_symbol
 _atom_site_label
 _atom_site_symmetry_multiplicity
 _atom_site_fract_x
 _atom_site_fract_y
 _atom_site_fract_z
 _atom_site_occupancy
  Ca  Ca0  1  0.000968  0.999032  0.000968  1
  Ca  Ca1  1  0.249655  0.250345  0.249655  1
  B  B2  1  0.566704  0.933296  0.566704  1
  Ru  Ru3  1  0.618444  0.605392  0.886288  1
  Ru  Ru4  1  0.638856  0.628087  0.358969  1
  Ru  Ru5  1  0.358969  0.374087  0.638856  1
  Ru  Ru6  1  0.886289  0.889876  0.618443  1
  C  C7  1  0.681188  0.318812  0.681188  1
  C  C8  1  0.317110  0.682890  0.317110  1
  C  C9  1  0.931817  0.568183  0.931817  1
