# generated using pymatgen
data_LiLaTb2(Co4P3)2
_symmetry_space_group_name_H-M   'P 1'
_cell_length_a   3.75345600
_cell_length_b   10.67689200
_cell_length_c   12.28795300
_cell_angle_alpha   90.00000000
_cell_angle_beta   90.00000000
_cell_angle_gamma   90.00000000
_symmetry_Int_Tables_number   1
_chemical_formula_structural   LiLaTb2(Co4P3)2
_chemical_formula_sum   'Li2 La2 Tb4 Co16 P12'
_cell_volume   492.44271890
_cell_formula_units_Z   2
loop_
 _symmetry_equiv_pos_site_id
 _symmetry_equiv_pos_as_xyz
  1  'x, y, z'
loop_
 _atom_site_type_symbol
 _atom_site_label
 _atom_site_symmetry_multiplicity
 _atom_site_fract_x
 _atom_site_fract_y
 _atom_site_fract_z
 _atom_site_occupancy
  Li  Li0  1  0.500000  0.500000  0.149475  1
  Li  Li1  1  0.000000  0.000000  0.850525  1
  La  La2  1  0.000000  0.500000  0.525225  1
  La  La3  1  0.500000  0.000000  0.474775  1
  Tb  Tb4  1  0.500000  0.819097  0.204290  1
  Tb  Tb5  1  0.500000  0.180903  0.204290  1
  Tb  Tb6  1  0.000000  0.680903  0.795710  1
  Tb  Tb7  1  0.000000  0.319097  0.795710  1
  Co  Co8  1  0.500000  0.500000  0.707460  1
  Co  Co9  1  0.000000  0.000000  0.292540  1
  Co  Co10  1  0.000000  0.500000  0.987280  1
  Co  Co11  1  0.500000  0.000000  0.012720  1
  Co  Co12  1  0.500000  0.332818  0.996994  1
  Co  Co13  1  0.500000  0.667182  0.996994  1
  Co  Co14  1  0.000000  0.167182  0.003006  1
  Co  Co15  1  0.000000  0.832818  0.003006  1
  Co  Co16  1  0.500000  0.297118  0.428996  1
  Co  Co17  1  0.500000  0.702882  0.428996  1
  Co  Co18  1  0.000000  0.202882  0.571004  1
  Co  Co19  1  0.000000  0.797118  0.571004  1
  Co  Co20  1  0.500000  0.879725  0.710388  1
  Co  Co21  1  0.500000  0.120275  0.710388  1
  Co  Co22  1  0.000000  0.620275  0.289612  1
  Co  Co23  1  0.000000  0.379725  0.289612  1
  P  P24  1  0.500000  0.500000  0.886665  1
  P  P25  1  0.000000  0.000000  0.113335  1
  P  P26  1  0.500000  0.500000  0.340029  1
  P  P27  1  0.000000  0.000000  0.659971  1
  P  P28  1  0.500000  0.303517  0.617489  1
  P  P29  1  0.500000  0.696483  0.617489  1
  P  P30  1  0.000000  0.196483  0.382511  1
  P  P31  1  0.000000  0.803517  0.382511  1
  P  P32  1  0.500000  0.843242  0.895399  1
  P  P33  1  0.500000  0.156758  0.895399  1
  P  P34  1  0.000000  0.656758  0.104601  1
  P  P35  1  0.000000  0.343242  0.104601  1
