# generated using pymatgen
data_Dy3Co7(As3Ir)2
_symmetry_space_group_name_H-M   'P 1'
_cell_length_a   3.85514900
_cell_length_b   11.05744500
_cell_length_c   12.91781400
_cell_angle_alpha   90.00000000
_cell_angle_beta   90.00000000
_cell_angle_gamma   90.00000000
_symmetry_Int_Tables_number   1
_chemical_formula_structural   Dy3Co7(As3Ir)2
_chemical_formula_sum   'Dy6 Co14 As12 Ir4'
_cell_volume   550.66184158
_cell_formula_units_Z   2
loop_
 _symmetry_equiv_pos_site_id
 _symmetry_equiv_pos_as_xyz
  1  'x, y, z'
loop_
 _atom_site_type_symbol
 _atom_site_label
 _atom_site_symmetry_multiplicity
 _atom_site_fract_x
 _atom_site_fract_y
 _atom_site_fract_z
 _atom_site_occupancy
  Dy  Dy0  1  0.750000  0.250000  0.476571  1
  Dy  Dy1  1  0.250000  0.750000  0.523429  1
  Dy  Dy2  1  0.250000  0.933823  0.790867  1
  Dy  Dy3  1  0.250000  0.566177  0.790867  1
  Dy  Dy4  1  0.750000  0.066177  0.209133  1
  Dy  Dy5  1  0.750000  0.433823  0.209133  1
  Co  Co6  1  0.750000  0.250000  0.009534  1
  Co  Co7  1  0.250000  0.750000  0.990466  1
  Co  Co8  1  0.250000  0.417950  0.003910  1
  Co  Co9  1  0.250000  0.082050  0.003910  1
  Co  Co10  1  0.750000  0.582050  0.996090  1
  Co  Co11  1  0.750000  0.917950  0.996090  1
  Co  Co12  1  0.250000  0.447022  0.571551  1
  Co  Co13  1  0.250000  0.052978  0.571551  1
  Co  Co14  1  0.750000  0.552978  0.428449  1
  Co  Co15  1  0.750000  0.947022  0.428449  1
  Co  Co16  1  0.250000  0.866542  0.289147  1
  Co  Co17  1  0.250000  0.633458  0.289147  1
  Co  Co18  1  0.750000  0.133458  0.710853  1
  Co  Co19  1  0.750000  0.366542  0.710853  1
  As  As20  1  0.250000  0.250000  0.109816  1
  As  As21  1  0.750000  0.750000  0.890184  1
  As  As22  1  0.250000  0.250000  0.648048  1
  As  As23  1  0.750000  0.750000  0.351952  1
  As  As24  1  0.250000  0.446964  0.387568  1
  As  As25  1  0.250000  0.053036  0.387568  1
  As  As26  1  0.750000  0.553036  0.612432  1
  As  As27  1  0.750000  0.946964  0.612432  1
  As  As28  1  0.250000  0.907009  0.108319  1
  As  As29  1  0.250000  0.592991  0.108319  1
  As  As30  1  0.750000  0.092991  0.891681  1
  As  As31  1  0.750000  0.407009  0.891681  1
  Ir  Ir32  1  0.250000  0.250000  0.841557  1
  Ir  Ir33  1  0.750000  0.750000  0.158443  1
  Ir  Ir34  1  0.250000  0.250000  0.296517  1
  Ir  Ir35  1  0.750000  0.750000  0.703483  1
