# generated using pymatgen
data_TbLu3ReB12Ir
_symmetry_space_group_name_H-M   'P 1'
_cell_length_a   3.62672500
_cell_length_b   9.06813198
_cell_length_c   11.46115301
_cell_angle_alpha   90.29710004
_cell_angle_beta   90.00000000
_cell_angle_gamma   90.00000000
_symmetry_Int_Tables_number   1
_chemical_formula_structural   TbLu3ReB12Ir
_chemical_formula_sum   'Tb2 Lu6 Re2 B24 Ir2'
_cell_volume   376.92498858
_cell_formula_units_Z   2
loop_
 _symmetry_equiv_pos_site_id
 _symmetry_equiv_pos_as_xyz
  1  'x, y, z'
loop_
 _atom_site_type_symbol
 _atom_site_label
 _atom_site_symmetry_multiplicity
 _atom_site_fract_x
 _atom_site_fract_y
 _atom_site_fract_z
 _atom_site_occupancy
  Tb  Tb0  1  0.000000  0.317040  0.410223  1
  Tb  Tb1  1  0.000000  0.682960  0.589777  1
  Lu  Lu2  1  0.000000  0.826206  0.081534  1
  Lu  Lu3  1  0.000000  0.173794  0.918466  1
  Lu  Lu4  1  0.000000  0.946667  0.371761  1
  Lu  Lu5  1  0.000000  0.053333  0.628239  1
  Lu  Lu6  1  0.000000  0.441607  0.125071  1
  Lu  Lu7  1  0.000000  0.558393  0.874929  1
  Re  Re8  1  0.000000  0.137884  0.179189  1
  Re  Re9  1  0.000000  0.862116  0.820811  1
  B  B10  1  0.500000  0.554884  0.433236  1
  B  B11  1  0.500000  0.445116  0.566764  1
  B  B12  1  0.500000  0.052927  0.066293  1
  B  B13  1  0.500000  0.947073  0.933707  1
  B  B14  1  0.500000  0.751500  0.420081  1
  B  B15  1  0.500000  0.248500  0.579919  1
  B  B16  1  0.500000  0.248816  0.079493  1
  B  B17  1  0.500000  0.751184  0.920507  1
  B  B18  1  0.500000  0.792405  0.264325  1
  B  B19  1  0.500000  0.207595  0.735675  1
  B  B20  1  0.500000  0.292718  0.233430  1
  B  B21  1  0.500000  0.707282  0.766570  1
  B  B22  1  0.500000  0.631702  0.182209  1
  B  B23  1  0.500000  0.368298  0.817791  1
  B  B24  1  0.500000  0.130283  0.314715  1
  B  B25  1  0.500000  0.869717  0.685285  1
  B  B26  1  0.500000  0.981215  0.212485  1
  B  B27  1  0.500000  0.018785  0.787515  1
  B  B28  1  0.500000  0.482493  0.285740  1
  B  B29  1  0.500000  0.517507  0.714260  1
  B  B30  1  0.500000  0.605148  0.029322  1
  B  B31  1  0.500000  0.394852  0.970678  1
  B  B32  1  0.500000  0.103099  0.472190  1
  B  B33  1  0.500000  0.896901  0.527810  1
  Ir  Ir34  1  0.000000  0.638262  0.320261  1
  Ir  Ir35  1  0.000000  0.361738  0.679739  1
