# generated using pymatgen
data_Ho4Er6Cd3Ru
_symmetry_space_group_name_H-M   'P 1'
_cell_length_a   9.52462603
_cell_length_b   9.52597391
_cell_length_c   9.77226002
_cell_angle_alpha   89.99849291
_cell_angle_beta   90.00714950
_cell_angle_gamma   120.00187585
_symmetry_Int_Tables_number   1
_chemical_formula_structural   Ho4Er6Cd3Ru
_chemical_formula_sum   'Ho8 Er12 Cd6 Ru2'
_cell_volume   767.84710905
_cell_formula_units_Z   2
loop_
 _symmetry_equiv_pos_site_id
 _symmetry_equiv_pos_as_xyz
  1  'x, y, z'
loop_
 _atom_site_type_symbol
 _atom_site_label
 _atom_site_symmetry_multiplicity
 _atom_site_fract_x
 _atom_site_fract_y
 _atom_site_fract_z
 _atom_site_occupancy
  Ho  Ho0  1  0.209851  0.790310  0.440460  1
  Ho  Ho1  1  0.209856  0.419551  0.440450  1
  Ho  Ho2  1  0.540930  0.459204  0.249925  1
  Ho  Ho3  1  0.540937  0.081727  0.249929  1
  Ho  Ho4  1  0.918127  0.459052  0.249836  1
  Ho  Ho5  1  0.459263  0.540880  0.750114  1
  Ho  Ho6  1  0.459260  0.918385  0.750110  1
  Ho  Ho7  1  0.081551  0.540779  0.750187  1
  Er  Er8  1  0.999861  0.999930  0.500068  1
  Er  Er9  1  0.999993  0.999996  0.000050  1
  Er  Er10  1  0.580500  0.790254  0.440459  1
  Er  Er11  1  0.789983  0.209866  0.559598  1
  Er  Er12  1  0.789980  0.580120  0.559591  1
  Er  Er13  1  0.419922  0.209960  0.559621  1
  Er  Er14  1  0.790075  0.209921  0.940435  1
  Er  Er15  1  0.790081  0.580155  0.940433  1
  Er  Er16  1  0.419844  0.209927  0.940462  1
  Er  Er17  1  0.209942  0.790133  0.059443  1
  Er  Er18  1  0.209936  0.419804  0.059437  1
  Er  Er19  1  0.580150  0.790072  0.059555  1
  Cd  Cd20  1  0.885411  0.114535  0.249975  1
  Cd  Cd21  1  0.885410  0.770876  0.249976  1
  Cd  Cd22  1  0.229130  0.114567  0.249956  1
  Cd  Cd23  1  0.114547  0.885441  0.750050  1
  Cd  Cd24  1  0.114548  0.229101  0.750050  1
  Cd  Cd25  1  0.770853  0.885423  0.750015  1
  Ru  Ru26  1  0.333403  0.666704  0.249843  1
  Ru  Ru27  1  0.666654  0.333326  0.749970  1
