# generated using pymatgen
data_Sr3NdMnFeO8
_symmetry_space_group_name_H-M   'P 1'
_cell_length_a   5.48758100
_cell_length_b   12.51890100
_cell_length_c   5.50080200
_cell_angle_alpha   90.00004324
_cell_angle_beta   90.00000040
_cell_angle_gamma   90.00005651
_symmetry_Int_Tables_number   1
_chemical_formula_structural   Sr3NdMnFeO8
_chemical_formula_sum   'Sr6 Nd2 Mn2 Fe2 O16'
_cell_volume   377.89675419
_cell_formula_units_Z   2
loop_
 _symmetry_equiv_pos_site_id
 _symmetry_equiv_pos_as_xyz
  1  'x, y, z'
loop_
 _atom_site_type_symbol
 _atom_site_label
 _atom_site_symmetry_multiplicity
 _atom_site_fract_x
 _atom_site_fract_y
 _atom_site_fract_z
 _atom_site_occupancy
  Sr  Sr0  1  0.499994  0.144978  0.000001  1
  Sr  Sr1  1  0.500002  0.644972  0.499997  1
  Sr  Sr2  1  0.000013  0.143053  0.499999  1
  Sr  Sr3  1  0.999999  0.643045  0.999997  1
  Sr  Sr4  1  0.000008  0.354825  0.000002  1
  Sr  Sr5  1  0.000006  0.854819  0.499998  1
  Nd  Nd6  1  0.500002  0.361851  0.500001  1
  Nd  Nd7  1  0.500044  0.861850  0.000005  1
  Mn  Mn8  1  0.000027  0.500778  0.499998  1
  Mn  Mn9  1  0.000011  0.000792  0.000023  1
  Fe  Fe10  1  0.499987  0.001440  0.499994  1
  Fe  Fe11  1  0.499996  0.501434  0.000004  1
  O  O12  1  0.999997  0.340139  0.500002  1
  O  O13  1  0.999900  0.840143  0.999998  1
  O  O14  1  0.500004  0.337968  0.999989  1
  O  O15  1  0.500010  0.837974  0.500001  1
  O  O16  1  0.500003  0.173622  0.500001  1
  O  O17  1  0.499993  0.673623  0.000000  1
  O  O18  1  0.000007  0.156246  0.999997  1
  O  O19  1  0.000003  0.656245  0.499999  1
  O  O20  1  0.250873  0.496274  0.741803  1
  O  O21  1  0.250865  0.996270  0.241797  1
  O  O22  1  0.749128  0.496273  0.258193  1
  O  O23  1  0.749134  0.996286  0.758192  1
  O  O24  1  0.749131  0.496275  0.741809  1
  O  O25  1  0.749131  0.996287  0.241808  1
  O  O26  1  0.250871  0.496272  0.258191  1
  O  O27  1  0.250864  0.996270  0.758203  1
