# generated using pymatgen
data_Ho3Co7(NiAs3)2
_symmetry_space_group_name_H-M   'P 1'
_cell_length_a   3.83455600
_cell_length_b   10.86754700
_cell_length_c   12.71822200
_cell_angle_alpha   90.00000000
_cell_angle_beta   90.00000000
_cell_angle_gamma   90.00000000
_symmetry_Int_Tables_number   1
_chemical_formula_structural   Ho3Co7(NiAs3)2
_chemical_formula_sum   'Ho6 Co14 Ni4 As12'
_cell_volume   529.99651409
_cell_formula_units_Z   2
loop_
 _symmetry_equiv_pos_site_id
 _symmetry_equiv_pos_as_xyz
  1  'x, y, z'
loop_
 _atom_site_type_symbol
 _atom_site_label
 _atom_site_symmetry_multiplicity
 _atom_site_fract_x
 _atom_site_fract_y
 _atom_site_fract_z
 _atom_site_occupancy
  Ho  Ho0  1  0.000000  0.500000  0.521977  1
  Ho  Ho1  1  0.500000  0.000000  0.478023  1
  Ho  Ho2  1  0.500000  0.814424  0.206361  1
  Ho  Ho3  1  0.500000  0.185576  0.206361  1
  Ho  Ho4  1  0.000000  0.685576  0.793639  1
  Ho  Ho5  1  0.000000  0.314424  0.793639  1
  Co  Co6  1  0.000000  0.500000  0.981801  1
  Co  Co7  1  0.500000  0.000000  0.018199  1
  Co  Co8  1  0.500000  0.334327  0.996507  1
  Co  Co9  1  0.500000  0.665673  0.996507  1
  Co  Co10  1  0.000000  0.165673  0.003493  1
  Co  Co11  1  0.000000  0.834327  0.003493  1
  Co  Co12  1  0.500000  0.300078  0.429298  1
  Co  Co13  1  0.500000  0.699922  0.429298  1
  Co  Co14  1  0.000000  0.199922  0.570702  1
  Co  Co15  1  0.000000  0.800078  0.570702  1
  Co  Co16  1  0.500000  0.881126  0.709233  1
  Co  Co17  1  0.500000  0.118874  0.709233  1
  Co  Co18  1  0.000000  0.618874  0.290767  1
  Co  Co19  1  0.000000  0.381126  0.290767  1
  Ni  Ni20  1  0.500000  0.500000  0.160878  1
  Ni  Ni21  1  0.000000  0.000000  0.839122  1
  Ni  Ni22  1  0.500000  0.500000  0.700602  1
  Ni  Ni23  1  0.000000  0.000000  0.299398  1
  As  As24  1  0.500000  0.500000  0.879189  1
  As  As25  1  0.000000  0.000000  0.120811  1
  As  As26  1  0.500000  0.500000  0.348524  1
  As  As27  1  0.000000  0.000000  0.651476  1
  As  As28  1  0.500000  0.311658  0.614893  1
  As  As29  1  0.500000  0.688342  0.614893  1
  As  As30  1  0.000000  0.188342  0.385107  1
  As  As31  1  0.000000  0.811658  0.385107  1
  As  As32  1  0.500000  0.847023  0.892818  1
  As  As33  1  0.500000  0.152977  0.892818  1
  As  As34  1  0.000000  0.652977  0.107182  1
  As  As35  1  0.000000  0.347023  0.107182  1
