# generated using pymatgen
data_TbZr(Al3Ni)6
_symmetry_space_group_name_H-M   'P 1'
_cell_length_a   10.01983123
_cell_length_b   10.01983200
_cell_length_c   10.01983202
_cell_angle_alpha   42.39864163
_cell_angle_beta   42.39864190
_cell_angle_gamma   42.39864536
_symmetry_Int_Tables_number   1
_chemical_formula_structural   TbZr(Al3Ni)6
_chemical_formula_sum   'Tb1 Zr1 Al18 Ni6'
_cell_volume   414.05553716
_cell_formula_units_Z   1
loop_
 _symmetry_equiv_pos_site_id
 _symmetry_equiv_pos_as_xyz
  1  'x, y, z'
loop_
 _atom_site_type_symbol
 _atom_site_label
 _atom_site_symmetry_multiplicity
 _atom_site_fract_x
 _atom_site_fract_y
 _atom_site_fract_z
 _atom_site_occupancy
  Tb  Tb0  1  0.832970  0.832970  0.832970  1
  Zr  Zr1  1  0.167083  0.167083  0.167083  1
  Al  Al2  1  0.103970  0.431278  0.766221  1
  Al  Al3  1  0.431278  0.766221  0.103970  1
  Al  Al4  1  0.564256  0.897989  0.236133  1
  Al  Al5  1  0.947559  0.947559  0.947559  1
  Al  Al6  1  0.052746  0.052746  0.052746  1
  Al  Al7  1  0.292510  0.715120  0.492408  1
  Al  Al8  1  0.897989  0.236133  0.564256  1
  Al  Al9  1  0.387905  0.387905  0.387905  1
  Al  Al10  1  0.492408  0.292510  0.715120  1
  Al  Al11  1  0.236133  0.564256  0.897989  1
  Al  Al12  1  0.718343  0.718343  0.718343  1
  Al  Al13  1  0.612465  0.612465  0.612465  1
  Al  Al14  1  0.333235  0.000890  0.665922  1
  Al  Al15  1  0.715120  0.492408  0.292510  1
  Al  Al16  1  0.665922  0.333235  0.000890  1
  Al  Al17  1  0.280990  0.280990  0.280990  1
  Al  Al18  1  0.000890  0.665922  0.333235  1
  Al  Al19  1  0.766221  0.103970  0.431278  1
  Ni  Ni20  1  0.418509  0.078781  0.758369  1
  Ni  Ni21  1  0.581330  0.241428  0.921592  1
  Ni  Ni22  1  0.078781  0.758369  0.418509  1
  Ni  Ni23  1  0.758369  0.418509  0.078781  1
  Ni  Ni24  1  0.921592  0.581330  0.241428  1
  Ni  Ni25  1  0.241428  0.921592  0.581330  1
