# generated using pymatgen
data_Tm4ZnGa23Pt9
_symmetry_space_group_name_H-M   'P 1'
_cell_length_a   7.45935948
_cell_length_b   7.57155747
_cell_length_c   13.33512771
_cell_angle_alpha   84.68010508
_cell_angle_beta   79.34745792
_cell_angle_gamma   60.54130990
_symmetry_Int_Tables_number   1
_chemical_formula_structural   Tm4ZnGa23Pt9
_chemical_formula_sum   'Tm4 Zn1 Ga23 Pt9'
_cell_volume   644.47635390
_cell_formula_units_Z   1
loop_
 _symmetry_equiv_pos_site_id
 _symmetry_equiv_pos_as_xyz
  1  'x, y, z'
loop_
 _atom_site_type_symbol
 _atom_site_label
 _atom_site_symmetry_multiplicity
 _atom_site_fract_x
 _atom_site_fract_y
 _atom_site_fract_z
 _atom_site_occupancy
  Tm  Tm0  1  0.393822  0.169184  0.809562  1
  Tm  Tm1  1  0.604298  0.831780  0.190726  1
  Tm  Tm2  1  0.732170  0.497249  0.810358  1
  Tm  Tm3  1  0.268889  0.501369  0.188285  1
  Zn  Zn4  1  0.685755  0.833943  0.938889  1
  Ga  Ga5  1  0.321256  0.160234  0.059950  1
  Ga  Ga6  1  0.145559  0.832682  0.559933  1
  Ga  Ga7  1  0.853976  0.167616  0.440568  1
  Ga  Ga8  1  0.478671  0.166313  0.556541  1
  Ga  Ga9  1  0.522176  0.833600  0.443463  1
  Ga  Ga10  1  0.220740  0.165317  0.321123  1
  Ga  Ga11  1  0.779005  0.834578  0.678848  1
  Ga  Ga12  1  0.436188  0.503742  0.679580  1
  Ga  Ga13  1  0.562760  0.496915  0.321379  1
  Ga  Ga14  1  0.106244  0.162303  0.678107  1
  Ga  Ga15  1  0.893575  0.836962  0.323113  1
  Ga  Ga16  1  0.361562  0.497140  0.936727  1
  Ga  Ga17  1  0.641700  0.508930  0.060115  1
  Ga  Ga18  1  0.022886  0.169642  0.942376  1
  Ga  Ga19  1  0.974920  0.830392  0.055109  1
  Ga  Ga20  1  0.187326  0.498317  0.443234  1
  Ga  Ga21  1  0.812871  0.502303  0.557084  1
  Ga  Ga22  1  0.734288  0.166001  0.181819  1
  Ga  Ga23  1  0.264601  0.835670  0.817908  1
  Ga  Ga24  1  0.052032  0.633897  0.819149  1
  Ga  Ga25  1  0.942077  0.367765  0.182333  1
  Ga  Ga26  1  0.850497  0.037229  0.819007  1
  Ga  Ga27  1  0.143521  0.958400  0.182696  1
  Pt  Pt28  1  0.118690  0.493353  0.640540  1
  Pt  Pt29  1  0.882774  0.506206  0.359563  1
  Pt  Pt30  1  0.661510  0.176204  0.000218  1
  Pt  Pt31  1  0.335203  0.829988  0.000945  1
  Pt  Pt32  1  0.539643  0.167113  0.359433  1
  Pt  Pt33  1  0.460280  0.832839  0.640014  1
  Pt  Pt34  1  0.779084  0.174281  0.638151  1
  Pt  Pt35  1  0.221251  0.826487  0.362491  1
  Pt  Pt36  1  0.008199  0.494055  0.000666  1
