# generated using pymatgen
data_Hf6Zr6Al10Os7
_symmetry_space_group_name_H-M   'P 1'
_cell_length_a   9.06135177
_cell_length_b   9.02872465
_cell_length_c   9.02872500
_cell_angle_alpha   59.76499639
_cell_angle_beta   59.88038312
_cell_angle_gamma   59.88038546
_symmetry_Int_Tables_number   1
_chemical_formula_structural   Hf6Zr6Al10Os7
_chemical_formula_sum   'Hf6 Zr6 Al10 Os7'
_cell_volume   520.43773746
_cell_formula_units_Z   1
loop_
 _symmetry_equiv_pos_site_id
 _symmetry_equiv_pos_as_xyz
  1  'x, y, z'
loop_
 _atom_site_type_symbol
 _atom_site_label
 _atom_site_symmetry_multiplicity
 _atom_site_fract_x
 _atom_site_fract_y
 _atom_site_fract_z
 _atom_site_occupancy
  Hf  Hf0  1  0.875339  0.884149  0.365176  1
  Hf  Hf1  1  0.875339  0.365176  0.884149  1
  Hf  Hf2  1  0.369903  0.879333  0.879333  1
  Hf  Hf3  1  0.871430  0.879333  0.879333  1
  Hf  Hf4  1  0.124948  0.121893  0.628211  1
  Hf  Hf5  1  0.124948  0.628211  0.121893  1
  Zr  Zr6  1  0.678620  0.690536  0.318968  1
  Zr  Zr7  1  0.311875  0.690536  0.318968  1
  Zr  Zr8  1  0.691725  0.308275  0.308275  1
  Zr  Zr9  1  0.311875  0.318968  0.690536  1
  Zr  Zr10  1  0.678620  0.318968  0.690536  1
  Zr  Zr11  1  0.317572  0.682428  0.682428  1
  Al  Al12  1  0.635888  0.120081  0.120081  1
  Al  Al13  1  0.123948  0.120081  0.120081  1
  Al  Al14  1  0.659570  0.659638  0.021222  1
  Al  Al15  1  0.659570  0.021222  0.659638  1
  Al  Al16  1  0.017098  0.660543  0.660543  1
  Al  Al17  1  0.661813  0.660543  0.660543  1
  Al  Al18  1  0.338626  0.329361  0.993385  1
  Al  Al19  1  0.338626  0.993385  0.329361  1
  Al  Al20  1  0.983543  0.335300  0.335300  1
  Al  Al21  1  0.345858  0.335300  0.335300  1
  Os  Os22  1  0.001133  0.998867  0.998867  1
  Os  Os23  1  0.000267  0.998810  0.500686  1
  Os  Os24  1  0.500235  0.998810  0.500686  1
  Os  Os25  1  0.000732  0.499268  0.499268  1
  Os  Os26  1  0.500235  0.500686  0.998810  1
  Os  Os27  1  0.000267  0.500686  0.998810  1
  Os  Os28  1  0.500390  0.999610  0.999610  1
