# generated using pymatgen
data_Tb2Nd3Ho3(CdIr)2
_symmetry_space_group_name_H-M   'P 1'
_cell_length_a   9.74579074
_cell_length_b   9.74579107
_cell_length_c   9.74579100
_cell_angle_alpha   59.99999685
_cell_angle_beta   59.99999573
_cell_angle_gamma   60.00000024
_symmetry_Int_Tables_number   1
_chemical_formula_structural   Tb2Nd3Ho3(CdIr)2
_chemical_formula_sum   'Tb4 Nd6 Ho6 Cd4 Ir4'
_cell_volume   654.54008914
_cell_formula_units_Z   2
loop_
 _symmetry_equiv_pos_site_id
 _symmetry_equiv_pos_as_xyz
  1  'x, y, z'
loop_
 _atom_site_type_symbol
 _atom_site_label
 _atom_site_symmetry_multiplicity
 _atom_site_fract_x
 _atom_site_fract_y
 _atom_site_fract_z
 _atom_site_occupancy
  Tb  Tb0  1  0.347893  0.347893  0.347893  1
  Tb  Tb1  1  0.347893  0.347893  0.956320  1
  Tb  Tb2  1  0.347893  0.956320  0.347893  1
  Tb  Tb3  1  0.956320  0.347893  0.347893  1
  Nd  Nd4  1  0.940608  0.559392  0.559392  1
  Nd  Nd5  1  0.559392  0.940608  0.940608  1
  Nd  Nd6  1  0.559392  0.940608  0.559392  1
  Nd  Nd7  1  0.940608  0.559392  0.940608  1
  Nd  Nd8  1  0.559392  0.559392  0.940608  1
  Nd  Nd9  1  0.940608  0.940608  0.559392  1
  Ho  Ho10  1  0.812872  0.187128  0.187128  1
  Ho  Ho11  1  0.187128  0.812872  0.812872  1
  Ho  Ho12  1  0.187128  0.812872  0.187128  1
  Ho  Ho13  1  0.812872  0.187128  0.812872  1
  Ho  Ho14  1  0.187128  0.187128  0.812872  1
  Ho  Ho15  1  0.812872  0.812872  0.187128  1
  Cd  Cd16  1  0.579546  0.579546  0.579546  1
  Cd  Cd17  1  0.579546  0.579546  0.261362  1
  Cd  Cd18  1  0.579546  0.261362  0.579546  1
  Cd  Cd19  1  0.261362  0.579546  0.579546  1
  Ir  Ir20  1  0.140863  0.140863  0.140863  1
  Ir  Ir21  1  0.140863  0.140863  0.577411  1
  Ir  Ir22  1  0.140863  0.577411  0.140863  1
  Ir  Ir23  1  0.577411  0.140863  0.140863  1
