# generated using pymatgen
data_Eu(As3Os)4
_symmetry_space_group_name_H-M   'P 1'
_cell_length_a   7.48661776
_cell_length_b   7.48661809
_cell_length_c   7.48661800
_cell_angle_alpha   109.47121768
_cell_angle_beta   109.47121859
_cell_angle_gamma   109.47122560
_symmetry_Int_Tables_number   1
_chemical_formula_structural   Eu(As3Os)4
_chemical_formula_sum   'Eu1 As12 Os4'
_cell_volume   323.02424705
_cell_formula_units_Z   1
loop_
 _symmetry_equiv_pos_site_id
 _symmetry_equiv_pos_as_xyz
  1  'x, y, z'
loop_
 _atom_site_type_symbol
 _atom_site_label
 _atom_site_symmetry_multiplicity
 _atom_site_fract_x
 _atom_site_fract_y
 _atom_site_fract_z
 _atom_site_occupancy
  Eu  Eu0  1  0.000000  0.000000  0.000000  1
  As  As1  1  0.347254  0.198200  0.850946  1
  As  As2  1  0.652746  0.801800  0.149054  1
  As  As3  1  0.652746  0.503691  0.850946  1
  As  As4  1  0.347254  0.496309  0.149054  1
  As  As5  1  0.198200  0.850946  0.347254  1
  As  As6  1  0.801800  0.149054  0.652746  1
  As  As7  1  0.503691  0.850946  0.652746  1
  As  As8  1  0.496309  0.149054  0.347254  1
  As  As9  1  0.850946  0.347254  0.198200  1
  As  As10  1  0.149054  0.652746  0.801800  1
  As  As11  1  0.850946  0.652746  0.503691  1
  As  As12  1  0.149054  0.347254  0.496309  1
  Os  Os13  1  0.000000  0.000000  0.500000  1
  Os  Os14  1  0.500000  0.000000  0.000000  1
  Os  Os15  1  0.000000  0.500000  0.000000  1
  Os  Os16  1  0.500000  0.500000  0.500000  1
