# generated using pymatgen
data_Er3Tm(LuPb)6
_symmetry_space_group_name_H-M   'P 1'
_cell_length_a   6.48969601
_cell_length_b   8.92378800
_cell_length_c   8.93116212
_cell_angle_alpha   119.98748826
_cell_angle_beta   89.99458246
_cell_angle_gamma   90.00344804
_symmetry_Int_Tables_number   1
_chemical_formula_structural   Er3Tm(LuPb)6
_chemical_formula_sum   'Er3 Tm1 Lu6 Pb6'
_cell_volume   447.98857820
_cell_formula_units_Z   1
loop_
 _symmetry_equiv_pos_site_id
 _symmetry_equiv_pos_as_xyz
  1  'x, y, z'
loop_
 _atom_site_type_symbol
 _atom_site_label
 _atom_site_symmetry_multiplicity
 _atom_site_fract_x
 _atom_site_fract_y
 _atom_site_fract_z
 _atom_site_occupancy
  Er  Er0  1  0.750037  0.236686  0.000035  1
  Er  Er1  1  0.750018  0.763158  0.763022  1
  Er  Er2  1  0.249988  0.763437  0.000024  1
  Tm  Tm3  1  0.750006  0.000174  0.237057  1
  Lu  Lu4  1  0.250000  0.236667  0.236573  1
  Lu  Lu5  1  0.249992  0.000118  0.763400  1
  Lu  Lu6  1  0.499896  0.333239  0.666620  1
  Lu  Lu7  1  0.499908  0.666636  0.333349  1
  Lu  Lu8  1  0.000076  0.666672  0.333343  1
  Lu  Lu9  1  0.000090  0.333294  0.666628  1
  Pb  Pb10  1  0.749983  0.605027  0.000082  1
  Pb  Pb11  1  0.750010  0.395036  0.395163  1
  Pb  Pb12  1  0.749999  0.999982  0.604711  1
  Pb  Pb13  1  0.249984  0.394341  0.999982  1
  Pb  Pb14  1  0.249999  0.605140  0.604760  1
  Pb  Pb15  1  0.250014  0.000393  0.395249  1
