# generated using pymatgen
data_Dy5SiGe8P3Ir19
_symmetry_space_group_name_H-M   'P 1'
_cell_length_a   13.04394500
_cell_length_b   13.03355492
_cell_length_c   3.98141400
_cell_angle_alpha   90.00000000
_cell_angle_beta   90.00000000
_cell_angle_gamma   120.02637144
_symmetry_Int_Tables_number   1
_chemical_formula_structural   Dy5SiGe8P3Ir19
_chemical_formula_sum   'Dy5 Si1 Ge8 P3 Ir19'
_cell_volume   586.03606974
_cell_formula_units_Z   1
loop_
 _symmetry_equiv_pos_site_id
 _symmetry_equiv_pos_as_xyz
  1  'x, y, z'
loop_
 _atom_site_type_symbol
 _atom_site_label
 _atom_site_symmetry_multiplicity
 _atom_site_fract_x
 _atom_site_fract_y
 _atom_site_fract_z
 _atom_site_occupancy
  Dy  Dy0  1  0.333871  0.666955  0.500000  1
  Dy  Dy1  1  0.666917  0.333045  0.500000  1
  Dy  Dy2  1  0.999960  0.817730  0.000000  1
  Dy  Dy3  1  0.182230  0.182270  0.000000  1
  Dy  Dy4  1  0.815113  0.000000  0.000000  1
  Si  Si5  1  0.634629  0.000000  0.500000  1
  Ge  Ge6  1  0.999934  0.637085  0.500000  1
  Ge  Ge7  1  0.362849  0.362915  0.500000  1
  Ge  Ge8  1  0.518627  0.684373  0.000000  1
  Ge  Ge9  1  0.318411  0.835730  0.000000  1
  Ge  Ge10  1  0.164225  0.481316  0.000000  1
  Ge  Ge11  1  0.482681  0.164270  0.000000  1
  Ge  Ge12  1  0.682908  0.518684  0.000000  1
  Ge  Ge13  1  0.834253  0.315627  0.000000  1
  P  P14  1  0.998908  0.175899  0.500000  1
  P  P15  1  0.823009  0.824101  0.500000  1
  P  P16  1  0.177681  0.000000  0.500000  1
  Ir  Ir17  1  0.520459  0.876696  0.000000  1
  Ir  Ir18  1  0.128094  0.644205  0.000000  1
  Ir  Ir19  1  0.355880  0.484016  0.000000  1
  Ir  Ir20  1  0.483889  0.355795  0.000000  1
  Ir  Ir21  1  0.871864  0.515984  0.000000  1
  Ir  Ir22  1  0.643763  0.123304  0.000000  1
  Ir  Ir23  1  0.998859  0.445490  0.500000  1
  Ir  Ir24  1  0.553370  0.554510  0.500000  1
  Ir  Ir25  1  0.450547  0.000000  0.500000  1
  Ir  Ir26  1  0.998341  0.270554  0.000000  1
  Ir  Ir27  1  0.727787  0.729446  0.000000  1
  Ir  Ir28  1  0.271848  0.000000  0.000000  1
  Ir  Ir29  1  0.634559  0.813823  0.500000  1
  Ir  Ir30  1  0.192854  0.824813  0.500000  1
  Ir  Ir31  1  0.174303  0.366670  0.500000  1
  Ir  Ir32  1  0.368041  0.175187  0.500000  1
  Ir  Ir33  1  0.807633  0.633330  0.500000  1
  Ir  Ir34  1  0.820736  0.186177  0.500000  1
  Ir  Ir35  1  0.000966  0.000000  0.500000  1
