# generated using pymatgen
data_Ta12Al8Tc2Pt2CN3
_symmetry_space_group_name_H-M   'P 1'
_cell_length_a   8.30499321
_cell_length_b   8.30499271
_cell_length_c   8.30499100
_cell_angle_alpha   59.93017019
_cell_angle_beta   59.93017216
_cell_angle_gamma   59.93017183
_symmetry_Int_Tables_number   1
_chemical_formula_structural   Ta12Al8Tc2Pt2CN3
_chemical_formula_sum   'Ta12 Al8 Tc2 Pt2 C1 N3'
_cell_volume   404.40292524
_cell_formula_units_Z   1
loop_
 _symmetry_equiv_pos_site_id
 _symmetry_equiv_pos_as_xyz
  1  'x, y, z'
loop_
 _atom_site_type_symbol
 _atom_site_label
 _atom_site_symmetry_multiplicity
 _atom_site_fract_x
 _atom_site_fract_y
 _atom_site_fract_z
 _atom_site_occupancy
  Ta  Ta0  1  0.568084  0.932290  0.568084  1
  Ta  Ta1  1  0.311678  0.680582  0.694732  1
  Ta  Ta2  1  0.693827  0.314544  0.312678  1
  Ta  Ta3  1  0.308247  0.691839  0.308247  1
  Ta  Ta4  1  0.694732  0.680582  0.311678  1
  Ta  Ta5  1  0.312678  0.314544  0.693827  1
  Ta  Ta6  1  0.555268  0.569418  0.938322  1
  Ta  Ta7  1  0.938322  0.569418  0.555268  1
  Ta  Ta8  1  0.556173  0.935456  0.937322  1
  Ta  Ta9  1  0.937322  0.935456  0.556173  1
  Ta  Ta10  1  0.681916  0.317710  0.681916  1
  Ta  Ta11  1  0.941753  0.558161  0.941753  1
  Al  Al12  1  0.914537  0.915332  0.914537  1
  Al  Al13  1  0.001738  0.332338  0.333805  1
  Al  Al14  1  0.335710  0.993805  0.335710  1
  Al  Al15  1  0.333805  0.332338  0.001738  1
  Al  Al16  1  0.914290  0.256195  0.914290  1
  Al  Al17  1  0.916195  0.917662  0.248262  1
  Al  Al18  1  0.248262  0.917662  0.916195  1
  Al  Al19  1  0.335463  0.334668  0.335463  1
  Tc  Tc20  1  0.125000  0.125000  0.125000  1
  Tc  Tc21  1  0.125000  0.625000  0.125000  1
  Pt  Pt22  1  0.625000  0.125000  0.125000  1
  Pt  Pt23  1  0.125000  0.125000  0.625000  1
  C  C24  1  0.625000  0.625000  0.625000  1
  N  N25  1  0.125000  0.625000  0.625000  1
  N  N26  1  0.625000  0.125000  0.625000  1
  N  N27  1  0.625000  0.625000  0.125000  1
