# generated using pymatgen
data_Ho4MgCo2Rh
_symmetry_space_group_name_H-M   'P 1'
_cell_length_a   7.06438600
_cell_length_b   7.06438586
_cell_length_c   8.41766843
_cell_angle_alpha   114.81038491
_cell_angle_beta   114.81038419
_cell_angle_gamma   89.99999823
_symmetry_Int_Tables_number   1
_chemical_formula_structural   Ho4MgCo2Rh
_chemical_formula_sum   'Ho8 Mg2 Co4 Rh2'
_cell_volume   338.12385248
_cell_formula_units_Z   2
loop_
 _symmetry_equiv_pos_site_id
 _symmetry_equiv_pos_as_xyz
  1  'x, y, z'
loop_
 _atom_site_type_symbol
 _atom_site_label
 _atom_site_symmetry_multiplicity
 _atom_site_fract_x
 _atom_site_fract_y
 _atom_site_fract_z
 _atom_site_occupancy
  Ho  Ho0  1  0.456332  0.315711  0.272043  1
  Ho  Ho1  1  0.956333  0.456332  0.272043  1
  Ho  Ho2  1  0.315711  0.815710  0.272043  1
  Ho  Ho3  1  0.815710  0.956333  0.272043  1
  Ho  Ho4  1  0.184289  0.043668  0.727956  1
  Ho  Ho5  1  0.684288  0.184289  0.727956  1
  Ho  Ho6  1  0.043668  0.543667  0.727956  1
  Ho  Ho7  1  0.543667  0.684288  0.727956  1
  Mg  Mg8  1  0.000000  0.000000  0.000000  1
  Mg  Mg9  1  0.500000  0.500000  0.000000  1
  Co  Co10  1  0.614265  0.114265  0.000000  1
  Co  Co11  1  0.114265  0.385736  0.000000  1
  Co  Co12  1  0.885735  0.614265  0.000000  1
  Co  Co13  1  0.385736  0.885735  0.000000  1
  Rh  Rh14  1  0.250000  0.250000  0.500000  1
  Rh  Rh15  1  0.750000  0.750000  0.500000  1
