# generated using pymatgen
data_YbLu9(Pb3O)2
_symmetry_space_group_name_H-M   'P 1'
_cell_length_a   8.95764478
_cell_length_b   8.94114741
_cell_length_c   8.93825496
_cell_angle_alpha   125.51420713
_cell_angle_beta   125.56870577
_cell_angle_gamma   80.72714315
_symmetry_Int_Tables_number   1
_chemical_formula_structural   YbLu9(Pb3O)2
_chemical_formula_sum   'Yb1 Lu9 Pb6 O2'
_cell_volume   456.77949388
_cell_formula_units_Z   1
loop_
 _symmetry_equiv_pos_site_id
 _symmetry_equiv_pos_as_xyz
  1  'x, y, z'
loop_
 _atom_site_type_symbol
 _atom_site_label
 _atom_site_symmetry_multiplicity
 _atom_site_fract_x
 _atom_site_fract_y
 _atom_site_fract_z
 _atom_site_occupancy
  Yb  Yb0  1  0.505127  0.304037  0.500000  1
  Lu  Lu1  1  0.798661  0.004658  0.500000  1
  Lu  Lu2  1  0.002821  0.504227  0.204235  1
  Lu  Lu3  1  0.298586  0.799992  0.795765  1
  Lu  Lu4  1  0.497668  0.708671  0.500000  1
  Lu  Lu5  1  0.202479  0.999230  0.500000  1
  Lu  Lu6  1  0.000052  0.493624  0.795055  1
  Lu  Lu7  1  0.704997  0.198570  0.204945  1
  Lu  Lu8  1  0.498634  0.500518  0.999548  1
  Lu  Lu9  1  0.999086  0.000970  0.000452  1
  Pb  Pb10  1  0.153310  0.350639  0.500000  1
  Pb  Pb11  1  0.849305  0.650588  0.500000  1
  Pb  Pb12  1  0.651874  0.153639  0.803690  1
  Pb  Pb13  1  0.348184  0.849948  0.196310  1
  Pb  Pb14  1  0.752775  0.755394  0.005609  1
  Pb  Pb15  1  0.247166  0.249785  0.994391  1
  O  O16  1  0.760636  0.247677  0.500000  1
  O  O17  1  0.251478  0.750670  0.500000  1
