# generated using pymatgen
data_Nd6Al24Ir3Ru4Au
_symmetry_space_group_name_H-M   'P 1'
_cell_length_a   8.90544586
_cell_length_b   8.91409122
_cell_length_c   9.66055664
_cell_angle_alpha   89.98970391
_cell_angle_beta   89.95810431
_cell_angle_gamma   119.64043766
_symmetry_Int_Tables_number   1
_chemical_formula_structural   Nd6Al24Ir3Ru4Au
_chemical_formula_sum   'Nd6 Al24 Ir3 Ru4 Au1'
_cell_volume   666.54193787
_cell_formula_units_Z   1
loop_
 _symmetry_equiv_pos_site_id
 _symmetry_equiv_pos_as_xyz
  1  'x, y, z'
loop_
 _atom_site_type_symbol
 _atom_site_label
 _atom_site_symmetry_multiplicity
 _atom_site_fract_x
 _atom_site_fract_y
 _atom_site_fract_z
 _atom_site_occupancy
  Nd  Nd0  1  0.191276  0.381305  0.248313  1
  Nd  Nd1  1  0.808724  0.618695  0.751687  1
  Nd  Nd2  1  0.618679  0.809234  0.248322  1
  Nd  Nd3  1  0.381321  0.190766  0.751678  1
  Nd  Nd4  1  0.191647  0.809179  0.253435  1
  Nd  Nd5  1  0.808353  0.190821  0.746565  1
  Al  Al6  1  0.329640  0.673828  0.023161  1
  Al  Al7  1  0.670360  0.326172  0.976839  1
  Al  Al8  1  0.665598  0.334098  0.522732  1
  Al  Al9  1  0.334402  0.665902  0.477268  1
  Al  Al10  1  0.165344  0.326609  0.572522  1
  Al  Al11  1  0.834656  0.673391  0.427478  1
  Al  Al12  1  0.672767  0.834231  0.572627  1
  Al  Al13  1  0.846946  0.676316  0.077692  1
  Al  Al14  1  0.327233  0.165769  0.427373  1
  Al  Al15  1  0.153054  0.323684  0.922308  1
  Al  Al16  1  0.163560  0.836078  0.576924  1
  Al  Al17  1  0.323888  0.151161  0.077901  1
  Al  Al18  1  0.836440  0.163922  0.423076  1
  Al  Al19  1  0.676112  0.848839  0.922099  1
  Al  Al20  1  0.835069  0.161683  0.077598  1
  Al  Al21  1  0.164931  0.838317  0.922402  1
  Al  Al22  1  0.562797  0.124167  0.248458  1
  Al  Al23  1  0.437203  0.875833  0.751542  1
  Al  Al24  1  0.874784  0.436714  0.249771  1
  Al  Al25  1  0.125216  0.563286  0.750229  1
  Al  Al26  1  0.565325  0.434795  0.258393  1
  Al  Al27  1  0.434675  0.565205  0.741607  1
  Al  Al28  1  0.999917  0.001886  0.250543  1
  Al  Al29  1  0.000083  0.998114  0.749457  1
  Ir  Ir30  1  0.000000  0.500000  0.000000  1
  Ir  Ir31  1  0.500000  0.000000  0.500000  1
  Ir  Ir32  1  0.000000  0.500000  0.500000  1
  Ru  Ru33  1  0.500000  0.000000  0.000000  1
  Ru  Ru34  1  0.500000  0.500000  0.500000  1
  Ru  Ru35  1  0.000000  0.000000  0.000000  1
  Ru  Ru36  1  0.000000  0.000000  0.500000  1
  Au  Au37  1  0.500000  0.500000  0.000000  1
