# generated using pymatgen
data_Sc2MoC2
_symmetry_space_group_name_H-M   'P 1'
_cell_length_a   5.53925000
_cell_length_b   5.53925000
_cell_length_c   9.24912200
_cell_angle_alpha   90.00000000
_cell_angle_beta   90.00000000
_cell_angle_gamma   90.00000000
_symmetry_Int_Tables_number   1
_chemical_formula_structural   Sc2MoC2
_chemical_formula_sum   'Sc8 Mo4 C8'
_cell_volume   283.79349777
_cell_formula_units_Z   4
loop_
 _symmetry_equiv_pos_site_id
 _symmetry_equiv_pos_as_xyz
  1  'x, y, z'
loop_
 _atom_site_type_symbol
 _atom_site_label
 _atom_site_symmetry_multiplicity
 _atom_site_fract_x
 _atom_site_fract_y
 _atom_site_fract_z
 _atom_site_occupancy
  Sc  Sc0  1  0.204168  0.795832  0.156739  1
  Sc  Sc1  1  0.795832  0.204168  0.843261  1
  Sc  Sc2  1  0.204168  0.795832  0.843261  1
  Sc  Sc3  1  0.295832  0.295832  0.343261  1
  Sc  Sc4  1  0.704168  0.704168  0.343261  1
  Sc  Sc5  1  0.295832  0.295832  0.656739  1
  Sc  Sc6  1  0.795832  0.204168  0.156739  1
  Sc  Sc7  1  0.704168  0.704168  0.656739  1
  Mo  Mo8  1  0.322952  0.322952  0.000000  1
  Mo  Mo9  1  0.177048  0.822952  0.500000  1
  Mo  Mo10  1  0.677048  0.677048  0.000000  1
  Mo  Mo11  1  0.822952  0.177048  0.500000  1
  C  C12  1  0.000000  0.500000  0.500000  1
  C  C13  1  0.000000  0.000000  0.330151  1
  C  C14  1  0.500000  0.000000  0.000000  1
  C  C15  1  0.000000  0.000000  0.669849  1
  C  C16  1  0.500000  0.500000  0.830151  1
  C  C17  1  0.500000  0.500000  0.169849  1
  C  C18  1  0.500000  0.000000  0.500000  1
  C  C19  1  0.000000  0.500000  0.000000  1
