# generated using pymatgen
data_TaNb12Co8W3N4
_symmetry_space_group_name_H-M   'P 1'
_cell_length_a   8.17853366
_cell_length_b   8.20046043
_cell_length_c   8.20046000
_cell_angle_alpha   60.00000175
_cell_angle_beta   59.91127480
_cell_angle_gamma   59.91127725
_symmetry_Int_Tables_number   1
_chemical_formula_structural   TaNb12Co8W3N4
_chemical_formula_sum   'Ta1 Nb12 Co8 W3 N4'
_cell_volume   388.37671667
_cell_formula_units_Z   1
loop_
 _symmetry_equiv_pos_site_id
 _symmetry_equiv_pos_as_xyz
  1  'x, y, z'
loop_
 _atom_site_type_symbol
 _atom_site_label
 _atom_site_symmetry_multiplicity
 _atom_site_fract_x
 _atom_site_fract_y
 _atom_site_fract_z
 _atom_site_occupancy
  Ta  Ta0  1  0.125000  0.625000  0.625000  1
  Nb  Nb1  1  0.809064  0.809360  0.190788  1
  Nb  Nb2  1  0.189106  0.186560  0.812167  1
  Nb  Nb3  1  0.809064  0.190788  0.809360  1
  Nb  Nb4  1  0.189106  0.812167  0.186560  1
  Nb  Nb5  1  0.189106  0.812167  0.812167  1
  Nb  Nb6  1  0.809064  0.190788  0.190788  1
  Nb  Nb7  1  0.440936  0.440640  0.059212  1
  Nb  Nb8  1  0.060894  0.063440  0.437833  1
  Nb  Nb9  1  0.440936  0.059212  0.440640  1
  Nb  Nb10  1  0.060894  0.437833  0.063440  1
  Nb  Nb11  1  0.060894  0.437833  0.437833  1
  Nb  Nb12  1  0.440936  0.059212  0.059212  1
  Co  Co13  1  0.730441  0.423187  0.423187  1
  Co  Co14  1  0.426410  0.732580  0.420506  1
  Co  Co15  1  0.426410  0.420506  0.732580  1
  Co  Co16  1  0.426410  0.420506  0.420506  1
  Co  Co17  1  0.519559  0.826813  0.826813  1
  Co  Co18  1  0.823590  0.517420  0.829494  1
  Co  Co19  1  0.823590  0.829494  0.517420  1
  Co  Co20  1  0.823590  0.829494  0.829494  1
  W  W21  1  0.625000  0.125000  0.625000  1
  W  W22  1  0.625000  0.625000  0.125000  1
  W  W23  1  0.625000  0.625000  0.625000  1
  N  N24  1  0.625000  0.125000  0.125000  1
  N  N25  1  0.125000  0.625000  0.125000  1
  N  N26  1  0.125000  0.125000  0.625000  1
  N  N27  1  0.125000  0.125000  0.125000  1
