# generated using pymatgen
data_PrTaNb5Sn6
_symmetry_space_group_name_H-M   'P 1'
_cell_length_a   5.83499725
_cell_length_b   5.83796922
_cell_length_c   9.64796200
_cell_angle_alpha   90.00000000
_cell_angle_beta   90.00000000
_cell_angle_gamma   120.01684308
_symmetry_Int_Tables_number   1
_chemical_formula_structural   PrTaNb5Sn6
_chemical_formula_sum   'Pr1 Ta1 Nb5 Sn6'
_cell_volume   284.57381637
_cell_formula_units_Z   1
loop_
 _symmetry_equiv_pos_site_id
 _symmetry_equiv_pos_as_xyz
  1  'x, y, z'
loop_
 _atom_site_type_symbol
 _atom_site_label
 _atom_site_symmetry_multiplicity
 _atom_site_fract_x
 _atom_site_fract_y
 _atom_site_fract_z
 _atom_site_occupancy
  Pr  Pr0  1  0.000000  0.000000  0.000004  1
  Ta  Ta1  1  0.000000  0.500000  0.749961  1
  Nb  Nb2  1  0.500000  0.500000  0.749604  1
  Nb  Nb3  1  0.500000  0.000000  0.749604  1
  Nb  Nb4  1  0.000000  0.500000  0.250406  1
  Nb  Nb5  1  0.500000  0.500000  0.250416  1
  Nb  Nb6  1  0.500000  0.000000  0.250416  1
  Sn  Sn7  1  0.666993  0.333496  0.499910  1
  Sn  Sn8  1  0.333007  0.666504  0.499910  1
  Sn  Sn9  1  0.666700  0.333350  0.000016  1
  Sn  Sn10  1  0.333300  0.666650  0.000016  1
  Sn  Sn11  1  0.000000  0.000000  0.667334  1
  Sn  Sn12  1  0.000000  0.000000  0.332402  1
