# generated using pymatgen
data_Sc4BeCrOs6
_symmetry_space_group_name_H-M   'P 1'
_cell_length_a   5.15963939
_cell_length_b   5.11263082
_cell_length_c   8.59033300
_cell_angle_alpha   90.00000000
_cell_angle_beta   90.00000000
_cell_angle_gamma   121.91695841
_symmetry_Int_Tables_number   1
_chemical_formula_structural   Sc4BeCrOs6
_chemical_formula_sum   'Sc4 Be1 Cr1 Os6'
_cell_volume   192.34768030
_cell_formula_units_Z   1
loop_
 _symmetry_equiv_pos_site_id
 _symmetry_equiv_pos_as_xyz
  1  'x, y, z'
loop_
 _atom_site_type_symbol
 _atom_site_label
 _atom_site_symmetry_multiplicity
 _atom_site_fract_x
 _atom_site_fract_y
 _atom_site_fract_z
 _atom_site_occupancy
  Sc  Sc0  1  0.331765  0.661756  0.436736  1
  Sc  Sc1  1  0.661428  0.334146  0.563869  1
  Sc  Sc2  1  0.661428  0.334146  0.936131  1
  Sc  Sc3  1  0.331765  0.661756  0.063264  1
  Be  Be4  1  0.344007  0.169842  0.250000  1
  Cr  Cr5  1  0.173840  0.341297  0.750000  1
  Os  Os6  1  0.173527  0.824964  0.750000  1
  Os  Os7  1  0.832814  0.655982  0.250000  1
  Os  Os8  1  0.659751  0.829974  0.750000  1
  Os  Os9  1  0.999368  0.004450  0.002534  1
  Os  Os10  1  0.830940  0.177238  0.250000  1
  Os  Os11  1  0.999368  0.004450  0.497466  1
