# generated using pymatgen
data_Er5Si7P5Ir16Os3
_symmetry_space_group_name_H-M   'P 1'
_cell_length_a   12.76752318
_cell_length_b   12.74972992
_cell_length_c   3.96231700
_cell_angle_alpha   90.00000000
_cell_angle_beta   90.00000000
_cell_angle_gamma   120.11304503
_symmetry_Int_Tables_number   1
_chemical_formula_structural   Er5Si7P5Ir16Os3
_chemical_formula_sum   'Er5 Si7 P5 Ir16 Os3'
_cell_volume   557.94533339
_cell_formula_units_Z   1
loop_
 _symmetry_equiv_pos_site_id
 _symmetry_equiv_pos_as_xyz
  1  'x, y, z'
loop_
 _atom_site_type_symbol
 _atom_site_label
 _atom_site_symmetry_multiplicity
 _atom_site_fract_x
 _atom_site_fract_y
 _atom_site_fract_z
 _atom_site_occupancy
  Er  Er0  1  0.666714  0.333486  0.000000  1
  Er  Er1  1  0.332154  0.666247  0.000000  1
  Er  Er2  1  0.815766  0.814785  0.500000  1
  Er  Er3  1  0.185821  0.999677  0.500000  1
  Er  Er4  1  0.999194  0.183820  0.500000  1
  Si  Si5  1  0.686307  0.165311  0.500000  1
  Si  Si6  1  0.834715  0.521188  0.500000  1
  Si  Si7  1  0.479205  0.314079  0.500000  1
  Si  Si8  1  0.169347  0.689747  0.500000  1
  Si  Si9  1  0.634611  0.633126  0.000000  1
  Si  Si10  1  0.367404  0.000878  0.000000  1
  Si  Si11  1  0.999492  0.366645  0.000000  1
  P  P12  1  0.518569  0.825171  0.500000  1
  P  P13  1  0.306462  0.480009  0.500000  1
  P  P14  1  0.179561  0.179911  0.000000  1
  P  P15  1  0.818981  0.998404  0.000000  1
  P  P16  1  0.001737  0.821885  0.000000  1
  Ir  Ir17  1  0.808520  0.179308  0.000000  1
  Ir  Ir18  1  0.819948  0.627063  0.000000  1
  Ir  Ir19  1  0.372027  0.192497  0.000000  1
  Ir  Ir20  1  0.184292  0.808200  0.000000  1
  Ir  Ir21  1  0.619650  0.815822  0.000000  1
  Ir  Ir22  1  0.196886  0.378532  0.000000  1
  Ir  Ir23  1  0.450355  0.445101  0.000000  1
  Ir  Ir24  1  0.556525  0.007176  0.000000  1
  Ir  Ir25  1  0.000528  0.554254  0.000000  1
  Ir  Ir26  1  0.872116  0.359277  0.500000  1
  Ir  Ir27  1  0.640819  0.513344  0.500000  1
  Ir  Ir28  1  0.487055  0.128785  0.500000  1
  Ir  Ir29  1  0.367892  0.872014  0.500000  1
  Ir  Ir30  1  0.504471  0.633334  0.500000  1
  Ir  Ir31  1  0.127249  0.488645  0.500000  1
  Ir  Ir32  1  0.999558  0.000719  0.000000  1
  Os  Os33  1  0.279398  0.284370  0.500000  1
  Os  Os34  1  0.714743  0.993790  0.500000  1
  Os  Os35  1  0.001929  0.723401  0.500000  1
