# generated using pymatgen
data_Ho4Th2Ir13Rh5
_symmetry_space_group_name_H-M   'P 1'
_cell_length_a   5.30757129
_cell_length_b   5.29752353
_cell_length_c   17.45361800
_cell_angle_alpha   90.00000000
_cell_angle_beta   90.05323066
_cell_angle_gamma   119.93738982
_symmetry_Int_Tables_number   1
_chemical_formula_structural   Ho4Th2Ir13Rh5
_chemical_formula_sum   'Ho4 Th2 Ir13 Rh5'
_cell_volume   425.26361893
_cell_formula_units_Z   1
loop_
 _symmetry_equiv_pos_site_id
 _symmetry_equiv_pos_as_xyz
  1  'x, y, z'
loop_
 _atom_site_type_symbol
 _atom_site_label
 _atom_site_symmetry_multiplicity
 _atom_site_fract_x
 _atom_site_fract_y
 _atom_site_fract_z
 _atom_site_occupancy
  Ho  Ho0  1  0.333832  0.666917  0.960831  1
  Ho  Ho1  1  0.667803  0.333902  0.039213  1
  Ho  Ho2  1  0.667008  0.333504  0.461089  1
  Ho  Ho3  1  0.333339  0.666670  0.539096  1
  Th  Th4  1  0.333420  0.666711  0.750034  1
  Th  Th5  1  0.666747  0.333373  0.250677  1
  Ir  Ir6  1  0.168840  0.832835  0.375574  1
  Ir  Ir7  1  0.168840  0.336006  0.375574  1
  Ir  Ir8  1  0.666417  0.833209  0.374768  1
  Ir  Ir9  1  0.832964  0.168311  0.624495  1
  Ir  Ir10  1  0.832964  0.664654  0.624495  1
  Ir  Ir11  1  0.334940  0.167470  0.624735  1
  Ir  Ir12  1  0.832018  0.167408  0.875459  1
  Ir  Ir13  1  0.832018  0.664610  0.875459  1
  Ir  Ir14  1  0.334790  0.167395  0.876003  1
  Ir  Ir15  1  0.163815  0.829986  0.124234  1
  Ir  Ir16  1  0.163815  0.333829  0.124234  1
  Ir  Ir17  1  0.998304  0.999152  0.500010  1
  Ir  Ir18  1  0.004434  0.002218  0.000093  1
  Rh  Rh19  1  0.662499  0.831249  0.124225  1
  Rh  Rh20  1  0.332720  0.666361  0.249719  1
  Rh  Rh21  1  0.665955  0.332978  0.750096  1
  Rh  Rh22  1  0.002732  0.001366  0.249796  1
  Rh  Rh23  1  0.999783  0.999891  0.750092  1
