# generated using pymatgen
data_PrSm2(ZnPt)4
_symmetry_space_group_name_H-M   'P 1'
_cell_length_a   8.34096424
_cell_length_b   8.34096519
_cell_length_c   8.34096451
_cell_angle_alpha   151.44519786
_cell_angle_beta   126.46568211
_cell_angle_gamma   61.79019904
_symmetry_Int_Tables_number   1
_chemical_formula_structural   PrSm2(ZnPt)4
_chemical_formula_sum   'Pr1 Sm2 Zn4 Pt4'
_cell_volume   221.22759168
_cell_formula_units_Z   1
loop_
 _symmetry_equiv_pos_site_id
 _symmetry_equiv_pos_as_xyz
  1  'x, y, z'
loop_
 _atom_site_type_symbol
 _atom_site_label
 _atom_site_symmetry_multiplicity
 _atom_site_fract_x
 _atom_site_fract_y
 _atom_site_fract_z
 _atom_site_occupancy
  Pr  Pr0  1  0.500000  0.000000  0.500000  1
  Sm  Sm1  1  0.873827  0.873827  0.000000  1
  Sm  Sm2  1  0.126173  0.126173  0.000000  1
  Zn  Zn3  1  0.478116  0.673613  0.804504  1
  Zn  Zn4  1  0.869109  0.673613  0.195496  1
  Zn  Zn5  1  0.130891  0.326387  0.804504  1
  Zn  Zn6  1  0.521884  0.326387  0.195496  1
  Pt  Pt7  1  0.279242  0.779242  0.500000  1
  Pt  Pt8  1  0.720758  0.220758  0.500000  1
  Pt  Pt9  1  0.806797  0.500000  0.306797  1
  Pt  Pt10  1  0.193203  0.500000  0.693203  1
