# generated using pymatgen
data_Sc6InHg7
_symmetry_space_group_name_H-M   'P 1'
_cell_length_a   7.91247938
_cell_length_b   7.91247927
_cell_length_c   7.91248017
_cell_angle_alpha   113.62728090
_cell_angle_beta   113.62727791
_cell_angle_gamma   113.62726830
_symmetry_Int_Tables_number   1
_chemical_formula_structural   Sc6InHg7
_chemical_formula_sum   'Sc6 In1 Hg7'
_cell_volume   309.10963466
_cell_formula_units_Z   1
loop_
 _symmetry_equiv_pos_site_id
 _symmetry_equiv_pos_as_xyz
  1  'x, y, z'
loop_
 _atom_site_type_symbol
 _atom_site_label
 _atom_site_symmetry_multiplicity
 _atom_site_fract_x
 _atom_site_fract_y
 _atom_site_fract_z
 _atom_site_occupancy
  Sc  Sc0  1  0.958002  0.234775  0.373865  1
  Sc  Sc1  1  0.234775  0.373865  0.958002  1
  Sc  Sc2  1  0.373865  0.958002  0.234775  1
  Sc  Sc3  1  0.041998  0.765225  0.626135  1
  Sc  Sc4  1  0.765225  0.626135  0.041998  1
  Sc  Sc5  1  0.626135  0.041998  0.765225  1
  In  In6  1  0.500000  0.500000  0.500000  1
  Hg  Hg7  1  0.000000  0.000000  0.000000  1
  Hg  Hg8  1  0.120543  0.565571  0.267302  1
  Hg  Hg9  1  0.565571  0.267302  0.120543  1
  Hg  Hg10  1  0.267302  0.120543  0.565571  1
  Hg  Hg11  1  0.879457  0.434429  0.732698  1
  Hg  Hg12  1  0.434429  0.732698  0.879457  1
  Hg  Hg13  1  0.732698  0.879457  0.434429  1
