# generated using pymatgen
data_Nd7DySc12Si15Se
_symmetry_space_group_name_H-M   'P 1'
_cell_length_a   7.24501910
_cell_length_b   7.48385811
_cell_length_c   14.13914300
_cell_angle_alpha   90.07348915
_cell_angle_beta   89.07649209
_cell_angle_gamma   90.32688779
_symmetry_Int_Tables_number   1
_chemical_formula_structural   Nd7DySc12Si15Se
_chemical_formula_sum   'Nd7 Dy1 Sc12 Si15 Se1'
_cell_volume   766.52155737
_cell_formula_units_Z   1
loop_
 _symmetry_equiv_pos_site_id
 _symmetry_equiv_pos_as_xyz
  1  'x, y, z'
loop_
 _atom_site_type_symbol
 _atom_site_label
 _atom_site_symmetry_multiplicity
 _atom_site_fract_x
 _atom_site_fract_y
 _atom_site_fract_z
 _atom_site_occupancy
  Nd  Nd0  1  0.010982  0.173088  0.097975  1
  Nd  Nd1  1  0.989680  0.827895  0.900438  1
  Nd  Nd2  1  0.489311  0.672492  0.902531  1
  Nd  Nd3  1  0.994408  0.823582  0.596236  1
  Nd  Nd4  1  0.511243  0.328326  0.097908  1
  Nd  Nd5  1  0.005173  0.175811  0.403546  1
  Nd  Nd6  1  0.501884  0.321533  0.401419  1
  Dy  Dy7  1  0.505710  0.678144  0.599847  1
  Sc  Sc8  1  0.164697  0.499500  0.752099  1
  Sc  Sc9  1  0.835008  0.501388  0.253964  1
  Sc  Sc10  1  0.335146  0.997149  0.251134  1
  Sc  Sc11  1  0.665662  0.001125  0.748981  1
  Sc  Sc12  1  0.343777  0.168386  0.628198  1
  Sc  Sc13  1  0.658590  0.828108  0.373493  1
  Sc  Sc14  1  0.156331  0.671554  0.378306  1
  Sc  Sc15  1  0.667852  0.824843  0.125778  1
  Sc  Sc16  1  0.835674  0.330432  0.620348  1
  Sc  Sc17  1  0.332305  0.174459  0.872147  1
  Sc  Sc18  1  0.831700  0.323787  0.873345  1
  Sc  Sc19  1  0.166625  0.676833  0.125033  1
  Si  Si20  1  0.037094  0.126488  0.746462  1
  Si  Si21  1  0.961415  0.875790  0.251366  1
  Si  Si22  1  0.456400  0.623923  0.249394  1
  Si  Si23  1  0.540986  0.379325  0.748798  1
  Si  Si24  1  0.294634  0.874272  0.748185  1
  Si  Si25  1  0.709454  0.120123  0.249667  1
  Si  Si26  1  0.206734  0.383008  0.250243  1
  Si  Si27  1  0.792174  0.619711  0.748168  1
  Si  Si28  1  0.805960  0.544528  0.456699  1
  Si  Si29  1  0.337651  0.956767  0.463019  1
  Si  Si30  1  0.846797  0.537350  0.038838  1
  Si  Si31  1  0.661032  0.035113  0.541566  1
  Si  Si32  1  0.151863  0.463547  0.959594  1
  Si  Si33  1  0.652738  0.036917  0.959049  1
  Si  Si34  1  0.347031  0.964650  0.039561  1
  Se  Se35  1  0.196275  0.460055  0.546663  1
