# generated using pymatgen
data_Ce4Pa(TcB3)2
_symmetry_space_group_name_H-M   'P 1'
_cell_length_a   5.47303806
_cell_length_b   5.47303787
_cell_length_c   8.43084264
_cell_angle_alpha   71.05960933
_cell_angle_beta   71.05961175
_cell_angle_gamma   59.99999674
_symmetry_Int_Tables_number   1
_chemical_formula_structural   Ce4Pa(TcB3)2
_chemical_formula_sum   'Ce4 Pa1 Tc2 B6'
_cell_volume   202.76277230
_cell_formula_units_Z   1
loop_
 _symmetry_equiv_pos_site_id
 _symmetry_equiv_pos_as_xyz
  1  'x, y, z'
loop_
 _atom_site_type_symbol
 _atom_site_label
 _atom_site_symmetry_multiplicity
 _atom_site_fract_x
 _atom_site_fract_y
 _atom_site_fract_z
 _atom_site_occupancy
  Ce  Ce0  1  0.745675  0.745675  0.762974  1
  Ce  Ce1  1  0.254325  0.254325  0.237026  1
  Ce  Ce2  1  0.587513  0.587513  0.237459  1
  Ce  Ce3  1  0.412487  0.412487  0.762541  1
  Pa  Pa4  1  0.000000  0.000000  0.000000  1
  Tc  Tc5  1  0.892772  0.892772  0.321685  1
  Tc  Tc6  1  0.107228  0.107228  0.678316  1
  B  B7  1  0.500000  0.170936  0.500000  1
  B  B8  1  0.829064  0.500000  0.500000  1
  B  B9  1  0.170936  0.829064  0.500000  1
  B  B10  1  0.170936  0.500000  0.500000  1
  B  B11  1  0.829064  0.170936  0.500000  1
  B  B12  1  0.500000  0.829064  0.500000  1
