# generated using pymatgen
data_Y2Zn2IrPt
_symmetry_space_group_name_H-M   'P 1'
_cell_length_a   4.12538600
_cell_length_b   6.98192987
_cell_length_c   8.17311606
_cell_angle_alpha   90.08495873
_cell_angle_beta   90.00000000
_cell_angle_gamma   90.00000000
_symmetry_Int_Tables_number   1
_chemical_formula_structural   Y2Zn2IrPt
_chemical_formula_sum   'Y4 Zn4 Ir2 Pt2'
_cell_volume   235.41127608
_cell_formula_units_Z   2
loop_
 _symmetry_equiv_pos_site_id
 _symmetry_equiv_pos_as_xyz
  1  'x, y, z'
loop_
 _atom_site_type_symbol
 _atom_site_label
 _atom_site_symmetry_multiplicity
 _atom_site_fract_x
 _atom_site_fract_y
 _atom_site_fract_z
 _atom_site_occupancy
  Y  Y0  1  0.250000  0.532062  0.180572  1
  Y  Y1  1  0.750000  0.467938  0.819428  1
  Y  Y2  1  0.750000  0.961981  0.689914  1
  Y  Y3  1  0.250000  0.038019  0.310086  1
  Zn  Zn4  1  0.250000  0.644127  0.568674  1
  Zn  Zn5  1  0.750000  0.355873  0.431326  1
  Zn  Zn6  1  0.750000  0.858033  0.063676  1
  Zn  Zn7  1  0.250000  0.141967  0.936324  1
  Ir  Ir8  1  0.250000  0.758079  0.880318  1
  Ir  Ir9  1  0.750000  0.241921  0.119682  1
  Pt  Pt10  1  0.750000  0.741777  0.382507  1
  Pt  Pt11  1  0.250000  0.258223  0.617493  1
