# generated using pymatgen
data_Pr2Nd4Er10Cd3InIr4
_symmetry_space_group_name_H-M   'P 1'
_cell_length_a   9.71422071
_cell_length_b   9.70892304
_cell_length_c   9.70892100
_cell_angle_alpha   60.03609912
_cell_angle_beta   59.98194591
_cell_angle_gamma   59.98194537
_symmetry_Int_Tables_number   1
_chemical_formula_structural   Pr2Nd4Er10Cd3InIr4
_chemical_formula_sum   'Pr2 Nd4 Er10 Cd3 In1 Ir4'
_cell_volume   647.49244331
_cell_formula_units_Z   1
loop_
 _symmetry_equiv_pos_site_id
 _symmetry_equiv_pos_as_xyz
  1  'x, y, z'
loop_
 _atom_site_type_symbol
 _atom_site_label
 _atom_site_symmetry_multiplicity
 _atom_site_fract_x
 _atom_site_fract_y
 _atom_site_fract_z
 _atom_site_occupancy
  Pr  Pr0  1  0.942189  0.558668  0.558668  1
  Pr  Pr1  1  0.558972  0.941268  0.941268  1
  Nd  Nd2  1  0.557523  0.943121  0.557552  1
  Nd  Nd3  1  0.942453  0.557766  0.942494  1
  Nd  Nd4  1  0.557523  0.557552  0.943121  1
  Nd  Nd5  1  0.942453  0.942494  0.557766  1
  Er  Er6  1  0.346790  0.346904  0.346904  1
  Er  Er7  1  0.347540  0.347403  0.958440  1
  Er  Er8  1  0.347540  0.958440  0.347403  1
  Er  Er9  1  0.958406  0.347577  0.347577  1
  Er  Er10  1  0.812634  0.187115  0.187115  1
  Er  Er11  1  0.188542  0.811802  0.811802  1
  Er  Er12  1  0.186871  0.812897  0.186830  1
  Er  Er13  1  0.812006  0.188346  0.812030  1
  Er  Er14  1  0.186871  0.186830  0.812897  1
  Er  Er15  1  0.812006  0.812030  0.188346  1
  Cd  Cd16  1  0.579396  0.578518  0.261809  1
  Cd  Cd17  1  0.579396  0.261809  0.578518  1
  Cd  Cd18  1  0.261850  0.579418  0.579418  1
  In  In19  1  0.579178  0.579934  0.579934  1
  Ir  Ir20  1  0.140503  0.141537  0.141537  1
  Ir  Ir21  1  0.141488  0.140590  0.576365  1
  Ir  Ir22  1  0.141488  0.576365  0.140590  1
  Ir  Ir23  1  0.576379  0.141613  0.141613  1
