# generated using pymatgen
data_Hf4Co3CuSn2
_symmetry_space_group_name_H-M   'P 1'
_cell_length_a   7.19503662
_cell_length_b   7.19503580
_cell_length_c   6.57301100
_cell_angle_alpha   90.00000000
_cell_angle_beta   90.00000000
_cell_angle_gamma   90.45805206
_symmetry_Int_Tables_number   1
_chemical_formula_structural   Hf4Co3CuSn2
_chemical_formula_sum   'Hf8 Co6 Cu2 Sn4'
_cell_volume   340.26434868
_cell_formula_units_Z   2
loop_
 _symmetry_equiv_pos_site_id
 _symmetry_equiv_pos_as_xyz
  1  'x, y, z'
loop_
 _atom_site_type_symbol
 _atom_site_label
 _atom_site_symmetry_multiplicity
 _atom_site_fract_x
 _atom_site_fract_y
 _atom_site_fract_z
 _atom_site_occupancy
  Hf  Hf0  1  0.156682  0.177591  0.000000  1
  Hf  Hf1  1  0.822409  0.843318  0.000000  1
  Hf  Hf2  1  0.667464  0.332536  0.500000  1
  Hf  Hf3  1  0.353069  0.646931  0.500000  1
  Hf  Hf4  1  0.668963  0.331037  0.000000  1
  Hf  Hf5  1  0.347296  0.652704  0.000000  1
  Hf  Hf6  1  0.813916  0.839741  0.500000  1
  Hf  Hf7  1  0.160259  0.186084  0.500000  1
  Co  Co8  1  0.373843  0.366972  0.244789  1
  Co  Co9  1  0.633028  0.626157  0.755211  1
  Co  Co10  1  0.633028  0.626157  0.244789  1
  Co  Co11  1  0.876815  0.123185  0.747087  1
  Co  Co12  1  0.876815  0.123185  0.252913  1
  Co  Co13  1  0.373843  0.366972  0.755211  1
  Cu  Cu14  1  0.127009  0.872991  0.264128  1
  Cu  Cu15  1  0.127009  0.872991  0.735872  1
  Sn  Sn16  1  0.495285  0.001008  0.248862  1
  Sn  Sn17  1  0.495285  0.001008  0.751138  1
  Sn  Sn18  1  0.998992  0.504715  0.248862  1
  Sn  Sn19  1  0.998992  0.504715  0.751138  1
