# generated using pymatgen
data_Tm9Lu3Tl2Fe2Os
_symmetry_space_group_name_H-M   'P 1'
_cell_length_a   8.25265824
_cell_length_b   8.25652845
_cell_length_c   8.25266028
_cell_angle_alpha   108.62563352
_cell_angle_beta   108.66384483
_cell_angle_gamma   111.11757556
_symmetry_Int_Tables_number   1
_chemical_formula_structural   Tm9Lu3Tl2Fe2Os
_chemical_formula_sum   'Tm9 Lu3 Tl2 Fe2 Os1'
_cell_volume   432.70819830
_cell_formula_units_Z   1
loop_
 _symmetry_equiv_pos_site_id
 _symmetry_equiv_pos_as_xyz
  1  'x, y, z'
loop_
 _atom_site_type_symbol
 _atom_site_label
 _atom_site_symmetry_multiplicity
 _atom_site_fract_x
 _atom_site_fract_y
 _atom_site_fract_z
 _atom_site_occupancy
  Tm  Tm0  1  0.955006  0.192262  0.763042  1
  Tm  Tm1  1  0.808598  0.046251  0.237654  1
  Tm  Tm2  1  0.045398  0.807522  0.237323  1
  Tm  Tm3  1  0.429221  0.192262  0.237257  1
  Tm  Tm4  1  0.570198  0.807522  0.762123  1
  Tm  Tm5  1  0.309024  0.308184  0.616972  1
  Tm  Tm6  1  0.691353  0.691438  0.383433  1
  Tm  Tm7  1  0.691211  0.308184  0.999161  1
  Tm  Tm8  1  0.308006  0.691438  0.000084  1
  Lu  Lu9  1  0.191379  0.428280  0.236901  1
  Lu  Lu10  1  0.809069  0.572055  0.762987  1
  Lu  Lu11  1  0.191089  0.954348  0.763258  1
  Tl  Tl12  1  0.000705  0.501160  0.500454  1
  Tl  Tl13  1  0.500058  0.999896  0.499838  1
  Fe  Fe14  1  0.384958  0.384960  0.000001  1
  Fe  Fe15  1  0.614493  0.614377  0.999885  1
  Os  Os16  1  0.000233  0.999860  0.999628  1
