# generated using pymatgen
data_Ta12CrGa8Co3C4
_symmetry_space_group_name_H-M   'P 1'
_cell_length_a   8.19511854
_cell_length_b   8.19511902
_cell_length_c   8.20603963
_cell_angle_alpha   60.04402049
_cell_angle_beta   60.04402252
_cell_angle_gamma   60.00000338
_symmetry_Int_Tables_number   1
_chemical_formula_structural   Ta12CrGa8Co3C4
_chemical_formula_sum   'Ta12 Cr1 Ga8 Co3 C4'
_cell_volume   389.95795236
_cell_formula_units_Z   1
loop_
 _symmetry_equiv_pos_site_id
 _symmetry_equiv_pos_as_xyz
  1  'x, y, z'
loop_
 _atom_site_type_symbol
 _atom_site_label
 _atom_site_symmetry_multiplicity
 _atom_site_fract_x
 _atom_site_fract_y
 _atom_site_fract_z
 _atom_site_occupancy
  Ta  Ta0  1  0.547271  0.946044  0.560641  1
  Ta  Ta1  1  0.303956  0.702729  0.689359  1
  Ta  Ta2  1  0.690709  0.308779  0.309804  1
  Ta  Ta3  1  0.308779  0.690709  0.309804  1
  Ta  Ta4  1  0.690709  0.690709  0.309804  1
  Ta  Ta5  1  0.303956  0.303956  0.689359  1
  Ta  Ta6  1  0.559291  0.559291  0.940196  1
  Ta  Ta7  1  0.946044  0.547271  0.560641  1
  Ta  Ta8  1  0.559291  0.941221  0.940196  1
  Ta  Ta9  1  0.946044  0.946044  0.560641  1
  Ta  Ta10  1  0.702729  0.303956  0.689359  1
  Ta  Ta11  1  0.941221  0.559291  0.940196  1
  Cr  Cr12  1  0.125000  0.125000  0.625000  1
  Ga  Ga13  1  0.913676  0.913676  0.922744  1
  Ga  Ga14  1  0.000095  0.336324  0.327256  1
  Ga  Ga15  1  0.336324  0.000095  0.327256  1
  Ga  Ga16  1  0.335550  0.335550  0.993348  1
  Ga  Ga17  1  0.913676  0.249905  0.922744  1
  Ga  Ga18  1  0.914450  0.914450  0.256652  1
  Ga  Ga19  1  0.249905  0.913676  0.922744  1
  Ga  Ga20  1  0.336324  0.336324  0.327256  1
  Co  Co21  1  0.125000  0.125000  0.125000  1
  Co  Co22  1  0.625000  0.125000  0.125000  1
  Co  Co23  1  0.125000  0.625000  0.125000  1
  C  C24  1  0.625000  0.625000  0.625000  1
  C  C25  1  0.125000  0.625000  0.625000  1
  C  C26  1  0.625000  0.125000  0.625000  1
  C  C27  1  0.625000  0.625000  0.125000  1
