# generated using pymatgen
data_TbTmNi6(BIr)2
_symmetry_space_group_name_H-M   'P 1'
_cell_length_a   5.15693190
_cell_length_b   5.15693071
_cell_length_c   7.09089900
_cell_angle_alpha   90.00000000
_cell_angle_beta   90.00000000
_cell_angle_gamma   122.26056031
_symmetry_Int_Tables_number   1
_chemical_formula_structural   TbTmNi6(BIr)2
_chemical_formula_sum   'Tb1 Tm1 Ni6 B2 Ir2'
_cell_volume   159.46452888
_cell_formula_units_Z   1
loop_
 _symmetry_equiv_pos_site_id
 _symmetry_equiv_pos_as_xyz
  1  'x, y, z'
loop_
 _atom_site_type_symbol
 _atom_site_label
 _atom_site_symmetry_multiplicity
 _atom_site_fract_x
 _atom_site_fract_y
 _atom_site_fract_z
 _atom_site_occupancy
  Tb  Tb0  1  0.000000  0.000000  0.000000  1
  Tm  Tm1  1  0.000000  0.000000  0.500000  1
  Ni  Ni2  1  0.332539  0.667461  0.000000  1
  Ni  Ni3  1  0.667461  0.332539  0.000000  1
  Ni  Ni4  1  0.500000  0.000000  0.292335  1
  Ni  Ni5  1  0.000000  0.500000  0.292335  1
  Ni  Ni6  1  0.500000  0.000000  0.707665  1
  Ni  Ni7  1  0.000000  0.500000  0.707665  1
  B  B8  1  0.672934  0.327066  0.500000  1
  B  B9  1  0.327066  0.672934  0.500000  1
  Ir  Ir10  1  0.500000  0.500000  0.291082  1
  Ir  Ir11  1  0.500000  0.500000  0.708918  1
