# generated using pymatgen
data_Rb8Hf3Zr3BeBr20
_symmetry_space_group_name_H-M   'P 1'
_cell_length_a   12.09320649
_cell_length_b   12.09170133
_cell_length_c   12.09068209
_cell_angle_alpha   60.01103015
_cell_angle_beta   59.99866853
_cell_angle_gamma   59.99030973
_symmetry_Int_Tables_number   1
_chemical_formula_structural   Rb8Hf3Zr3BeBr20
_chemical_formula_sum   'Rb8 Hf3 Zr3 Be1 Br20'
_cell_volume   1250.15736292
_cell_formula_units_Z   1
loop_
 _symmetry_equiv_pos_site_id
 _symmetry_equiv_pos_as_xyz
  1  'x, y, z'
loop_
 _atom_site_type_symbol
 _atom_site_label
 _atom_site_symmetry_multiplicity
 _atom_site_fract_x
 _atom_site_fract_y
 _atom_site_fract_z
 _atom_site_occupancy
  Rb  Rb0  1  0.360987  0.361027  0.360330  1
  Rb  Rb1  1  0.638872  0.639549  0.639536  1
  Rb  Rb2  1  0.360451  0.361128  0.917955  1
  Rb  Rb3  1  0.360330  0.917655  0.360987  1
  Rb  Rb4  1  0.638973  0.639013  0.082345  1
  Rb  Rb5  1  0.639536  0.082045  0.638872  1
  Rb  Rb6  1  0.917955  0.360464  0.360451  1
  Rb  Rb7  1  0.082345  0.639670  0.638973  1
  Hf  Hf8  1  0.861764  0.138236  0.861764  1
  Hf  Hf9  1  0.138502  0.137901  0.862099  1
  Hf  Hf10  1  0.862099  0.861498  0.138502  1
  Zr  Zr11  1  0.861213  0.138787  0.139427  1
  Zr  Zr12  1  0.139427  0.860573  0.861213  1
  Zr  Zr13  1  0.139075  0.860925  0.139075  1
  Be  Be14  1  0.999405  0.000595  0.999405  1
  Br  Br15  1  0.317855  0.003207  0.996793  1
  Br  Br16  1  0.684145  0.000035  0.999965  1
  Br  Br17  1  0.999965  0.315855  0.684145  1
  Br  Br18  1  0.996793  0.682145  0.317855  1
  Br  Br19  1  0.003026  0.317914  0.996680  1
  Br  Br20  1  0.682086  0.996974  0.317621  1
  Br  Br21  1  0.996680  0.682379  0.003026  1
  Br  Br22  1  0.317621  0.003320  0.682086  1
  Br  Br23  1  0.999966  0.000034  0.319918  1
  Br  Br24  1  0.996779  0.003221  0.682303  1
  Br  Br25  1  0.682303  0.317697  0.996779  1
  Br  Br26  1  0.319918  0.680082  0.999966  1
  Br  Br27  1  0.689318  0.310682  0.310085  1
  Br  Br28  1  0.310085  0.689915  0.689318  1
  Br  Br29  1  0.310445  0.689555  0.310445  1
  Br  Br30  1  0.692550  0.307450  0.692550  1
  Br  Br31  1  0.307269  0.307876  0.692124  1
  Br  Br32  1  0.692124  0.692731  0.307269  1
  Br  Br33  1  0.250068  0.249932  0.250068  1
  Br  Br34  1  0.750068  0.749932  0.750068  1
