# generated using pymatgen
data_HoTcNi4P3
_symmetry_space_group_name_H-M   'P 1'
_cell_length_a   3.69950800
_cell_length_b   10.52785300
_cell_length_c   11.94624000
_cell_angle_alpha   90.00000000
_cell_angle_beta   90.00000000
_cell_angle_gamma   90.00000000
_symmetry_Int_Tables_number   1
_chemical_formula_structural   HoTcNi4P3
_chemical_formula_sum   'Ho4 Tc4 Ni16 P12'
_cell_volume   465.28067892
_cell_formula_units_Z   4
loop_
 _symmetry_equiv_pos_site_id
 _symmetry_equiv_pos_as_xyz
  1  'x, y, z'
loop_
 _atom_site_type_symbol
 _atom_site_label
 _atom_site_symmetry_multiplicity
 _atom_site_fract_x
 _atom_site_fract_y
 _atom_site_fract_z
 _atom_site_occupancy
  Ho  Ho0  1  0.250000  0.586871  0.705923  1
  Ho  Ho1  1  0.250000  0.913129  0.205923  1
  Ho  Ho2  1  0.750000  0.413129  0.294077  1
  Ho  Ho3  1  0.750000  0.086871  0.794077  1
  Tc  Tc4  1  0.250000  0.712534  0.989037  1
  Tc  Tc5  1  0.250000  0.787466  0.489037  1
  Tc  Tc6  1  0.750000  0.287466  0.010963  1
  Tc  Tc7  1  0.750000  0.212534  0.510963  1
  Ni  Ni8  1  0.250000  0.409989  0.487499  1
  Ni  Ni9  1  0.250000  0.090011  0.987499  1
  Ni  Ni10  1  0.750000  0.590011  0.512501  1
  Ni  Ni11  1  0.750000  0.909989  0.012501  1
  Ni  Ni12  1  0.250000  0.221623  0.178485  1
  Ni  Ni13  1  0.250000  0.278377  0.678485  1
  Ni  Ni14  1  0.750000  0.778377  0.821515  1
  Ni  Ni15  1  0.750000  0.721623  0.321515  1
  Ni  Ni16  1  0.250000  0.886511  0.704088  1
  Ni  Ni17  1  0.250000  0.613489  0.204088  1
  Ni  Ni18  1  0.750000  0.113489  0.295912  1
  Ni  Ni19  1  0.750000  0.386511  0.795912  1
  Ni  Ni20  1  0.250000  0.464722  0.929700  1
  Ni  Ni21  1  0.250000  0.035278  0.429700  1
  Ni  Ni22  1  0.750000  0.535278  0.070300  1
  Ni  Ni23  1  0.750000  0.964722  0.570300  1
  P  P24  1  0.250000  0.418286  0.112255  1
  P  P25  1  0.250000  0.081714  0.612255  1
  P  P26  1  0.750000  0.581714  0.887745  1
  P  P27  1  0.750000  0.918286  0.387745  1
  P  P28  1  0.250000  0.268281  0.869782  1
  P  P29  1  0.250000  0.231719  0.369782  1
  P  P30  1  0.750000  0.731719  0.130218  1
  P  P31  1  0.750000  0.768281  0.630218  1
  P  P32  1  0.250000  0.597484  0.390097  1
  P  P33  1  0.250000  0.902516  0.890097  1
  P  P34  1  0.750000  0.402516  0.609903  1
  P  P35  1  0.750000  0.097484  0.109903  1
