# generated using pymatgen
data_Pr3ZnSi2Ag3
_symmetry_space_group_name_H-M   'P 1'
_cell_length_a   7.36063000
_cell_length_b   7.36063001
_cell_length_c   4.31638800
_cell_angle_alpha   90.00000000
_cell_angle_beta   90.00000000
_cell_angle_gamma   120.00000895
_symmetry_Int_Tables_number   1
_chemical_formula_structural   Pr3ZnSi2Ag3
_chemical_formula_sum   'Pr3 Zn1 Si2 Ag3'
_cell_volume   202.52612082
_cell_formula_units_Z   1
loop_
 _symmetry_equiv_pos_site_id
 _symmetry_equiv_pos_as_xyz
  1  'x, y, z'
loop_
 _atom_site_type_symbol
 _atom_site_label
 _atom_site_symmetry_multiplicity
 _atom_site_fract_x
 _atom_site_fract_y
 _atom_site_fract_z
 _atom_site_occupancy
  Pr  Pr0  1  0.416880  0.416880  0.500000  1
  Pr  Pr1  1  0.583120  0.000000  0.500000  1
  Pr  Pr2  1  0.000000  0.583120  0.500000  1
  Zn  Zn3  1  0.000000  0.000000  0.500000  1
  Si  Si4  1  0.666667  0.333333  0.000000  1
  Si  Si5  1  0.333333  0.666667  0.000000  1
  Ag  Ag6  1  0.750929  0.750929  0.000000  1
  Ag  Ag7  1  0.249071  0.000000  0.000000  1
  Ag  Ag8  1  0.000000  0.249071  0.000000  1
