# generated using pymatgen
data_La2PrHo2(Sn5Rh2)2
_symmetry_space_group_name_H-M   'P 1'
_cell_length_a   14.23687700
_cell_length_b   14.23687700
_cell_length_c   4.58197600
_cell_angle_alpha   90.00000000
_cell_angle_beta   90.00000000
_cell_angle_gamma   90.00000000
_symmetry_Int_Tables_number   1
_chemical_formula_structural   La2PrHo2(Sn5Rh2)2
_chemical_formula_sum   'La4 Pr2 Ho4 Sn20 Rh8'
_cell_volume   928.71460635
_cell_formula_units_Z   2
loop_
 _symmetry_equiv_pos_site_id
 _symmetry_equiv_pos_as_xyz
  1  'x, y, z'
loop_
 _atom_site_type_symbol
 _atom_site_label
 _atom_site_symmetry_multiplicity
 _atom_site_fract_x
 _atom_site_fract_y
 _atom_site_fract_z
 _atom_site_occupancy
  La  La0  1  0.888429  0.388429  0.500000  1
  La  La1  1  0.111571  0.611571  0.500000  1
  La  La2  1  0.388429  0.111571  0.500000  1
  La  La3  1  0.611571  0.888429  0.500000  1
  Pr  Pr4  1  0.500000  0.500000  0.000000  1
  Pr  Pr5  1  0.000000  0.000000  0.000000  1
  Ho  Ho6  1  0.676512  0.176512  0.500000  1
  Ho  Ho7  1  0.323488  0.823488  0.500000  1
  Ho  Ho8  1  0.176512  0.323488  0.500000  1
  Ho  Ho9  1  0.823488  0.676512  0.500000  1
  Sn  Sn10  1  0.570423  0.070423  0.000000  1
  Sn  Sn11  1  0.429577  0.929577  0.000000  1
  Sn  Sn12  1  0.070423  0.429577  0.000000  1
  Sn  Sn13  1  0.929577  0.570423  0.000000  1
  Sn  Sn14  1  0.654332  0.698156  0.000000  1
  Sn  Sn15  1  0.345668  0.301844  0.000000  1
  Sn  Sn16  1  0.154332  0.801844  0.000000  1
  Sn  Sn17  1  0.845668  0.198156  0.000000  1
  Sn  Sn18  1  0.301844  0.654332  0.000000  1
  Sn  Sn19  1  0.698156  0.345668  0.000000  1
  Sn  Sn20  1  0.198156  0.154332  0.000000  1
  Sn  Sn21  1  0.801844  0.845668  0.000000  1
  Sn  Sn22  1  0.664278  0.506401  0.500000  1
  Sn  Sn23  1  0.335722  0.493599  0.500000  1
  Sn  Sn24  1  0.164278  0.993599  0.500000  1
  Sn  Sn25  1  0.835722  0.006401  0.500000  1
  Sn  Sn26  1  0.493599  0.664278  0.500000  1
  Sn  Sn27  1  0.506401  0.335722  0.500000  1
  Sn  Sn28  1  0.006401  0.164278  0.500000  1
  Sn  Sn29  1  0.993599  0.835722  0.500000  1
  Rh  Rh30  1  0.747237  0.530022  0.000000  1
  Rh  Rh31  1  0.252763  0.469978  0.000000  1
  Rh  Rh32  1  0.247237  0.969978  0.000000  1
  Rh  Rh33  1  0.752763  0.030022  0.000000  1
  Rh  Rh34  1  0.469978  0.747237  0.000000  1
  Rh  Rh35  1  0.530022  0.252763  0.000000  1
  Rh  Rh36  1  0.030022  0.247237  0.000000  1
  Rh  Rh37  1  0.969978  0.752763  0.000000  1
