# generated using pymatgen
data_Tm4MgPbAu4
_symmetry_space_group_name_H-M   'P 1'
_cell_length_a   7.97963900
_cell_length_b   7.97963900
_cell_length_c   3.67265000
_cell_angle_alpha   90.00000000
_cell_angle_beta   90.00000000
_cell_angle_gamma   90.00000000
_symmetry_Int_Tables_number   1
_chemical_formula_structural   Tm4MgPbAu4
_chemical_formula_sum   'Tm4 Mg1 Pb1 Au4'
_cell_volume   233.85466135
_cell_formula_units_Z   1
loop_
 _symmetry_equiv_pos_site_id
 _symmetry_equiv_pos_as_xyz
  1  'x, y, z'
loop_
 _atom_site_type_symbol
 _atom_site_label
 _atom_site_symmetry_multiplicity
 _atom_site_fract_x
 _atom_site_fract_y
 _atom_site_fract_z
 _atom_site_occupancy
  Tm  Tm0  1  0.324039  0.843420  0.500000  1
  Tm  Tm1  1  0.675961  0.156580  0.500000  1
  Tm  Tm2  1  0.156580  0.324039  0.500000  1
  Tm  Tm3  1  0.843420  0.675961  0.500000  1
  Mg  Mg4  1  0.500000  0.500000  0.000000  1
  Pb  Pb5  1  0.000000  0.000000  0.000000  1
  Au  Au6  1  0.853513  0.384550  0.000000  1
  Au  Au7  1  0.615450  0.853513  0.000000  1
  Au  Au8  1  0.384550  0.146487  0.000000  1
  Au  Au9  1  0.146487  0.615450  0.000000  1
