# generated using pymatgen
data_Lu3Al12Os3Rh
_symmetry_space_group_name_H-M   'P 1'
_cell_length_a   8.73464001
_cell_length_b   8.73464172
_cell_length_c   9.54872300
_cell_angle_alpha   90.00000000
_cell_angle_beta   90.00000000
_cell_angle_gamma   119.59748938
_symmetry_Int_Tables_number   1
_chemical_formula_structural   Lu3Al12Os3Rh
_chemical_formula_sum   'Lu6 Al24 Os6 Rh2'
_cell_volume   633.45134930
_cell_formula_units_Z   2
loop_
 _symmetry_equiv_pos_site_id
 _symmetry_equiv_pos_as_xyz
  1  'x, y, z'
loop_
 _atom_site_type_symbol
 _atom_site_label
 _atom_site_symmetry_multiplicity
 _atom_site_fract_x
 _atom_site_fract_y
 _atom_site_fract_z
 _atom_site_occupancy
  Lu  Lu0  1  0.186587  0.388193  0.250000  1
  Lu  Lu1  1  0.813413  0.611807  0.750000  1
  Lu  Lu2  1  0.611807  0.813413  0.250000  1
  Lu  Lu3  1  0.388193  0.186587  0.750000  1
  Lu  Lu4  1  0.194677  0.805323  0.250000  1
  Lu  Lu5  1  0.805323  0.194677  0.750000  1
  Al  Al6  1  0.333206  0.666794  0.025338  1
  Al  Al7  1  0.666794  0.333206  0.974662  1
  Al  Al8  1  0.666794  0.333206  0.525338  1
  Al  Al9  1  0.333206  0.666794  0.474662  1
  Al  Al10  1  0.162829  0.325779  0.577836  1
  Al  Al11  1  0.837171  0.674221  0.422164  1
  Al  Al12  1  0.674221  0.837171  0.577836  1
  Al  Al13  1  0.837171  0.674221  0.077836  1
  Al  Al14  1  0.325779  0.162829  0.422164  1
  Al  Al15  1  0.162829  0.325779  0.922164  1
  Al  Al16  1  0.164191  0.835809  0.576631  1
  Al  Al17  1  0.325779  0.162829  0.077836  1
  Al  Al18  1  0.835809  0.164191  0.423369  1
  Al  Al19  1  0.674221  0.837171  0.922164  1
  Al  Al20  1  0.835809  0.164191  0.076631  1
  Al  Al21  1  0.164191  0.835809  0.923369  1
  Al  Al22  1  0.560812  0.125881  0.250000  1
  Al  Al23  1  0.439188  0.874119  0.750000  1
  Al  Al24  1  0.874119  0.439188  0.250000  1
  Al  Al25  1  0.125881  0.560812  0.750000  1
  Al  Al26  1  0.558924  0.441076  0.250000  1
  Al  Al27  1  0.441076  0.558924  0.750000  1
  Al  Al28  1  0.998450  0.001550  0.250000  1
  Al  Al29  1  0.001550  0.998450  0.750000  1
  Os  Os30  1  0.500000  0.000000  0.000000  1
  Os  Os31  1  0.000000  0.500000  0.000000  1
  Os  Os32  1  0.500000  0.000000  0.500000  1
  Os  Os33  1  0.000000  0.500000  0.500000  1
  Os  Os34  1  0.000000  0.000000  0.000000  1
  Os  Os35  1  0.000000  0.000000  0.500000  1
  Rh  Rh36  1  0.500000  0.500000  0.000000  1
  Rh  Rh37  1  0.500000  0.500000  0.500000  1
