# generated using pymatgen
data_Hf12GaSi3(Pt2N)4
_symmetry_space_group_name_H-M   'P 1'
_cell_length_a   8.50702831
_cell_length_b   8.50703576
_cell_length_c   8.52622300
_cell_angle_alpha   60.06698335
_cell_angle_beta   60.06693893
_cell_angle_gamma   59.99947913
_symmetry_Int_Tables_number   1
_chemical_formula_structural   Hf12GaSi3(Pt2N)4
_chemical_formula_sum   'Hf12 Ga1 Si3 Pt8 N4'
_cell_volume   436.75202681
_cell_formula_units_Z   1
loop_
 _symmetry_equiv_pos_site_id
 _symmetry_equiv_pos_as_xyz
  1  'x, y, z'
loop_
 _atom_site_type_symbol
 _atom_site_label
 _atom_site_symmetry_multiplicity
 _atom_site_fract_x
 _atom_site_fract_y
 _atom_site_fract_z
 _atom_site_occupancy
  Hf  Hf0  1  0.810464  0.190287  0.188779  1
  Hf  Hf1  1  0.190289  0.810461  0.188780  1
  Hf  Hf2  1  0.810465  0.810464  0.188790  1
  Hf  Hf3  1  0.190330  0.809601  0.809738  1
  Hf  Hf4  1  0.809601  0.190331  0.809735  1
  Hf  Hf5  1  0.190333  0.190332  0.809743  1
  Hf  Hf6  1  0.439536  0.059713  0.061221  1
  Hf  Hf7  1  0.059711  0.439539  0.061220  1
  Hf  Hf8  1  0.439535  0.439536  0.061210  1
  Hf  Hf9  1  0.059670  0.440399  0.440262  1
  Hf  Hf10  1  0.440399  0.059669  0.440265  1
  Hf  Hf11  1  0.059667  0.059668  0.440257  1
  Ga  Ga12  1  0.625000  0.625000  0.125000  1
  Si  Si13  1  0.625000  0.625000  0.625000  1
  Si  Si14  1  0.125000  0.625000  0.625000  1
  Si  Si15  1  0.625000  0.125000  0.625000  1
  Pt  Pt16  1  0.410402  0.410399  0.768821  1
  Pt  Pt17  1  0.407899  0.407896  0.415416  1
  Pt  Pt18  1  0.768791  0.407891  0.415418  1
  Pt  Pt19  1  0.407894  0.768792  0.415416  1
  Pt  Pt20  1  0.839598  0.839601  0.481179  1
  Pt  Pt21  1  0.842101  0.842104  0.834584  1
  Pt  Pt22  1  0.481209  0.842109  0.834582  1
  Pt  Pt23  1  0.842106  0.481208  0.834584  1
  N  N24  1  0.125000  0.125000  0.625000  1
  N  N25  1  0.125000  0.125000  0.125000  1
  N  N26  1  0.625000  0.125000  0.125000  1
  N  N27  1  0.125000  0.625000  0.125000  1
