# generated using pymatgen
data_CePrDyIn5
_symmetry_space_group_name_H-M   'P 1'
_cell_length_a   6.57647006
_cell_length_b   6.57647089
_cell_length_c   10.43400600
_cell_angle_alpha   90.00000000
_cell_angle_beta   90.00000000
_cell_angle_gamma   102.47497894
_symmetry_Int_Tables_number   1
_chemical_formula_structural   CePrDyIn5
_chemical_formula_sum   'Ce2 Pr2 Dy2 In10'
_cell_volume   440.61608524
_cell_formula_units_Z   2
loop_
 _symmetry_equiv_pos_site_id
 _symmetry_equiv_pos_as_xyz
  1  'x, y, z'
loop_
 _atom_site_type_symbol
 _atom_site_label
 _atom_site_symmetry_multiplicity
 _atom_site_fract_x
 _atom_site_fract_y
 _atom_site_fract_z
 _atom_site_occupancy
  Ce  Ce0  1  0.205082  0.794918  0.500000  1
  Ce  Ce1  1  0.205082  0.794918  0.000000  1
  Pr  Pr2  1  0.795037  0.204963  0.500000  1
  Pr  Pr3  1  0.795037  0.204963  0.000000  1
  Dy  Dy4  1  0.628258  0.628231  0.250000  1
  Dy  Dy5  1  0.371769  0.371742  0.750000  1
  In  In6  1  0.011919  0.007575  0.250000  1
  In  In7  1  0.992425  0.988081  0.750000  1
  In  In8  1  0.308841  0.309677  0.047041  1
  In  In9  1  0.690323  0.691159  0.952959  1
  In  In10  1  0.308841  0.309677  0.452959  1
  In  In11  1  0.690323  0.691159  0.547041  1
  In  In12  1  0.492578  0.064156  0.250000  1
  In  In13  1  0.935844  0.507422  0.750000  1
  In  In14  1  0.496741  0.928100  0.750000  1
  In  In15  1  0.071900  0.503259  0.250000  1
