# generated using pymatgen
data_Pa4Al7Ru
_symmetry_space_group_name_H-M   'P 1'
_cell_length_a   5.60233600
_cell_length_b   5.60233661
_cell_length_c   8.53338700
_cell_angle_alpha   90.00000000
_cell_angle_beta   90.00000000
_cell_angle_gamma   119.99999640
_symmetry_Int_Tables_number   1
_chemical_formula_structural   Pa4Al7Ru
_chemical_formula_sum   'Pa4 Al7 Ru1'
_cell_volume   231.94789777
_cell_formula_units_Z   1
loop_
 _symmetry_equiv_pos_site_id
 _symmetry_equiv_pos_as_xyz
  1  'x, y, z'
loop_
 _atom_site_type_symbol
 _atom_site_label
 _atom_site_symmetry_multiplicity
 _atom_site_fract_x
 _atom_site_fract_y
 _atom_site_fract_z
 _atom_site_occupancy
  Pa  Pa0  1  0.333333  0.666667  0.417832  1
  Pa  Pa1  1  0.666667  0.333333  0.582168  1
  Pa  Pa2  1  0.666667  0.333333  0.911792  1
  Pa  Pa3  1  0.333333  0.666667  0.088208  1
  Al  Al4  1  0.000000  0.000000  0.500000  1
  Al  Al5  1  0.830514  0.169486  0.240771  1
  Al  Al6  1  0.830514  0.661029  0.240771  1
  Al  Al7  1  0.338971  0.169486  0.240771  1
  Al  Al8  1  0.169486  0.830514  0.759229  1
  Al  Al9  1  0.169486  0.338971  0.759229  1
  Al  Al10  1  0.661029  0.830514  0.759229  1
  Ru  Ru11  1  0.000000  0.000000  0.000000  1
