# generated using pymatgen
data_La8ZrPd24
_symmetry_space_group_name_H-M   'P 1'
_cell_length_a   8.61674300
_cell_length_b   8.61674300
_cell_length_c   8.61674300
_cell_angle_alpha   90.00000000
_cell_angle_beta   90.00000000
_cell_angle_gamma   90.00000000
_symmetry_Int_Tables_number   1
_chemical_formula_structural   La8ZrPd24
_chemical_formula_sum   'La8 Zr1 Pd24'
_cell_volume   639.77817400
_cell_formula_units_Z   1
loop_
 _symmetry_equiv_pos_site_id
 _symmetry_equiv_pos_as_xyz
  1  'x, y, z'
loop_
 _atom_site_type_symbol
 _atom_site_label
 _atom_site_symmetry_multiplicity
 _atom_site_fract_x
 _atom_site_fract_y
 _atom_site_fract_z
 _atom_site_occupancy
  La  La0  1  0.253256  0.253256  0.253256  1
  La  La1  1  0.746744  0.746744  0.746744  1
  La  La2  1  0.746744  0.746744  0.253256  1
  La  La3  1  0.746744  0.253256  0.746744  1
  La  La4  1  0.253256  0.253256  0.746744  1
  La  La5  1  0.253256  0.746744  0.253256  1
  La  La6  1  0.253256  0.746744  0.746744  1
  La  La7  1  0.746744  0.253256  0.253256  1
  Zr  Zr8  1  0.000000  0.000000  0.000000  1
  Pd  Pd9  1  0.265756  0.500000  0.000000  1
  Pd  Pd10  1  0.734244  0.500000  0.000000  1
  Pd  Pd11  1  0.000000  0.265756  0.500000  1
  Pd  Pd12  1  0.500000  0.265756  0.000000  1
  Pd  Pd13  1  0.000000  0.734244  0.500000  1
  Pd  Pd14  1  0.500000  0.734244  0.000000  1
  Pd  Pd15  1  0.500000  0.000000  0.265756  1
  Pd  Pd16  1  0.265756  0.000000  0.500000  1
  Pd  Pd17  1  0.500000  0.000000  0.734244  1
  Pd  Pd18  1  0.734244  0.000000  0.500000  1
  Pd  Pd19  1  0.000000  0.500000  0.265756  1
  Pd  Pd20  1  0.000000  0.500000  0.734244  1
  Pd  Pd21  1  0.254710  0.500000  0.500000  1
  Pd  Pd22  1  0.745290  0.500000  0.500000  1
  Pd  Pd23  1  0.500000  0.254710  0.500000  1
  Pd  Pd24  1  0.500000  0.745290  0.500000  1
  Pd  Pd25  1  0.500000  0.500000  0.254710  1
  Pd  Pd26  1  0.500000  0.500000  0.745290  1
  Pd  Pd27  1  0.311373  0.000000  0.000000  1
  Pd  Pd28  1  0.688627  0.000000  0.000000  1
  Pd  Pd29  1  0.000000  0.311373  0.000000  1
  Pd  Pd30  1  0.000000  0.688627  0.000000  1
  Pd  Pd31  1  0.000000  0.000000  0.311373  1
  Pd  Pd32  1  0.000000  0.000000  0.688627  1
