# generated using pymatgen
data_Pr6FeCl10
_symmetry_space_group_name_H-M   'P 1'
_cell_length_a   7.47467002
_cell_length_b   9.00291629
_cell_length_c   9.44798119
_cell_angle_alpha   109.13650097
_cell_angle_beta   97.08766679
_cell_angle_gamma   107.05260519
_symmetry_Int_Tables_number   1
_chemical_formula_structural   Pr6FeCl10
_chemical_formula_sum   'Pr6 Fe1 Cl10'
_cell_volume   557.03076973
_cell_formula_units_Z   1
loop_
 _symmetry_equiv_pos_site_id
 _symmetry_equiv_pos_as_xyz
  1  'x, y, z'
loop_
 _atom_site_type_symbol
 _atom_site_label
 _atom_site_symmetry_multiplicity
 _atom_site_fract_x
 _atom_site_fract_y
 _atom_site_fract_z
 _atom_site_occupancy
  Pr  Pr0  1  0.141649  0.060338  0.751724  1
  Pr  Pr1  1  0.621700  0.845591  0.801578  1
  Pr  Pr2  1  0.858351  0.939662  0.248276  1
  Pr  Pr3  1  0.030111  0.715569  0.912331  1
  Pr  Pr4  1  0.378300  0.154409  0.198422  1
  Pr  Pr5  1  0.969889  0.284431  0.087669  1
  Fe  Fe6  1  0.000000  0.000000  0.000000  1
  Cl  Cl7  1  0.195978  0.747443  0.658111  1
  Cl  Cl8  1  0.648375  0.535691  0.727326  1
  Cl  Cl9  1  0.240224  0.080078  0.444847  1
  Cl  Cl10  1  0.804022  0.252557  0.341889  1
  Cl  Cl11  1  0.551806  0.169140  0.926721  1
  Cl  Cl12  1  0.759776  0.919922  0.555153  1
  Cl  Cl13  1  0.910297  0.628078  0.161558  1
  Cl  Cl14  1  0.351625  0.464309  0.272674  1
  Cl  Cl15  1  0.089703  0.371922  0.838442  1
  Cl  Cl16  1  0.448194  0.830860  0.073279  1
