# generated using pymatgen
data_Pr6Nd4(BiPb)3
_symmetry_space_group_name_H-M   'P 1'
_cell_length_a   9.50723900
_cell_length_b   9.50723919
_cell_length_c   6.73187000
_cell_angle_alpha   90.00000000
_cell_angle_beta   90.00000000
_cell_angle_gamma   119.99999587
_symmetry_Int_Tables_number   1
_chemical_formula_structural   Pr6Nd4(BiPb)3
_chemical_formula_sum   'Pr6 Nd4 Bi3 Pb3'
_cell_volume   526.95702962
_cell_formula_units_Z   1
loop_
 _symmetry_equiv_pos_site_id
 _symmetry_equiv_pos_as_xyz
  1  'x, y, z'
loop_
 _atom_site_type_symbol
 _atom_site_label
 _atom_site_symmetry_multiplicity
 _atom_site_fract_x
 _atom_site_fract_y
 _atom_site_fract_z
 _atom_site_occupancy
  Pr  Pr0  1  0.758939  0.758939  0.750000  1
  Pr  Pr1  1  0.241061  0.000000  0.750000  1
  Pr  Pr2  1  0.000000  0.241061  0.750000  1
  Pr  Pr3  1  0.241690  0.241690  0.250000  1
  Pr  Pr4  1  0.758310  0.000000  0.250000  1
  Pr  Pr5  1  0.000000  0.758310  0.250000  1
  Nd  Nd6  1  0.666667  0.333333  0.002106  1
  Nd  Nd7  1  0.333333  0.666667  0.002106  1
  Nd  Nd8  1  0.333333  0.666667  0.497894  1
  Nd  Nd9  1  0.666667  0.333333  0.497894  1
  Bi  Bi10  1  0.393049  0.393049  0.750000  1
  Bi  Bi11  1  0.606951  0.000000  0.750000  1
  Bi  Bi12  1  0.000000  0.606951  0.750000  1
  Pb  Pb13  1  0.605672  0.605672  0.250000  1
  Pb  Pb14  1  0.394328  0.000000  0.250000  1
  Pb  Pb15  1  0.000000  0.394328  0.250000  1
