# generated using pymatgen
data_Lu20Hg2Bi9Te
_symmetry_space_group_name_H-M   'P 1'
_cell_length_a   8.08232134
_cell_length_b   9.31750900
_cell_length_c   11.77071945
_cell_angle_alpha   90.00000000
_cell_angle_beta   90.12003138
_cell_angle_gamma   90.00000000
_symmetry_Int_Tables_number   1
_chemical_formula_structural   Lu20Hg2Bi9Te
_chemical_formula_sum   'Lu20 Hg2 Bi9 Te1'
_cell_volume   886.41682265
_cell_formula_units_Z   1
loop_
 _symmetry_equiv_pos_site_id
 _symmetry_equiv_pos_as_xyz
  1  'x, y, z'
loop_
 _atom_site_type_symbol
 _atom_site_label
 _atom_site_symmetry_multiplicity
 _atom_site_fract_x
 _atom_site_fract_y
 _atom_site_fract_z
 _atom_site_occupancy
  Lu  Lu0  1  0.032822  0.250000  0.506890  1
  Lu  Lu1  1  0.977777  0.750000  0.491230  1
  Lu  Lu2  1  0.463712  0.750000  0.007946  1
  Lu  Lu3  1  0.521867  0.250000  0.991646  1
  Lu  Lu4  1  0.349698  0.250000  0.290378  1
  Lu  Lu5  1  0.651723  0.750000  0.713113  1
  Lu  Lu6  1  0.149010  0.750000  0.789654  1
  Lu  Lu7  1  0.847826  0.250000  0.217329  1
  Lu  Lu8  1  0.194386  0.250000  0.779978  1
  Lu  Lu9  1  0.817196  0.750000  0.211214  1
  Lu  Lu10  1  0.312491  0.750000  0.284323  1
  Lu  Lu11  1  0.682545  0.250000  0.710563  1
  Lu  Lu12  1  0.191982  0.055280  0.061661  1
  Lu  Lu13  1  0.810723  0.929058  0.943394  1
  Lu  Lu14  1  0.308356  0.942059  0.559657  1
  Lu  Lu15  1  0.810723  0.570942  0.943394  1
  Lu  Lu16  1  0.687110  0.068184  0.444579  1
  Lu  Lu17  1  0.191982  0.444720  0.061661  1
  Lu  Lu18  1  0.687110  0.431816  0.444579  1
  Lu  Lu19  1  0.308356  0.557941  0.559657  1
  Hg  Hg20  1  0.404514  0.250000  0.539634  1
  Hg  Hg21  1  0.094277  0.750000  0.040838  1
  Bi  Bi22  1  0.905207  0.250000  0.954999  1
  Bi  Bi23  1  0.057537  0.000313  0.321556  1
  Bi  Bi24  1  0.938751  0.998494  0.675998  1
  Bi  Bi25  1  0.443051  0.998472  0.822174  1
  Bi  Bi26  1  0.938751  0.501506  0.675998  1
  Bi  Bi27  1  0.561490  0.001633  0.177528  1
  Bi  Bi28  1  0.057537  0.499687  0.321556  1
  Bi  Bi29  1  0.561490  0.498367  0.177528  1
  Bi  Bi30  1  0.443051  0.501528  0.822174  1
  Te  Te31  1  0.596948  0.750000  0.457172  1
