# generated using pymatgen
data_Ca3(AcAu2)2
_symmetry_space_group_name_H-M   'P 1'
_cell_length_a   7.79666100
_cell_length_b   8.29381300
_cell_length_c   15.73706400
_cell_angle_alpha   90.00000000
_cell_angle_beta   90.00000000
_cell_angle_gamma   90.00000000
_symmetry_Int_Tables_number   1
_chemical_formula_structural   Ca3(AcAu2)2
_chemical_formula_sum   'Ca12 Ac8 Au16'
_cell_volume   1017.62226752
_cell_formula_units_Z   4
loop_
 _symmetry_equiv_pos_site_id
 _symmetry_equiv_pos_as_xyz
  1  'x, y, z'
loop_
 _atom_site_type_symbol
 _atom_site_label
 _atom_site_symmetry_multiplicity
 _atom_site_fract_x
 _atom_site_fract_y
 _atom_site_fract_z
 _atom_site_occupancy
  Ca  Ca0  1  0.332871  0.831700  0.876942  1
  Ca  Ca1  1  0.832871  0.668300  0.623058  1
  Ca  Ca2  1  0.667129  0.168300  0.376942  1
  Ca  Ca3  1  0.167129  0.331700  0.123058  1
  Ca  Ca4  1  0.667129  0.168300  0.123058  1
  Ca  Ca5  1  0.167129  0.331700  0.376942  1
  Ca  Ca6  1  0.332871  0.831700  0.623058  1
  Ca  Ca7  1  0.832871  0.668300  0.876942  1
  Ca  Ca8  1  0.166047  0.502931  0.750000  1
  Ca  Ca9  1  0.666047  0.997069  0.750000  1
  Ca  Ca10  1  0.833953  0.497069  0.250000  1
  Ca  Ca11  1  0.333953  0.002931  0.250000  1
  Ac  Ac12  1  0.505590  0.321413  0.904850  1
  Ac  Ac13  1  0.005590  0.178587  0.595150  1
  Ac  Ac14  1  0.494410  0.678587  0.404850  1
  Ac  Ac15  1  0.994410  0.821413  0.095150  1
  Ac  Ac16  1  0.494410  0.678587  0.095150  1
  Ac  Ac17  1  0.994410  0.821413  0.404850  1
  Ac  Ac18  1  0.505590  0.321413  0.595150  1
  Ac  Ac19  1  0.005590  0.178587  0.904850  1
  Au  Au20  1  0.322760  0.035879  0.038662  1
  Au  Au21  1  0.822760  0.464121  0.461338  1
  Au  Au22  1  0.677240  0.964121  0.538662  1
  Au  Au23  1  0.177240  0.535879  0.961338  1
  Au  Au24  1  0.677240  0.964121  0.961338  1
  Au  Au25  1  0.177240  0.535879  0.538662  1
  Au  Au26  1  0.322760  0.035879  0.461338  1
  Au  Au27  1  0.822760  0.464121  0.038662  1
  Au  Au28  1  0.534217  0.622903  0.750000  1
  Au  Au29  1  0.034217  0.877097  0.750000  1
  Au  Au30  1  0.465783  0.377097  0.250000  1
  Au  Au31  1  0.965783  0.122903  0.250000  1
  Au  Au32  1  0.296050  0.142479  0.750000  1
  Au  Au33  1  0.796050  0.357521  0.750000  1
  Au  Au34  1  0.703950  0.857521  0.250000  1
  Au  Au35  1  0.203950  0.642479  0.250000  1
