# generated using pymatgen
data_Gd3Ho(TcC2)2
_symmetry_space_group_name_H-M   'P 1'
_cell_length_a   5.21543800
_cell_length_b   6.51495600
_cell_length_c   9.97662900
_cell_angle_alpha   90.00000000
_cell_angle_beta   90.00000000
_cell_angle_gamma   90.00000000
_symmetry_Int_Tables_number   1
_chemical_formula_structural   Gd3Ho(TcC2)2
_chemical_formula_sum   'Gd6 Ho2 Tc4 C8'
_cell_volume   338.98938291
_cell_formula_units_Z   2
loop_
 _symmetry_equiv_pos_site_id
 _symmetry_equiv_pos_as_xyz
  1  'x, y, z'
loop_
 _atom_site_type_symbol
 _atom_site_label
 _atom_site_symmetry_multiplicity
 _atom_site_fract_x
 _atom_site_fract_y
 _atom_site_fract_z
 _atom_site_occupancy
  Gd  Gd0  1  0.250000  0.469095  0.782936  1
  Gd  Gd1  1  0.750000  0.030905  0.282936  1
  Gd  Gd2  1  0.250000  0.970115  0.717073  1
  Gd  Gd3  1  0.750000  0.529885  0.217073  1
  Gd  Gd4  1  0.250000  0.816853  0.055919  1
  Gd  Gd5  1  0.750000  0.683147  0.555919  1
  Ho  Ho6  1  0.250000  0.319004  0.442332  1
  Ho  Ho7  1  0.750000  0.180996  0.942332  1
  Tc  Tc8  1  0.250000  0.280103  0.134422  1
  Tc  Tc9  1  0.750000  0.219897  0.634422  1
  Tc  Tc10  1  0.250000  0.779691  0.365754  1
  Tc  Tc11  1  0.750000  0.720309  0.865754  1
  C  C12  1  0.250000  0.180023  0.952525  1
  C  C13  1  0.750000  0.822261  0.047106  1
  C  C14  1  0.250000  0.677739  0.547106  1
  C  C15  1  0.750000  0.319977  0.452525  1
  C  C16  1  0.250000  0.046640  0.258330  1
  C  C17  1  0.750000  0.453360  0.758330  1
  C  C18  1  0.250000  0.544954  0.243604  1
  C  C19  1  0.750000  0.955046  0.743604  1
