# generated using pymatgen
data_Nd3Cu3(Ni5B)2
_symmetry_space_group_name_H-M   'P 1'
_cell_length_a   5.07473840
_cell_length_b   5.07245486
_cell_length_c   10.95405615
_cell_angle_alpha   90.00617641
_cell_angle_beta   90.00205002
_cell_angle_gamma   119.95121181
_symmetry_Int_Tables_number   1
_chemical_formula_structural   Nd3Cu3(Ni5B)2
_chemical_formula_sum   'Nd3 Cu3 Ni10 B2'
_cell_volume   244.31534141
_cell_formula_units_Z   1
loop_
 _symmetry_equiv_pos_site_id
 _symmetry_equiv_pos_as_xyz
  1  'x, y, z'
loop_
 _atom_site_type_symbol
 _atom_site_label
 _atom_site_symmetry_multiplicity
 _atom_site_fract_x
 _atom_site_fract_y
 _atom_site_fract_z
 _atom_site_occupancy
  Nd  Nd0  1  0.000047  0.999889  0.000075  1
  Nd  Nd1  1  0.999875  0.000125  0.334924  1
  Nd  Nd2  1  0.000052  0.000110  0.670955  1
  Cu  Cu3  1  0.333291  0.666749  0.316475  1
  Cu  Cu4  1  0.666607  0.333470  0.316162  1
  Cu  Cu5  1  0.666495  0.333205  0.683591  1
  Ni  Ni6  1  0.499548  0.999155  0.500512  1
  Ni  Ni7  1  0.499265  0.500469  0.500530  1
  Ni  Ni8  1  0.000978  0.500867  0.500564  1
  Ni  Ni9  1  0.333429  0.666855  0.681367  1
  Ni  Ni10  1  0.499924  0.000051  0.128701  1
  Ni  Ni11  1  0.500091  0.499998  0.128670  1
  Ni  Ni12  1  0.000001  0.499838  0.128586  1
  Ni  Ni13  1  0.498986  0.997625  0.870036  1
  Ni  Ni14  1  0.498989  0.500876  0.869867  1
  Ni  Ni15  1  0.002257  0.500951  0.870069  1
  B  B16  1  0.333253  0.666446  0.999808  1
  B  B17  1  0.666813  0.333320  0.999105  1
