# generated using pymatgen
data_CePr7Sc12Si15Ir
_symmetry_space_group_name_H-M   'P 1'
_cell_length_a   7.24827241
_cell_length_b   7.55703861
_cell_length_c   14.33037527
_cell_angle_alpha   90.00177108
_cell_angle_beta   89.97828924
_cell_angle_gamma   90.20639843
_symmetry_Int_Tables_number   1
_chemical_formula_structural   CePr7Sc12Si15Ir
_chemical_formula_sum   'Ce1 Pr7 Sc12 Si15 Ir1'
_cell_volume   784.94795563
_cell_formula_units_Z   1
loop_
 _symmetry_equiv_pos_site_id
 _symmetry_equiv_pos_as_xyz
  1  'x, y, z'
loop_
 _atom_site_type_symbol
 _atom_site_label
 _atom_site_symmetry_multiplicity
 _atom_site_fract_x
 _atom_site_fract_y
 _atom_site_fract_z
 _atom_site_occupancy
  Ce  Ce0  1  0.014779  0.173893  0.400714  1
  Pr  Pr1  1  0.510491  0.329994  0.403530  1
  Pr  Pr2  1  0.482953  0.673814  0.901296  1
  Pr  Pr3  1  0.483556  0.674876  0.598238  1
  Pr  Pr4  1  0.990858  0.828303  0.597714  1
  Pr  Pr5  1  0.989605  0.826411  0.901500  1
  Pr  Pr6  1  0.511390  0.330464  0.096728  1
  Pr  Pr7  1  0.012532  0.173563  0.098721  1
  Sc  Sc8  1  0.325961  0.171755  0.625944  1
  Sc  Sc9  1  0.673342  0.825586  0.375183  1
  Sc  Sc10  1  0.644260  0.992449  0.749647  1
  Sc  Sc11  1  0.172150  0.676403  0.374227  1
  Sc  Sc12  1  0.828468  0.322766  0.876349  1
  Sc  Sc13  1  0.830123  0.321978  0.622996  1
  Sc  Sc14  1  0.841934  0.502242  0.251009  1
  Sc  Sc15  1  0.341124  0.001270  0.251029  1
  Sc  Sc16  1  0.326389  0.172377  0.873668  1
  Sc  Sc17  1  0.171722  0.676160  0.125994  1
  Sc  Sc18  1  0.673614  0.825207  0.125345  1
  Sc  Sc19  1  0.163392  0.500841  0.749611  1
  Si  Si20  1  0.467813  0.627598  0.249886  1
  Si  Si21  1  0.029144  0.124284  0.750285  1
  Si  Si22  1  0.539204  0.374183  0.749534  1
  Si  Si23  1  0.150631  0.459879  0.537312  1
  Si  Si24  1  0.968500  0.878628  0.251310  1
  Si  Si25  1  0.714444  0.120472  0.251613  1
  Si  Si26  1  0.850611  0.536425  0.041150  1
  Si  Si27  1  0.351539  0.963332  0.040796  1
  Si  Si28  1  0.150488  0.461884  0.961365  1
  Si  Si29  1  0.652835  0.038470  0.538011  1
  Si  Si30  1  0.347787  0.965285  0.458904  1
  Si  Si31  1  0.852400  0.532712  0.458169  1
  Si  Si32  1  0.786678  0.606837  0.749647  1
  Si  Si33  1  0.213006  0.382272  0.250859  1
  Si  Si34  1  0.651137  0.038113  0.961706  1
  Ir  Ir35  1  0.285136  0.889273  0.750011  1
