# generated using pymatgen
data_Pr3Sc7Si20IrPt7
_symmetry_space_group_name_H-M   'P 1'
_cell_length_a   12.53399145
_cell_length_b   12.54172748
_cell_length_c   4.22851800
_cell_angle_alpha   90.00000000
_cell_angle_beta   90.00000000
_cell_angle_gamma   90.11182241
_symmetry_Int_Tables_number   1
_chemical_formula_structural   Pr3Sc7Si20IrPt7
_chemical_formula_sum   'Pr3 Sc7 Si20 Ir1 Pt7'
_cell_volume   664.71290470
_cell_formula_units_Z   1
loop_
 _symmetry_equiv_pos_site_id
 _symmetry_equiv_pos_as_xyz
  1  'x, y, z'
loop_
 _atom_site_type_symbol
 _atom_site_label
 _atom_site_symmetry_multiplicity
 _atom_site_fract_x
 _atom_site_fract_y
 _atom_site_fract_z
 _atom_site_occupancy
  Pr  Pr0  1  0.114085  0.613262  0.500000  1
  Pr  Pr1  1  0.886248  0.386035  0.500000  1
  Pr  Pr2  1  0.612792  0.887461  0.500000  1
  Sc  Sc3  1  0.387285  0.113297  0.500000  1
  Sc  Sc4  1  0.673563  0.175402  0.500000  1
  Sc  Sc5  1  0.324849  0.826515  0.500000  1
  Sc  Sc6  1  0.177683  0.324191  0.500000  1
  Sc  Sc7  1  0.824346  0.675438  0.500000  1
  Sc  Sc8  1  0.001503  0.000134  0.000000  1
  Sc  Sc9  1  0.495861  0.498622  0.000000  1
  Si  Si10  1  0.565022  0.068053  0.000000  1
  Si  Si11  1  0.431908  0.934961  0.000000  1
  Si  Si12  1  0.070880  0.431905  0.000000  1
  Si  Si13  1  0.932245  0.567201  0.000000  1
  Si  Si14  1  0.206791  0.165597  0.000000  1
  Si  Si15  1  0.797370  0.834943  0.000000  1
  Si  Si16  1  0.167940  0.797854  0.000000  1
  Si  Si17  1  0.700760  0.333996  0.000000  1
  Si  Si18  1  0.834679  0.203241  0.000000  1
  Si  Si19  1  0.298117  0.662076  0.000000  1
  Si  Si20  1  0.664710  0.702761  0.000000  1
  Si  Si21  1  0.335735  0.298591  0.000000  1
  Si  Si22  1  0.009857  0.147268  0.500000  1
  Si  Si23  1  0.991319  0.853261  0.500000  1
  Si  Si24  1  0.150505  0.994312  0.500000  1
  Si  Si25  1  0.505476  0.349407  0.500000  1
  Si  Si26  1  0.853120  0.009919  0.500000  1
  Si  Si27  1  0.489456  0.647213  0.500000  1
  Si  Si28  1  0.645768  0.508059  0.500000  1
  Si  Si29  1  0.348690  0.489844  0.500000  1
  Ir  Ir30  1  0.261083  0.474807  0.000000  1
  Pt  Pt31  1  0.025423  0.238112  0.000000  1
  Pt  Pt32  1  0.976834  0.761702  0.000000  1
  Pt  Pt33  1  0.243046  0.979117  0.000000  1
  Pt  Pt34  1  0.521297  0.256646  0.000000  1
  Pt  Pt35  1  0.760298  0.024702  0.000000  1
  Pt  Pt36  1  0.475527  0.740374  0.000000  1
  Pt  Pt37  1  0.737929  0.523721  0.000000  1
