# generated using pymatgen
data_Ta6Al2Cu4O
_symmetry_space_group_name_H-M   'P 1'
_cell_length_a   8.08817970
_cell_length_b   8.08817961
_cell_length_c   8.08818000
_cell_angle_alpha   59.99999841
_cell_angle_beta   59.99999876
_cell_angle_gamma   60.00000119
_symmetry_Int_Tables_number   1
_chemical_formula_structural   Ta6Al2Cu4O
_chemical_formula_sum   'Ta12 Al4 Cu8 O2'
_cell_volume   374.14279219
_cell_formula_units_Z   2
loop_
 _symmetry_equiv_pos_site_id
 _symmetry_equiv_pos_as_xyz
  1  'x, y, z'
loop_
 _atom_site_type_symbol
 _atom_site_label
 _atom_site_symmetry_multiplicity
 _atom_site_fract_x
 _atom_site_fract_y
 _atom_site_fract_z
 _atom_site_occupancy
  Ta  Ta0  1  0.055140  0.055140  0.444860  1
  Ta  Ta1  1  0.444860  0.055140  0.444860  1
  Ta  Ta2  1  0.055140  0.444860  0.444860  1
  Ta  Ta3  1  0.444860  0.444860  0.055140  1
  Ta  Ta4  1  0.055140  0.444860  0.055140  1
  Ta  Ta5  1  0.444860  0.055140  0.055140  1
  Ta  Ta6  1  0.194860  0.194860  0.805140  1
  Ta  Ta7  1  0.805140  0.194860  0.805140  1
  Ta  Ta8  1  0.194860  0.805140  0.805140  1
  Ta  Ta9  1  0.805140  0.805140  0.194860  1
  Ta  Ta10  1  0.194860  0.805140  0.194860  1
  Ta  Ta11  1  0.805140  0.194860  0.194860  1
  Al  Al12  1  0.625000  0.625000  0.125000  1
  Al  Al13  1  0.625000  0.125000  0.625000  1
  Al  Al14  1  0.125000  0.625000  0.625000  1
  Al  Al15  1  0.625000  0.625000  0.625000  1
  Cu  Cu16  1  0.418016  0.418016  0.745951  1
  Cu  Cu17  1  0.418016  0.745951  0.418016  1
  Cu  Cu18  1  0.745951  0.418016  0.418016  1
  Cu  Cu19  1  0.418016  0.418016  0.418016  1
  Cu  Cu20  1  0.831984  0.831984  0.504049  1
  Cu  Cu21  1  0.831984  0.504049  0.831984  1
  Cu  Cu22  1  0.504049  0.831984  0.831984  1
  Cu  Cu23  1  0.831984  0.831984  0.831984  1
  O  O24  1  0.250000  0.250000  0.250000  1
  O  O25  1  0.000000  0.000000  0.000000  1
