# generated using pymatgen
data_Pr8Mn(Si4Rh)3
_symmetry_space_group_name_H-M   'P 1'
_cell_length_a   8.28334700
_cell_length_b   8.28334731
_cell_length_c   8.51578500
_cell_angle_alpha   90.00000000
_cell_angle_beta   90.00000000
_cell_angle_gamma   120.00000275
_symmetry_Int_Tables_number   1
_chemical_formula_structural   Pr8Mn(Si4Rh)3
_chemical_formula_sum   'Pr8 Mn1 Si12 Rh3'
_cell_volume   506.01924449
_cell_formula_units_Z   1
loop_
 _symmetry_equiv_pos_site_id
 _symmetry_equiv_pos_as_xyz
  1  'x, y, z'
loop_
 _atom_site_type_symbol
 _atom_site_label
 _atom_site_symmetry_multiplicity
 _atom_site_fract_x
 _atom_site_fract_y
 _atom_site_fract_z
 _atom_site_occupancy
  Pr  Pr0  1  0.499246  0.500754  0.749017  1
  Pr  Pr1  1  0.499335  0.500665  0.251036  1
  Pr  Pr2  1  0.001509  0.500754  0.749017  1
  Pr  Pr3  1  0.001331  0.500665  0.251036  1
  Pr  Pr4  1  0.499246  0.998491  0.749017  1
  Pr  Pr5  1  0.499335  0.998669  0.251036  1
  Pr  Pr6  1  0.000000  0.000000  0.749697  1
  Pr  Pr7  1  0.000000  0.000000  0.250390  1
  Mn  Mn8  1  0.666667  0.333333  0.000284  1
  Si  Si9  1  0.833465  0.166535  0.999901  1
  Si  Si10  1  0.167641  0.832359  0.000121  1
  Si  Si11  1  0.333069  0.166535  0.999901  1
  Si  Si12  1  0.166564  0.833436  0.499940  1
  Si  Si13  1  0.664718  0.832359  0.000121  1
  Si  Si14  1  0.833371  0.166629  0.500088  1
  Si  Si15  1  0.833465  0.666931  0.999901  1
  Si  Si16  1  0.666871  0.833436  0.499940  1
  Si  Si17  1  0.167641  0.335282  0.000121  1
  Si  Si18  1  0.333259  0.166629  0.500088  1
  Si  Si19  1  0.166564  0.333129  0.499940  1
  Si  Si20  1  0.833371  0.666741  0.500088  1
  Rh  Rh21  1  0.333333  0.666667  0.999538  1
  Rh  Rh22  1  0.333333  0.666667  0.500143  1
  Rh  Rh23  1  0.666667  0.333333  0.499641  1
