# generated using pymatgen
data_Sc5U(CoSn)6
_symmetry_space_group_name_H-M   'P 1'
_cell_length_a   7.37867101
_cell_length_b   7.17224140
_cell_length_c   7.13212700
_cell_angle_alpha   90.00000000
_cell_angle_beta   90.00000000
_cell_angle_gamma   120.93433382
_symmetry_Int_Tables_number   1
_chemical_formula_structural   Sc5U(CoSn)6
_chemical_formula_sum   'Sc5 U1 Co6 Sn6'
_cell_volume   323.75493232
_cell_formula_units_Z   1
loop_
 _symmetry_equiv_pos_site_id
 _symmetry_equiv_pos_as_xyz
  1  'x, y, z'
loop_
 _atom_site_type_symbol
 _atom_site_label
 _atom_site_symmetry_multiplicity
 _atom_site_fract_x
 _atom_site_fract_y
 _atom_site_fract_z
 _atom_site_occupancy
  Sc  Sc0  1  0.011143  0.410707  0.750000  1
  Sc  Sc1  1  0.600929  0.589005  0.750000  1
  Sc  Sc2  1  0.397803  0.000096  0.750000  1
  Sc  Sc3  1  0.996175  0.388083  0.250000  1
  Sc  Sc4  1  0.608330  0.611558  0.250000  1
  U  U5  1  0.418411  0.000000  0.250000  1
  Co  Co6  1  0.334968  0.694758  0.461421  1
  Co  Co7  1  0.640342  0.305421  0.462344  1
  Co  Co8  1  0.334968  0.694758  0.038579  1
  Co  Co9  1  0.010055  0.000064  0.750000  1
  Co  Co10  1  0.002725  0.000067  0.250000  1
  Co  Co11  1  0.640342  0.305421  0.037656  1
  Sn  Sn12  1  0.266989  0.277138  0.497056  1
  Sn  Sn13  1  0.990336  0.723189  0.496920  1
  Sn  Sn14  1  0.990336  0.723189  0.003080  1
  Sn  Sn15  1  0.744580  0.999703  0.515282  1
  Sn  Sn16  1  0.744580  0.999703  0.984718  1
  Sn  Sn17  1  0.266989  0.277138  0.002944  1
