# generated using pymatgen
data_Th2(Si2Pd7)3
_symmetry_space_group_name_H-M   'P 1'
_cell_length_a   8.70049861
_cell_length_b   8.70049827
_cell_length_c   8.70049800
_cell_angle_alpha   60.00000103
_cell_angle_beta   60.00000233
_cell_angle_gamma   59.99999806
_symmetry_Int_Tables_number   1
_chemical_formula_structural   Th2(Si2Pd7)3
_chemical_formula_sum   'Th2 Si6 Pd21'
_cell_volume   465.71195378
_cell_formula_units_Z   1
loop_
 _symmetry_equiv_pos_site_id
 _symmetry_equiv_pos_as_xyz
  1  'x, y, z'
loop_
 _atom_site_type_symbol
 _atom_site_label
 _atom_site_symmetry_multiplicity
 _atom_site_fract_x
 _atom_site_fract_y
 _atom_site_fract_z
 _atom_site_occupancy
  Th  Th0  1  0.750000  0.750000  0.750000  1
  Th  Th1  1  0.250000  0.250000  0.250000  1
  Si  Si2  1  0.736971  0.736971  0.263029  1
  Si  Si3  1  0.263029  0.736971  0.263029  1
  Si  Si4  1  0.736971  0.263029  0.263029  1
  Si  Si5  1  0.263029  0.263029  0.736971  1
  Si  Si6  1  0.736971  0.263029  0.736971  1
  Si  Si7  1  0.263029  0.736971  0.736971  1
  Pd  Pd8  1  0.000000  0.000000  0.000000  1
  Pd  Pd9  1  0.615886  0.615886  0.152341  1
  Pd  Pd10  1  0.615886  0.152341  0.615886  1
  Pd  Pd11  1  0.152341  0.615886  0.615886  1
  Pd  Pd12  1  0.615886  0.615886  0.615886  1
  Pd  Pd13  1  0.384114  0.384114  0.847659  1
  Pd  Pd14  1  0.384114  0.847659  0.384114  1
  Pd  Pd15  1  0.847659  0.384114  0.384114  1
  Pd  Pd16  1  0.384114  0.384114  0.384114  1
  Pd  Pd17  1  0.000000  0.000000  0.345431  1
  Pd  Pd18  1  0.654569  0.000000  0.345431  1
  Pd  Pd19  1  0.000000  0.654569  0.345431  1
  Pd  Pd20  1  0.654569  0.345431  0.000000  1
  Pd  Pd21  1  0.000000  0.345431  0.000000  1
  Pd  Pd22  1  0.000000  0.345431  0.654569  1
  Pd  Pd23  1  0.345431  0.654569  0.000000  1
  Pd  Pd24  1  0.345431  0.000000  0.654569  1
  Pd  Pd25  1  0.345431  0.000000  0.000000  1
  Pd  Pd26  1  0.000000  0.000000  0.654569  1
  Pd  Pd27  1  0.000000  0.654569  0.000000  1
  Pd  Pd28  1  0.654569  0.000000  0.000000  1
