# generated using pymatgen
data_Li3Ac8Si12Ge
_symmetry_space_group_name_H-M   'P 1'
_cell_length_a   11.74592112
_cell_length_b   10.06437654
_cell_length_c   8.55987000
_cell_angle_alpha   77.68994309
_cell_angle_beta   56.79358982
_cell_angle_gamma   45.45424482
_symmetry_Int_Tables_number   1
_chemical_formula_structural   Li3Ac8Si12Ge
_chemical_formula_sum   'Li3 Ac8 Si12 Ge1'
_cell_volume   578.07867270
_cell_formula_units_Z   1
loop_
 _symmetry_equiv_pos_site_id
 _symmetry_equiv_pos_as_xyz
  1  'x, y, z'
loop_
 _atom_site_type_symbol
 _atom_site_label
 _atom_site_symmetry_multiplicity
 _atom_site_fract_x
 _atom_site_fract_y
 _atom_site_fract_z
 _atom_site_occupancy
  Li  Li0  1  0.833154  0.167338  0.832812  1
  Li  Li1  1  0.166969  0.832479  0.167489  1
  Li  Li2  1  0.417326  0.082289  0.416724  1
  Ac  Ac3  1  0.372925  0.378354  0.628737  1
  Ac  Ac4  1  0.629013  0.620102  0.373824  1
  Ac  Ac5  1  0.874152  0.873479  0.626435  1
  Ac  Ac6  1  0.626744  0.625901  0.873217  1
  Ac  Ac7  1  0.881364  0.869125  0.122385  1
  Ac  Ac8  1  0.122870  0.126385  0.880988  1
  Ac  Ac9  1  0.368464  0.377867  0.124843  1
  Ac  Ac10  1  0.124487  0.128795  0.369485  1
  Si  Si11  1  0.663958  0.335112  0.664630  1
  Si  Si12  1  0.335774  0.664319  0.335839  1
  Si  Si13  1  0.583893  0.916914  0.584267  1
  Si  Si14  1  0.911972  0.588492  0.911684  1
  Si  Si15  1  0.336262  0.662957  0.828061  1
  Si  Si16  1  0.175976  0.831532  0.659385  1
  Si  Si17  1  0.828472  0.173221  0.336077  1
  Si  Si18  1  0.659687  0.332875  0.176168  1
  Si  Si19  1  0.912447  0.595691  0.424708  1
  Si  Si20  1  0.078320  0.414867  0.588033  1
  Si  Si21  1  0.424658  0.066602  0.914761  1
  Si  Si22  1  0.587988  0.918207  0.078231  1
  Ge  Ge23  1  0.083126  0.417096  0.081218  1
