# generated using pymatgen
data_YTm11Co4HgPd
_symmetry_space_group_name_H-M   'P 1'
_cell_length_a   8.22108842
_cell_length_b   8.22108659
_cell_length_c   8.20838600
_cell_angle_alpha   110.91020605
_cell_angle_beta   110.67455222
_cell_angle_gamma   106.92580984
_symmetry_Int_Tables_number   1
_chemical_formula_structural   YTm11Co4HgPd
_chemical_formula_sum   'Y1 Tm11 Co4 Hg1 Pd1'
_cell_volume   426.07218849
_cell_formula_units_Z   1
loop_
 _symmetry_equiv_pos_site_id
 _symmetry_equiv_pos_as_xyz
  1  'x, y, z'
loop_
 _atom_site_type_symbol
 _atom_site_label
 _atom_site_symmetry_multiplicity
 _atom_site_fract_x
 _atom_site_fract_y
 _atom_site_fract_z
 _atom_site_occupancy
  Y  Y0  1  0.189893  0.293654  0.483548  1
  Tm  Tm1  1  0.811452  0.706303  0.517755  1
  Tm  Tm2  1  0.188374  0.706557  0.894931  1
  Tm  Tm3  1  0.810532  0.294728  0.105260  1
  Tm  Tm4  1  0.315166  0.618514  0.302917  1
  Tm  Tm5  1  0.686630  0.382341  0.697680  1
  Tm  Tm6  1  0.315339  0.011049  0.697680  1
  Tm  Tm7  1  0.684402  0.987751  0.302917  1
  Tm  Tm8  1  0.417727  0.216863  0.199427  1
  Tm  Tm9  1  0.586942  0.786073  0.802465  1
  Tm  Tm10  1  0.016392  0.215522  0.802465  1
  Tm  Tm11  1  0.982564  0.781701  0.199427  1
  Co  Co12  1  0.110541  0.614667  0.498266  1
  Co  Co13  1  0.883598  0.387725  0.498266  1
  Co  Co14  1  0.379292  0.999230  0.378524  1
  Co  Co15  1  0.619988  0.000137  0.620125  1
  Hg  Hg16  1  0.499356  0.500156  0.999512  1
  Pd  Pd17  1  0.001810  0.997029  0.998839  1
