# generated using pymatgen
data_LaY7(Ho3Pb4)4
_symmetry_space_group_name_H-M   'P 1'
_cell_length_a   8.19543530
_cell_length_b   8.30757737
_cell_length_c   15.64875200
_cell_angle_alpha   90.03406334
_cell_angle_beta   89.86632848
_cell_angle_gamma   89.93178743
_symmetry_Int_Tables_number   1
_chemical_formula_structural   LaY7(Ho3Pb4)4
_chemical_formula_sum   'La1 Y7 Ho12 Pb16'
_cell_volume   1065.42911752
_cell_formula_units_Z   1
loop_
 _symmetry_equiv_pos_site_id
 _symmetry_equiv_pos_as_xyz
  1  'x, y, z'
loop_
 _atom_site_type_symbol
 _atom_site_label
 _atom_site_symmetry_multiplicity
 _atom_site_fract_x
 _atom_site_fract_y
 _atom_site_fract_z
 _atom_site_occupancy
  La  La0  1  0.978460  0.821413  0.595238  1
  Y  Y1  1  0.472837  0.675587  0.597320  1
  Y  Y2  1  0.971274  0.822348  0.901929  1
  Y  Y3  1  0.527784  0.322908  0.097788  1
  Y  Y4  1  0.026440  0.179184  0.401533  1
  Y  Y5  1  0.526219  0.321869  0.402216  1
  Y  Y6  1  0.027892  0.177111  0.098098  1
  Y  Y7  1  0.472874  0.677164  0.904373  1
  Ho  Ho8  1  0.632708  0.157909  0.623012  1
  Ho  Ho9  1  0.131835  0.342073  0.879580  1
  Ho  Ho10  1  0.368270  0.843212  0.122545  1
  Ho  Ho11  1  0.865500  0.656661  0.376846  1
  Ho  Ho12  1  0.366645  0.842548  0.376342  1
  Ho  Ho13  1  0.868377  0.657182  0.122069  1
  Ho  Ho14  1  0.631132  0.157154  0.878136  1
  Ho  Ho15  1  0.132636  0.342709  0.622320  1
  Ho  Ho16  1  0.799034  0.495638  0.751117  1
  Ho  Ho17  1  0.299461  0.005206  0.751251  1
  Ho  Ho18  1  0.200514  0.503958  0.249900  1
  Ho  Ho19  1  0.700079  0.995647  0.249110  1
  Pb  Pb20  1  0.706159  0.965043  0.454557  1
  Pb  Pb21  1  0.211678  0.538371  0.043428  1
  Pb  Pb22  1  0.287520  0.036555  0.957647  1
  Pb  Pb23  1  0.787133  0.458428  0.542036  1
  Pb  Pb24  1  0.295872  0.045057  0.540556  1
  Pb  Pb25  1  0.787985  0.461414  0.957798  1
  Pb  Pb26  1  0.711756  0.961835  0.042565  1
  Pb  Pb27  1  0.211348  0.538170  0.456745  1
  Pb  Pb28  1  0.436997  0.374596  0.750442  1
  Pb  Pb29  1  0.937115  0.127215  0.750930  1
  Pb  Pb30  1  0.562742  0.624579  0.249081  1
  Pb  Pb31  1  0.062131  0.874671  0.249732  1
  Pb  Pb32  1  0.657913  0.844200  0.751049  1
  Pb  Pb33  1  0.165056  0.652096  0.753301  1
  Pb  Pb34  1  0.339232  0.155624  0.249706  1
  Pb  Pb35  1  0.839388  0.344663  0.249701  1
