# generated using pymatgen
data_Ho4AlGa5Os2
_symmetry_space_group_name_H-M   'P 1'
_cell_length_a   5.46704400
_cell_length_b   5.42907973
_cell_length_c   8.75196600
_cell_angle_alpha   90.00000000
_cell_angle_beta   90.00000000
_cell_angle_gamma   120.23157738
_symmetry_Int_Tables_number   1
_chemical_formula_structural   Ho4AlGa5Os2
_chemical_formula_sum   'Ho4 Al1 Ga5 Os2'
_cell_volume   224.43824674
_cell_formula_units_Z   1
loop_
 _symmetry_equiv_pos_site_id
 _symmetry_equiv_pos_as_xyz
  1  'x, y, z'
loop_
 _atom_site_type_symbol
 _atom_site_label
 _atom_site_symmetry_multiplicity
 _atom_site_fract_x
 _atom_site_fract_y
 _atom_site_fract_z
 _atom_site_occupancy
  Ho  Ho0  1  0.667584  0.335168  0.051491  1
  Ho  Ho1  1  0.667584  0.335168  0.448509  1
  Ho  Ho2  1  0.333900  0.667799  0.553686  1
  Ho  Ho3  1  0.333900  0.667799  0.946314  1
  Al  Al4  1  0.159909  0.319817  0.250000  1
  Ga  Ga5  1  0.162832  0.829733  0.250000  1
  Ga  Ga6  1  0.666901  0.829733  0.250000  1
  Ga  Ga7  1  0.330716  0.164857  0.750000  1
  Ga  Ga8  1  0.834141  0.164857  0.750000  1
  Ga  Ga9  1  0.834645  0.669291  0.750000  1
  Os  Os10  1  0.003944  0.007888  0.000384  1
  Os  Os11  1  0.003944  0.007888  0.499616  1
