# generated using pymatgen
data_Tb2Tm2Al5Ni9
_symmetry_space_group_name_H-M   'P 1'
_cell_length_a   5.18699125
_cell_length_b   5.18699322
_cell_length_c   12.13610200
_cell_angle_alpha   77.66067824
_cell_angle_beta   77.66066217
_cell_angle_gamma   59.99999649
_symmetry_Int_Tables_number   1
_chemical_formula_structural   Tb2Tm2Al5Ni9
_chemical_formula_sum   'Tb2 Tm2 Al5 Ni9'
_cell_volume   274.03060627
_cell_formula_units_Z   1
loop_
 _symmetry_equiv_pos_site_id
 _symmetry_equiv_pos_as_xyz
  1  'x, y, z'
loop_
 _atom_site_type_symbol
 _atom_site_label
 _atom_site_symmetry_multiplicity
 _atom_site_fract_x
 _atom_site_fract_y
 _atom_site_fract_z
 _atom_site_occupancy
  Tb  Tb0  1  0.951894  0.951894  0.144317  1
  Tb  Tb1  1  0.048106  0.048106  0.855683  1
  Tm  Tm2  1  0.855018  0.855018  0.434949  1
  Tm  Tm3  1  0.144982  0.144982  0.565051  1
  Al  Al4  1  0.500000  0.500000  0.500000  1
  Al  Al5  1  0.722503  0.722503  0.832492  1
  Al  Al6  1  0.277497  0.277497  0.167508  1
  Al  Al7  1  0.610164  0.610164  0.169507  1
  Al  Al8  1  0.389836  0.389836  0.830493  1
  Ni  Ni9  1  0.000000  0.500000  0.000000  1
  Ni  Ni10  1  0.500000  0.000000  0.000000  1
  Ni  Ni11  1  0.500000  0.500000  0.000000  1
  Ni  Ni12  1  0.386078  0.386078  0.333637  1
  Ni  Ni13  1  0.894208  0.386078  0.333637  1
  Ni  Ni14  1  0.386078  0.894208  0.333637  1
  Ni  Ni15  1  0.613922  0.613922  0.666363  1
  Ni  Ni16  1  0.105792  0.613922  0.666363  1
  Ni  Ni17  1  0.613922  0.105792  0.666363  1
