# generated using pymatgen
data_Y14Tm2In4Ru3Rh
_symmetry_space_group_name_H-M   'P 1'
_cell_length_a   9.70457541
_cell_length_b   9.67337458
_cell_length_c   9.71895465
_cell_angle_alpha   59.56202050
_cell_angle_beta   59.74453947
_cell_angle_gamma   59.52609658
_symmetry_Int_Tables_number   1
_chemical_formula_structural   Y14Tm2In4Ru3Rh
_chemical_formula_sum   'Y14 Tm2 In4 Ru3 Rh1'
_cell_volume   639.43682580
_cell_formula_units_Z   1
loop_
 _symmetry_equiv_pos_site_id
 _symmetry_equiv_pos_as_xyz
  1  'x, y, z'
loop_
 _atom_site_type_symbol
 _atom_site_label
 _atom_site_symmetry_multiplicity
 _atom_site_fract_x
 _atom_site_fract_y
 _atom_site_fract_z
 _atom_site_occupancy
  Y  Y0  1  0.059626  0.060282  0.441387  1
  Y  Y1  1  0.442014  0.059875  0.440724  1
  Y  Y2  1  0.058494  0.444821  0.059068  1
  Y  Y3  1  0.042811  0.652651  0.650441  1
  Y  Y4  1  0.439716  0.443801  0.059271  1
  Y  Y5  1  0.653154  0.040867  0.652921  1
  Y  Y6  1  0.192819  0.811266  0.192356  1
  Y  Y7  1  0.194691  0.190759  0.809936  1
  Y  Y8  1  0.807185  0.808122  0.192841  1
  Y  Y9  1  0.443441  0.058255  0.057786  1
  Y  Y10  1  0.809371  0.191752  0.195558  1
  Y  Y11  1  0.061319  0.442098  0.437045  1
  Y  Y12  1  0.808491  0.191132  0.808131  1
  Y  Y13  1  0.192834  0.808333  0.807496  1
  Tm  Tm14  1  0.651839  0.653540  0.040811  1
  Tm  Tm15  1  0.651809  0.652222  0.650681  1
  In  In16  1  0.416433  0.419486  0.417537  1
  In  In17  1  0.747934  0.417857  0.417376  1
  In  In18  1  0.417122  0.748245  0.416733  1
  In  In19  1  0.417467  0.417708  0.748188  1
  Ru  Ru20  1  0.855659  0.855607  0.420348  1
  Ru  Ru21  1  0.859687  0.855355  0.864687  1
  Ru  Ru22  1  0.423077  0.852188  0.858979  1
  Rh  Rh23  1  0.853009  0.423777  0.859699  1
