# generated using pymatgen
data_Hf18Re5AsRuW3
_symmetry_space_group_name_H-M   'P 1'
_cell_length_a   8.67772776
_cell_length_b   8.67772751
_cell_length_c   8.58582700
_cell_angle_alpha   90.00000000
_cell_angle_beta   90.00000000
_cell_angle_gamma   120.13156436
_symmetry_Int_Tables_number   1
_chemical_formula_structural   Hf18Re5AsRuW3
_chemical_formula_sum   'Hf18 Re5 As1 Ru1 W3'
_cell_volume   559.17469545
_cell_formula_units_Z   1
loop_
 _symmetry_equiv_pos_site_id
 _symmetry_equiv_pos_as_xyz
  1  'x, y, z'
loop_
 _atom_site_type_symbol
 _atom_site_label
 _atom_site_symmetry_multiplicity
 _atom_site_fract_x
 _atom_site_fract_y
 _atom_site_fract_z
 _atom_site_occupancy
  Hf  Hf0  1  0.198720  0.801280  0.445910  1
  Hf  Hf1  1  0.198712  0.397365  0.446514  1
  Hf  Hf2  1  0.602635  0.801288  0.446514  1
  Hf  Hf3  1  0.806602  0.193398  0.546147  1
  Hf  Hf4  1  0.806181  0.612751  0.545505  1
  Hf  Hf5  1  0.387249  0.193819  0.545505  1
  Hf  Hf6  1  0.806602  0.193398  0.953853  1
  Hf  Hf7  1  0.806181  0.612751  0.954495  1
  Hf  Hf8  1  0.387249  0.193819  0.954495  1
  Hf  Hf9  1  0.198720  0.801280  0.054090  1
  Hf  Hf10  1  0.198712  0.397365  0.053486  1
  Hf  Hf11  1  0.602635  0.801288  0.053486  1
  Hf  Hf12  1  0.540972  0.459028  0.250000  1
  Hf  Hf13  1  0.541861  0.083011  0.250000  1
  Hf  Hf14  1  0.916989  0.458139  0.250000  1
  Hf  Hf15  1  0.459126  0.540874  0.750000  1
  Hf  Hf16  1  0.459993  0.919000  0.750000  1
  Hf  Hf17  1  0.081000  0.540007  0.750000  1
  Re  Re18  1  0.889355  0.110645  0.250000  1
  Re  Re19  1  0.889003  0.778339  0.250000  1
  Re  Re20  1  0.221661  0.110997  0.250000  1
  Re  Re21  1  0.111252  0.222231  0.750000  1
  Re  Re22  1  0.777769  0.888748  0.750000  1
  As  As23  1  0.667114  0.332886  0.750000  1
  Ru  Ru24  1  0.334043  0.665957  0.250000  1
  W  W25  1  0.110398  0.889602  0.750000  1
  W  W26  1  0.999634  0.000366  0.499419  1
  W  W27  1  0.999634  0.000366  0.000581  1
