# generated using pymatgen
data_Sm2Lu3Tl4
_symmetry_space_group_name_H-M   'P 1'
_cell_length_a   7.93197700
_cell_length_b   8.25044200
_cell_length_c   15.68881000
_cell_angle_alpha   90.00000000
_cell_angle_beta   90.00000000
_cell_angle_gamma   90.00000000
_symmetry_Int_Tables_number   1
_chemical_formula_structural   Sm2Lu3Tl4
_chemical_formula_sum   'Sm8 Lu12 Tl16'
_cell_volume   1026.71206457
_cell_formula_units_Z   4
loop_
 _symmetry_equiv_pos_site_id
 _symmetry_equiv_pos_as_xyz
  1  'x, y, z'
loop_
 _atom_site_type_symbol
 _atom_site_label
 _atom_site_symmetry_multiplicity
 _atom_site_fract_x
 _atom_site_fract_y
 _atom_site_fract_z
 _atom_site_occupancy
  Sm  Sm0  1  0.002683  0.184264  0.093841  1
  Sm  Sm1  1  0.997317  0.815736  0.906159  1
  Sm  Sm2  1  0.497317  0.684264  0.906159  1
  Sm  Sm3  1  0.997317  0.815736  0.593841  1
  Sm  Sm4  1  0.502683  0.315736  0.093841  1
  Sm  Sm5  1  0.002683  0.184264  0.406159  1
  Sm  Sm6  1  0.502683  0.315736  0.406159  1
  Sm  Sm7  1  0.497317  0.684264  0.593841  1
  Lu  Lu8  1  0.165944  0.499124  0.750000  1
  Lu  Lu9  1  0.834056  0.500876  0.250000  1
  Lu  Lu10  1  0.334056  0.999124  0.250000  1
  Lu  Lu11  1  0.665944  0.000876  0.750000  1
  Lu  Lu12  1  0.333448  0.160987  0.625043  1
  Lu  Lu13  1  0.666552  0.839013  0.374957  1
  Lu  Lu14  1  0.166552  0.660987  0.374957  1
  Lu  Lu15  1  0.666552  0.839013  0.125043  1
  Lu  Lu16  1  0.833448  0.339013  0.625043  1
  Lu  Lu17  1  0.333448  0.160987  0.874957  1
  Lu  Lu18  1  0.833448  0.339013  0.874957  1
  Lu  Lu19  1  0.166552  0.660987  0.125043  1
  Tl  Tl20  1  0.028114  0.118792  0.750000  1
  Tl  Tl21  1  0.971886  0.881208  0.250000  1
  Tl  Tl22  1  0.471886  0.618792  0.250000  1
  Tl  Tl23  1  0.528114  0.381208  0.750000  1
  Tl  Tl24  1  0.295503  0.856134  0.750000  1
  Tl  Tl25  1  0.704497  0.143866  0.250000  1
  Tl  Tl26  1  0.204497  0.356134  0.250000  1
  Tl  Tl27  1  0.795503  0.643866  0.750000  1
  Tl  Tl28  1  0.179613  0.460707  0.540612  1
  Tl  Tl29  1  0.820387  0.539293  0.459388  1
  Tl  Tl30  1  0.320387  0.960707  0.459388  1
  Tl  Tl31  1  0.820387  0.539293  0.040612  1
  Tl  Tl32  1  0.679613  0.039293  0.540612  1
  Tl  Tl33  1  0.179613  0.460707  0.959388  1
  Tl  Tl34  1  0.679613  0.039293  0.959388  1
  Tl  Tl35  1  0.320387  0.960707  0.040612  1
