# generated using pymatgen
data_YTm3Al12(GaIr)6
_symmetry_space_group_name_H-M   'P 1'
_cell_length_a   7.51763293
_cell_length_b   7.52028029
_cell_length_c   9.55080900
_cell_angle_alpha   90.00000000
_cell_angle_beta   90.00000000
_cell_angle_gamma   119.72795231
_symmetry_Int_Tables_number   1
_chemical_formula_structural   YTm3Al12(GaIr)6
_chemical_formula_sum   'Y1 Tm3 Al12 Ga6 Ir6'
_cell_volume   468.88891527
_cell_formula_units_Z   1
loop_
 _symmetry_equiv_pos_site_id
 _symmetry_equiv_pos_as_xyz
  1  'x, y, z'
loop_
 _atom_site_type_symbol
 _atom_site_label
 _atom_site_symmetry_multiplicity
 _atom_site_fract_x
 _atom_site_fract_y
 _atom_site_fract_z
 _atom_site_occupancy
  Y  Y0  1  0.996444  0.669925  0.250000  1
  Tm  Tm1  1  0.003560  0.329822  0.750000  1
  Tm  Tm2  1  0.670068  0.996501  0.250000  1
  Tm  Tm3  1  0.329911  0.003634  0.750000  1
  Al  Al4  1  0.001383  0.334029  0.072833  1
  Al  Al5  1  0.998653  0.665364  0.925627  1
  Al  Al6  1  0.998653  0.665364  0.574373  1
  Al  Al7  1  0.335169  0.001882  0.427126  1
  Al  Al8  1  0.001383  0.334029  0.427167  1
  Al  Al9  1  0.665364  0.998690  0.573678  1
  Al  Al10  1  0.665364  0.998690  0.926322  1
  Al  Al11  1  0.335169  0.001882  0.072874  1
  Al  Al12  1  0.333633  0.333641  0.557430  1
  Al  Al13  1  0.665911  0.666436  0.443586  1
  Al  Al14  1  0.665911  0.666436  0.056414  1
  Al  Al15  1  0.333633  0.333641  0.942570  1
  Ga  Ga16  1  0.128033  0.128785  0.250000  1
  Ga  Ga17  1  0.872096  0.872249  0.750000  1
  Ga  Ga18  1  0.339617  0.548139  0.250000  1
  Ga  Ga19  1  0.660928  0.451629  0.750000  1
  Ga  Ga20  1  0.547132  0.337890  0.250000  1
  Ga  Ga21  1  0.451826  0.661165  0.750000  1
  Ir  Ir22  1  0.671696  0.327920  0.999742  1
  Ir  Ir23  1  0.328264  0.671836  0.999716  1
  Ir  Ir24  1  0.328264  0.671836  0.500284  1
  Ir  Ir25  1  0.671696  0.327920  0.500258  1
  Ir  Ir26  1  0.000120  0.000334  0.999672  1
  Ir  Ir27  1  0.000120  0.000334  0.500328  1
