# generated using pymatgen
data_Ba2Yb3Sb4
_symmetry_space_group_name_H-M   'P 1'
_cell_length_a   8.50691900
_cell_length_b   8.95393600
_cell_length_c   16.14048000
_cell_angle_alpha   90.00000000
_cell_angle_beta   90.00000000
_cell_angle_gamma   90.00000000
_symmetry_Int_Tables_number   1
_chemical_formula_structural   Ba2Yb3Sb4
_chemical_formula_sum   'Ba8 Yb12 Sb16'
_cell_volume   1229.42695149
_cell_formula_units_Z   4
loop_
 _symmetry_equiv_pos_site_id
 _symmetry_equiv_pos_as_xyz
  1  'x, y, z'
loop_
 _atom_site_type_symbol
 _atom_site_label
 _atom_site_symmetry_multiplicity
 _atom_site_fract_x
 _atom_site_fract_y
 _atom_site_fract_z
 _atom_site_occupancy
  Ba  Ba0  1  0.510763  0.329358  0.903419  1
  Ba  Ba1  1  0.010763  0.170642  0.596581  1
  Ba  Ba2  1  0.489237  0.670642  0.403419  1
  Ba  Ba3  1  0.989237  0.829358  0.096581  1
  Ba  Ba4  1  0.489237  0.670642  0.096581  1
  Ba  Ba5  1  0.989237  0.829358  0.403419  1
  Ba  Ba6  1  0.510763  0.329358  0.596581  1
  Ba  Ba7  1  0.010763  0.170642  0.903419  1
  Yb  Yb8  1  0.318831  0.853218  0.868192  1
  Yb  Yb9  1  0.818831  0.646782  0.631808  1
  Yb  Yb10  1  0.681169  0.146782  0.368193  1
  Yb  Yb11  1  0.181169  0.353218  0.131807  1
  Yb  Yb12  1  0.681169  0.146782  0.131807  1
  Yb  Yb13  1  0.181169  0.353218  0.368193  1
  Yb  Yb14  1  0.318831  0.853218  0.631808  1
  Yb  Yb15  1  0.818831  0.646782  0.868192  1
  Yb  Yb16  1  0.167512  0.499606  0.750000  1
  Yb  Yb17  1  0.667512  0.000394  0.750000  1
  Yb  Yb18  1  0.832488  0.500394  0.250000  1
  Yb  Yb19  1  0.332488  0.999606  0.250000  1
  Sb  Sb20  1  0.345149  0.044073  0.042720  1
  Sb  Sb21  1  0.845149  0.455927  0.457280  1
  Sb  Sb22  1  0.654851  0.955927  0.542720  1
  Sb  Sb23  1  0.154851  0.544073  0.957280  1
  Sb  Sb24  1  0.654851  0.955927  0.957280  1
  Sb  Sb25  1  0.154851  0.544073  0.542720  1
  Sb  Sb26  1  0.345149  0.044073  0.457280  1
  Sb  Sb27  1  0.845149  0.455927  0.042720  1
  Sb  Sb28  1  0.510315  0.648603  0.750000  1
  Sb  Sb29  1  0.010315  0.851397  0.750000  1
  Sb  Sb30  1  0.489685  0.351397  0.250000  1
  Sb  Sb31  1  0.989685  0.148603  0.250000  1
  Sb  Sb32  1  0.320895  0.152338  0.750000  1
  Sb  Sb33  1  0.820895  0.347662  0.750000  1
  Sb  Sb34  1  0.679105  0.847662  0.250000  1
  Sb  Sb35  1  0.179105  0.652338  0.250000  1
