# generated using pymatgen
data_Tb2(AlGa)3
_symmetry_space_group_name_H-M   'P 1'
_cell_length_a   6.29836700
_cell_length_b   6.29836740
_cell_length_c   4.57302700
_cell_angle_alpha   90.00000000
_cell_angle_beta   90.00000000
_cell_angle_gamma   120.00000314
_symmetry_Int_Tables_number   1
_chemical_formula_structural   Tb2(AlGa)3
_chemical_formula_sum   'Tb2 Al3 Ga3'
_cell_volume   157.10511942
_cell_formula_units_Z   1
loop_
 _symmetry_equiv_pos_site_id
 _symmetry_equiv_pos_as_xyz
  1  'x, y, z'
loop_
 _atom_site_type_symbol
 _atom_site_label
 _atom_site_symmetry_multiplicity
 _atom_site_fract_x
 _atom_site_fract_y
 _atom_site_fract_z
 _atom_site_occupancy
  Tb  Tb0  1  0.333333  0.666667  0.750000  1
  Tb  Tb1  1  0.666667  0.333333  0.250000  1
  Al  Al2  1  0.146588  0.293174  0.250000  1
  Al  Al3  1  0.706826  0.853412  0.250000  1
  Al  Al4  1  0.146588  0.853412  0.250000  1
  Ga  Ga5  1  0.852166  0.704333  0.750000  1
  Ga  Ga6  1  0.295667  0.147834  0.750000  1
  Ga  Ga7  1  0.852166  0.147834  0.750000  1
