# generated using pymatgen
data_CaTbEr5Co6Sn23
_symmetry_space_group_name_H-M   'P 1'
_cell_length_a   9.70617502
_cell_length_b   9.70715540
_cell_length_c   9.94591201
_cell_angle_alpha   89.99999969
_cell_angle_beta   90.00374358
_cell_angle_gamma   120.00334314
_symmetry_Int_Tables_number   1
_chemical_formula_structural   CaTbEr5Co6Sn23
_chemical_formula_sum   'Ca1 Tb1 Er5 Co6 Sn23'
_cell_volume   811.52277411
_cell_formula_units_Z   1
loop_
 _symmetry_equiv_pos_site_id
 _symmetry_equiv_pos_as_xyz
  1  'x, y, z'
loop_
 _atom_site_type_symbol
 _atom_site_label
 _atom_site_symmetry_multiplicity
 _atom_site_fract_x
 _atom_site_fract_y
 _atom_site_fract_z
 _atom_site_occupancy
  Ca  Ca0  1  0.000037  0.000018  0.000029  1
  Tb  Tb1  1  0.958061  0.479030  0.694253  1
  Er  Er2  1  0.479406  0.520703  0.305648  1
  Er  Er3  1  0.520611  0.479339  0.694354  1
  Er  Er4  1  0.479406  0.958703  0.305648  1
  Er  Er5  1  0.520611  0.041273  0.694354  1
  Er  Er6  1  0.041346  0.520673  0.305600  1
  Co  Co7  1  0.831413  0.168628  0.198860  1
  Co  Co8  1  0.168856  0.831801  0.801256  1
  Co  Co9  1  0.831413  0.662786  0.198860  1
  Co  Co10  1  0.168856  0.337055  0.801256  1
  Co  Co11  1  0.337261  0.168631  0.198905  1
  Co  Co12  1  0.662638  0.831319  0.801153  1
  Sn  Sn13  1  0.346026  0.000076  0.999996  1
  Sn  Sn14  1  0.653972  0.999949  0.000043  1
  Sn  Sn15  1  0.000031  0.346012  0.000172  1
  Sn  Sn16  1  0.000031  0.654020  0.000172  1
  Sn  Sn17  1  0.653972  0.654022  0.000043  1
  Sn  Sn18  1  0.346026  0.345949  0.999996  1
  Sn  Sn19  1  0.333542  0.666771  0.816106  1
  Sn  Sn20  1  0.666665  0.333332  0.183967  1
  Sn  Sn21  1  0.000078  0.000039  0.500011  1
  Sn  Sn22  1  0.780694  0.218802  0.451952  1
  Sn  Sn23  1  0.219634  0.781532  0.547434  1
  Sn  Sn24  1  0.780694  0.561893  0.451952  1
  Sn  Sn25  1  0.219634  0.438101  0.547434  1
  Sn  Sn26  1  0.438089  0.219045  0.452248  1
  Sn  Sn27  1  0.561924  0.780962  0.547717  1
  Sn  Sn28  1  0.333355  0.666678  0.118718  1
  Sn  Sn29  1  0.665837  0.332918  0.881746  1
  Sn  Sn30  1  0.117541  0.882570  0.274597  1
  Sn  Sn31  1  0.882410  0.116938  0.725448  1
  Sn  Sn32  1  0.117541  0.234972  0.274597  1
  Sn  Sn33  1  0.882410  0.765471  0.725448  1
  Sn  Sn34  1  0.764747  0.882374  0.274693  1
  Sn  Sn35  1  0.235234  0.117617  0.725334  1
