# generated using pymatgen
data_Ag3Ru4PbO14
_symmetry_space_group_name_H-M   'P 1'
_cell_length_a   7.28173144
_cell_length_b   7.28172975
_cell_length_c   7.28173148
_cell_angle_alpha   59.51567998
_cell_angle_beta   59.51568397
_cell_angle_gamma   59.51567584
_symmetry_Int_Tables_number   1
_chemical_formula_structural   Ag3Ru4PbO14
_chemical_formula_sum   'Ag3 Ru4 Pb1 O14'
_cell_volume   270.00956940
_cell_formula_units_Z   1
loop_
 _symmetry_equiv_pos_site_id
 _symmetry_equiv_pos_as_xyz
  1  'x, y, z'
loop_
 _atom_site_type_symbol
 _atom_site_label
 _atom_site_symmetry_multiplicity
 _atom_site_fract_x
 _atom_site_fract_y
 _atom_site_fract_z
 _atom_site_occupancy
  Ag  Ag0  1  0.625000  0.125000  0.625000  1
  Ag  Ag1  1  0.625000  0.625000  0.125000  1
  Ag  Ag2  1  0.125000  0.625000  0.625000  1
  Ru  Ru3  1  0.625000  0.125000  0.125000  1
  Ru  Ru4  1  0.125000  0.625000  0.125000  1
  Ru  Ru5  1  0.125000  0.125000  0.625000  1
  Ru  Ru6  1  0.125000  0.125000  0.125000  1
  Pb  Pb7  1  0.625000  0.625000  0.625000  1
  O  O8  1  0.190613  0.190613  0.807714  1
  O  O9  1  0.190613  0.807714  0.190613  1
  O  O10  1  0.442286  0.059387  0.059387  1
  O  O11  1  0.202114  0.803316  0.803316  1
  O  O12  1  0.047886  0.446684  0.446684  1
  O  O13  1  0.803316  0.803316  0.202114  1
  O  O14  1  0.446684  0.446684  0.047886  1
  O  O15  1  0.491891  0.491891  0.491891  1
  O  O16  1  0.059387  0.059387  0.442286  1
  O  O17  1  0.446684  0.047886  0.446684  1
  O  O18  1  0.059387  0.442286  0.059387  1
  O  O19  1  0.758109  0.758109  0.758109  1
  O  O20  1  0.803316  0.202114  0.803316  1
  O  O21  1  0.807714  0.190613  0.190613  1
