# generated using pymatgen
data_Pr8Nd2GaSi4Ge
_symmetry_space_group_name_H-M   'P 1'
_cell_length_a   7.86202800
_cell_length_b   9.07342058
_cell_length_c   7.86202800
_cell_angle_alpha   115.67367229
_cell_angle_beta   90.00000000
_cell_angle_gamma   115.67367229
_symmetry_Int_Tables_number   1
_chemical_formula_structural   Pr8Nd2GaSi4Ge
_chemical_formula_sum   'Pr8 Nd2 Ga1 Si4 Ge1'
_cell_volume   443.24143830
_cell_formula_units_Z   1
loop_
 _symmetry_equiv_pos_site_id
 _symmetry_equiv_pos_as_xyz
  1  'x, y, z'
loop_
 _atom_site_type_symbol
 _atom_site_label
 _atom_site_symmetry_multiplicity
 _atom_site_fract_x
 _atom_site_fract_y
 _atom_site_fract_z
 _atom_site_occupancy
  Pr  Pr0  1  0.526781  0.714575  0.674391  1
  Pr  Pr1  1  0.187794  0.714575  0.040184  1
  Pr  Pr2  1  0.674391  0.714575  0.187794  1
  Pr  Pr3  1  0.040184  0.714575  0.526781  1
  Pr  Pr4  1  0.459816  0.285425  0.312206  1
  Pr  Pr5  1  0.825609  0.285425  0.973219  1
  Pr  Pr6  1  0.312206  0.285425  0.825609  1
  Pr  Pr7  1  0.973219  0.285425  0.459816  1
  Nd  Nd8  1  0.976816  0.953633  0.976816  1
  Nd  Nd9  1  0.523184  0.046367  0.523184  1
  Ga  Ga10  1  0.750000  0.500000  0.750000  1
  Si  Si11  1  0.884700  0.000000  0.615300  1
  Si  Si12  1  0.115300  0.000000  0.384700  1
  Si  Si13  1  0.615300  0.000000  0.115300  1
  Si  Si14  1  0.384700  0.000000  0.884700  1
  Ge  Ge15  1  0.250000  0.500000  0.250000  1
