# generated using pymatgen
data_Tb3HoEr2Ta2O14
_symmetry_space_group_name_H-M   'P 1'
_cell_length_a   6.48768652
_cell_length_b   6.48192321
_cell_length_c   7.47648941
_cell_angle_alpha   89.95731743
_cell_angle_beta   89.96852386
_cell_angle_gamma   108.68063364
_symmetry_Int_Tables_number   1
_chemical_formula_structural   Tb3HoEr2Ta2O14
_chemical_formula_sum   'Tb3 Ho1 Er2 Ta2 O14'
_cell_volume   297.84289984
_cell_formula_units_Z   1
loop_
 _symmetry_equiv_pos_site_id
 _symmetry_equiv_pos_as_xyz
  1  'x, y, z'
loop_
 _atom_site_type_symbol
 _atom_site_label
 _atom_site_symmetry_multiplicity
 _atom_site_fract_x
 _atom_site_fract_y
 _atom_site_fract_z
 _atom_site_occupancy
  Tb  Tb0  1  0.535074  0.999786  0.757661  1
  Tb  Tb1  1  0.534413  0.532314  0.499368  1
  Tb  Tb2  1  0.465334  0.465297  0.000962  1
  Ho  Ho3  1  0.999396  0.465700  0.742445  1
  Er  Er4  1  0.464977  0.999195  0.258044  1
  Er  Er5  1  0.000611  0.534702  0.242145  1
  Ta  Ta6  1  0.002617  0.002966  0.499057  1
  Ta  Ta7  1  0.997174  0.997368  0.001237  1
  O  O8  1  0.068990  0.929382  0.250104  1
  O  O9  1  0.048437  0.309019  0.455002  1
  O  O10  1  0.079705  0.328045  0.026446  1
  O  O11  1  0.357867  0.641296  0.249898  1
  O  O12  1  0.367518  0.627340  0.749287  1
  O  O13  1  0.328449  0.082627  0.977459  1
  O  O14  1  0.311452  0.056154  0.539798  1
  O  O15  1  0.691250  0.949168  0.046094  1
  O  O16  1  0.672517  0.918432  0.472269  1
  O  O17  1  0.631547  0.368969  0.249940  1
  O  O18  1  0.640970  0.361951  0.750461  1
  O  O19  1  0.919721  0.672165  0.525235  1
  O  O20  1  0.948380  0.690440  0.957056  1
  O  O21  1  0.933602  0.067683  0.750035  1
