# generated using pymatgen
data_Nd5SnBi2Cl
_symmetry_space_group_name_H-M   'P 1'
_cell_length_a   9.52127800
_cell_length_b   9.55803469
_cell_length_c   6.67985900
_cell_angle_alpha   90.00000000
_cell_angle_beta   90.00000000
_cell_angle_gamma   119.87286191
_symmetry_Int_Tables_number   1
_chemical_formula_structural   Nd5SnBi2Cl
_chemical_formula_sum   'Nd10 Sn2 Bi4 Cl2'
_cell_volume   527.12879121
_cell_formula_units_Z   2
loop_
 _symmetry_equiv_pos_site_id
 _symmetry_equiv_pos_as_xyz
  1  'x, y, z'
loop_
 _atom_site_type_symbol
 _atom_site_label
 _atom_site_symmetry_multiplicity
 _atom_site_fract_x
 _atom_site_fract_y
 _atom_site_fract_z
 _atom_site_occupancy
  Nd  Nd0  1  0.667118  0.334237  0.000000  1
  Nd  Nd1  1  0.331505  0.663011  0.500000  1
  Nd  Nd2  1  0.667118  0.334237  0.500000  1
  Nd  Nd3  1  0.331505  0.663011  0.000000  1
  Nd  Nd4  1  0.740236  0.004457  0.750000  1
  Nd  Nd5  1  0.733764  0.733523  0.250000  1
  Nd  Nd6  1  0.004615  0.266042  0.250000  1
  Nd  Nd7  1  0.999759  0.733523  0.750000  1
  Nd  Nd8  1  0.261427  0.266042  0.750000  1
  Nd  Nd9  1  0.264220  0.004457  0.250000  1
  Sn  Sn10  1  0.999592  0.386903  0.750000  1
  Sn  Sn11  1  0.387312  0.386903  0.250000  1
  Bi  Bi12  1  0.613176  0.613824  0.750000  1
  Bi  Bi13  1  0.000648  0.613824  0.250000  1
  Bi  Bi14  1  0.614289  0.000460  0.250000  1
  Bi  Bi15  1  0.386171  0.000460  0.750000  1
  Cl  Cl16  1  0.998772  0.997544  0.500000  1
  Cl  Cl17  1  0.998772  0.997544  0.000000  1
