# generated using pymatgen
data_CeDy3(Tc3Os)2
_symmetry_space_group_name_H-M   'P 1'
_cell_length_a   5.28365500
_cell_length_b   5.28365486
_cell_length_c   9.15857900
_cell_angle_alpha   90.00000000
_cell_angle_beta   90.00000000
_cell_angle_gamma   120.00000716
_symmetry_Int_Tables_number   1
_chemical_formula_structural   CeDy3(Tc3Os)2
_chemical_formula_sum   'Ce1 Dy3 Tc6 Os2'
_cell_volume   221.42547706
_cell_formula_units_Z   1
loop_
 _symmetry_equiv_pos_site_id
 _symmetry_equiv_pos_as_xyz
  1  'x, y, z'
loop_
 _atom_site_type_symbol
 _atom_site_label
 _atom_site_symmetry_multiplicity
 _atom_site_fract_x
 _atom_site_fract_y
 _atom_site_fract_z
 _atom_site_occupancy
  Ce  Ce0  1  0.333333  0.666667  0.437690  1
  Dy  Dy1  1  0.666667  0.333333  0.563178  1
  Dy  Dy2  1  0.666667  0.333333  0.936187  1
  Dy  Dy3  1  0.333333  0.666667  0.064021  1
  Tc  Tc4  1  0.828478  0.171522  0.248408  1
  Tc  Tc5  1  0.828478  0.656955  0.248408  1
  Tc  Tc6  1  0.343045  0.171522  0.248408  1
  Tc  Tc7  1  0.170808  0.829192  0.751403  1
  Tc  Tc8  1  0.170808  0.341618  0.751403  1
  Tc  Tc9  1  0.658382  0.829192  0.751403  1
  Os  Os10  1  0.000000  0.000000  0.500041  1
  Os  Os11  1  0.000000  0.000000  0.999448  1
