# generated using pymatgen
data_Lu5Sc5(Bi2Sb)2
_symmetry_space_group_name_H-M   'P 1'
_cell_length_a   7.84087200
_cell_length_b   9.11047640
_cell_length_c   11.60384575
_cell_angle_alpha   90.06316335
_cell_angle_beta   90.00000000
_cell_angle_gamma   90.00000000
_symmetry_Int_Tables_number   1
_chemical_formula_structural   Lu5Sc5(Bi2Sb)2
_chemical_formula_sum   'Lu10 Sc10 Bi8 Sb4'
_cell_volume   828.90953340
_cell_formula_units_Z   2
loop_
 _symmetry_equiv_pos_site_id
 _symmetry_equiv_pos_as_xyz
  1  'x, y, z'
loop_
 _atom_site_type_symbol
 _atom_site_label
 _atom_site_symmetry_multiplicity
 _atom_site_fract_x
 _atom_site_fract_y
 _atom_site_fract_z
 _atom_site_occupancy
  Lu  Lu0  1  0.189056  0.935104  0.442782  1
  Lu  Lu1  1  0.689056  0.564896  0.057218  1
  Lu  Lu2  1  0.182761  0.749575  0.717784  1
  Lu  Lu3  1  0.682761  0.750425  0.782216  1
  Lu  Lu4  1  0.818028  0.249429  0.282428  1
  Lu  Lu5  1  0.318028  0.250571  0.217572  1
  Lu  Lu6  1  0.852695  0.751002  0.284644  1
  Lu  Lu7  1  0.352695  0.748998  0.215356  1
  Lu  Lu8  1  0.148596  0.249713  0.716190  1
  Lu  Lu9  1  0.648596  0.250287  0.783810  1
  Sc  Sc10  1  0.189190  0.565496  0.443586  1
  Sc  Sc11  1  0.689190  0.934504  0.056414  1
  Sc  Sc12  1  0.809525  0.065973  0.556774  1
  Sc  Sc13  1  0.309525  0.434027  0.943226  1
  Sc  Sc14  1  0.810175  0.434125  0.556952  1
  Sc  Sc15  1  0.310175  0.065875  0.943048  1
  Sc  Sc16  1  0.024486  0.751692  0.988314  1
  Sc  Sc17  1  0.524486  0.748308  0.511686  1
  Sc  Sc18  1  0.977381  0.249084  0.010054  1
  Sc  Sc19  1  0.477381  0.250916  0.489946  1
  Bi  Bi20  1  0.936734  0.495971  0.828564  1
  Bi  Bi21  1  0.436734  0.004029  0.671436  1
  Bi  Bi22  1  0.064353  0.996855  0.168728  1
  Bi  Bi23  1  0.564353  0.503145  0.331272  1
  Bi  Bi24  1  0.066642  0.503496  0.170881  1
  Bi  Bi25  1  0.566642  0.996504  0.329119  1
  Bi  Bi26  1  0.935363  0.004152  0.828874  1
  Bi  Bi27  1  0.435363  0.495848  0.671126  1
  Sb  Sb28  1  0.899844  0.747708  0.541643  1
  Sb  Sb29  1  0.399844  0.752292  0.958357  1
  Sb  Sb30  1  0.095172  0.254725  0.460845  1
  Sb  Sb31  1  0.595172  0.245275  0.039155  1
