# generated using pymatgen
data_Ho6MgFe(Co4P3)4
_symmetry_space_group_name_H-M   'P 1'
_cell_length_a   3.71372700
_cell_length_b   10.58029800
_cell_length_c   12.23475800
_cell_angle_alpha   90.00000000
_cell_angle_beta   90.00000000
_cell_angle_gamma   90.00000000
_symmetry_Int_Tables_number   1
_chemical_formula_structural   Ho6MgFe(Co4P3)4
_chemical_formula_sum   'Ho6 Mg1 Fe1 Co16 P12'
_cell_volume   480.73225097
_cell_formula_units_Z   1
loop_
 _symmetry_equiv_pos_site_id
 _symmetry_equiv_pos_as_xyz
  1  'x, y, z'
loop_
 _atom_site_type_symbol
 _atom_site_label
 _atom_site_symmetry_multiplicity
 _atom_site_fract_x
 _atom_site_fract_y
 _atom_site_fract_z
 _atom_site_occupancy
  Ho  Ho0  1  0.000000  0.500000  0.525679  1
  Ho  Ho1  1  0.500000  0.000000  0.478322  1
  Ho  Ho2  1  0.500000  0.821835  0.206589  1
  Ho  Ho3  1  0.500000  0.178165  0.206589  1
  Ho  Ho4  1  0.000000  0.682246  0.794828  1
  Ho  Ho5  1  0.000000  0.317754  0.794828  1
  Mg  Mg6  1  0.500000  0.500000  0.153494  1
  Fe  Fe7  1  0.000000  0.000000  0.840084  1
  Co  Co8  1  0.000000  0.500000  0.986151  1
  Co  Co9  1  0.500000  0.000000  0.011745  1
  Co  Co10  1  0.500000  0.295531  0.433025  1
  Co  Co11  1  0.500000  0.704469  0.433025  1
  Co  Co12  1  0.000000  0.202460  0.570123  1
  Co  Co13  1  0.000000  0.797540  0.570123  1
  Co  Co14  1  0.500000  0.879340  0.707978  1
  Co  Co15  1  0.500000  0.120660  0.707978  1
  Co  Co16  1  0.000000  0.623097  0.293896  1
  Co  Co17  1  0.000000  0.376903  0.293896  1
  Co  Co18  1  0.500000  0.329267  0.992748  1
  Co  Co19  1  0.500000  0.670733  0.992748  1
  Co  Co20  1  0.000000  0.163552  0.001902  1
  Co  Co21  1  0.000000  0.836448  0.001902  1
  Co  Co22  1  0.500000  0.500000  0.703828  1
  Co  Co23  1  0.000000  0.000000  0.296898  1
  P  P24  1  0.500000  0.309669  0.617285  1
  P  P25  1  0.500000  0.690331  0.617285  1
  P  P26  1  0.000000  0.188942  0.385671  1
  P  P27  1  0.000000  0.811058  0.385671  1
  P  P28  1  0.500000  0.500000  0.883136  1
  P  P29  1  0.000000  0.000000  0.116508  1
  P  P30  1  0.500000  0.849308  0.889549  1
  P  P31  1  0.500000  0.150692  0.889549  1
  P  P32  1  0.000000  0.663019  0.103640  1
  P  P33  1  0.000000  0.336981  0.103640  1
  P  P34  1  0.500000  0.500000  0.354282  1
  P  P35  1  0.000000  0.000000  0.655404  1
