# generated using pymatgen
data_DyHo15MgIn3Rh4
_symmetry_space_group_name_H-M   'P 1'
_cell_length_a   9.61364927
_cell_length_b   9.61364977
_cell_length_c   9.61374827
_cell_angle_alpha   60.02238677
_cell_angle_beta   60.02238127
_cell_angle_gamma   60.00980156
_symmetry_Int_Tables_number   1
_chemical_formula_structural   DyHo15MgIn3Rh4
_chemical_formula_sum   'Dy1 Ho15 Mg1 In3 Rh4'
_cell_volume   628.54062719
_cell_formula_units_Z   1
loop_
 _symmetry_equiv_pos_site_id
 _symmetry_equiv_pos_as_xyz
  1  'x, y, z'
loop_
 _atom_site_type_symbol
 _atom_site_label
 _atom_site_symmetry_multiplicity
 _atom_site_fract_x
 _atom_site_fract_y
 _atom_site_fract_z
 _atom_site_occupancy
  Dy  Dy0  1  0.188032  0.188032  0.811956  1
  Ho  Ho1  1  0.599897  0.599897  0.201990  1
  Ho  Ho2  1  0.439928  0.059828  0.439687  1
  Ho  Ho3  1  0.439836  0.439836  0.059792  1
  Ho  Ho4  1  0.813770  0.186270  0.813989  1
  Ho  Ho5  1  0.188143  0.811565  0.188359  1
  Ho  Ho6  1  0.437012  0.062617  0.062764  1
  Ho  Ho7  1  0.186270  0.813770  0.813989  1
  Ho  Ho8  1  0.062617  0.437012  0.062764  1
  Ho  Ho9  1  0.813992  0.813992  0.186283  1
  Ho  Ho10  1  0.201982  0.599984  0.599738  1
  Ho  Ho11  1  0.059828  0.439928  0.439687  1
  Ho  Ho12  1  0.062668  0.062668  0.436966  1
  Ho  Ho13  1  0.811565  0.188143  0.188359  1
  Ho  Ho14  1  0.599984  0.201982  0.599738  1
  Ho  Ho15  1  0.598958  0.598958  0.598885  1
  Mg  Mg16  1  0.827823  0.827823  0.827845  1
  In  In17  1  0.832599  0.832599  0.501919  1
  In  In18  1  0.502289  0.832272  0.832558  1
  In  In19  1  0.832272  0.502289  0.832558  1
  Rh  Rh20  1  0.392056  0.823304  0.392025  1
  Rh  Rh21  1  0.393053  0.393053  0.392763  1
  Rh  Rh22  1  0.823304  0.392056  0.392025  1
  Rh  Rh23  1  0.392125  0.392125  0.823361  1
