# generated using pymatgen
data_ZrSc(TiP)2
_symmetry_space_group_name_H-M   'P 1'
_cell_length_a   3.64064600
_cell_length_b   6.75046900
_cell_length_c   8.08981200
_cell_angle_alpha   90.00000000
_cell_angle_beta   90.00000000
_cell_angle_gamma   90.00000000
_symmetry_Int_Tables_number   1
_chemical_formula_structural   ZrSc(TiP)2
_chemical_formula_sum   'Zr2 Sc2 Ti4 P4'
_cell_volume   198.81576952
_cell_formula_units_Z   2
loop_
 _symmetry_equiv_pos_site_id
 _symmetry_equiv_pos_as_xyz
  1  'x, y, z'
loop_
 _atom_site_type_symbol
 _atom_site_label
 _atom_site_symmetry_multiplicity
 _atom_site_fract_x
 _atom_site_fract_y
 _atom_site_fract_z
 _atom_site_occupancy
  Zr  Zr0  1  0.250000  0.040724  0.669490  1
  Zr  Zr1  1  0.750000  0.459276  0.169490  1
  Sc  Sc2  1  0.250000  0.538648  0.834150  1
  Sc  Sc3  1  0.750000  0.961352  0.334150  1
  Ti  Ti4  1  0.250000  0.132448  0.056119  1
  Ti  Ti5  1  0.750000  0.867806  0.941703  1
  Ti  Ti6  1  0.250000  0.632194  0.441703  1
  Ti  Ti7  1  0.750000  0.367552  0.556119  1
  P  P8  1  0.750000  0.740943  0.637146  1
  P  P9  1  0.250000  0.759057  0.137146  1
  P  P10  1  0.750000  0.242771  0.861391  1
  P  P11  1  0.250000  0.257229  0.361391  1
