# generated using pymatgen
data_TmAl3NiHg
_symmetry_space_group_name_H-M   'P 1'
_cell_length_a   8.03620033
_cell_length_b   8.03619941
_cell_length_c   6.75635700
_cell_angle_alpha   90.00000000
_cell_angle_beta   90.00000000
_cell_angle_gamma   150.94719377
_symmetry_Int_Tables_number   1
_chemical_formula_structural   TmAl3NiHg
_chemical_formula_sum   'Tm2 Al6 Ni2 Hg2'
_cell_volume   211.88811123
_cell_formula_units_Z   2
loop_
 _symmetry_equiv_pos_site_id
 _symmetry_equiv_pos_as_xyz
  1  'x, y, z'
loop_
 _atom_site_type_symbol
 _atom_site_label
 _atom_site_symmetry_multiplicity
 _atom_site_fract_x
 _atom_site_fract_y
 _atom_site_fract_z
 _atom_site_occupancy
  Tm  Tm0  1  0.874687  0.125313  0.250000  1
  Tm  Tm1  1  0.125313  0.874687  0.750000  1
  Al  Al2  1  0.077335  0.922665  0.250000  1
  Al  Al3  1  0.922665  0.077335  0.750000  1
  Al  Al4  1  0.690229  0.309771  0.054025  1
  Al  Al5  1  0.309771  0.690229  0.945975  1
  Al  Al6  1  0.309771  0.690229  0.554025  1
  Al  Al7  1  0.690229  0.309771  0.445975  1
  Ni  Ni8  1  0.227402  0.772598  0.250000  1
  Ni  Ni9  1  0.772598  0.227402  0.750000  1
  Hg  Hg10  1  0.500000  0.500000  0.000000  1
  Hg  Hg11  1  0.500000  0.500000  0.500000  1
