# generated using pymatgen
data_La8Yb3Ce9Si16
_symmetry_space_group_name_H-M   'P 1'
_cell_length_a   7.54056700
_cell_length_b   7.92043309
_cell_length_c   15.08699600
_cell_angle_alpha   90.00000000
_cell_angle_beta   90.00000000
_cell_angle_gamma   89.99159418
_symmetry_Int_Tables_number   1
_chemical_formula_structural   La8Yb3Ce9Si16
_chemical_formula_sum   'La8 Yb3 Ce9 Si16'
_cell_volume   901.06413303
_cell_formula_units_Z   1
loop_
 _symmetry_equiv_pos_site_id
 _symmetry_equiv_pos_as_xyz
  1  'x, y, z'
loop_
 _atom_site_type_symbol
 _atom_site_label
 _atom_site_symmetry_multiplicity
 _atom_site_fract_x
 _atom_site_fract_y
 _atom_site_fract_z
 _atom_site_occupancy
  La  La0  1  0.021674  0.182240  0.402006  1
  La  La1  1  0.521280  0.319996  0.401590  1
  La  La2  1  0.476875  0.680993  0.900970  1
  La  La3  1  0.476875  0.680993  0.599030  1
  La  La4  1  0.979120  0.816021  0.598760  1
  La  La5  1  0.979120  0.816021  0.901240  1
  La  La6  1  0.521280  0.319996  0.098410  1
  La  La7  1  0.021674  0.182240  0.097994  1
  Yb  Yb8  1  0.649991  0.988299  0.750000  1
  Yb  Yb9  1  0.849964  0.489735  0.250000  1
  Yb  Yb10  1  0.348422  0.010416  0.250000  1
  Ce  Ce11  1  0.321196  0.187248  0.623706  1
  Ce  Ce12  1  0.678469  0.816302  0.378564  1
  Ce  Ce13  1  0.178965  0.684806  0.378073  1
  Ce  Ce14  1  0.824573  0.317870  0.876202  1
  Ce  Ce15  1  0.824573  0.317870  0.623798  1
  Ce  Ce16  1  0.321196  0.187248  0.876294  1
  Ce  Ce17  1  0.178965  0.684806  0.121927  1
  Ce  Ce18  1  0.678469  0.816302  0.121436  1
  Ce  Ce19  1  0.146094  0.490130  0.750000  1
  Si  Si20  1  0.261185  0.877939  0.750000  1
  Si  Si21  1  0.469535  0.605044  0.250000  1
  Si  Si22  1  0.032478  0.101930  0.750000  1
  Si  Si23  1  0.530022  0.403052  0.750000  1
  Si  Si24  1  0.144756  0.472223  0.537069  1
  Si  Si25  1  0.968162  0.896577  0.250000  1
  Si  Si26  1  0.735142  0.112654  0.250000  1
  Si  Si27  1  0.854977  0.529601  0.036681  1
  Si  Si28  1  0.355332  0.971414  0.035333  1
  Si  Si29  1  0.144756  0.472223  0.962931  1
  Si  Si30  1  0.645647  0.032055  0.535780  1
  Si  Si31  1  0.355332  0.971414  0.464667  1
  Si  Si32  1  0.854977  0.529601  0.463319  1
  Si  Si33  1  0.767137  0.615860  0.750000  1
  Si  Si34  1  0.236140  0.386831  0.250000  1
  Si  Si35  1  0.645647  0.032055  0.964220  1
