# generated using pymatgen
data_InSb11(PtRh)2
_symmetry_space_group_name_H-M   'P 1'
_cell_length_a   8.16941993
_cell_length_b   8.18417640
_cell_length_c   8.17679211
_cell_angle_alpha   109.76002860
_cell_angle_beta   108.72352812
_cell_angle_gamma   109.92026369
_symmetry_Int_Tables_number   1
_chemical_formula_structural   InSb11(PtRh)2
_chemical_formula_sum   'In1 Sb11 Pt2 Rh2'
_cell_volume   420.86057706
_cell_formula_units_Z   1
loop_
 _symmetry_equiv_pos_site_id
 _symmetry_equiv_pos_as_xyz
  1  'x, y, z'
loop_
 _atom_site_type_symbol
 _atom_site_label
 _atom_site_symmetry_multiplicity
 _atom_site_fract_x
 _atom_site_fract_y
 _atom_site_fract_z
 _atom_site_occupancy
  In  In0  1  0.161424  0.821822  0.667321  1
  Sb  Sb1  1  0.848222  0.195278  0.341294  1
  Sb  Sb2  1  0.853320  0.510197  0.662696  1
  Sb  Sb3  1  0.153718  0.502969  0.341714  1
  Sb  Sb4  1  0.813357  0.656132  0.152005  1
  Sb  Sb5  1  0.184199  0.339339  0.847731  1
  Sb  Sb6  1  0.503959  0.663183  0.848614  1
  Sb  Sb7  1  0.491149  0.333010  0.148839  1
  Sb  Sb8  1  0.658997  0.151224  0.817404  1
  Sb  Sb9  1  0.333728  0.840403  0.176218  1
  Sb  Sb10  1  0.653993  0.844383  0.500438  1
  Sb  Sb11  1  0.345105  0.148116  0.498765  1
  Pt  Pt12  1  0.997275  0.002990  0.495821  1
  Pt  Pt13  1  0.497492  0.493737  0.497749  1
  Rh  Rh14  1  0.508893  0.004233  0.008476  1
  Rh  Rh15  1  0.995167  0.492984  0.994917  1
