# generated using pymatgen
data_Yb5(CuN2)2
_symmetry_space_group_name_H-M   'P 1'
_cell_length_a   7.81307200
_cell_length_b   7.81307200
_cell_length_c   12.10622100
_cell_angle_alpha   90.00000000
_cell_angle_beta   90.00000000
_cell_angle_gamma   90.00000000
_symmetry_Int_Tables_number   1
_chemical_formula_structural   Yb5(CuN2)2
_chemical_formula_sum   'Yb20 Cu8 N16'
_cell_volume   739.01329364
_cell_formula_units_Z   4
loop_
 _symmetry_equiv_pos_site_id
 _symmetry_equiv_pos_as_xyz
  1  'x, y, z'
loop_
 _atom_site_type_symbol
 _atom_site_label
 _atom_site_symmetry_multiplicity
 _atom_site_fract_x
 _atom_site_fract_y
 _atom_site_fract_z
 _atom_site_occupancy
  Yb  Yb0  1  0.750000  0.750000  0.359998  1
  Yb  Yb1  1  0.750000  0.750000  0.859998  1
  Yb  Yb2  1  0.250000  0.250000  0.640002  1
  Yb  Yb3  1  0.250000  0.250000  0.140002  1
  Yb  Yb4  1  0.137008  0.573064  0.408724  1
  Yb  Yb5  1  0.362992  0.573064  0.908724  1
  Yb  Yb6  1  0.137008  0.926936  0.908724  1
  Yb  Yb7  1  0.362992  0.926936  0.408724  1
  Yb  Yb8  1  0.573064  0.137008  0.908724  1
  Yb  Yb9  1  0.926936  0.137008  0.408724  1
  Yb  Yb10  1  0.573064  0.362992  0.408724  1
  Yb  Yb11  1  0.926936  0.362992  0.908724  1
  Yb  Yb12  1  0.862992  0.426936  0.591276  1
  Yb  Yb13  1  0.637008  0.426936  0.091276  1
  Yb  Yb14  1  0.862992  0.073064  0.091276  1
  Yb  Yb15  1  0.637008  0.073064  0.591276  1
  Yb  Yb16  1  0.426936  0.862992  0.091276  1
  Yb  Yb17  1  0.073064  0.862992  0.591276  1
  Yb  Yb18  1  0.426936  0.637008  0.591276  1
  Yb  Yb19  1  0.073064  0.637008  0.091276  1
  Cu  Cu20  1  0.093372  0.906628  0.250000  1
  Cu  Cu21  1  0.406628  0.906628  0.750000  1
  Cu  Cu22  1  0.093372  0.593372  0.750000  1
  Cu  Cu23  1  0.406628  0.593372  0.250000  1
  Cu  Cu24  1  0.906628  0.093372  0.750000  1
  Cu  Cu25  1  0.593372  0.093372  0.250000  1
  Cu  Cu26  1  0.906628  0.406628  0.250000  1
  Cu  Cu27  1  0.593372  0.406628  0.750000  1
  N  N28  1  0.642939  0.048079  0.397735  1
  N  N29  1  0.857061  0.048079  0.897735  1
  N  N30  1  0.642939  0.451921  0.897735  1
  N  N31  1  0.857061  0.451921  0.397735  1
  N  N32  1  0.048079  0.642939  0.897735  1
  N  N33  1  0.451921  0.642939  0.397735  1
  N  N34  1  0.048079  0.857061  0.397735  1
  N  N35  1  0.451921  0.857061  0.897735  1
  N  N36  1  0.357061  0.951921  0.602265  1
  N  N37  1  0.142939  0.951921  0.102265  1
  N  N38  1  0.357061  0.548079  0.102265  1
  N  N39  1  0.142939  0.548079  0.602265  1
  N  N40  1  0.951921  0.357061  0.102265  1
  N  N41  1  0.548079  0.357061  0.602265  1
  N  N42  1  0.951921  0.142939  0.602265  1
  N  N43  1  0.548079  0.142939  0.102265  1
