# generated using pymatgen
data_Ce2V3Fe9P7
_symmetry_space_group_name_H-M   'P 1'
_cell_length_a   9.14750200
_cell_length_b   9.14750290
_cell_length_c   3.64743100
_cell_angle_alpha   90.00000000
_cell_angle_beta   90.00000000
_cell_angle_gamma   120.00000494
_symmetry_Int_Tables_number   1
_chemical_formula_structural   Ce2V3Fe9P7
_chemical_formula_sum   'Ce2 V3 Fe9 P7'
_cell_volume   264.31558049
_cell_formula_units_Z   1
loop_
 _symmetry_equiv_pos_site_id
 _symmetry_equiv_pos_as_xyz
  1  'x, y, z'
loop_
 _atom_site_type_symbol
 _atom_site_label
 _atom_site_symmetry_multiplicity
 _atom_site_fract_x
 _atom_site_fract_y
 _atom_site_fract_z
 _atom_site_occupancy
  Ce  Ce0  1  0.000000  0.000000  0.000000  1
  Ce  Ce1  1  0.333333  0.666667  0.500000  1
  V  V2  1  0.883064  0.440905  0.500000  1
  V  V3  1  0.557841  0.116936  0.500000  1
  V  V4  1  0.559095  0.442159  0.500000  1
  Fe  Fe5  1  0.096822  0.391110  0.000000  1
  Fe  Fe6  1  0.294288  0.903178  0.000000  1
  Fe  Fe7  1  0.608890  0.705712  0.000000  1
  Fe  Fe8  1  0.819903  0.608361  0.000000  1
  Fe  Fe9  1  0.788457  0.180097  0.000000  1
  Fe  Fe10  1  0.391639  0.211543  0.000000  1
  Fe  Fe11  1  0.052739  0.769924  0.500000  1
  Fe  Fe12  1  0.717185  0.947261  0.500000  1
  Fe  Fe13  1  0.230076  0.282815  0.500000  1
  P  P14  1  0.074505  0.634550  0.000000  1
  P  P15  1  0.560045  0.925495  0.000000  1
  P  P16  1  0.365450  0.439955  0.000000  1
  P  P17  1  0.781065  0.735224  0.500000  1
  P  P18  1  0.954160  0.218935  0.500000  1
  P  P19  1  0.264776  0.045840  0.500000  1
  P  P20  1  0.666667  0.333333  0.000000  1
