# generated using pymatgen
data_Yb2Ho3Cr3(Co4P3)4
_symmetry_space_group_name_H-M   'P 1'
_cell_length_a   11.97427400
_cell_length_b   11.97427495
_cell_length_c   3.66335800
_cell_angle_alpha   90.00000000
_cell_angle_beta   90.00000000
_cell_angle_gamma   120.00000289
_symmetry_Int_Tables_number   1
_chemical_formula_structural   Yb2Ho3Cr3(Co4P3)4
_chemical_formula_sum   'Yb2 Ho3 Cr3 Co16 P12'
_cell_volume   454.89210445
_cell_formula_units_Z   1
loop_
 _symmetry_equiv_pos_site_id
 _symmetry_equiv_pos_as_xyz
  1  'x, y, z'
loop_
 _atom_site_type_symbol
 _atom_site_label
 _atom_site_symmetry_multiplicity
 _atom_site_fract_x
 _atom_site_fract_y
 _atom_site_fract_z
 _atom_site_occupancy
  Yb  Yb0  1  0.666667  0.333333  0.000000  1
  Yb  Yb1  1  0.333333  0.666667  0.000000  1
  Ho  Ho2  1  0.813723  0.813723  0.500000  1
  Ho  Ho3  1  0.186277  0.000000  0.500000  1
  Ho  Ho4  1  0.000000  0.186277  0.500000  1
  Cr  Cr5  1  0.444442  0.444442  0.000000  1
  Cr  Cr6  1  0.555558  0.000000  0.000000  1
  Cr  Cr7  1  0.000000  0.555558  0.000000  1
  Co  Co8  1  0.874088  0.354826  0.500000  1
  Co  Co9  1  0.645174  0.519263  0.500000  1
  Co  Co10  1  0.480737  0.125912  0.500000  1
  Co  Co11  1  0.354826  0.874088  0.500000  1
  Co  Co12  1  0.519263  0.645174  0.500000  1
  Co  Co13  1  0.125912  0.480737  0.500000  1
  Co  Co14  1  0.800480  0.176901  0.000000  1
  Co  Co15  1  0.823099  0.623578  0.000000  1
  Co  Co16  1  0.376422  0.199520  0.000000  1
  Co  Co17  1  0.176901  0.800480  0.000000  1
  Co  Co18  1  0.623578  0.823099  0.000000  1
  Co  Co19  1  0.199520  0.376422  0.000000  1
  Co  Co20  1  0.282712  0.282712  0.500000  1
  Co  Co21  1  0.717288  0.000000  0.500000  1
  Co  Co22  1  0.000000  0.717288  0.500000  1
  Co  Co23  1  0.000000  0.000000  0.000000  1
  P  P24  1  0.682490  0.163791  0.500000  1
  P  P25  1  0.836209  0.518700  0.500000  1
  P  P26  1  0.481300  0.317510  0.500000  1
  P  P27  1  0.163791  0.682490  0.500000  1
  P  P28  1  0.518700  0.836209  0.500000  1
  P  P29  1  0.317510  0.481300  0.500000  1
  P  P30  1  0.180009  0.180009  0.000000  1
  P  P31  1  0.819991  0.000000  0.000000  1
  P  P32  1  0.000000  0.819991  0.000000  1
  P  P33  1  0.633545  0.633545  0.000000  1
  P  P34  1  0.366455  0.000000  0.000000  1
  P  P35  1  0.000000  0.366455  0.000000  1
