# generated using pymatgen
data_LuTh2(SnRu)3
_symmetry_space_group_name_H-M   'P 1'
_cell_length_a   7.51105336
_cell_length_b   7.32438298
_cell_length_c   4.10610600
_cell_angle_alpha   90.00000000
_cell_angle_beta   90.00000000
_cell_angle_gamma   119.18123213
_symmetry_Int_Tables_number   1
_chemical_formula_structural   LuTh2(SnRu)3
_chemical_formula_sum   'Lu1 Th2 Sn3 Ru3'
_cell_volume   197.22274589
_cell_formula_units_Z   1
loop_
 _symmetry_equiv_pos_site_id
 _symmetry_equiv_pos_as_xyz
  1  'x, y, z'
loop_
 _atom_site_type_symbol
 _atom_site_label
 _atom_site_symmetry_multiplicity
 _atom_site_fract_x
 _atom_site_fract_y
 _atom_site_fract_z
 _atom_site_occupancy
  Lu  Lu0  1  0.000000  0.592294  0.500000  1
  Th  Th1  1  0.413823  0.415575  0.500000  1
  Th  Th2  1  0.586177  0.001752  0.500000  1
  Sn  Sn3  1  0.762138  0.747454  0.000000  1
  Sn  Sn4  1  0.000000  0.264412  0.000000  1
  Sn  Sn5  1  0.237862  0.985316  0.000000  1
  Ru  Ru6  1  0.350611  0.669156  0.000000  1
  Ru  Ru7  1  0.000000  0.005496  0.500000  1
  Ru  Ru8  1  0.649389  0.318544  0.000000  1
