# generated using pymatgen
data_Ta3Nb(SiRu)4
_symmetry_space_group_name_H-M   'P 1'
_cell_length_a   3.86541300
_cell_length_b   6.34545798
_cell_length_c   7.31915505
_cell_angle_alpha   90.06519253
_cell_angle_beta   90.00000000
_cell_angle_gamma   90.00000000
_symmetry_Int_Tables_number   1
_chemical_formula_structural   Ta3Nb(SiRu)4
_chemical_formula_sum   'Ta3 Nb1 Si4 Ru4'
_cell_volume   179.52277039
_cell_formula_units_Z   1
loop_
 _symmetry_equiv_pos_site_id
 _symmetry_equiv_pos_as_xyz
  1  'x, y, z'
loop_
 _atom_site_type_symbol
 _atom_site_label
 _atom_site_symmetry_multiplicity
 _atom_site_fract_x
 _atom_site_fract_y
 _atom_site_fract_z
 _atom_site_occupancy
  Ta  Ta0  1  0.750000  0.477916  0.319660  1
  Ta  Ta1  1  0.250000  0.021235  0.817982  1
  Ta  Ta2  1  0.750000  0.978104  0.181513  1
  Nb  Nb3  1  0.250000  0.521896  0.679877  1
  Si  Si4  1  0.250000  0.274250  0.123173  1
  Si  Si5  1  0.750000  0.724966  0.876024  1
  Si  Si6  1  0.250000  0.773736  0.377036  1
  Si  Si7  1  0.750000  0.226922  0.623815  1
  Ru  Ru8  1  0.750000  0.848949  0.561850  1
  Ru  Ru9  1  0.250000  0.152913  0.436282  1
  Ru  Ru10  1  0.750000  0.345075  0.940337  1
  Ru  Ru11  1  0.250000  0.654038  0.062451  1
