# generated using pymatgen
data_LaDy6Co2Sn23Rh4
_symmetry_space_group_name_H-M   'P 1'
_cell_length_a   9.83267654
_cell_length_b   9.83373834
_cell_length_c   10.07372604
_cell_angle_alpha   89.99999915
_cell_angle_beta   90.01423194
_cell_angle_gamma   120.00356690
_symmetry_Int_Tables_number   1
_chemical_formula_structural   LaDy6Co2Sn23Rh4
_chemical_formula_sum   'La1 Dy6 Co2 Sn23 Rh4'
_cell_volume   843.52030135
_cell_formula_units_Z   1
loop_
 _symmetry_equiv_pos_site_id
 _symmetry_equiv_pos_as_xyz
  1  'x, y, z'
loop_
 _atom_site_type_symbol
 _atom_site_label
 _atom_site_symmetry_multiplicity
 _atom_site_fract_x
 _atom_site_fract_y
 _atom_site_fract_z
 _atom_site_occupancy
  La  La0  1  0.000000  0.000000  0.000000  1
  Dy  Dy1  1  0.479149  0.521142  0.307010  1
  Dy  Dy2  1  0.520851  0.478858  0.692990  1
  Dy  Dy3  1  0.479149  0.958008  0.307010  1
  Dy  Dy4  1  0.520851  0.041992  0.692990  1
  Dy  Dy5  1  0.042581  0.521291  0.306921  1
  Dy  Dy6  1  0.957419  0.478709  0.693079  1
  Co  Co7  1  0.337336  0.168667  0.198925  1
  Co  Co8  1  0.662664  0.831333  0.801075  1
  Sn  Sn9  1  0.352376  0.004595  0.004654  1
  Sn  Sn10  1  0.647624  0.995405  0.995346  1
  Sn  Sn11  1  0.000000  0.352669  0.000000  1
  Sn  Sn12  1  0.000000  0.647331  0.000000  1
  Sn  Sn13  1  0.647624  0.652219  0.995346  1
  Sn  Sn14  1  0.352376  0.347781  0.004654  1
  Sn  Sn15  1  0.338491  0.669246  0.819542  1
  Sn  Sn16  1  0.661509  0.330754  0.180458  1
  Sn  Sn17  1  0.000000  0.000000  0.500000  1
  Sn  Sn18  1  0.778593  0.221593  0.455964  1
  Sn  Sn19  1  0.221407  0.778407  0.544036  1
  Sn  Sn20  1  0.778593  0.556999  0.455964  1
  Sn  Sn21  1  0.221407  0.443001  0.544036  1
  Sn  Sn22  1  0.439039  0.219519  0.450380  1
  Sn  Sn23  1  0.560961  0.780481  0.549620  1
  Sn  Sn24  1  0.333334  0.666668  0.118499  1
  Sn  Sn25  1  0.666666  0.333332  0.881501  1
  Sn  Sn26  1  0.123919  0.886344  0.278105  1
  Sn  Sn27  1  0.876081  0.113656  0.721895  1
  Sn  Sn28  1  0.123919  0.237575  0.278105  1
  Sn  Sn29  1  0.876081  0.762425  0.721895  1
  Sn  Sn30  1  0.758256  0.879128  0.282839  1
  Sn  Sn31  1  0.241744  0.120872  0.717161  1
  Rh  Rh32  1  0.830768  0.167961  0.198308  1
  Rh  Rh33  1  0.169232  0.832039  0.801692  1
  Rh  Rh34  1  0.830768  0.662806  0.198308  1
  Rh  Rh35  1  0.169232  0.337194  0.801692  1
