# generated using pymatgen
data_TaSb3(PO4)6
_symmetry_space_group_name_H-M   'P 1'
_cell_length_a   8.67074808
_cell_length_b   8.68530949
_cell_length_c   9.02146138
_cell_angle_alpha   89.99254218
_cell_angle_beta   118.59233158
_cell_angle_gamma   120.02114256
_symmetry_Int_Tables_number   1
_chemical_formula_structural   TaSb3(PO4)6
_chemical_formula_sum   'Ta1 Sb3 P6 O24'
_cell_volume   490.24866300
_cell_formula_units_Z   1
loop_
 _symmetry_equiv_pos_site_id
 _symmetry_equiv_pos_as_xyz
  1  'x, y, z'
loop_
 _atom_site_type_symbol
 _atom_site_label
 _atom_site_symmetry_multiplicity
 _atom_site_fract_x
 _atom_site_fract_y
 _atom_site_fract_z
 _atom_site_occupancy
  Ta  Ta0  1  0.222141  0.861435  0.083568  1
  Sb  Sb1  1  0.794273  0.646554  0.441418  1
  Sb  Sb2  1  0.224647  0.362595  0.586750  1
  Sb  Sb3  1  0.789441  0.144330  0.933224  1
  P  P4  1  0.990664  0.958549  0.250725  1
  P  P5  1  0.292437  0.533007  0.251239  1
  P  P6  1  0.286601  0.779140  0.751889  1
  P  P7  1  0.717702  0.260166  0.251230  1
  P  P8  1  0.745428  0.466215  0.751666  1
  P  P9  1  0.973761  0.006211  0.752517  1
  O  O10  1  0.337498  0.722883  0.215930  1
  O  O11  1  0.845081  0.977486  0.072548  1
  O  O12  1  0.796052  0.817864  0.591807  1
  O  O13  1  0.822585  0.806485  0.284286  1
  O  O14  1  0.101195  0.877823  0.217522  1
  O  O15  1  0.477876  0.517938  0.283350  1
  O  O16  1  0.113453  0.789719  0.585887  1
  O  O17  1  0.965751  0.609647  0.923692  1
  O  O18  1  0.313551  0.859182  0.922262  1
  O  O19  1  0.497895  0.917148  0.763535  1
  O  O20  1  0.769817  0.474081  0.588759  1
  O  O21  1  0.760261  0.459071  0.278713  1
  O  O22  1  0.233688  0.584312  0.734905  1
  O  O23  1  0.259336  0.523447  0.401545  1
  O  O24  1  0.493498  0.114068  0.217755  1
  O  O25  1  0.706179  0.225137  0.074485  1
  O  O26  1  0.094696  0.367620  0.074298  1
  O  O27  1  0.879602  0.241310  0.403849  1
  O  O28  1  0.583247  0.501006  0.728143  1
  O  O29  1  0.849786  0.082807  0.763644  1
  O  O30  1  0.147285  0.142045  0.727752  1
  O  O31  1  0.162781  0.142577  0.398999  1
  O  O32  1  0.067895  0.960532  0.926881  1
  O  O33  1  0.683901  0.267610  0.765229  1
