# generated using pymatgen
data_Pa3Sn3SbPt3
_symmetry_space_group_name_H-M   'P 1'
_cell_length_a   8.44522350
_cell_length_b   8.45958560
_cell_length_c   8.44522296
_cell_angle_alpha   109.46855429
_cell_angle_beta   109.37686979
_cell_angle_gamma   109.49932181
_symmetry_Int_Tables_number   1
_chemical_formula_structural   Pa3Sn3SbPt3
_chemical_formula_sum   'Pa6 Sn6 Sb2 Pt6'
_cell_volume   464.85540896
_cell_formula_units_Z   2
loop_
 _symmetry_equiv_pos_site_id
 _symmetry_equiv_pos_as_xyz
  1  'x, y, z'
loop_
 _atom_site_type_symbol
 _atom_site_label
 _atom_site_symmetry_multiplicity
 _atom_site_fract_x
 _atom_site_fract_y
 _atom_site_fract_z
 _atom_site_occupancy
  Pa  Pa0  1  0.872722  0.250000  0.122722  1
  Pa  Pa1  1  0.625425  0.750000  0.375425  1
  Pa  Pa2  1  0.250583  0.124353  0.873527  1
  Pa  Pa3  1  0.749175  0.375647  0.626231  1
  Pa  Pa4  1  0.124147  0.871547  0.248460  1
  Pa  Pa5  1  0.376913  0.628453  0.752601  1
  Sn  Sn6  1  0.679752  0.500341  0.000503  1
  Sn  Sn7  1  0.500162  0.999659  0.679412  1
  Sn  Sn8  1  0.000181  0.680253  0.500533  1
  Sn  Sn9  1  0.820280  0.819747  0.819928  1
  Sn  Sn10  1  0.498713  0.999113  0.179068  1
  Sn  Sn11  1  0.179955  0.500887  0.999600  1
  Sb  Sb12  1  0.998778  0.177300  0.499608  1
  Sb  Sb13  1  0.322307  0.322700  0.321478  1
  Pt  Pt14  1  0.375542  0.250000  0.625542  1
  Pt  Pt15  1  0.125007  0.750000  0.875007  1
  Pt  Pt16  1  0.249558  0.625510  0.374419  1
  Pt  Pt17  1  0.748909  0.874490  0.124048  1
  Pt  Pt18  1  0.626141  0.373870  0.249619  1
  Pt  Pt19  1  0.875749  0.126130  0.752270  1
