# generated using pymatgen
data_Cs2Eu(WO4)3
_symmetry_space_group_name_H-M   'P 1'
_cell_length_a   7.49240727
_cell_length_b   7.49240777
_cell_length_c   7.78971500
_cell_angle_alpha   61.33143519
_cell_angle_beta   61.33143350
_cell_angle_gamma   59.96700826
_symmetry_Int_Tables_number   1
_chemical_formula_structural   Cs2Eu(WO4)3
_chemical_formula_sum   'Cs2 Eu1 W3 O12'
_cell_volume   315.20258263
_cell_formula_units_Z   1
loop_
 _symmetry_equiv_pos_site_id
 _symmetry_equiv_pos_as_xyz
  1  'x, y, z'
loop_
 _atom_site_type_symbol
 _atom_site_label
 _atom_site_symmetry_multiplicity
 _atom_site_fract_x
 _atom_site_fract_y
 _atom_site_fract_z
 _atom_site_occupancy
  Cs  Cs0  1  0.889636  0.851074  0.878892  1
  Cs  Cs1  1  0.148926  0.110364  0.121108  1
  Eu  Eu2  1  0.502570  0.497430  0.000000  1
  W  W3  1  0.504058  0.996161  0.498967  1
  W  W4  1  0.003839  0.495942  0.501033  1
  W  W5  1  0.503203  0.496797  0.500000  1
  O  O6  1  0.198388  0.195147  0.542124  1
  O  O7  1  0.568383  0.572344  0.210016  1
  O  O8  1  0.567980  0.148214  0.209853  1
  O  O9  1  0.198555  0.564081  0.540501  1
  O  O10  1  0.151578  0.568066  0.210440  1
  O  O11  1  0.566748  0.196013  0.539614  1
  O  O12  1  0.804853  0.801612  0.457876  1
  O  O13  1  0.427656  0.431617  0.789984  1
  O  O14  1  0.431934  0.848422  0.789560  1
  O  O15  1  0.803987  0.433252  0.460386  1
  O  O16  1  0.851786  0.432020  0.790147  1
  O  O17  1  0.435919  0.801445  0.459499  1
