# generated using pymatgen
data_Dy10Ho6In4RuRh3
_symmetry_space_group_name_H-M   'P 1'
_cell_length_a   9.65759820
_cell_length_b   9.66205021
_cell_length_c   9.64988005
_cell_angle_alpha   59.83331492
_cell_angle_beta   59.82641185
_cell_angle_gamma   59.89641103
_symmetry_Int_Tables_number   1
_chemical_formula_structural   Dy10Ho6In4RuRh3
_chemical_formula_sum   'Dy10 Ho6 In4 Ru1 Rh3'
_cell_volume   634.57696652
_cell_formula_units_Z   1
loop_
 _symmetry_equiv_pos_site_id
 _symmetry_equiv_pos_as_xyz
  1  'x, y, z'
loop_
 _atom_site_type_symbol
 _atom_site_label
 _atom_site_symmetry_multiplicity
 _atom_site_fract_x
 _atom_site_fract_y
 _atom_site_fract_z
 _atom_site_occupancy
  Dy  Dy0  1  0.188548  0.189860  0.811016  1
  Dy  Dy1  1  0.599884  0.600530  0.202230  1
  Dy  Dy2  1  0.440116  0.056679  0.440377  1
  Dy  Dy3  1  0.440527  0.440463  0.058551  1
  Dy  Dy4  1  0.811944  0.189090  0.811683  1
  Dy  Dy5  1  0.190185  0.811956  0.190889  1
  Dy  Dy6  1  0.439533  0.057098  0.061486  1
  Dy  Dy7  1  0.189486  0.813203  0.808149  1
  Dy  Dy8  1  0.059153  0.439666  0.059522  1
  Dy  Dy9  1  0.808737  0.813500  0.189429  1
  Ho  Ho10  1  0.201862  0.601160  0.599676  1
  Ho  Ho11  1  0.058454  0.440617  0.440763  1
  Ho  Ho12  1  0.061159  0.057124  0.439791  1
  Ho  Ho13  1  0.811615  0.189320  0.188743  1
  Ho  Ho14  1  0.600759  0.200838  0.599934  1
  Ho  Ho15  1  0.598095  0.599776  0.597798  1
  In  In16  1  0.833155  0.832910  0.832551  1
  In  In17  1  0.832954  0.833298  0.500648  1
  In  In18  1  0.500576  0.833240  0.832956  1
  In  In19  1  0.832240  0.502607  0.832110  1
  Ru  Ru20  1  0.391855  0.824427  0.392660  1
  Rh  Rh21  1  0.391278  0.390441  0.392417  1
  Rh  Rh22  1  0.825564  0.390589  0.392438  1
  Rh  Rh23  1  0.392322  0.391611  0.824183  1
