# generated using pymatgen
data_Yb3GaGePd2
_symmetry_space_group_name_H-M   'P 1'
_cell_length_a   5.64326500
_cell_length_b   7.96748700
_cell_length_c   13.59500100
_cell_angle_alpha   90.00000000
_cell_angle_beta   90.00000000
_cell_angle_gamma   90.00000000
_symmetry_Int_Tables_number   1
_chemical_formula_structural   Yb3GaGePd2
_chemical_formula_sum   'Yb12 Ga4 Ge4 Pd8'
_cell_volume   611.26714290
_cell_formula_units_Z   4
loop_
 _symmetry_equiv_pos_site_id
 _symmetry_equiv_pos_as_xyz
  1  'x, y, z'
loop_
 _atom_site_type_symbol
 _atom_site_label
 _atom_site_symmetry_multiplicity
 _atom_site_fract_x
 _atom_site_fract_y
 _atom_site_fract_z
 _atom_site_occupancy
  Yb  Yb0  1  0.647788  0.253202  0.250000  1
  Yb  Yb1  1  0.352212  0.746798  0.750000  1
  Yb  Yb2  1  0.352212  0.753202  0.250000  1
  Yb  Yb3  1  0.647788  0.246798  0.750000  1
  Yb  Yb4  1  0.144418  0.393444  0.101649  1
  Yb  Yb5  1  0.855582  0.606556  0.898351  1
  Yb  Yb6  1  0.855582  0.606556  0.601649  1
  Yb  Yb7  1  0.855582  0.893444  0.398351  1
  Yb  Yb8  1  0.144418  0.393444  0.398351  1
  Yb  Yb9  1  0.144418  0.106556  0.601649  1
  Yb  Yb10  1  0.144418  0.106556  0.898351  1
  Yb  Yb11  1  0.855582  0.893444  0.101649  1
  Ga  Ga12  1  0.651485  0.250000  0.000000  1
  Ga  Ga13  1  0.348515  0.750000  0.000000  1
  Ga  Ga14  1  0.348515  0.750000  0.500000  1
  Ga  Ga15  1  0.651485  0.250000  0.500000  1
  Ge  Ge16  1  0.145870  0.104716  0.250000  1
  Ge  Ge17  1  0.854130  0.895284  0.750000  1
  Ge  Ge18  1  0.854130  0.604716  0.250000  1
  Ge  Ge19  1  0.145870  0.395284  0.750000  1
  Pd  Pd20  1  0.375553  0.036685  0.091239  1
  Pd  Pd21  1  0.624447  0.963315  0.908761  1
  Pd  Pd22  1  0.624447  0.963315  0.591239  1
  Pd  Pd23  1  0.624447  0.536685  0.408761  1
  Pd  Pd24  1  0.375553  0.036685  0.408761  1
  Pd  Pd25  1  0.375553  0.463315  0.591239  1
  Pd  Pd26  1  0.375553  0.463315  0.908761  1
  Pd  Pd27  1  0.624447  0.536685  0.091239  1
