# generated using pymatgen
data_Tb9Sm(In2Au)4
_symmetry_space_group_name_H-M   'P 1'
_cell_length_a   3.69331700
_cell_length_b   8.24294175
_cell_length_c   18.49297300
_cell_angle_alpha   90.03734713
_cell_angle_beta   90.00000000
_cell_angle_gamma   90.00000000
_symmetry_Int_Tables_number   1
_chemical_formula_structural   Tb9Sm(In2Au)4
_chemical_formula_sum   'Tb9 Sm1 In8 Au4'
_cell_volume   562.99619448
_cell_formula_units_Z   1
loop_
 _symmetry_equiv_pos_site_id
 _symmetry_equiv_pos_as_xyz
  1  'x, y, z'
loop_
 _atom_site_type_symbol
 _atom_site_label
 _atom_site_symmetry_multiplicity
 _atom_site_fract_x
 _atom_site_fract_y
 _atom_site_fract_z
 _atom_site_occupancy
  Tb  Tb0  1  0.000000  0.121656  0.420477  1
  Tb  Tb1  1  0.000000  0.878861  0.580008  1
  Tb  Tb2  1  0.000000  0.379141  0.920136  1
  Tb  Tb3  1  0.000000  0.621019  0.079735  1
  Tb  Tb4  1  0.000000  0.238541  0.217087  1
  Tb  Tb5  1  0.000000  0.761334  0.782634  1
  Tb  Tb6  1  0.000000  0.261179  0.717357  1
  Tb  Tb7  1  0.000000  0.999761  0.999829  1
  Tb  Tb8  1  0.000000  0.500194  0.499977  1
  Sm  Sm9  1  0.000000  0.737791  0.283247  1
  In  In10  1  0.500000  0.422210  0.353648  1
  In  In11  1  0.500000  0.576157  0.646540  1
  In  In12  1  0.500000  0.076866  0.853335  1
  In  In13  1  0.500000  0.924288  0.146235  1
  In  In14  1  0.500000  0.289949  0.066918  1
  In  In15  1  0.500000  0.709822  0.932872  1
  In  In16  1  0.500000  0.209694  0.567056  1
  In  In17  1  0.500000  0.790853  0.433755  1
  Au  Au18  1  0.500000  0.032065  0.303301  1
  Au  Au19  1  0.500000  0.971714  0.696880  1
  Au  Au20  1  0.500000  0.471580  0.803263  1
  Au  Au21  1  0.500000  0.525323  0.195709  1
