# generated using pymatgen
data_Tm4Sn3As3Ir7
_symmetry_space_group_name_H-M   'P 1'
_cell_length_a   7.38578648
_cell_length_b   7.38578604
_cell_length_c   7.46601000
_cell_angle_alpha   109.69140232
_cell_angle_beta   109.69140110
_cell_angle_gamma   109.25014675
_symmetry_Int_Tables_number   1
_chemical_formula_structural   Tm4Sn3As3Ir7
_chemical_formula_sum   'Tm4 Sn3 As3 Ir7'
_cell_volume   312.66033917
_cell_formula_units_Z   1
loop_
 _symmetry_equiv_pos_site_id
 _symmetry_equiv_pos_as_xyz
  1  'x, y, z'
loop_
 _atom_site_type_symbol
 _atom_site_label
 _atom_site_symmetry_multiplicity
 _atom_site_fract_x
 _atom_site_fract_y
 _atom_site_fract_z
 _atom_site_occupancy
  Tm  Tm0  1  0.000000  0.000000  0.451148  1
  Tm  Tm1  1  0.000000  0.524599  0.006779  1
  Tm  Tm2  1  0.524599  0.000000  0.006779  1
  Tm  Tm3  1  0.475401  0.475401  0.482180  1
  Sn  Sn4  1  0.289455  0.289455  0.984102  1
  Sn  Sn5  1  0.710545  0.000000  0.694646  1
  Sn  Sn6  1  0.000000  0.710545  0.694646  1
  As  As7  1  0.661352  0.661352  0.991604  1
  As  As8  1  0.338648  0.000000  0.330251  1
  As  As9  1  0.000000  0.338648  0.330251  1
  Ir  Ir10  1  0.751993  0.253025  0.497966  1
  Ir  Ir11  1  0.746975  0.498968  0.244940  1
  Ir  Ir12  1  0.501032  0.248007  0.745973  1
  Ir  Ir13  1  0.248007  0.501032  0.745973  1
  Ir  Ir14  1  0.253025  0.751993  0.497966  1
  Ir  Ir15  1  0.498968  0.746975  0.244940  1
  Ir  Ir16  1  0.000000  0.000000  0.049855  1
