# generated using pymatgen
data_Y9Ho11(CoBi2)4
_symmetry_space_group_name_H-M   'P 1'
_cell_length_a   8.00034200
_cell_length_b   8.86495000
_cell_length_c   12.43522800
_cell_angle_alpha   90.00000000
_cell_angle_beta   89.99820838
_cell_angle_gamma   90.00000000
_symmetry_Int_Tables_number   1
_chemical_formula_structural   Y9Ho11(CoBi2)4
_chemical_formula_sum   'Y9 Ho11 Co4 Bi8'
_cell_volume   881.93909674
_cell_formula_units_Z   1
loop_
 _symmetry_equiv_pos_site_id
 _symmetry_equiv_pos_as_xyz
  1  'x, y, z'
loop_
 _atom_site_type_symbol
 _atom_site_label
 _atom_site_symmetry_multiplicity
 _atom_site_fract_x
 _atom_site_fract_y
 _atom_site_fract_z
 _atom_site_occupancy
  Y  Y0  1  0.347965  0.750000  0.700936  1
  Y  Y1  1  0.652312  0.250000  0.299121  1
  Y  Y2  1  0.847478  0.250000  0.799456  1
  Y  Y3  1  0.152253  0.750000  0.200410  1
  Y  Y4  1  0.882725  0.750000  0.809340  1
  Y  Y5  1  0.117593  0.250000  0.190544  1
  Y  Y6  1  0.382575  0.250000  0.690605  1
  Y  Y7  1  0.617341  0.750000  0.309294  1
  Y  Y8  1  0.049303  0.750000  0.497997  1
  Ho  Ho9  1  0.674541  0.536859  0.562771  1
  Ho  Ho10  1  0.325458  0.462064  0.437369  1
  Ho  Ho11  1  0.175043  0.462501  0.937531  1
  Ho  Ho12  1  0.325458  0.037936  0.437369  1
  Ho  Ho13  1  0.824862  0.537461  0.062496  1
  Ho  Ho14  1  0.674541  0.963141  0.562771  1
  Ho  Ho15  1  0.824862  0.962539  0.062496  1
  Ho  Ho16  1  0.175043  0.037499  0.937531  1
  Ho  Ho17  1  0.948671  0.250000  0.501796  1
  Ho  Ho18  1  0.551507  0.250000  0.001920  1
  Ho  Ho19  1  0.448476  0.750000  0.998107  1
  Co  Co20  1  0.065873  0.750000  0.991392  1
  Co  Co21  1  0.934049  0.250000  0.008601  1
  Co  Co22  1  0.565740  0.250000  0.508393  1
  Co  Co23  1  0.436690  0.750000  0.491987  1
  Bi  Bi24  1  0.571447  0.508733  0.827676  1
  Bi  Bi25  1  0.428511  0.491165  0.172354  1
  Bi  Bi26  1  0.071640  0.490825  0.672881  1
  Bi  Bi27  1  0.428511  0.008835  0.172354  1
  Bi  Bi28  1  0.928223  0.508392  0.326973  1
  Bi  Bi29  1  0.571447  0.991267  0.827676  1
  Bi  Bi30  1  0.928223  0.991608  0.326973  1
  Bi  Bi31  1  0.071640  0.009175  0.672881  1
