# generated using pymatgen
data_Tb3ThNi2C5
_symmetry_space_group_name_H-M   'P 1'
_cell_length_a   3.74138400
_cell_length_b   3.73598200
_cell_length_c   11.73315000
_cell_angle_alpha   90.00000000
_cell_angle_beta   90.00000000
_cell_angle_gamma   90.00000000
_symmetry_Int_Tables_number   1
_chemical_formula_structural   Tb3ThNi2C5
_chemical_formula_sum   'Tb3 Th1 Ni2 C5'
_cell_volume   164.00295856
_cell_formula_units_Z   1
loop_
 _symmetry_equiv_pos_site_id
 _symmetry_equiv_pos_as_xyz
  1  'x, y, z'
loop_
 _atom_site_type_symbol
 _atom_site_label
 _atom_site_symmetry_multiplicity
 _atom_site_fract_x
 _atom_site_fract_y
 _atom_site_fract_z
 _atom_site_occupancy
  Tb  Tb0  1  0.500000  0.505588  0.209954  1
  Tb  Tb1  1  0.500000  0.505588  0.790046  1
  Tb  Tb2  1  0.500000  0.202680  0.500000  1
  Th  Th3  1  0.000000  0.998970  0.000000  1
  Ni  Ni4  1  0.000000  0.697451  0.385495  1
  Ni  Ni5  1  0.000000  0.697451  0.614505  1
  C  C6  1  0.000000  0.006171  0.232092  1
  C  C7  1  0.000000  0.006171  0.767908  1
  C  C8  1  0.000000  0.194430  0.335075  1
  C  C9  1  0.000000  0.194430  0.664925  1
  C  C10  1  0.500000  0.492572  0.000000  1
