# generated using pymatgen
data_Tb10HoThCo4
_symmetry_space_group_name_H-M   'P 1'
_cell_length_a   6.26193463
_cell_length_b   6.92032270
_cell_length_c   9.54391463
_cell_angle_alpha   89.96100373
_cell_angle_beta   89.98612385
_cell_angle_gamma   91.31963016
_symmetry_Int_Tables_number   1
_chemical_formula_structural   Tb10HoThCo4
_chemical_formula_sum   'Tb10 Ho1 Th1 Co4'
_cell_volume   413.47200250
_cell_formula_units_Z   1
loop_
 _symmetry_equiv_pos_site_id
 _symmetry_equiv_pos_as_xyz
  1  'x, y, z'
loop_
 _atom_site_type_symbol
 _atom_site_label
 _atom_site_symmetry_multiplicity
 _atom_site_fract_x
 _atom_site_fract_y
 _atom_site_fract_z
 _atom_site_occupancy
  Tb  Tb0  1  0.171773  0.175869  0.430531  1
  Tb  Tb1  1  0.676526  0.325510  0.568208  1
  Tb  Tb2  1  0.824439  0.826796  0.930707  1
  Tb  Tb3  1  0.676389  0.325627  0.931912  1
  Tb  Tb4  1  0.824640  0.826965  0.569507  1
  Tb  Tb5  1  0.326715  0.674512  0.432763  1
  Tb  Tb6  1  0.171957  0.175869  0.069419  1
  Tb  Tb7  1  0.640145  0.044926  0.249827  1
  Tb  Tb8  1  0.144062  0.454459  0.750242  1
  Tb  Tb9  1  0.359048  0.955110  0.750241  1
  Ho  Ho10  1  0.326916  0.674592  0.067329  1
  Th  Th11  1  0.846921  0.555565  0.249682  1
  Co  Co12  1  0.044494  0.869650  0.249693  1
  Co  Co13  1  0.467357  0.391855  0.249585  1
  Co  Co14  1  0.951297  0.112217  0.749959  1
  Co  Co15  1  0.547318  0.610481  0.750394  1
