# generated using pymatgen
data_Eu4H12PtRh
_symmetry_space_group_name_H-M   'P 1'
_cell_length_a   7.28471315
_cell_length_b   7.28471445
_cell_length_c   5.36078527
_cell_angle_alpha   89.34506810
_cell_angle_beta   89.34507343
_cell_angle_gamma   136.74335069
_symmetry_Int_Tables_number   1
_chemical_formula_structural   Eu4H12PtRh
_chemical_formula_sum   'Eu4 H12 Pt1 Rh1'
_cell_volume   194.85188305
_cell_formula_units_Z   1
loop_
 _symmetry_equiv_pos_site_id
 _symmetry_equiv_pos_as_xyz
  1  'x, y, z'
loop_
 _atom_site_type_symbol
 _atom_site_label
 _atom_site_symmetry_multiplicity
 _atom_site_fract_x
 _atom_site_fract_y
 _atom_site_fract_z
 _atom_site_occupancy
  Eu  Eu0  1  0.646179  0.353821  0.000000  1
  Eu  Eu1  1  0.353821  0.646179  0.000000  1
  Eu  Eu2  1  0.855593  0.144407  0.500000  1
  Eu  Eu3  1  0.144407  0.855593  0.500000  1
  H  H4  1  0.874119  0.125881  0.000000  1
  H  H5  1  0.125881  0.874119  0.000000  1
  H  H6  1  0.625079  0.374921  0.500000  1
  H  H7  1  0.374921  0.625079  0.500000  1
  H  H8  1  0.999114  0.500964  0.254160  1
  H  H9  1  0.000886  0.499036  0.745840  1
  H  H10  1  0.499036  0.000886  0.745840  1
  H  H11  1  0.500964  0.999114  0.254160  1
  H  H12  1  0.228555  0.228555  0.229826  1
  H  H13  1  0.771445  0.771445  0.770174  1
  H  H14  1  0.246653  0.246653  0.757807  1
  H  H15  1  0.753347  0.753347  0.242193  1
  Pt  Pt16  1  0.500000  0.500000  0.500000  1
  Rh  Rh17  1  0.000000  0.000000  0.000000  1
