# generated using pymatgen
data_AcAl5CoNi
_symmetry_space_group_name_H-M   'P 1'
_cell_length_a   6.39391534
_cell_length_b   6.39391449
_cell_length_c   6.39391405
_cell_angle_alpha   142.86818960
_cell_angle_beta   112.34587859
_cell_angle_gamma   79.77897923
_symmetry_Int_Tables_number   1
_chemical_formula_structural   AcAl5CoNi
_chemical_formula_sum   'Ac1 Al5 Co1 Ni1'
_cell_volume   142.19831226
_cell_formula_units_Z   1
loop_
 _symmetry_equiv_pos_site_id
 _symmetry_equiv_pos_as_xyz
  1  'x, y, z'
loop_
 _atom_site_type_symbol
 _atom_site_label
 _atom_site_symmetry_multiplicity
 _atom_site_fract_x
 _atom_site_fract_y
 _atom_site_fract_z
 _atom_site_occupancy
  Ac  Ac0  1  0.999170  0.999170  0.000000  1
  Al  Al1  1  0.500484  0.000484  0.500000  1
  Al  Al2  1  0.148142  0.337284  0.810859  1
  Al  Al3  1  0.849401  0.663329  0.186072  1
  Al  Al4  1  0.477257  0.663329  0.813928  1
  Al  Al5  1  0.526425  0.337284  0.189141  1
  Co  Co6  1  0.733808  0.233808  0.500000  1
  Ni  Ni7  1  0.265313  0.765313  0.500000  1
