# generated using pymatgen
data_Sr2AgO3
_symmetry_space_group_name_H-M   'P 1'
_cell_length_a   5.49267638
_cell_length_b   13.62878929
_cell_length_c   5.49267137
_cell_angle_alpha   80.45941228
_cell_angle_beta   79.83917379
_cell_angle_gamma   99.54062009
_symmetry_Int_Tables_number   1
_chemical_formula_structural   Sr2AgO3
_chemical_formula_sum   'Sr8 Ag4 O12'
_cell_volume   390.99150364
_cell_formula_units_Z   4
loop_
 _symmetry_equiv_pos_site_id
 _symmetry_equiv_pos_as_xyz
  1  'x, y, z'
loop_
 _atom_site_type_symbol
 _atom_site_label
 _atom_site_symmetry_multiplicity
 _atom_site_fract_x
 _atom_site_fract_y
 _atom_site_fract_z
 _atom_site_occupancy
  Sr  Sr0  1  0.573938  0.149052  0.925998  1
  Sr  Sr1  1  0.823953  0.648976  0.176066  1
  Sr  Sr2  1  0.074037  0.149061  0.425966  1
  Sr  Sr3  1  0.323891  0.648929  0.676149  1
  Sr  Sr4  1  0.676148  0.351071  0.323892  1
  Sr  Sr5  1  0.925998  0.850948  0.573939  1
  Sr  Sr6  1  0.176065  0.351024  0.823952  1
  Sr  Sr7  1  0.425966  0.850939  0.074039  1
  Ag  Ag8  1  0.500096  0.000004  0.500097  1
  Ag  Ag9  1  0.750099  0.500001  0.750089  1
  Ag  Ag10  1  0.999937  0.000001  0.999936  1
  Ag  Ag11  1  0.249857  0.500000  0.249848  1
  O  O12  1  0.250469  0.000000  0.250470  1
  O  O13  1  0.500288  0.500000  0.500286  1
  O  O14  1  0.749575  0.000000  0.749576  1
  O  O15  1  0.999684  0.499999  0.999684  1
  O  O16  1  0.668761  0.335962  0.831116  1
  O  O17  1  0.918486  0.835547  0.081458  1
  O  O18  1  0.168760  0.335736  0.331283  1
  O  O19  1  0.418730  0.835808  0.581415  1
  O  O20  1  0.581413  0.164191  0.418731  1
  O  O21  1  0.831114  0.664036  0.668762  1
  O  O22  1  0.081457  0.164453  0.918486  1
  O  O23  1  0.331281  0.664262  0.168761  1
