# generated using pymatgen
data_Y2Hf(SnRh)3
_symmetry_space_group_name_H-M   'P 1'
_cell_length_a   7.53705706
_cell_length_b   7.46318215
_cell_length_c   7.59898200
_cell_angle_alpha   90.00000000
_cell_angle_beta   90.00000000
_cell_angle_gamma   119.60682105
_symmetry_Int_Tables_number   1
_chemical_formula_structural   Y2Hf(SnRh)3
_chemical_formula_sum   'Y4 Hf2 Sn6 Rh6'
_cell_volume   371.63699379
_cell_formula_units_Z   2
loop_
 _symmetry_equiv_pos_site_id
 _symmetry_equiv_pos_as_xyz
  1  'x, y, z'
loop_
 _atom_site_type_symbol
 _atom_site_label
 _atom_site_symmetry_multiplicity
 _atom_site_fract_x
 _atom_site_fract_y
 _atom_site_fract_z
 _atom_site_occupancy
  Y  Y0  1  0.000292  0.403162  0.750000  1
  Y  Y1  1  0.589102  0.592953  0.750000  1
  Y  Y2  1  0.410015  0.003516  0.750000  1
  Y  Y3  1  0.997102  0.401646  0.250000  1
  Hf  Hf4  1  0.606283  0.600448  0.250000  1
  Hf  Hf5  1  0.395567  0.997322  0.250000  1
  Sn  Sn6  1  0.262117  0.263430  0.490884  1
  Sn  Sn7  1  0.000971  0.735052  0.502530  1
  Sn  Sn8  1  0.000971  0.735052  0.997470  1
  Sn  Sn9  1  0.737475  0.999781  0.491703  1
  Sn  Sn10  1  0.737475  0.999781  0.008297  1
  Sn  Sn11  1  0.262117  0.263430  0.009116  1
  Rh  Rh12  1  0.344927  0.676384  0.466873  1
  Rh  Rh13  1  0.655198  0.331555  0.472044  1
  Rh  Rh14  1  0.344927  0.676384  0.033127  1
  Rh  Rh15  1  0.000672  0.003107  0.750000  1
  Rh  Rh16  1  0.999591  0.985442  0.250000  1
  Rh  Rh17  1  0.655198  0.331555  0.027956  1
