# generated using pymatgen
data_TbGd7Ga3Ir
_symmetry_space_group_name_H-M   'P 1'
_cell_length_a   10.09163100
_cell_length_b   10.09163005
_cell_length_c   7.09436500
_cell_angle_alpha   90.00000000
_cell_angle_beta   90.00000000
_cell_angle_gamma   119.99999985
_symmetry_Int_Tables_number   1
_chemical_formula_structural   TbGd7Ga3Ir
_chemical_formula_sum   'Tb2 Gd14 Ga6 Ir2'
_cell_volume   625.70099352
_cell_formula_units_Z   2
loop_
 _symmetry_equiv_pos_site_id
 _symmetry_equiv_pos_as_xyz
  1  'x, y, z'
loop_
 _atom_site_type_symbol
 _atom_site_label
 _atom_site_symmetry_multiplicity
 _atom_site_fract_x
 _atom_site_fract_y
 _atom_site_fract_z
 _atom_site_occupancy
  Tb  Tb0  1  0.000000  0.000000  0.765738  1
  Tb  Tb1  1  0.000000  0.000000  0.265738  1
  Gd  Gd2  1  0.830353  0.660708  0.488488  1
  Gd  Gd3  1  0.339292  0.169647  0.488488  1
  Gd  Gd4  1  0.830353  0.169647  0.488488  1
  Gd  Gd5  1  0.169647  0.339292  0.988488  1
  Gd  Gd6  1  0.660708  0.830353  0.988488  1
  Gd  Gd7  1  0.169647  0.830353  0.988488  1
  Gd  Gd8  1  0.666667  0.333333  0.162651  1
  Gd  Gd9  1  0.333333  0.666667  0.662651  1
  Gd  Gd10  1  0.534775  0.069549  0.793732  1
  Gd  Gd11  1  0.930451  0.465225  0.793732  1
  Gd  Gd12  1  0.534775  0.465225  0.793732  1
  Gd  Gd13  1  0.465225  0.930451  0.293732  1
  Gd  Gd14  1  0.069549  0.534775  0.293732  1
  Gd  Gd15  1  0.465225  0.534775  0.293732  1
  Ga  Ga16  1  0.836094  0.672188  0.044396  1
  Ga  Ga17  1  0.327812  0.163906  0.044396  1
  Ga  Ga18  1  0.836094  0.163906  0.044396  1
  Ga  Ga19  1  0.163906  0.327812  0.544396  1
  Ga  Ga20  1  0.672188  0.836094  0.544396  1
  Ga  Ga21  1  0.163906  0.836094  0.544396  1
  Ir  Ir22  1  0.666667  0.333333  0.554799  1
  Ir  Ir23  1  0.333333  0.666667  0.054799  1
