# generated using pymatgen
data_Pr7Nd3B2Cl15
_symmetry_space_group_name_H-M   'P 1'
_cell_length_a   9.10998470
_cell_length_b   9.94643167
_cell_length_c   10.73268601
_cell_angle_alpha   90.52375799
_cell_angle_beta   114.64185296
_cell_angle_gamma   111.30777586
_symmetry_Int_Tables_number   1
_chemical_formula_structural   Pr7Nd3B2Cl15
_chemical_formula_sum   'Pr7 Nd3 B2 Cl15'
_cell_volume   808.56351517
_cell_formula_units_Z   1
loop_
 _symmetry_equiv_pos_site_id
 _symmetry_equiv_pos_as_xyz
  1  'x, y, z'
loop_
 _atom_site_type_symbol
 _atom_site_label
 _atom_site_symmetry_multiplicity
 _atom_site_fract_x
 _atom_site_fract_y
 _atom_site_fract_z
 _atom_site_occupancy
  Pr  Pr0  1  0.811957  0.420208  0.279476  1
  Pr  Pr1  1  0.188161  0.580328  0.720287  1
  Pr  Pr2  1  0.682056  0.743745  0.818112  1
  Pr  Pr3  1  0.317959  0.256082  0.182448  1
  Pr  Pr4  1  0.527384  0.699323  0.102331  1
  Pr  Pr5  1  0.472629  0.301001  0.897337  1
  Pr  Pr6  1  0.592188  0.037265  0.334934  1
  Nd  Nd7  1  0.407964  0.961839  0.666322  1
  Nd  Nd8  1  0.734261  0.078481  0.049589  1
  Nd  Nd9  1  0.265824  0.921497  0.950448  1
  B  B10  1  0.465766  0.818567  0.874427  1
  B  B11  1  0.534092  0.182306  0.124866  1
  Cl  Cl12  1  0.000017  0.000050  0.999883  1
  Cl  Cl13  1  0.633166  0.884857  0.587283  1
  Cl  Cl14  1  0.365129  0.115227  0.414356  1
  Cl  Cl15  1  0.882295  0.299415  0.523016  1
  Cl  Cl16  1  0.119960  0.702878  0.478097  1
  Cl  Cl17  1  0.294983  0.766556  0.179653  1
  Cl  Cl18  1  0.702508  0.231150  0.818478  1
  Cl  Cl19  1  0.053207  0.343170  0.225835  1
  Cl  Cl20  1  0.169573  0.055806  0.706611  1
  Cl  Cl21  1  0.832280  0.943283  0.292418  1
  Cl  Cl22  1  0.235472  0.410331  0.945926  1
  Cl  Cl23  1  0.764473  0.589559  0.053908  1
  Cl  Cl24  1  0.406737  0.468248  0.659906  1
  Cl  Cl25  1  0.593272  0.531960  0.339977  1
  Cl  Cl26  1  0.946687  0.656867  0.774076  1
