# generated using pymatgen
data_YbCdIr4(PbO7)2
_symmetry_space_group_name_H-M   'P 1'
_cell_length_a   7.28002623
_cell_length_b   7.23689950
_cell_length_c   7.23690002
_cell_angle_alpha   60.62626849
_cell_angle_beta   60.77058818
_cell_angle_gamma   60.77058874
_symmetry_Int_Tables_number   1
_chemical_formula_structural   YbCdIr4(PbO7)2
_chemical_formula_sum   'Yb1 Cd1 Ir4 Pb2 O14'
_cell_volume   273.99645640
_cell_formula_units_Z   1
loop_
 _symmetry_equiv_pos_site_id
 _symmetry_equiv_pos_as_xyz
  1  'x, y, z'
loop_
 _atom_site_type_symbol
 _atom_site_label
 _atom_site_symmetry_multiplicity
 _atom_site_fract_x
 _atom_site_fract_y
 _atom_site_fract_z
 _atom_site_occupancy
  Yb  Yb0  1  0.625000  0.125000  0.125000  1
  Cd  Cd1  1  0.125000  0.125000  0.125000  1
  Ir  Ir2  1  0.125000  0.625000  0.625000  1
  Ir  Ir3  1  0.625000  0.125000  0.625000  1
  Ir  Ir4  1  0.625000  0.625000  0.125000  1
  Ir  Ir5  1  0.625000  0.625000  0.625000  1
  Pb  Pb6  1  0.125000  0.625000  0.125000  1
  Pb  Pb7  1  0.125000  0.125000  0.625000  1
  O  O8  1  0.709985  0.698433  0.297501  1
  O  O9  1  0.299646  0.300850  0.690603  1
  O  O10  1  0.709985  0.297501  0.698433  1
  O  O11  1  0.299646  0.690603  0.300850  1
  O  O12  1  0.295324  0.706055  0.706055  1
  O  O13  1  0.698083  0.300097  0.300097  1
  O  O14  1  0.540015  0.551567  0.952499  1
  O  O15  1  0.950354  0.949150  0.559397  1
  O  O16  1  0.540015  0.952499  0.551567  1
  O  O17  1  0.950354  0.559397  0.949150  1
  O  O18  1  0.954676  0.543945  0.543945  1
  O  O19  1  0.551917  0.949903  0.949903  1
  O  O20  1  0.249001  0.244061  0.244061  1
  O  O21  1  0.000999  0.005939  0.005939  1
