# generated using pymatgen
data_Th4Ga18IrOs5
_symmetry_space_group_name_H-M   'P 1'
_cell_length_a   7.66574867
_cell_length_b   7.66576444
_cell_length_c   9.60748552
_cell_angle_alpha   89.90632495
_cell_angle_beta   89.90631336
_cell_angle_gamma   119.84629920
_symmetry_Int_Tables_number   1
_chemical_formula_structural   Th4Ga18IrOs5
_chemical_formula_sum   'Th4 Ga18 Ir1 Os5'
_cell_volume   489.68709024
_cell_formula_units_Z   1
loop_
 _symmetry_equiv_pos_site_id
 _symmetry_equiv_pos_as_xyz
  1  'x, y, z'
loop_
 _atom_site_type_symbol
 _atom_site_label
 _atom_site_symmetry_multiplicity
 _atom_site_fract_x
 _atom_site_fract_y
 _atom_site_fract_z
 _atom_site_occupancy
  Th  Th0  1  0.997089  0.667328  0.248368  1
  Th  Th1  1  0.002911  0.332672  0.751632  1
  Th  Th2  1  0.667327  0.997087  0.248369  1
  Th  Th3  1  0.332673  0.002913  0.751631  1
  Ga  Ga4  1  0.131033  0.131033  0.249135  1
  Ga  Ga5  1  0.868967  0.868967  0.750865  1
  Ga  Ga6  1  0.006029  0.334208  0.076619  1
  Ga  Ga7  1  0.993971  0.665792  0.923381  1
  Ga  Ga8  1  0.994427  0.664728  0.576752  1
  Ga  Ga9  1  0.335272  0.005573  0.423248  1
  Ga  Ga10  1  0.005573  0.335272  0.423248  1
  Ga  Ga11  1  0.664728  0.994427  0.576752  1
  Ga  Ga12  1  0.665792  0.993971  0.923381  1
  Ga  Ga13  1  0.334208  0.006029  0.076619  1
  Ga  Ga14  1  0.339593  0.339593  0.557858  1
  Ga  Ga15  1  0.660407  0.660407  0.442142  1
  Ga  Ga16  1  0.661773  0.661774  0.057148  1
  Ga  Ga17  1  0.338227  0.338226  0.942852  1
  Ga  Ga18  1  0.337042  0.543551  0.249951  1
  Ga  Ga19  1  0.662958  0.456449  0.750049  1
  Ga  Ga20  1  0.543551  0.337042  0.249951  1
  Ga  Ga21  1  0.456449  0.662958  0.750049  1
  Ir  Ir22  1  0.000000  0.000000  0.500000  1
  Os  Os23  1  0.673397  0.326603  0.000001  1
  Os  Os24  1  0.326603  0.673397  0.999999  1
  Os  Os25  1  0.326847  0.673153  0.500001  1
  Os  Os26  1  0.673153  0.326847  0.499999  1
  Os  Os27  1  0.000000  0.000000  0.000000  1
