# generated using pymatgen
data_Li4La3Si3P
_symmetry_space_group_name_H-M   'P 1'
_cell_length_a   4.43924829
_cell_length_b   6.86181710
_cell_length_c   8.42970718
_cell_angle_alpha   114.01664948
_cell_angle_beta   105.26655487
_cell_angle_gamma   89.99999606
_symmetry_Int_Tables_number   1
_chemical_formula_structural   Li4La3Si3P
_chemical_formula_sum   'Li4 La3 Si3 P1'
_cell_volume   224.59322733
_cell_formula_units_Z   1
loop_
 _symmetry_equiv_pos_site_id
 _symmetry_equiv_pos_as_xyz
  1  'x, y, z'
loop_
 _atom_site_type_symbol
 _atom_site_label
 _atom_site_symmetry_multiplicity
 _atom_site_fract_x
 _atom_site_fract_y
 _atom_site_fract_z
 _atom_site_occupancy
  Li  Li0  1  0.671329  0.982428  0.342655  1
  Li  Li1  1  0.328966  0.018778  0.657934  1
  Li  Li2  1  0.328966  0.639155  0.657934  1
  Li  Li3  1  0.671329  0.360227  0.342655  1
  La  La4  1  0.999880  0.999880  0.999760  1
  La  La5  1  0.132913  0.632913  0.265826  1
  La  La6  1  0.867854  0.367854  0.735708  1
  Si  Si7  1  0.499704  0.675337  0.999409  1
  Si  Si8  1  0.499704  0.324072  0.999409  1
  Si  Si9  1  0.786929  0.786929  0.573856  1
  P  P10  1  0.212426  0.212426  0.424852  1
