# generated using pymatgen
data_Ti10BeGaSn6
_symmetry_space_group_name_H-M   'P 1'
_cell_length_a   8.21104500
_cell_length_b   8.21104476
_cell_length_c   5.51437300
_cell_angle_alpha   90.00000000
_cell_angle_beta   90.00000000
_cell_angle_gamma   120.00000498
_symmetry_Int_Tables_number   1
_chemical_formula_structural   Ti10BeGaSn6
_chemical_formula_sum   'Ti10 Be1 Ga1 Sn6'
_cell_volume   321.97607432
_cell_formula_units_Z   1
loop_
 _symmetry_equiv_pos_site_id
 _symmetry_equiv_pos_as_xyz
  1  'x, y, z'
loop_
 _atom_site_type_symbol
 _atom_site_label
 _atom_site_symmetry_multiplicity
 _atom_site_fract_x
 _atom_site_fract_y
 _atom_site_fract_z
 _atom_site_occupancy
  Ti  Ti0  1  0.740364  0.740364  0.762372  1
  Ti  Ti1  1  0.259636  0.000000  0.762372  1
  Ti  Ti2  1  0.000000  0.259636  0.762372  1
  Ti  Ti3  1  0.259636  0.259636  0.237628  1
  Ti  Ti4  1  0.740364  0.000000  0.237628  1
  Ti  Ti5  1  0.000000  0.740364  0.237628  1
  Ti  Ti6  1  0.666667  0.333333  0.000000  1
  Ti  Ti7  1  0.333333  0.666667  0.000000  1
  Ti  Ti8  1  0.333333  0.666667  0.500000  1
  Ti  Ti9  1  0.666667  0.333333  0.500000  1
  Be  Be10  1  0.000000  0.000000  0.000000  1
  Ga  Ga11  1  0.000000  0.000000  0.500000  1
  Sn  Sn12  1  0.388415  0.388415  0.746288  1
  Sn  Sn13  1  0.611585  0.000000  0.746288  1
  Sn  Sn14  1  0.000000  0.611585  0.746288  1
  Sn  Sn15  1  0.611585  0.611585  0.253712  1
  Sn  Sn16  1  0.388415  0.000000  0.253712  1
  Sn  Sn17  1  0.000000  0.388415  0.253712  1
