# generated using pymatgen
data_TbNd2Dy17Sn16
_symmetry_space_group_name_H-M   'P 1'
_cell_length_a   8.03944982
_cell_length_b   8.23156044
_cell_length_c   15.56572700
_cell_angle_alpha   90.00849877
_cell_angle_beta   88.44757970
_cell_angle_gamma   89.49730349
_symmetry_Int_Tables_number   1
_chemical_formula_structural   TbNd2Dy17Sn16
_chemical_formula_sum   'Tb1 Nd2 Dy17 Sn16'
_cell_volume   1029.67869592
_cell_formula_units_Z   1
loop_
 _symmetry_equiv_pos_site_id
 _symmetry_equiv_pos_as_xyz
  1  'x, y, z'
loop_
 _atom_site_type_symbol
 _atom_site_label
 _atom_site_symmetry_multiplicity
 _atom_site_fract_x
 _atom_site_fract_y
 _atom_site_fract_z
 _atom_site_occupancy
  Tb  Tb0  1  0.010739  0.181356  0.404514  1
  Nd  Nd1  1  0.989039  0.821017  0.596335  1
  Nd  Nd2  1  0.512585  0.323770  0.403714  1
  Dy  Dy3  1  0.368411  0.837773  0.121046  1
  Dy  Dy4  1  0.143498  0.335627  0.623087  1
  Dy  Dy5  1  0.478065  0.677066  0.901696  1
  Dy  Dy6  1  0.867200  0.660520  0.119724  1
  Dy  Dy7  1  0.133088  0.338094  0.879506  1
  Dy  Dy8  1  0.194813  0.501694  0.247579  1
  Dy  Dy9  1  0.694035  0.998253  0.247783  1
  Dy  Dy10  1  0.484692  0.677122  0.598748  1
  Dy  Dy11  1  0.306682  0.001693  0.753100  1
  Dy  Dy12  1  0.645733  0.167508  0.626378  1
  Dy  Dy13  1  0.805356  0.498618  0.752339  1
  Dy  Dy14  1  0.857542  0.663664  0.376386  1
  Dy  Dy15  1  0.019814  0.179452  0.096633  1
  Dy  Dy16  1  0.977588  0.819742  0.900261  1
  Dy  Dy17  1  0.631431  0.160984  0.878044  1
  Dy  Dy18  1  0.522525  0.321564  0.098373  1
  Dy  Dy19  1  0.354963  0.836143  0.373281  1
  Sn  Sn20  1  0.803196  0.463246  0.542958  1
  Sn  Sn21  1  0.686992  0.960250  0.459491  1
  Sn  Sn22  1  0.672698  0.852087  0.750093  1
  Sn  Sn23  1  0.195815  0.544711  0.459998  1
  Sn  Sn24  1  0.288694  0.033068  0.957961  1
  Sn  Sn25  1  0.828435  0.352496  0.250108  1
  Sn  Sn26  1  0.789493  0.461992  0.957940  1
  Sn  Sn27  1  0.561764  0.620161  0.247908  1
  Sn  Sn28  1  0.211527  0.535616  0.041541  1
  Sn  Sn29  1  0.438742  0.381341  0.752072  1
  Sn  Sn30  1  0.175893  0.644988  0.750322  1
  Sn  Sn31  1  0.942209  0.121700  0.750795  1
  Sn  Sn32  1  0.315634  0.036530  0.542190  1
  Sn  Sn33  1  0.709776  0.964739  0.041173  1
  Sn  Sn34  1  0.323563  0.146650  0.248664  1
  Sn  Sn35  1  0.057769  0.878767  0.248263  1
