# generated using pymatgen
data_SnHg14P8PbBr12
_symmetry_space_group_name_H-M   'P 1'
_cell_length_a   12.82800900
_cell_length_b   12.82747400
_cell_length_c   12.82777400
_cell_angle_alpha   90.00000000
_cell_angle_beta   90.00040199
_cell_angle_gamma   90.00000000
_symmetry_Int_Tables_number   1
_chemical_formula_structural   SnHg14P8PbBr12
_chemical_formula_sum   'Sn2 Hg28 P16 Pb2 Br24'
_cell_volume   2110.82242268
_cell_formula_units_Z   2
loop_
 _symmetry_equiv_pos_site_id
 _symmetry_equiv_pos_as_xyz
  1  'x, y, z'
loop_
 _atom_site_type_symbol
 _atom_site_label
 _atom_site_symmetry_multiplicity
 _atom_site_fract_x
 _atom_site_fract_y
 _atom_site_fract_z
 _atom_site_occupancy
  Sn  Sn0  1  0.759590  0.240562  0.740492  1
  Sn  Sn1  1  0.240410  0.740562  0.759508  1
  Hg  Hg2  1  0.677874  0.399235  0.078137  1
  Hg  Hg3  1  0.250950  0.429812  0.504257  1
  Hg  Hg4  1  0.538447  0.538171  0.538096  1
  Hg  Hg5  1  0.248783  0.570700  0.002806  1
  Hg  Hg6  1  0.749050  0.929812  0.995743  1
  Hg  Hg7  1  0.601110  0.577542  0.822261  1
  Hg  Hg8  1  0.751217  0.070700  0.497194  1
  Hg  Hg9  1  0.997239  0.749045  0.929263  1
  Hg  Hg10  1  0.928816  0.997106  0.748940  1
  Hg  Hg11  1  0.038005  0.961739  0.461672  1
  Hg  Hg12  1  0.430330  0.504154  0.251105  1
  Hg  Hg13  1  0.569670  0.004154  0.248895  1
  Hg  Hg14  1  0.421428  0.322708  0.898570  1
  Hg  Hg15  1  0.322126  0.899235  0.421863  1
  Hg  Hg16  1  0.002761  0.249045  0.570737  1
  Hg  Hg17  1  0.398890  0.077542  0.677739  1
  Hg  Hg18  1  0.177278  0.102262  0.922407  1
  Hg  Hg19  1  0.071184  0.497106  0.751060  1
  Hg  Hg20  1  0.822722  0.602262  0.577593  1
  Hg  Hg21  1  0.101848  0.921811  0.177418  1
  Hg  Hg22  1  0.077137  0.677856  0.398440  1
  Hg  Hg23  1  0.461553  0.038171  0.961904  1
  Hg  Hg24  1  0.495694  0.751219  0.070160  1
  Hg  Hg25  1  0.578572  0.822708  0.601430  1
  Hg  Hg26  1  0.961995  0.461739  0.038328  1
  Hg  Hg27  1  0.504306  0.251219  0.429840  1
  Hg  Hg28  1  0.898152  0.421811  0.322582  1
  Hg  Hg29  1  0.922863  0.177856  0.101560  1
  P  P30  1  0.147682  0.852183  0.352339  1
  P  P31  1  0.352211  0.147655  0.852191  1
  P  P32  1  0.928489  0.071650  0.571712  1
  P  P33  1  0.571861  0.928288  0.071651  1
  P  P34  1  0.030862  0.030764  0.031010  1
  P  P35  1  0.647789  0.647655  0.647809  1
  P  P36  1  0.428139  0.428288  0.428349  1
  P  P37  1  0.469162  0.969071  0.530676  1
  P  P38  1  0.530838  0.469071  0.969324  1
  P  P39  1  0.931680  0.931472  0.931159  1
  P  P40  1  0.068320  0.431472  0.568841  1
  P  P41  1  0.852318  0.352183  0.147661  1
  P  P42  1  0.071511  0.571650  0.928288  1
  P  P43  1  0.969138  0.530764  0.468990  1
  P  P44  1  0.431165  0.568610  0.068308  1
  P  P45  1  0.568835  0.068610  0.431692  1
  Pb  Pb46  1  0.738232  0.762049  0.238056  1
  Pb  Pb47  1  0.261768  0.262049  0.261944  1
  Br  Br48  1  0.808706  0.442458  0.794951  1
  Br  Br49  1  0.315160  0.476438  0.759890  1
  Br  Br50  1  0.204343  0.310950  0.052642  1
  Br  Br51  1  0.260403  0.185633  0.522628  1
  Br  Br52  1  0.947245  0.704090  0.188994  1
  Br  Br53  1  0.240189  0.814598  0.023152  1
  Br  Br54  1  0.311373  0.052673  0.204142  1
  Br  Br55  1  0.023265  0.239605  0.814633  1
  Br  Br56  1  0.704802  0.190906  0.942438  1
  Br  Br57  1  0.739597  0.685633  0.977372  1
  Br  Br58  1  0.522498  0.259856  0.185650  1
  Br  Br59  1  0.295198  0.690906  0.557562  1
  Br  Br60  1  0.557382  0.294941  0.690967  1
  Br  Br61  1  0.477502  0.759856  0.314350  1
  Br  Br62  1  0.052755  0.204090  0.311006  1
  Br  Br63  1  0.684840  0.976438  0.740110  1
  Br  Br64  1  0.795657  0.810950  0.447358  1
  Br  Br65  1  0.442618  0.794941  0.809033  1
  Br  Br66  1  0.191294  0.942458  0.705049  1
  Br  Br67  1  0.813810  0.022188  0.239674  1
  Br  Br68  1  0.759811  0.314598  0.476848  1
  Br  Br69  1  0.186190  0.522188  0.260326  1
  Br  Br70  1  0.976735  0.739605  0.685367  1
  Br  Br71  1  0.688627  0.552673  0.295858  1
