# generated using pymatgen
data_Tb4Ho2NbCo17P12
_symmetry_space_group_name_H-M   'P 1'
_cell_length_a   3.69980700
_cell_length_b   10.56789200
_cell_length_c   12.26841000
_cell_angle_alpha   90.00311511
_cell_angle_beta   90.00000000
_cell_angle_gamma   90.00000000
_symmetry_Int_Tables_number   1
_chemical_formula_structural   Tb4Ho2NbCo17P12
_chemical_formula_sum   'Tb4 Ho2 Nb1 Co17 P12'
_cell_volume   479.68453496
_cell_formula_units_Z   1
loop_
 _symmetry_equiv_pos_site_id
 _symmetry_equiv_pos_as_xyz
  1  'x, y, z'
loop_
 _atom_site_type_symbol
 _atom_site_label
 _atom_site_symmetry_multiplicity
 _atom_site_fract_x
 _atom_site_fract_y
 _atom_site_fract_z
 _atom_site_occupancy
  Tb  Tb0  1  0.000000  0.500196  0.526780  1
  Tb  Tb1  1  0.500000  0.999762  0.477828  1
  Tb  Tb2  1  0.500000  0.180166  0.207220  1
  Tb  Tb3  1  0.000000  0.317278  0.795770  1
  Ho  Ho4  1  0.500000  0.819662  0.207418  1
  Ho  Ho5  1  0.000000  0.682936  0.795620  1
  Nb  Nb6  1  0.500000  0.500382  0.154107  1
  Co  Co7  1  0.000000  0.999736  0.838630  1
  Co  Co8  1  0.500000  0.500700  0.702304  1
  Co  Co9  1  0.000000  0.999127  0.295854  1
  Co  Co10  1  0.000000  0.500734  0.984099  1
  Co  Co11  1  0.500000  0.999322  0.014381  1
  Co  Co12  1  0.500000  0.329895  0.989221  1
  Co  Co13  1  0.500000  0.670781  0.989070  1
  Co  Co14  1  0.000000  0.163378  0.003850  1
  Co  Co15  1  0.000000  0.835938  0.003731  1
  Co  Co16  1  0.500000  0.294976  0.433161  1
  Co  Co17  1  0.500000  0.705093  0.433082  1
  Co  Co18  1  0.000000  0.201823  0.570199  1
  Co  Co19  1  0.000000  0.797979  0.570393  1
  Co  Co20  1  0.500000  0.879500  0.708912  1
  Co  Co21  1  0.500000  0.119789  0.708672  1
  Co  Co22  1  0.000000  0.623347  0.294167  1
  Co  Co23  1  0.000000  0.377558  0.294621  1
  P  P24  1  0.500000  0.500835  0.881042  1
  P  P25  1  0.000000  0.999159  0.116657  1
  P  P26  1  0.500000  0.499956  0.354999  1
  P  P27  1  0.000000  0.000028  0.656105  1
  P  P28  1  0.500000  0.309266  0.617094  1
  P  P29  1  0.500000  0.690935  0.617694  1
  P  P30  1  0.000000  0.188485  0.386247  1
  P  P31  1  0.000000  0.811276  0.385771  1
  P  P32  1  0.500000  0.851049  0.889913  1
  P  P33  1  0.500000  0.148115  0.890549  1
  P  P34  1  0.000000  0.661510  0.102871  1
  P  P35  1  0.000000  0.339327  0.101973  1
