# generated using pymatgen
data_Y4Th2VCo17P12
_symmetry_space_group_name_H-M   'P 1'
_cell_length_a   3.72641000
_cell_length_b   10.56818500
_cell_length_c   12.22436100
_cell_angle_alpha   90.00000000
_cell_angle_beta   90.00000000
_cell_angle_gamma   90.00000000
_symmetry_Int_Tables_number   1
_chemical_formula_structural   Y4Th2VCo17P12
_chemical_formula_sum   'Y4 Th2 V1 Co17 P12'
_cell_volume   481.41233129
_cell_formula_units_Z   1
loop_
 _symmetry_equiv_pos_site_id
 _symmetry_equiv_pos_as_xyz
  1  'x, y, z'
loop_
 _atom_site_type_symbol
 _atom_site_label
 _atom_site_symmetry_multiplicity
 _atom_site_fract_x
 _atom_site_fract_y
 _atom_site_fract_z
 _atom_site_occupancy
  Y  Y0  1  0.500000  0.816564  0.204344  1
  Y  Y1  1  0.500000  0.183436  0.204344  1
  Y  Y2  1  0.000000  0.683609  0.797756  1
  Y  Y3  1  0.000000  0.316391  0.797756  1
  Th  Th4  1  0.000000  0.500000  0.526251  1
  Th  Th5  1  0.500000  0.000000  0.475246  1
  V  V6  1  0.500000  0.500000  0.150718  1
  Co  Co7  1  0.000000  0.000000  0.843762  1
  Co  Co8  1  0.500000  0.500000  0.701272  1
  Co  Co9  1  0.000000  0.000000  0.297337  1
  Co  Co10  1  0.000000  0.500000  0.985607  1
  Co  Co11  1  0.500000  0.000000  0.014695  1
  Co  Co12  1  0.500000  0.332698  0.993219  1
  Co  Co13  1  0.500000  0.667302  0.993219  1
  Co  Co14  1  0.000000  0.166179  0.006029  1
  Co  Co15  1  0.000000  0.833821  0.006029  1
  Co  Co16  1  0.500000  0.297861  0.430119  1
  Co  Co17  1  0.500000  0.702139  0.430119  1
  Co  Co18  1  0.000000  0.201229  0.569870  1
  Co  Co19  1  0.000000  0.798771  0.569870  1
  Co  Co20  1  0.500000  0.880264  0.712438  1
  Co  Co21  1  0.500000  0.119736  0.712438  1
  Co  Co22  1  0.000000  0.620070  0.288196  1
  Co  Co23  1  0.000000  0.379930  0.288196  1
  P  P24  1  0.500000  0.500000  0.881228  1
  P  P25  1  0.000000  0.000000  0.117594  1
  P  P26  1  0.500000  0.500000  0.340908  1
  P  P27  1  0.000000  0.000000  0.662018  1
  P  P28  1  0.500000  0.305576  0.618785  1
  P  P29  1  0.500000  0.694424  0.618785  1
  P  P30  1  0.000000  0.194107  0.381938  1
  P  P31  1  0.000000  0.805893  0.381938  1
  P  P32  1  0.500000  0.848196  0.894285  1
  P  P33  1  0.500000  0.151804  0.894285  1
  P  P34  1  0.000000  0.654525  0.104702  1
  P  P35  1  0.000000  0.345475  0.104702  1
