# generated using pymatgen
data_Er4ScIrAu2
_symmetry_space_group_name_H-M   'P 1'
_cell_length_a   11.10557500
_cell_length_b   11.10557500
_cell_length_c   6.25326800
_cell_angle_alpha   90.00000000
_cell_angle_beta   90.00000000
_cell_angle_gamma   90.00000000
_symmetry_Int_Tables_number   1
_chemical_formula_structural   Er4ScIrAu2
_chemical_formula_sum   'Er16 Sc4 Ir4 Au8'
_cell_volume   771.23928035
_cell_formula_units_Z   4
loop_
 _symmetry_equiv_pos_site_id
 _symmetry_equiv_pos_as_xyz
  1  'x, y, z'
loop_
 _atom_site_type_symbol
 _atom_site_label
 _atom_site_symmetry_multiplicity
 _atom_site_fract_x
 _atom_site_fract_y
 _atom_site_fract_z
 _atom_site_occupancy
  Er  Er0  1  0.295643  0.084289  0.365521  1
  Er  Er1  1  0.295643  0.915711  0.865521  1
  Er  Er2  1  0.704357  0.084289  0.865521  1
  Er  Er3  1  0.704357  0.915711  0.365521  1
  Er  Er4  1  0.584289  0.795643  0.865521  1
  Er  Er5  1  0.584289  0.204357  0.365521  1
  Er  Er6  1  0.415711  0.795643  0.365521  1
  Er  Er7  1  0.415711  0.204357  0.865521  1
  Er  Er8  1  0.204357  0.415711  0.634479  1
  Er  Er9  1  0.204357  0.584289  0.134479  1
  Er  Er10  1  0.795643  0.415711  0.134479  1
  Er  Er11  1  0.795643  0.584289  0.634479  1
  Er  Er12  1  0.915711  0.704357  0.134479  1
  Er  Er13  1  0.915711  0.295643  0.634479  1
  Er  Er14  1  0.084289  0.704357  0.634479  1
  Er  Er15  1  0.084289  0.295643  0.134479  1
  Sc  Sc16  1  0.000000  0.000000  0.500000  1
  Sc  Sc17  1  0.000000  0.000000  0.000000  1
  Sc  Sc18  1  0.500000  0.500000  0.000000  1
  Sc  Sc19  1  0.500000  0.500000  0.500000  1
  Ir  Ir20  1  0.500000  0.000000  0.115082  1
  Ir  Ir21  1  0.500000  0.000000  0.615082  1
  Ir  Ir22  1  0.000000  0.500000  0.884918  1
  Ir  Ir23  1  0.000000  0.500000  0.384918  1
  Au  Au24  1  0.849380  0.150620  0.250000  1
  Au  Au25  1  0.849380  0.849380  0.750000  1
  Au  Au26  1  0.150620  0.150620  0.750000  1
  Au  Au27  1  0.150620  0.849380  0.250000  1
  Au  Au28  1  0.650620  0.349380  0.750000  1
  Au  Au29  1  0.650620  0.650620  0.250000  1
  Au  Au30  1  0.349380  0.349380  0.250000  1
  Au  Au31  1  0.349380  0.650620  0.750000  1
