# generated using pymatgen
data_Lu2Sc8(SiAs)3
_symmetry_space_group_name_H-M   'P 1'
_cell_length_a   8.03081314
_cell_length_b   7.95818702
_cell_length_c   5.81847800
_cell_angle_alpha   90.00000000
_cell_angle_beta   90.00000000
_cell_angle_gamma   119.73248893
_symmetry_Int_Tables_number   1
_chemical_formula_structural   Lu2Sc8(SiAs)3
_chemical_formula_sum   'Lu2 Sc8 Si3 As3'
_cell_volume   322.90746320
_cell_formula_units_Z   1
loop_
 _symmetry_equiv_pos_site_id
 _symmetry_equiv_pos_as_xyz
  1  'x, y, z'
loop_
 _atom_site_type_symbol
 _atom_site_label
 _atom_site_symmetry_multiplicity
 _atom_site_fract_x
 _atom_site_fract_y
 _atom_site_fract_z
 _atom_site_occupancy
  Lu  Lu0  1  0.997096  0.757387  0.750000  1
  Lu  Lu1  1  0.997174  0.237861  0.250000  1
  Sc  Sc2  1  0.749652  0.753962  0.250000  1
  Sc  Sc3  1  0.753021  0.999080  0.750000  1
  Sc  Sc4  1  0.248200  0.250599  0.750000  1
  Sc  Sc5  1  0.251658  0.001115  0.250000  1
  Sc  Sc6  1  0.335553  0.667043  0.500989  1
  Sc  Sc7  1  0.667017  0.333010  0.998974  1
  Sc  Sc8  1  0.667017  0.333010  0.501026  1
  Sc  Sc9  1  0.335553  0.667043  0.999011  1
  Si  Si10  1  0.000767  0.389045  0.750000  1
  Si  Si11  1  0.603645  0.606146  0.750000  1
  Si  Si12  1  0.602717  0.996796  0.250000  1
  As  As13  1  0.394595  0.002965  0.750000  1
  As  As14  1  0.395477  0.391619  0.250000  1
  As  As15  1  0.000854  0.613318  0.250000  1
