# generated using pymatgen
data_Th8V(Si4Ru)3
_symmetry_space_group_name_H-M   'P 1'
_cell_length_a   8.29349100
_cell_length_b   8.29349171
_cell_length_c   8.44252400
_cell_angle_alpha   90.00000000
_cell_angle_beta   90.00000000
_cell_angle_gamma   119.99999318
_symmetry_Int_Tables_number   1
_chemical_formula_structural   Th8V(Si4Ru)3
_chemical_formula_sum   'Th8 V1 Si12 Ru3'
_cell_volume   502.89550985
_cell_formula_units_Z   1
loop_
 _symmetry_equiv_pos_site_id
 _symmetry_equiv_pos_as_xyz
  1  'x, y, z'
loop_
 _atom_site_type_symbol
 _atom_site_label
 _atom_site_symmetry_multiplicity
 _atom_site_fract_x
 _atom_site_fract_y
 _atom_site_fract_z
 _atom_site_occupancy
  Th  Th0  1  0.497956  0.502044  0.750796  1
  Th  Th1  1  0.498084  0.501916  0.249171  1
  Th  Th2  1  0.004087  0.502044  0.750796  1
  Th  Th3  1  0.003833  0.501916  0.249171  1
  Th  Th4  1  0.497956  0.995913  0.750796  1
  Th  Th5  1  0.498084  0.996167  0.249171  1
  Th  Th6  1  0.000000  0.000000  0.748547  1
  Th  Th7  1  0.000000  0.000000  0.251422  1
  V  V8  1  0.666667  0.333333  0.999752  1
  Si  Si9  1  0.834262  0.165738  0.999924  1
  Si  Si10  1  0.166399  0.833601  0.000070  1
  Si  Si11  1  0.331476  0.165738  0.999924  1
  Si  Si12  1  0.165911  0.834089  0.499923  1
  Si  Si13  1  0.667200  0.833601  0.000070  1
  Si  Si14  1  0.833304  0.166696  0.500030  1
  Si  Si15  1  0.834262  0.668524  0.999924  1
  Si  Si16  1  0.668176  0.834089  0.499923  1
  Si  Si17  1  0.166399  0.332800  0.000070  1
  Si  Si18  1  0.333393  0.166696  0.500030  1
  Si  Si19  1  0.165911  0.331824  0.499923  1
  Si  Si20  1  0.833304  0.666607  0.500030  1
  Ru  Ru21  1  0.333333  0.666667  0.000230  1
  Ru  Ru22  1  0.333333  0.666667  0.499698  1
  Ru  Ru23  1  0.666667  0.333333  0.500610  1
