# generated using pymatgen
data_Pr16MgCd(HgPt2)2
_symmetry_space_group_name_H-M   'P 1'
_cell_length_a   10.06038901
_cell_length_b   10.06330499
_cell_length_c   10.06330433
_cell_angle_alpha   60.51849213
_cell_angle_beta   60.46540767
_cell_angle_gamma   60.46540362
_symmetry_Int_Tables_number   1
_chemical_formula_structural   Pr16MgCd(HgPt2)2
_chemical_formula_sum   'Pr16 Mg1 Cd1 Hg2 Pt4'
_cell_volume   728.27807265
_cell_formula_units_Z   1
loop_
 _symmetry_equiv_pos_site_id
 _symmetry_equiv_pos_as_xyz
  1  'x, y, z'
loop_
 _atom_site_type_symbol
 _atom_site_label
 _atom_site_symmetry_multiplicity
 _atom_site_fract_x
 _atom_site_fract_y
 _atom_site_fract_z
 _atom_site_occupancy
  Pr  Pr0  1  0.349764  0.350023  0.350023  1
  Pr  Pr1  1  0.350422  0.350062  0.948669  1
  Pr  Pr2  1  0.350422  0.948669  0.350062  1
  Pr  Pr3  1  0.946877  0.350947  0.350947  1
  Pr  Pr4  1  0.807089  0.194040  0.194040  1
  Pr  Pr5  1  0.189986  0.809430  0.809430  1
  Pr  Pr6  1  0.192577  0.808010  0.193427  1
  Pr  Pr7  1  0.809011  0.190942  0.809324  1
  Pr  Pr8  1  0.192577  0.193427  0.808010  1
  Pr  Pr9  1  0.809011  0.809324  0.190942  1
  Pr  Pr10  1  0.938961  0.564600  0.564600  1
  Pr  Pr11  1  0.561444  0.936533  0.936533  1
  Pr  Pr12  1  0.563451  0.940291  0.564275  1
  Pr  Pr13  1  0.935750  0.562263  0.936574  1
  Pr  Pr14  1  0.563451  0.564275  0.940291  1
  Pr  Pr15  1  0.935750  0.936574  0.562263  1
  Mg  Mg16  1  0.575693  0.574134  0.574134  1
  Cd  Cd17  1  0.259178  0.580735  0.580735  1
  Hg  Hg18  1  0.584377  0.586975  0.247509  1
  Hg  Hg19  1  0.584377  0.247509  0.586975  1
  Pt  Pt20  1  0.142940  0.143759  0.143759  1
  Pt  Pt21  1  0.142896  0.143250  0.571022  1
  Pt  Pt22  1  0.142896  0.571022  0.143250  1
  Pt  Pt23  1  0.571102  0.143202  0.143202  1
