# generated using pymatgen
data_Dy16Hg4Ir3Ru
_symmetry_space_group_name_H-M   'P 1'
_cell_length_a   9.61327520
_cell_length_b   9.61327623
_cell_length_c   9.61327519
_cell_angle_alpha   59.86031610
_cell_angle_beta   59.86031067
_cell_angle_gamma   59.86032330
_symmetry_Int_Tables_number   1
_chemical_formula_structural   Dy16Hg4Ir3Ru
_chemical_formula_sum   'Dy16 Hg4 Ir3 Ru1'
_cell_volume   626.21055835
_cell_formula_units_Z   1
loop_
 _symmetry_equiv_pos_site_id
 _symmetry_equiv_pos_as_xyz
  1  'x, y, z'
loop_
 _atom_site_type_symbol
 _atom_site_label
 _atom_site_symmetry_multiplicity
 _atom_site_fract_x
 _atom_site_fract_y
 _atom_site_fract_z
 _atom_site_occupancy
  Dy  Dy0  1  0.600207  0.600207  0.600207  1
  Dy  Dy1  1  0.600092  0.600092  0.200905  1
  Dy  Dy2  1  0.600092  0.200905  0.600092  1
  Dy  Dy3  1  0.200905  0.600092  0.600092  1
  Dy  Dy4  1  0.060913  0.439605  0.439605  1
  Dy  Dy5  1  0.438830  0.059385  0.059385  1
  Dy  Dy6  1  0.439605  0.060913  0.439605  1
  Dy  Dy7  1  0.059385  0.438830  0.059385  1
  Dy  Dy8  1  0.439605  0.439605  0.060913  1
  Dy  Dy9  1  0.059385  0.059385  0.438830  1
  Dy  Dy10  1  0.189093  0.811274  0.811274  1
  Dy  Dy11  1  0.809559  0.188647  0.188647  1
  Dy  Dy12  1  0.811274  0.189093  0.811274  1
  Dy  Dy13  1  0.188647  0.809559  0.188647  1
  Dy  Dy14  1  0.811274  0.811274  0.189093  1
  Dy  Dy15  1  0.188647  0.188647  0.809559  1
  Hg  Hg16  1  0.833949  0.833949  0.833949  1
  Hg  Hg17  1  0.834872  0.834872  0.495157  1
  Hg  Hg18  1  0.834872  0.495157  0.834872  1
  Hg  Hg19  1  0.495157  0.834872  0.834872  1
  Ir  Ir20  1  0.393631  0.393631  0.825604  1
  Ir  Ir21  1  0.393631  0.825604  0.393631  1
  Ir  Ir22  1  0.825604  0.393631  0.393631  1
  Ru  Ru23  1  0.390768  0.390768  0.390768  1
