# generated using pymatgen
data_TbY12Th3(MgCo)4
_symmetry_space_group_name_H-M   'P 1'
_cell_length_a   9.66551374
_cell_length_b   9.67994627
_cell_length_c   9.67994600
_cell_angle_alpha   60.00000092
_cell_angle_beta   59.95059402
_cell_angle_gamma   59.95059738
_symmetry_Int_Tables_number   1
_chemical_formula_structural   TbY12Th3(MgCo)4
_chemical_formula_sum   'Tb1 Y12 Th3 Mg4 Co4'
_cell_volume   639.92800660
_cell_formula_units_Z   1
loop_
 _symmetry_equiv_pos_site_id
 _symmetry_equiv_pos_as_xyz
  1  'x, y, z'
loop_
 _atom_site_type_symbol
 _atom_site_label
 _atom_site_symmetry_multiplicity
 _atom_site_fract_x
 _atom_site_fract_y
 _atom_site_fract_z
 _atom_site_occupancy
  Tb  Tb0  1  0.961011  0.346330  0.346330  1
  Y  Y1  1  0.813092  0.187143  0.187143  1
  Y  Y2  1  0.187371  0.813164  0.813164  1
  Y  Y3  1  0.187371  0.813164  0.186301  1
  Y  Y4  1  0.813092  0.187143  0.812621  1
  Y  Y5  1  0.187371  0.186301  0.813164  1
  Y  Y6  1  0.813092  0.812621  0.187143  1
  Y  Y7  1  0.935753  0.564360  0.564360  1
  Y  Y8  1  0.562867  0.936735  0.936735  1
  Y  Y9  1  0.562867  0.936735  0.563664  1
  Y  Y10  1  0.935753  0.564360  0.935527  1
  Y  Y11  1  0.562867  0.563664  0.936735  1
  Y  Y12  1  0.935753  0.935527  0.564360  1
  Th  Th13  1  0.340480  0.344871  0.344871  1
  Th  Th14  1  0.340480  0.344871  0.969778  1
  Th  Th15  1  0.340480  0.969778  0.344871  1
  Mg  Mg16  1  0.579555  0.579626  0.579626  1
  Mg  Mg17  1  0.579555  0.579626  0.261193  1
  Mg  Mg18  1  0.579555  0.261193  0.579626  1
  Mg  Mg19  1  0.257986  0.580672  0.580672  1
  Co  Co20  1  0.153119  0.139794  0.139794  1
  Co  Co21  1  0.153119  0.139794  0.567293  1
  Co  Co22  1  0.153119  0.567293  0.139794  1
  Co  Co23  1  0.564288  0.145238  0.145238  1
