# generated using pymatgen
data_Hf16Co5OsPd2
_symmetry_space_group_name_H-M   'P 1'
_cell_length_a   8.59809132
_cell_length_b   8.60123791
_cell_length_c   8.60123797
_cell_angle_alpha   60.15000750
_cell_angle_beta   59.85356668
_cell_angle_gamma   59.85356784
_symmetry_Int_Tables_number   1
_chemical_formula_structural   Hf16Co5OsPd2
_chemical_formula_sum   'Hf16 Co5 Os1 Pd2'
_cell_volume   449.29534877
_cell_formula_units_Z   1
loop_
 _symmetry_equiv_pos_site_id
 _symmetry_equiv_pos_as_xyz
  1  'x, y, z'
loop_
 _atom_site_type_symbol
 _atom_site_label
 _atom_site_symmetry_multiplicity
 _atom_site_fract_x
 _atom_site_fract_y
 _atom_site_fract_z
 _atom_site_occupancy
  Hf  Hf0  1  0.182152  0.606114  0.606114  1
  Hf  Hf1  1  0.604023  0.184379  0.605579  1
  Hf  Hf2  1  0.604023  0.605579  0.184379  1
  Hf  Hf3  1  0.607283  0.609465  0.609465  1
  Hf  Hf4  1  0.813302  0.811720  0.179997  1
  Hf  Hf5  1  0.196137  0.176360  0.812895  1
  Hf  Hf6  1  0.813302  0.179997  0.811720  1
  Hf  Hf7  1  0.196137  0.812895  0.176360  1
  Hf  Hf8  1  0.186998  0.811864  0.811864  1
  Hf  Hf9  1  0.815677  0.184913  0.184913  1
  Hf  Hf10  1  0.441208  0.441979  0.058495  1
  Hf  Hf11  1  0.056215  0.055362  0.445249  1
  Hf  Hf12  1  0.441208  0.058495  0.441979  1
  Hf  Hf13  1  0.056215  0.445249  0.055362  1
  Hf  Hf14  1  0.059123  0.440813  0.440813  1
  Hf  Hf15  1  0.448503  0.051722  0.051722  1
  Co  Co16  1  0.818645  0.395640  0.395640  1
  Co  Co17  1  0.395798  0.817382  0.397513  1
  Co  Co18  1  0.395798  0.397513  0.817382  1
  Co  Co19  1  0.392341  0.393330  0.393330  1
  Co  Co20  1  0.480134  0.845725  0.845725  1
  Os  Os21  1  0.830108  0.837895  0.837895  1
  Pd  Pd22  1  0.832837  0.499717  0.835892  1
  Pd  Pd23  1  0.832837  0.835892  0.499717  1
