# generated using pymatgen
data_Tb4Ho2Hg9Pb
_symmetry_space_group_name_H-M   'P 1'
_cell_length_a   6.39161500
_cell_length_b   6.35861463
_cell_length_c   10.24407700
_cell_angle_alpha   90.00000000
_cell_angle_beta   90.00000000
_cell_angle_gamma   104.28381560
_symmetry_Int_Tables_number   1
_chemical_formula_structural   Tb4Ho2Hg9Pb
_chemical_formula_sum   'Tb4 Ho2 Hg9 Pb1'
_cell_volume   403.46700560
_cell_formula_units_Z   1
loop_
 _symmetry_equiv_pos_site_id
 _symmetry_equiv_pos_as_xyz
  1  'x, y, z'
loop_
 _atom_site_type_symbol
 _atom_site_label
 _atom_site_symmetry_multiplicity
 _atom_site_fract_x
 _atom_site_fract_y
 _atom_site_fract_z
 _atom_site_occupancy
  Tb  Tb0  1  0.210717  0.789546  0.505806  1
  Tb  Tb1  1  0.210717  0.789546  0.994194  1
  Tb  Tb2  1  0.784918  0.204525  0.500088  1
  Tb  Tb3  1  0.784918  0.204525  0.999912  1
  Ho  Ho4  1  0.578222  0.583299  0.250000  1
  Ho  Ho5  1  0.426527  0.422669  0.750000  1
  Hg  Hg6  1  0.969641  0.969879  0.250000  1
  Hg  Hg7  1  0.029452  0.028765  0.750000  1
  Hg  Hg8  1  0.297757  0.296115  0.028369  1
  Hg  Hg9  1  0.703053  0.701534  0.969914  1
  Hg  Hg10  1  0.297757  0.296115  0.471631  1
  Hg  Hg11  1  0.703053  0.701534  0.530086  1
  Hg  Hg12  1  0.472307  0.048031  0.250000  1
  Hg  Hg13  1  0.955626  0.520032  0.750000  1
  Hg  Hg14  1  0.526888  0.959184  0.750000  1
  Pb  Pb15  1  0.048449  0.484701  0.250000  1
