# generated using pymatgen
data_Nb2Ir5Os
_symmetry_space_group_name_H-M   'P 1'
_cell_length_a   5.57299700
_cell_length_b   5.60023069
_cell_length_c   4.48917800
_cell_angle_alpha   90.00000000
_cell_angle_beta   90.00000000
_cell_angle_gamma   119.83927048
_symmetry_Int_Tables_number   1
_chemical_formula_structural   Nb2Ir5Os
_chemical_formula_sum   'Nb2 Ir5 Os1'
_cell_volume   121.53274267
_cell_formula_units_Z   1
loop_
 _symmetry_equiv_pos_site_id
 _symmetry_equiv_pos_as_xyz
  1  'x, y, z'
loop_
 _atom_site_type_symbol
 _atom_site_label
 _atom_site_symmetry_multiplicity
 _atom_site_fract_x
 _atom_site_fract_y
 _atom_site_fract_z
 _atom_site_occupancy
  Nb  Nb0  1  0.667116  0.334231  0.250000  1
  Nb  Nb1  1  0.332589  0.665178  0.750000  1
  Ir  Ir2  1  0.836495  0.164186  0.750000  1
  Ir  Ir3  1  0.327692  0.164186  0.750000  1
  Ir  Ir4  1  0.837201  0.674401  0.750000  1
  Ir  Ir5  1  0.161682  0.835540  0.250000  1
  Ir  Ir6  1  0.673857  0.835540  0.250000  1
  Os  Os7  1  0.163369  0.326739  0.250000  1
