# generated using pymatgen
data_PuNCl
_symmetry_space_group_name_H-M   'P 1'
_cell_length_a   10.39945758
_cell_length_b   10.39945777
_cell_length_c   10.39945790
_cell_angle_alpha   21.10708541
_cell_angle_beta   21.10708115
_cell_angle_gamma   21.10707967
_symmetry_Int_Tables_number   1
_chemical_formula_structural   PuNCl
_chemical_formula_sum   'Pu2 N2 Cl2'
_cell_volume   127.73810306
_cell_formula_units_Z   2
loop_
 _symmetry_equiv_pos_site_id
 _symmetry_equiv_pos_as_xyz
  1  'x, y, z'
loop_
 _atom_site_type_symbol
 _atom_site_label
 _atom_site_symmetry_multiplicity
 _atom_site_fract_x
 _atom_site_fract_y
 _atom_site_fract_z
 _atom_site_occupancy
  Pu  Pu0  1  0.879196  0.879196  0.879196  1
  Pu  Pu1  1  0.120804  0.120804  0.120804  1
  N  N2  1  0.806289  0.806289  0.806289  1
  N  N3  1  0.193711  0.193711  0.193711  1
  Cl  Cl4  1  0.605074  0.605074  0.605074  1
  Cl  Cl5  1  0.394926  0.394926  0.394926  1
