# generated using pymatgen
data_Na4TmAs12Rh19
_symmetry_space_group_name_H-M   'P 1'
_cell_length_a   13.17014427
_cell_length_b   13.12724419
_cell_length_c   3.97106000
_cell_angle_alpha   90.00000000
_cell_angle_beta   90.00000000
_cell_angle_gamma   119.89230460
_symmetry_Int_Tables_number   1
_chemical_formula_structural   Na4TmAs12Rh19
_chemical_formula_sum   'Na4 Tm1 As12 Rh19'
_cell_volume   595.21169442
_cell_formula_units_Z   1
loop_
 _symmetry_equiv_pos_site_id
 _symmetry_equiv_pos_as_xyz
  1  'x, y, z'
loop_
 _atom_site_type_symbol
 _atom_site_label
 _atom_site_symmetry_multiplicity
 _atom_site_fract_x
 _atom_site_fract_y
 _atom_site_fract_z
 _atom_site_occupancy
  Na  Na0  1  0.817270  0.816526  0.500000  1
  Na  Na1  1  0.182730  0.999256  0.500000  1
  Na  Na2  1  0.666911  0.333687  0.000000  1
  Na  Na3  1  0.333089  0.666777  0.000000  1
  Tm  Tm4  1  0.000000  0.177400  0.500000  1
  As  As5  1  0.485599  0.319018  0.500000  1
  As  As6  1  0.817496  0.995738  0.000000  1
  As  As7  1  0.182504  0.178243  0.000000  1
  As  As8  1  0.000000  0.821731  0.000000  1
  As  As9  1  0.362502  0.999762  0.000000  1
  As  As10  1  0.680334  0.167091  0.500000  1
  As  As11  1  0.833583  0.515050  0.500000  1
  As  As12  1  0.514401  0.833418  0.500000  1
  As  As13  1  0.166417  0.681467  0.500000  1
  As  As14  1  0.319666  0.486758  0.500000  1
  As  As15  1  0.000000  0.362593  0.000000  1
  As  As16  1  0.637498  0.637260  0.000000  1
  Rh  Rh17  1  0.806720  0.178158  0.000000  1
  Rh  Rh18  1  0.377929  0.198040  0.000000  1
  Rh  Rh19  1  0.644610  0.518017  0.500000  1
  Rh  Rh20  1  0.872614  0.353472  0.500000  1
  Rh  Rh21  1  0.355390  0.873406  0.500000  1
  Rh  Rh22  1  0.518254  0.645446  0.500000  1
  Rh  Rh23  1  0.127386  0.480858  0.500000  1
  Rh  Rh24  1  0.820613  0.623878  0.000000  1
  Rh  Rh25  1  0.622071  0.820109  0.000000  1
  Rh  Rh26  1  0.179387  0.803264  0.000000  1
  Rh  Rh27  1  0.193280  0.371437  0.000000  1
  Rh  Rh28  1  0.000000  0.714681  0.500000  1
  Rh  Rh29  1  0.285103  0.286699  0.500000  1
  Rh  Rh30  1  0.714897  0.001596  0.500000  1
  Rh  Rh31  1  0.000000  0.547082  0.000000  1
  Rh  Rh32  1  0.450886  0.454738  0.000000  1
  Rh  Rh33  1  0.549114  0.003852  0.000000  1
  Rh  Rh34  1  0.000000  0.006298  0.000000  1
  Rh  Rh35  1  0.481746  0.127193  0.500000  1
