# generated using pymatgen
data_Tb2Zr2Al17SiIr6
_symmetry_space_group_name_H-M   'P 1'
_cell_length_a   7.52804043
_cell_length_b   7.50493769
_cell_length_c   9.31189600
_cell_angle_alpha   90.00000000
_cell_angle_beta   90.00000000
_cell_angle_gamma   119.72266066
_symmetry_Int_Tables_number   1
_chemical_formula_structural   Tb2Zr2Al17SiIr6
_chemical_formula_sum   'Tb2 Zr2 Al17 Si1 Ir6'
_cell_volume   456.88270127
_cell_formula_units_Z   1
loop_
 _symmetry_equiv_pos_site_id
 _symmetry_equiv_pos_as_xyz
  1  'x, y, z'
loop_
 _atom_site_type_symbol
 _atom_site_label
 _atom_site_symmetry_multiplicity
 _atom_site_fract_x
 _atom_site_fract_y
 _atom_site_fract_z
 _atom_site_occupancy
  Tb  Tb0  1  0.675272  0.992432  0.250000  1
  Tb  Tb1  1  0.330077  0.005148  0.750000  1
  Zr  Zr2  1  0.992288  0.675049  0.250000  1
  Zr  Zr3  1  0.005638  0.329957  0.750000  1
  Al  Al4  1  0.875293  0.876824  0.750000  1
  Al  Al5  1  0.999585  0.338801  0.073321  1
  Al  Al6  1  0.999645  0.663450  0.926792  1
  Al  Al7  1  0.999645  0.663450  0.573208  1
  Al  Al8  1  0.334424  0.999016  0.421634  1
  Al  Al9  1  0.999585  0.338801  0.426679  1
  Al  Al10  1  0.668407  0.001126  0.576760  1
  Al  Al11  1  0.668407  0.001126  0.923240  1
  Al  Al12  1  0.334424  0.999016  0.078366  1
  Al  Al13  1  0.330533  0.333029  0.558856  1
  Al  Al14  1  0.665558  0.663304  0.444973  1
  Al  Al15  1  0.665558  0.663304  0.055027  1
  Al  Al16  1  0.330533  0.333029  0.941144  1
  Al  Al17  1  0.329124  0.547066  0.250000  1
  Al  Al18  1  0.668161  0.454023  0.750000  1
  Al  Al19  1  0.553558  0.340382  0.250000  1
  Al  Al20  1  0.448148  0.657372  0.750000  1
  Si  Si21  1  0.130393  0.128635  0.250000  1
  Ir  Ir22  1  0.670201  0.326462  0.000117  1
  Ir  Ir23  1  0.326984  0.670893  0.000576  1
  Ir  Ir24  1  0.326984  0.670893  0.499424  1
  Ir  Ir25  1  0.670201  0.326462  0.499883  1
  Ir  Ir26  1  0.000688  0.000475  0.007317  1
  Ir  Ir27  1  0.000688  0.000475  0.492683  1
