# generated using pymatgen
data_Sr4Tm(AlSb3)2
_symmetry_space_group_name_H-M   'P 1'
_cell_length_a   4.50135500
_cell_length_b   7.81591100
_cell_length_c   23.79725600
_cell_angle_alpha   90.00000000
_cell_angle_beta   90.00000000
_cell_angle_gamma   90.00000000
_symmetry_Int_Tables_number   1
_chemical_formula_structural   Sr4Tm(AlSb3)2
_chemical_formula_sum   'Sr8 Tm2 Al4 Sb12'
_cell_volume   837.23958348
_cell_formula_units_Z   2
loop_
 _symmetry_equiv_pos_site_id
 _symmetry_equiv_pos_as_xyz
  1  'x, y, z'
loop_
 _atom_site_type_symbol
 _atom_site_label
 _atom_site_symmetry_multiplicity
 _atom_site_fract_x
 _atom_site_fract_y
 _atom_site_fract_z
 _atom_site_occupancy
  Sr  Sr0  1  0.000000  0.460996  0.915868  1
  Sr  Sr1  1  0.000000  0.287347  0.749900  1
  Sr  Sr2  1  0.000000  0.787347  0.750100  1
  Sr  Sr3  1  0.000000  0.539004  0.084132  1
  Sr  Sr4  1  0.000000  0.960996  0.584132  1
  Sr  Sr5  1  0.000000  0.712653  0.250100  1
  Sr  Sr6  1  0.000000  0.039004  0.415868  1
  Sr  Sr7  1  0.000000  0.212653  0.249900  1
  Tm  Tm8  1  0.000000  0.000000  0.000000  1
  Tm  Tm9  1  0.000000  0.500000  0.500000  1
  Al  Al10  1  0.500000  0.830763  0.882104  1
  Al  Al11  1  0.500000  0.169237  0.117896  1
  Al  Al12  1  0.500000  0.669237  0.382104  1
  Al  Al13  1  0.500000  0.330763  0.617896  1
  Sb  Sb14  1  0.500000  0.769363  0.493623  1
  Sb  Sb15  1  0.000000  0.468553  0.368781  1
  Sb  Sb16  1  0.000000  0.968553  0.131219  1
  Sb  Sb17  1  0.500000  0.543817  0.815599  1
  Sb  Sb18  1  0.500000  0.456183  0.184401  1
  Sb  Sb19  1  0.000000  0.031447  0.868781  1
  Sb  Sb20  1  0.000000  0.531447  0.631219  1
  Sb  Sb21  1  0.500000  0.956183  0.315599  1
  Sb  Sb22  1  0.500000  0.230637  0.506377  1
  Sb  Sb23  1  0.500000  0.043817  0.684401  1
  Sb  Sb24  1  0.500000  0.269363  0.006377  1
  Sb  Sb25  1  0.500000  0.730637  0.993623  1
