# generated using pymatgen
data_Tb3DyLu4(B6Os)4
_symmetry_space_group_name_H-M   'P 1'
_cell_length_a   3.62521100
_cell_length_b   9.08451500
_cell_length_c   11.47751400
_cell_angle_alpha   90.00152692
_cell_angle_beta   90.00000000
_cell_angle_gamma   90.00000000
_symmetry_Int_Tables_number   1
_chemical_formula_structural   Tb3DyLu4(B6Os)4
_chemical_formula_sum   'Tb3 Dy1 Lu4 B24 Os4'
_cell_volume   377.99222475
_cell_formula_units_Z   1
loop_
 _symmetry_equiv_pos_site_id
 _symmetry_equiv_pos_as_xyz
  1  'x, y, z'
loop_
 _atom_site_type_symbol
 _atom_site_label
 _atom_site_symmetry_multiplicity
 _atom_site_fract_x
 _atom_site_fract_y
 _atom_site_fract_z
 _atom_site_occupancy
  Tb  Tb0  1  0.000000  0.321501  0.414029  1
  Tb  Tb1  1  0.000000  0.678500  0.585986  1
  Tb  Tb2  1  0.000000  0.821530  0.085952  1
  Dy  Dy3  1  0.000000  0.178589  0.914063  1
  Lu  Lu4  1  0.000000  0.944379  0.373083  1
  Lu  Lu5  1  0.000000  0.055652  0.626951  1
  Lu  Lu6  1  0.000000  0.444315  0.126823  1
  Lu  Lu7  1  0.000000  0.555544  0.873133  1
  B  B8  1  0.500000  0.554671  0.432574  1
  B  B9  1  0.500000  0.445311  0.567454  1
  B  B10  1  0.500000  0.054742  0.067236  1
  B  B11  1  0.500000  0.945533  0.932610  1
  B  B12  1  0.500000  0.749938  0.419266  1
  B  B13  1  0.500000  0.250058  0.580774  1
  B  B14  1  0.500000  0.249865  0.080509  1
  B  B15  1  0.500000  0.750115  0.919254  1
  B  B16  1  0.500000  0.792076  0.266249  1
  B  B17  1  0.500000  0.207840  0.733923  1
  B  B18  1  0.500000  0.292049  0.233681  1
  B  B19  1  0.500000  0.707958  0.766273  1
  B  B20  1  0.500000  0.630754  0.184521  1
  B  B21  1  0.500000  0.369051  0.815592  1
  B  B22  1  0.500000  0.130778  0.315442  1
  B  B23  1  0.500000  0.869266  0.684567  1
  B  B24  1  0.500000  0.983027  0.213818  1
  B  B25  1  0.500000  0.017224  0.786257  1
  B  B26  1  0.500000  0.482986  0.286128  1
  B  B27  1  0.500000  0.516950  0.713893  1
  B  B28  1  0.500000  0.603746  0.028516  1
  B  B29  1  0.500000  0.395931  0.971393  1
  B  B30  1  0.500000  0.103739  0.471492  1
  B  B31  1  0.500000  0.896276  0.528524  1
  Os  Os32  1  0.000000  0.638311  0.320075  1
  Os  Os33  1  0.000000  0.361513  0.680085  1
  Os  Os34  1  0.000000  0.138293  0.179700  1
  Os  Os35  1  0.000000  0.861989  0.820174  1
