# generated using pymatgen
data_Li8Ca3ErIn4
_symmetry_space_group_name_H-M   'P 1'
_cell_length_a   7.03661000
_cell_length_b   4.94462600
_cell_length_c   9.94763800
_cell_angle_alpha   90.00000000
_cell_angle_beta   89.99946059
_cell_angle_gamma   90.00000000
_symmetry_Int_Tables_number   1
_chemical_formula_structural   Li8Ca3ErIn4
_chemical_formula_sum   'Li8 Ca3 Er1 In4'
_cell_volume   346.11219531
_cell_formula_units_Z   1
loop_
 _symmetry_equiv_pos_site_id
 _symmetry_equiv_pos_as_xyz
  1  'x, y, z'
loop_
 _atom_site_type_symbol
 _atom_site_label
 _atom_site_symmetry_multiplicity
 _atom_site_fract_x
 _atom_site_fract_y
 _atom_site_fract_z
 _atom_site_occupancy
  Li  Li0  1  0.001383  0.750000  0.127737  1
  Li  Li1  1  0.498606  0.750000  0.127752  1
  Li  Li2  1  0.999299  0.249999  0.372863  1
  Li  Li3  1  0.500687  0.249999  0.372875  1
  Li  Li4  1  0.500219  0.750000  0.627842  1
  Li  Li5  1  0.999796  0.750000  0.627859  1
  Li  Li6  1  0.500677  0.249999  0.871537  1
  Li  Li7  1  0.999337  0.249999  0.871549  1
  Ca  Ca8  1  0.249984  0.750000  0.377361  1
  Ca  Ca9  1  0.750009  0.249999  0.621845  1
  Ca  Ca10  1  0.250016  0.750000  0.878848  1
  Er  Er11  1  0.749998  0.249999  0.121771  1
  In  In12  1  0.250000  0.249999  0.124766  1
  In  In13  1  0.750012  0.750000  0.365667  1
  In  In14  1  0.249980  0.249999  0.624573  1
  In  In15  1  0.749998  0.750000  0.885157  1
