# generated using pymatgen
data_UFe4Sb11
_symmetry_space_group_name_H-M   'P 1'
_cell_length_a   7.93874559
_cell_length_b   7.93874555
_cell_length_c   7.97781350
_cell_angle_alpha   108.93820202
_cell_angle_beta   108.62761518
_cell_angle_gamma   110.66275881
_symmetry_Int_Tables_number   1
_chemical_formula_structural   UFe4Sb11
_chemical_formula_sum   'U1 Fe4 Sb11'
_cell_volume   387.82328313
_cell_formula_units_Z   1
loop_
 _symmetry_equiv_pos_site_id
 _symmetry_equiv_pos_as_xyz
  1  'x, y, z'
loop_
 _atom_site_type_symbol
 _atom_site_label
 _atom_site_symmetry_multiplicity
 _atom_site_fract_x
 _atom_site_fract_y
 _atom_site_fract_z
 _atom_site_occupancy
  U  U0  1  0.701260  0.804060  0.505320  1
  Fe  Fe1  1  0.513959  0.531656  0.501740  1
  Fe  Fe2  1  0.496489  0.003978  0.004136  1
  Fe  Fe3  1  0.970083  0.987781  0.501740  1
  Fe  Fe4  1  0.000159  0.507648  0.004136  1
  Sb  Sb5  1  0.836719  0.496078  0.666720  1
  Sb  Sb6  1  0.507230  0.676933  0.842908  1
  Sb  Sb7  1  0.676630  0.145682  0.822313  1
  Sb  Sb8  1  0.830541  0.174078  0.332633  1
  Sb  Sb9  1  0.170642  0.830002  0.666720  1
  Sb  Sb10  1  0.165973  0.335678  0.842908  1
  Sb  Sb11  1  0.158554  0.502093  0.332633  1
  Sb  Sb12  1  0.351015  0.160781  0.511796  1
  Sb  Sb13  1  0.478225  0.324086  0.147443  1
  Sb  Sb14  1  0.319163  0.850249  0.169411  1
  Sb  Sb15  1  0.823359  0.669218  0.147443  1
