# generated using pymatgen
data_Pr4GaGePd28
_symmetry_space_group_name_H-M   'P 1'
_cell_length_a   8.99868900
_cell_length_b   8.99868900
_cell_length_c   7.25996300
_cell_angle_alpha   90.00000000
_cell_angle_beta   90.00000000
_cell_angle_gamma   90.00000000
_symmetry_Int_Tables_number   1
_chemical_formula_structural   Pr4GaGePd28
_chemical_formula_sum   'Pr4 Ga1 Ge1 Pd28'
_cell_volume   587.88569487
_cell_formula_units_Z   1
loop_
 _symmetry_equiv_pos_site_id
 _symmetry_equiv_pos_as_xyz
  1  'x, y, z'
loop_
 _atom_site_type_symbol
 _atom_site_label
 _atom_site_symmetry_multiplicity
 _atom_site_fract_x
 _atom_site_fract_y
 _atom_site_fract_z
 _atom_site_occupancy
  Pr  Pr0  1  0.500000  0.000000  0.935875  1
  Pr  Pr1  1  0.000000  0.500000  0.063366  1
  Pr  Pr2  1  0.000000  0.000000  0.499739  1
  Pr  Pr3  1  0.500000  0.500000  0.499739  1
  Ga  Ga4  1  0.500000  0.000000  0.449484  1
  Ge  Ge5  1  0.000000  0.500000  0.550421  1
  Pd  Pd6  1  0.328989  0.828989  0.622532  1
  Pd  Pd7  1  0.328989  0.171011  0.622532  1
  Pd  Pd8  1  0.671011  0.828989  0.622532  1
  Pd  Pd9  1  0.671011  0.171011  0.622532  1
  Pd  Pd10  1  0.169593  0.669593  0.378533  1
  Pd  Pd11  1  0.169593  0.330407  0.378533  1
  Pd  Pd12  1  0.830407  0.669593  0.378533  1
  Pd  Pd13  1  0.830407  0.330407  0.378533  1
  Pd  Pd14  1  0.500000  0.765575  0.252369  1
  Pd  Pd15  1  0.500000  0.234425  0.252369  1
  Pd  Pd16  1  0.265575  0.000000  0.252369  1
  Pd  Pd17  1  0.734425  0.000000  0.252369  1
  Pd  Pd18  1  0.000000  0.732847  0.746859  1
  Pd  Pd19  1  0.000000  0.267153  0.746859  1
  Pd  Pd20  1  0.232847  0.500000  0.746859  1
  Pd  Pd21  1  0.767153  0.500000  0.746859  1
  Pd  Pd22  1  0.500000  0.348913  0.857510  1
  Pd  Pd23  1  0.500000  0.651087  0.857510  1
  Pd  Pd24  1  0.848913  0.000000  0.857510  1
  Pd  Pd25  1  0.151087  0.000000  0.857510  1
  Pd  Pd26  1  0.000000  0.151475  0.142158  1
  Pd  Pd27  1  0.000000  0.848525  0.142158  1
  Pd  Pd28  1  0.651475  0.500000  0.142158  1
  Pd  Pd29  1  0.348525  0.500000  0.142158  1
  Pd  Pd30  1  0.250059  0.750059  0.000384  1
  Pd  Pd31  1  0.250059  0.249941  0.000384  1
  Pd  Pd32  1  0.749941  0.750059  0.000384  1
  Pd  Pd33  1  0.749941  0.249941  0.000384  1
