# generated using pymatgen
data_Dy4Mg(GaB4)2
_symmetry_space_group_name_H-M   'P 1'
_cell_length_a   7.19607000
_cell_length_b   7.19607000
_cell_length_c   8.03129200
_cell_angle_alpha   90.00000000
_cell_angle_beta   90.00000000
_cell_angle_gamma   90.00000000
_symmetry_Int_Tables_number   1
_chemical_formula_structural   Dy4Mg(GaB4)2
_chemical_formula_sum   'Dy8 Mg2 Ga4 B16'
_cell_volume   415.88779445
_cell_formula_units_Z   2
loop_
 _symmetry_equiv_pos_site_id
 _symmetry_equiv_pos_as_xyz
  1  'x, y, z'
loop_
 _atom_site_type_symbol
 _atom_site_label
 _atom_site_symmetry_multiplicity
 _atom_site_fract_x
 _atom_site_fract_y
 _atom_site_fract_z
 _atom_site_occupancy
  Dy  Dy0  1  0.682232  0.182232  0.226568  1
  Dy  Dy1  1  0.317768  0.817768  0.773432  1
  Dy  Dy2  1  0.317768  0.817768  0.226568  1
  Dy  Dy3  1  0.817768  0.682232  0.226568  1
  Dy  Dy4  1  0.817768  0.682232  0.773432  1
  Dy  Dy5  1  0.682232  0.182232  0.773432  1
  Dy  Dy6  1  0.182232  0.317768  0.773432  1
  Dy  Dy7  1  0.182232  0.317768  0.226568  1
  Mg  Mg8  1  0.000000  0.000000  0.500000  1
  Mg  Mg9  1  0.500000  0.500000  0.500000  1
  Ga  Ga10  1  0.121387  0.621387  0.500000  1
  Ga  Ga11  1  0.878613  0.378613  0.500000  1
  Ga  Ga12  1  0.378613  0.121387  0.500000  1
  Ga  Ga13  1  0.621387  0.878613  0.500000  1
  B  B14  1  0.172762  0.040319  0.000000  1
  B  B15  1  0.827238  0.959681  0.000000  1
  B  B16  1  0.959681  0.172762  0.000000  1
  B  B17  1  0.327238  0.540319  0.000000  1
  B  B18  1  0.040319  0.827238  0.000000  1
  B  B19  1  0.672762  0.459681  0.000000  1
  B  B20  1  0.540319  0.672762  0.000000  1
  B  B21  1  0.459681  0.327238  0.000000  1
  B  B22  1  0.089787  0.589787  0.000000  1
  B  B23  1  0.910213  0.410213  0.000000  1
  B  B24  1  0.410213  0.089787  0.000000  1
  B  B25  1  0.589787  0.910213  0.000000  1
  B  B26  1  0.000000  0.000000  0.160162  1
  B  B27  1  0.000000  0.000000  0.839838  1
  B  B28  1  0.500000  0.500000  0.839838  1
  B  B29  1  0.500000  0.500000  0.160162  1
