# generated using pymatgen
data_SmCo2(B2Ru)2
_symmetry_space_group_name_H-M   'P 1'
_cell_length_a   7.24979900
_cell_length_b   7.24979900
_cell_length_c   3.91714800
_cell_angle_alpha   90.00000000
_cell_angle_beta   90.00000000
_cell_angle_gamma   90.00000000
_symmetry_Int_Tables_number   1
_chemical_formula_structural   SmCo2(B2Ru)2
_chemical_formula_sum   'Sm2 Co4 B8 Ru4'
_cell_volume   205.88367538
_cell_formula_units_Z   2
loop_
 _symmetry_equiv_pos_site_id
 _symmetry_equiv_pos_as_xyz
  1  'x, y, z'
loop_
 _atom_site_type_symbol
 _atom_site_label
 _atom_site_symmetry_multiplicity
 _atom_site_fract_x
 _atom_site_fract_y
 _atom_site_fract_z
 _atom_site_occupancy
  Sm  Sm0  1  0.000000  0.000000  0.915669  1
  Sm  Sm1  1  0.500000  0.500000  0.415669  1
  Co  Co2  1  0.117753  0.377929  0.622511  1
  Co  Co3  1  0.882247  0.622071  0.622511  1
  Co  Co4  1  0.122071  0.617753  0.122511  1
  Co  Co5  1  0.877929  0.382247  0.122511  1
  B  B6  1  0.818206  0.657187  0.119426  1
  B  B7  1  0.181794  0.342813  0.119426  1
  B  B8  1  0.842813  0.318206  0.619426  1
  B  B9  1  0.157187  0.681794  0.619426  1
  B  B10  1  0.728536  0.825747  0.402092  1
  B  B11  1  0.271464  0.174253  0.402092  1
  B  B12  1  0.674253  0.228536  0.902092  1
  B  B13  1  0.325747  0.771464  0.902092  1
  Ru  Ru14  1  0.390195  0.159246  0.898137  1
  Ru  Ru15  1  0.609805  0.840754  0.898137  1
  Ru  Ru16  1  0.340754  0.890195  0.398137  1
  Ru  Ru17  1  0.659246  0.109805  0.398137  1
