# generated using pymatgen
data_Nd8HoLuPb6
_symmetry_space_group_name_H-M   'P 1'
_cell_length_a   9.30875700
_cell_length_b   9.30875672
_cell_length_c   6.82911800
_cell_angle_alpha   90.00000000
_cell_angle_beta   90.00000000
_cell_angle_gamma   119.99999746
_symmetry_Int_Tables_number   1
_chemical_formula_structural   Nd8HoLuPb6
_chemical_formula_sum   'Nd8 Ho1 Lu1 Pb6'
_cell_volume   512.48202026
_cell_formula_units_Z   1
loop_
 _symmetry_equiv_pos_site_id
 _symmetry_equiv_pos_as_xyz
  1  'x, y, z'
loop_
 _atom_site_type_symbol
 _atom_site_label
 _atom_site_symmetry_multiplicity
 _atom_site_fract_x
 _atom_site_fract_y
 _atom_site_fract_z
 _atom_site_occupancy
  Nd  Nd0  1  0.333333  0.666667  0.500000  1
  Nd  Nd1  1  0.666667  0.333333  0.500000  1
  Nd  Nd2  1  0.759691  0.759846  0.751860  1
  Nd  Nd3  1  0.240154  0.999845  0.751860  1
  Nd  Nd4  1  0.000155  0.240309  0.751860  1
  Nd  Nd5  1  0.240154  0.240309  0.248140  1
  Nd  Nd6  1  0.759691  0.999845  0.248140  1
  Nd  Nd7  1  0.000155  0.759846  0.248140  1
  Ho  Ho8  1  0.666667  0.333333  0.000000  1
  Lu  Lu9  1  0.333333  0.666667  0.000000  1
  Pb  Pb10  1  0.396079  0.396786  0.757640  1
  Pb  Pb11  1  0.603214  0.999293  0.757640  1
  Pb  Pb12  1  0.000707  0.603921  0.757640  1
  Pb  Pb13  1  0.603214  0.603921  0.242360  1
  Pb  Pb14  1  0.396079  0.999293  0.242360  1
  Pb  Pb15  1  0.000707  0.396786  0.242360  1
