# generated using pymatgen
data_ErPa3(Pt2Pb)2
_symmetry_space_group_name_H-M   'P 1'
_cell_length_a   7.94323578
_cell_length_b   7.94323703
_cell_length_c   3.62612800
_cell_angle_alpha   90.00000000
_cell_angle_beta   90.00000000
_cell_angle_gamma   89.70161311
_symmetry_Int_Tables_number   1
_chemical_formula_structural   ErPa3(Pt2Pb)2
_chemical_formula_sum   'Er1 Pa3 Pt4 Pb2'
_cell_volume   228.78746044
_cell_formula_units_Z   1
loop_
 _symmetry_equiv_pos_site_id
 _symmetry_equiv_pos_as_xyz
  1  'x, y, z'
loop_
 _atom_site_type_symbol
 _atom_site_label
 _atom_site_symmetry_multiplicity
 _atom_site_fract_x
 _atom_site_fract_y
 _atom_site_fract_z
 _atom_site_occupancy
  Er  Er0  1  0.327543  0.827543  0.500000  1
  Pa  Pa1  1  0.669106  0.169106  0.500000  1
  Pa  Pa2  1  0.172710  0.328075  0.500000  1
  Pa  Pa3  1  0.828075  0.672710  0.500000  1
  Pt  Pt4  1  0.376700  0.133525  0.000000  1
  Pt  Pt5  1  0.118733  0.618733  0.000000  1
  Pt  Pt6  1  0.633525  0.876700  0.000000  1
  Pt  Pt7  1  0.867805  0.367805  0.000000  1
  Pb  Pb8  1  0.009397  0.996406  0.000000  1
  Pb  Pb9  1  0.496406  0.509397  0.000000  1
