# generated using pymatgen
data_HoEr(Tc2P)4
_symmetry_space_group_name_H-M   'P 1'
_cell_length_a   7.40428201
_cell_length_b   7.40428201
_cell_length_c   3.94967600
_cell_angle_alpha   90.00000000
_cell_angle_beta   90.00000000
_cell_angle_gamma   89.99467612
_symmetry_Int_Tables_number   1
_chemical_formula_structural   HoEr(Tc2P)4
_chemical_formula_sum   'Ho1 Er1 Tc8 P4'
_cell_volume   216.53463490
_cell_formula_units_Z   1
loop_
 _symmetry_equiv_pos_site_id
 _symmetry_equiv_pos_as_xyz
  1  'x, y, z'
loop_
 _atom_site_type_symbol
 _atom_site_label
 _atom_site_symmetry_multiplicity
 _atom_site_fract_x
 _atom_site_fract_y
 _atom_site_fract_z
 _atom_site_occupancy
  Ho  Ho0  1  0.500000  0.500000  0.000000  1
  Er  Er1  1  0.000000  0.000000  0.500000  1
  Tc  Tc2  1  0.582692  0.160880  0.500000  1
  Tc  Tc3  1  0.417308  0.839120  0.500000  1
  Tc  Tc4  1  0.082533  0.338835  0.000000  1
  Tc  Tc5  1  0.917467  0.661165  0.000000  1
  Tc  Tc6  1  0.160880  0.582692  0.500000  1
  Tc  Tc7  1  0.839120  0.417308  0.500000  1
  Tc  Tc8  1  0.338835  0.082533  0.000000  1
  Tc  Tc9  1  0.661165  0.917467  0.000000  1
  P  P10  1  0.712098  0.712098  0.500000  1
  P  P11  1  0.287902  0.287902  0.500000  1
  P  P12  1  0.211865  0.788135  0.000000  1
  P  P13  1  0.788135  0.211865  0.000000  1
