# generated using pymatgen
data_CdTcBr18
_symmetry_space_group_name_H-M   'P 1'
_cell_length_a   9.32208865
_cell_length_b   9.33398064
_cell_length_c   9.31186319
_cell_angle_alpha   87.66046486
_cell_angle_beta   87.78539135
_cell_angle_gamma   88.00474787
_symmetry_Int_Tables_number   1
_chemical_formula_structural   CdTcBr18
_chemical_formula_sum   'Cd1 Tc1 Br18'
_cell_volume   808.51718553
_cell_formula_units_Z   1
loop_
 _symmetry_equiv_pos_site_id
 _symmetry_equiv_pos_as_xyz
  1  'x, y, z'
loop_
 _atom_site_type_symbol
 _atom_site_label
 _atom_site_symmetry_multiplicity
 _atom_site_fract_x
 _atom_site_fract_y
 _atom_site_fract_z
 _atom_site_occupancy
  Cd  Cd0  1  0.000000  0.000000  0.000000  1
  Tc  Tc1  1  0.500000  0.500000  0.500000  1
  Br  Br2  1  0.769742  0.470683  0.512727  1
  Br  Br3  1  0.514394  0.769543  0.469158  1
  Br  Br4  1  0.471537  0.514834  0.770234  1
  Br  Br5  1  0.230258  0.529317  0.487273  1
  Br  Br6  1  0.485606  0.230457  0.530842  1
  Br  Br7  1  0.528463  0.485166  0.229766  1
  Br  Br8  1  0.889462  0.379526  0.758851  1
  Br  Br9  1  0.760297  0.889686  0.378840  1
  Br  Br10  1  0.379196  0.759949  0.889274  1
  Br  Br11  1  0.110538  0.620474  0.241149  1
  Br  Br12  1  0.239703  0.110314  0.621160  1
  Br  Br13  1  0.620804  0.240051  0.110726  1
  Br  Br14  1  0.028484  0.969366  0.700133  1
  Br  Br15  1  0.699827  0.030148  0.970308  1
  Br  Br16  1  0.969605  0.699442  0.030598  1
  Br  Br17  1  0.971516  0.030634  0.299867  1
  Br  Br18  1  0.300173  0.969852  0.029692  1
  Br  Br19  1  0.030395  0.300558  0.969402  1
