# generated using pymatgen
data_Li2Yb2YAlGe3
_symmetry_space_group_name_H-M   'P 1'
_cell_length_a   7.10227855
_cell_length_b   7.15796585
_cell_length_c   4.29767000
_cell_angle_alpha   90.00000000
_cell_angle_beta   90.00000000
_cell_angle_gamma   120.72147071
_symmetry_Int_Tables_number   1
_chemical_formula_structural   Li2Yb2YAlGe3
_chemical_formula_sum   'Li2 Yb2 Y1 Al1 Ge3'
_cell_volume   187.82247490
_cell_formula_units_Z   1
loop_
 _symmetry_equiv_pos_site_id
 _symmetry_equiv_pos_as_xyz
  1  'x, y, z'
loop_
 _atom_site_type_symbol
 _atom_site_label
 _atom_site_symmetry_multiplicity
 _atom_site_fract_x
 _atom_site_fract_y
 _atom_site_fract_z
 _atom_site_occupancy
  Li  Li0  1  0.239834  0.997624  0.500000  1
  Li  Li1  1  0.996907  0.236424  0.500000  1
  Yb  Yb2  1  0.421804  0.422689  0.000000  1
  Yb  Yb3  1  0.574170  0.007408  0.000000  1
  Y  Y4  1  0.007426  0.579666  0.000000  1
  Al  Al5  1  0.754326  0.753809  0.500000  1
  Ge  Ge6  1  0.338823  0.668979  0.500000  1
  Ge  Ge7  1  0.678524  0.349827  0.500000  1
  Ge  Ge8  1  0.988186  0.983575  0.000000  1
