# generated using pymatgen
data_LaYb3(Ce2Ru3)2
_symmetry_space_group_name_H-M   'P 1'
_cell_length_a   8.15585719
_cell_length_b   8.12502914
_cell_length_c   6.04924880
_cell_angle_alpha   77.75419721
_cell_angle_beta   74.90203055
_cell_angle_gamma   117.27981713
_symmetry_Int_Tables_number   1
_chemical_formula_structural   LaYb3(Ce2Ru3)2
_chemical_formula_sum   'La1 Yb3 Ce4 Ru6'
_cell_volume   317.27747685
_cell_formula_units_Z   1
loop_
 _symmetry_equiv_pos_site_id
 _symmetry_equiv_pos_as_xyz
  1  'x, y, z'
loop_
 _atom_site_type_symbol
 _atom_site_label
 _atom_site_symmetry_multiplicity
 _atom_site_fract_x
 _atom_site_fract_y
 _atom_site_fract_z
 _atom_site_occupancy
  La  La0  1  0.885088  0.618009  0.147673  1
  Yb  Yb1  1  0.339318  0.330463  0.304766  1
  Yb  Yb2  1  0.105038  0.384128  0.845166  1
  Yb  Yb3  1  0.376913  0.098383  0.854062  1
  Ce  Ce4  1  0.166056  0.824140  0.492755  1
  Ce  Ce5  1  0.649721  0.657130  0.700606  1
  Ce  Ce6  1  0.846563  0.168786  0.488176  1
  Ce  Ce7  1  0.632366  0.910386  0.134196  1
  Ru  Ru8  1  0.787322  0.443487  0.740050  1
  Ru  Ru9  1  0.992860  0.006936  0.256029  1
  Ru  Ru10  1  0.441168  0.791894  0.750917  1
  Ru  Ru11  1  0.592356  0.152675  0.262149  1
  Ru  Ru12  1  0.993677  0.001088  0.756248  1
  Ru  Ru13  1  0.191557  0.612496  0.267205  1
