# generated using pymatgen
data_Ho4InPd8Pt3
_symmetry_space_group_name_H-M   'P 1'
_cell_length_a   4.19531800
_cell_length_b   5.85196488
_cell_length_c   11.64048573
_cell_angle_alpha   87.00969183
_cell_angle_beta   90.00000000
_cell_angle_gamma   90.00000000
_symmetry_Int_Tables_number   1
_chemical_formula_structural   Ho4InPd8Pt3
_chemical_formula_sum   'Ho4 In1 Pd8 Pt3'
_cell_volume   285.39473026
_cell_formula_units_Z   1
loop_
 _symmetry_equiv_pos_site_id
 _symmetry_equiv_pos_as_xyz
  1  'x, y, z'
loop_
 _atom_site_type_symbol
 _atom_site_label
 _atom_site_symmetry_multiplicity
 _atom_site_fract_x
 _atom_site_fract_y
 _atom_site_fract_z
 _atom_site_occupancy
  Ho  Ho0  1  0.500000  0.756187  0.376148  1
  Ho  Ho1  1  0.500000  0.710403  0.859875  1
  Ho  Ho2  1  0.500000  0.289597  0.140125  1
  Ho  Ho3  1  0.500000  0.243813  0.623852  1
  In  In4  1  0.000000  0.000000  0.000000  1
  Pd  Pd5  1  0.000000  0.016407  0.249995  1
  Pd  Pd6  1  0.000000  0.983593  0.750005  1
  Pd  Pd7  1  0.000000  0.500000  0.500000  1
  Pd  Pd8  1  0.500000  0.255883  0.378198  1
  Pd  Pd9  1  0.500000  0.221072  0.882332  1
  Pd  Pd10  1  0.500000  0.778928  0.117668  1
  Pd  Pd11  1  0.500000  0.744117  0.621802  1
  Pd  Pd12  1  0.000000  0.000000  0.500000  1
  Pt  Pt13  1  0.000000  0.500000  0.000000  1
  Pt  Pt14  1  0.000000  0.521640  0.251089  1
  Pt  Pt15  1  0.000000  0.478360  0.748911  1
