# generated using pymatgen
data_Hf6Al2CN
_symmetry_space_group_name_H-M   'P 1'
_cell_length_a   5.94427786
_cell_length_b   5.94427758
_cell_length_c   8.94011391
_cell_angle_alpha   89.91081494
_cell_angle_beta   90.08918421
_cell_angle_gamma   147.15218774
_symmetry_Int_Tables_number   1
_chemical_formula_structural   Hf6Al2CN
_chemical_formula_sum   'Hf6 Al2 C1 N1'
_cell_volume   171.34361221
_cell_formula_units_Z   1
loop_
 _symmetry_equiv_pos_site_id
 _symmetry_equiv_pos_as_xyz
  1  'x, y, z'
loop_
 _atom_site_type_symbol
 _atom_site_label
 _atom_site_symmetry_multiplicity
 _atom_site_fract_x
 _atom_site_fract_y
 _atom_site_fract_z
 _atom_site_occupancy
  Hf  Hf0  1  0.628813  0.371187  0.457319  1
  Hf  Hf1  1  0.371187  0.628813  0.542681  1
  Hf  Hf2  1  0.627542  0.372458  0.040458  1
  Hf  Hf3  1  0.372458  0.627542  0.959542  1
  Hf  Hf4  1  0.956890  0.043110  0.249870  1
  Hf  Hf5  1  0.043110  0.956890  0.750130  1
  Al  Al6  1  0.251257  0.748743  0.247896  1
  Al  Al7  1  0.748743  0.251257  0.752104  1
  C  C8  1  0.000000  0.000000  0.500000  1
  N  N9  1  0.000000  0.000000  0.000000  1
