# generated using pymatgen
data_BaAgAu(SO4)4
_symmetry_space_group_name_H-M   'P 1'
_cell_length_a   6.84029917
_cell_length_b   6.84029976
_cell_length_c   9.38561515
_cell_angle_alpha   73.19087894
_cell_angle_beta   73.19087204
_cell_angle_gamma   85.60380678
_symmetry_Int_Tables_number   1
_chemical_formula_structural   BaAgAu(SO4)4
_chemical_formula_sum   'Ba1 Ag1 Au1 S4 O16'
_cell_volume   402.41339287
_cell_formula_units_Z   1
loop_
 _symmetry_equiv_pos_site_id
 _symmetry_equiv_pos_as_xyz
  1  'x, y, z'
loop_
 _atom_site_type_symbol
 _atom_site_label
 _atom_site_symmetry_multiplicity
 _atom_site_fract_x
 _atom_site_fract_y
 _atom_site_fract_z
 _atom_site_occupancy
  Ba  Ba0  1  0.000000  0.000000  0.000000  1
  Ag  Ag1  1  0.500000  0.500000  0.500000  1
  Au  Au2  1  0.000000  0.000000  0.500000  1
  S  S3  1  0.089180  0.593641  0.729997  1
  S  S4  1  0.593641  0.089180  0.729997  1
  S  S5  1  0.910820  0.406359  0.270003  1
  S  S6  1  0.406359  0.910820  0.270003  1
  O  O7  1  0.320423  0.626611  0.668206  1
  O  O8  1  0.626611  0.320423  0.668206  1
  O  O9  1  0.679577  0.373389  0.331794  1
  O  O10  1  0.373389  0.679577  0.331794  1
  O  O11  1  0.023833  0.699336  0.849688  1
  O  O12  1  0.699336  0.023833  0.849688  1
  O  O13  1  0.976167  0.300664  0.150312  1
  O  O14  1  0.300664  0.976167  0.150312  1
  O  O15  1  0.992378  0.690763  0.595542  1
  O  O16  1  0.690763  0.992378  0.595542  1
  O  O17  1  0.007622  0.309237  0.404458  1
  O  O18  1  0.309237  0.007622  0.404458  1
  O  O19  1  0.034896  0.378749  0.776451  1
  O  O20  1  0.378749  0.034896  0.776451  1
  O  O21  1  0.965104  0.621251  0.223549  1
  O  O22  1  0.621251  0.965104  0.223549  1
