# generated using pymatgen
data_Tb3Dy17(FeHg3)2
_symmetry_space_group_name_H-M   'P 1'
_cell_length_a   9.57444600
_cell_length_b   9.57444646
_cell_length_c   9.63945200
_cell_angle_alpha   90.00000000
_cell_angle_beta   90.00000000
_cell_angle_gamma   119.99999839
_symmetry_Int_Tables_number   1
_chemical_formula_structural   Tb3Dy17(FeHg3)2
_chemical_formula_sum   'Tb3 Dy17 Fe2 Hg6'
_cell_volume   765.26229001
_cell_formula_units_Z   1
loop_
 _symmetry_equiv_pos_site_id
 _symmetry_equiv_pos_as_xyz
  1  'x, y, z'
loop_
 _atom_site_type_symbol
 _atom_site_label
 _atom_site_symmetry_multiplicity
 _atom_site_fract_x
 _atom_site_fract_y
 _atom_site_fract_z
 _atom_site_occupancy
  Tb  Tb0  1  0.458314  0.541686  0.750000  1
  Tb  Tb1  1  0.458314  0.916628  0.750000  1
  Tb  Tb2  1  0.083372  0.541686  0.750000  1
  Dy  Dy3  1  0.000000  0.000000  0.500154  1
  Dy  Dy4  1  0.000000  0.000000  0.999846  1
  Dy  Dy5  1  0.541871  0.458129  0.250000  1
  Dy  Dy6  1  0.541871  0.083742  0.250000  1
  Dy  Dy7  1  0.916258  0.458129  0.250000  1
  Dy  Dy8  1  0.212141  0.787859  0.435343  1
  Dy  Dy9  1  0.212141  0.424281  0.435343  1
  Dy  Dy10  1  0.575719  0.787859  0.435343  1
  Dy  Dy11  1  0.787884  0.212116  0.564176  1
  Dy  Dy12  1  0.787884  0.575767  0.564176  1
  Dy  Dy13  1  0.424233  0.212116  0.564176  1
  Dy  Dy14  1  0.787884  0.212116  0.935824  1
  Dy  Dy15  1  0.787884  0.575767  0.935824  1
  Dy  Dy16  1  0.424233  0.212116  0.935824  1
  Dy  Dy17  1  0.212141  0.787859  0.064657  1
  Dy  Dy18  1  0.212141  0.424281  0.064657  1
  Dy  Dy19  1  0.575719  0.787859  0.064657  1
  Fe  Fe20  1  0.333333  0.666667  0.250000  1
  Fe  Fe21  1  0.666667  0.333333  0.750000  1
  Hg  Hg22  1  0.882396  0.117604  0.250000  1
  Hg  Hg23  1  0.882396  0.764791  0.250000  1
  Hg  Hg24  1  0.235209  0.117604  0.250000  1
  Hg  Hg25  1  0.117451  0.882549  0.750000  1
  Hg  Hg26  1  0.117451  0.234903  0.750000  1
  Hg  Hg27  1  0.765097  0.882549  0.750000  1
