# generated using pymatgen
data_Hf6MgAl15Pt6Rh
_symmetry_space_group_name_H-M   'P 1'
_cell_length_a   8.76517779
_cell_length_b   8.76517714
_cell_length_c   8.76073502
_cell_angle_alpha   59.98321738
_cell_angle_beta   59.98322130
_cell_angle_gamma   60.00000434
_symmetry_Int_Tables_number   1
_chemical_formula_structural   Hf6MgAl15Pt6Rh
_chemical_formula_sum   'Hf6 Mg1 Al15 Pt6 Rh1'
_cell_volume   475.81353024
_cell_formula_units_Z   1
loop_
 _symmetry_equiv_pos_site_id
 _symmetry_equiv_pos_as_xyz
  1  'x, y, z'
loop_
 _atom_site_type_symbol
 _atom_site_label
 _atom_site_symmetry_multiplicity
 _atom_site_fract_x
 _atom_site_fract_y
 _atom_site_fract_z
 _atom_site_occupancy
  Hf  Hf0  1  0.679923  0.679923  0.319796  1
  Hf  Hf1  1  0.320358  0.679923  0.319796  1
  Hf  Hf2  1  0.679923  0.320358  0.319796  1
  Hf  Hf3  1  0.317822  0.317822  0.682009  1
  Hf  Hf4  1  0.682349  0.317822  0.682009  1
  Hf  Hf5  1  0.317822  0.682349  0.682009  1
  Mg  Mg6  1  0.882732  0.882732  0.351803  1
  Al  Al7  1  0.881032  0.355625  0.882311  1
  Al  Al8  1  0.355625  0.881032  0.882311  1
  Al  Al9  1  0.881032  0.881032  0.882311  1
  Al  Al10  1  0.119235  0.119235  0.642294  1
  Al  Al11  1  0.118269  0.644907  0.118556  1
  Al  Al12  1  0.644907  0.118269  0.118556  1
  Al  Al13  1  0.118269  0.118269  0.118556  1
  Al  Al14  1  0.664077  0.664077  0.007767  1
  Al  Al15  1  0.664557  0.007482  0.663403  1
  Al  Al16  1  0.007482  0.664557  0.663403  1
  Al  Al17  1  0.664557  0.664557  0.663403  1
  Al  Al18  1  0.335660  0.335660  0.993022  1
  Al  Al19  1  0.336357  0.992133  0.335154  1
  Al  Al20  1  0.992133  0.336357  0.335154  1
  Al  Al21  1  0.336357  0.336357  0.335154  1
  Pt  Pt22  1  0.001061  0.001061  0.505166  1
  Pt  Pt23  1  0.492711  0.001061  0.505166  1
  Pt  Pt24  1  0.001061  0.492711  0.505166  1
  Pt  Pt25  1  0.500463  0.500463  0.999297  1
  Pt  Pt26  1  0.999778  0.500463  0.999297  1
  Pt  Pt27  1  0.500463  0.999778  0.999297  1
  Rh  Rh28  1  0.003987  0.003987  0.988040  1
