# generated using pymatgen
data_Lu6Zn23Si
_symmetry_space_group_name_H-M   'P 1'
_cell_length_a   8.97539828
_cell_length_b   8.97539811
_cell_length_c   8.97539800
_cell_angle_alpha   60.00000042
_cell_angle_beta   60.00000103
_cell_angle_gamma   60.00000221
_symmetry_Int_Tables_number   1
_chemical_formula_structural   Lu6Zn23Si
_chemical_formula_sum   'Lu6 Zn23 Si1'
_cell_volume   511.26513853
_cell_formula_units_Z   1
loop_
 _symmetry_equiv_pos_site_id
 _symmetry_equiv_pos_as_xyz
  1  'x, y, z'
loop_
 _atom_site_type_symbol
 _atom_site_label
 _atom_site_symmetry_multiplicity
 _atom_site_fract_x
 _atom_site_fract_y
 _atom_site_fract_z
 _atom_site_occupancy
  Lu  Lu0  1  0.715023  0.284977  0.284977  1
  Lu  Lu1  1  0.715023  0.284977  0.715023  1
  Lu  Lu2  1  0.715023  0.715023  0.284977  1
  Lu  Lu3  1  0.284977  0.715023  0.715023  1
  Lu  Lu4  1  0.284977  0.715023  0.284977  1
  Lu  Lu5  1  0.284977  0.284977  0.715023  1
  Zn  Zn6  1  0.623993  0.125336  0.125336  1
  Zn  Zn7  1  0.125336  0.623993  0.125336  1
  Zn  Zn8  1  0.125336  0.125336  0.623993  1
  Zn  Zn9  1  0.125336  0.125336  0.125336  1
  Zn  Zn10  1  0.376007  0.874664  0.874664  1
  Zn  Zn11  1  0.874664  0.376007  0.874664  1
  Zn  Zn12  1  0.874664  0.874664  0.376007  1
  Zn  Zn13  1  0.874664  0.874664  0.874664  1
  Zn  Zn14  1  0.500000  0.000000  0.000000  1
  Zn  Zn15  1  0.500000  0.000000  0.500000  1
  Zn  Zn16  1  0.500000  0.500000  0.000000  1
  Zn  Zn17  1  0.000000  0.500000  0.500000  1
  Zn  Zn18  1  0.000000  0.500000  0.000000  1
  Zn  Zn19  1  0.000000  0.000000  0.500000  1
  Zn  Zn20  1  0.000000  0.000000  0.000000  1
  Zn  Zn21  1  0.004891  0.331703  0.331703  1
  Zn  Zn22  1  0.331703  0.004891  0.331703  1
  Zn  Zn23  1  0.331703  0.331703  0.004891  1
  Zn  Zn24  1  0.331703  0.331703  0.331703  1
  Zn  Zn25  1  0.995109  0.668297  0.668297  1
  Zn  Zn26  1  0.668297  0.995109  0.668297  1
  Zn  Zn27  1  0.668297  0.668297  0.995109  1
  Zn  Zn28  1  0.668297  0.668297  0.668297  1
  Si  Si29  1  0.500000  0.500000  0.500000  1
