# generated using pymatgen
data_Zr2Si2IrAu
_symmetry_space_group_name_H-M   'P 1'
_cell_length_a   3.95751300
_cell_length_b   6.68889800
_cell_length_c   7.66013800
_cell_angle_alpha   90.00000000
_cell_angle_beta   90.00000000
_cell_angle_gamma   90.00000000
_symmetry_Int_Tables_number   1
_chemical_formula_structural   Zr2Si2IrAu
_chemical_formula_sum   'Zr4 Si4 Ir2 Au2'
_cell_volume   202.77458311
_cell_formula_units_Z   2
loop_
 _symmetry_equiv_pos_site_id
 _symmetry_equiv_pos_as_xyz
  1  'x, y, z'
loop_
 _atom_site_type_symbol
 _atom_site_label
 _atom_site_symmetry_multiplicity
 _atom_site_fract_x
 _atom_site_fract_y
 _atom_site_fract_z
 _atom_site_occupancy
  Zr  Zr0  1  0.250000  0.020647  0.319115  1
  Zr  Zr1  1  0.250000  0.520647  0.180885  1
  Zr  Zr2  1  0.750000  0.972404  0.674089  1
  Zr  Zr3  1  0.750000  0.472404  0.825911  1
  Si  Si4  1  0.250000  0.259677  0.606782  1
  Si  Si5  1  0.250000  0.759677  0.893218  1
  Si  Si6  1  0.750000  0.733647  0.361147  1
  Si  Si7  1  0.750000  0.233647  0.138853  1
  Ir  Ir8  1  0.750000  0.861221  0.056053  1
  Ir  Ir9  1  0.750000  0.361221  0.443947  1
  Au  Au10  1  0.250000  0.152404  0.930582  1
  Au  Au11  1  0.250000  0.652404  0.569418  1
