# generated using pymatgen
data_Ho7Zn(Co3Sn11)2
_symmetry_space_group_name_H-M   'P 1'
_cell_length_a   9.65895300
_cell_length_b   9.65895217
_cell_length_c   9.94700500
_cell_angle_alpha   90.00000000
_cell_angle_beta   90.00000000
_cell_angle_gamma   119.99999942
_symmetry_Int_Tables_number   1
_chemical_formula_structural   Ho7Zn(Co3Sn11)2
_chemical_formula_sum   'Ho7 Zn1 Co6 Sn22'
_cell_volume   803.67977400
_cell_formula_units_Z   1
loop_
 _symmetry_equiv_pos_site_id
 _symmetry_equiv_pos_as_xyz
  1  'x, y, z'
loop_
 _atom_site_type_symbol
 _atom_site_label
 _atom_site_symmetry_multiplicity
 _atom_site_fract_x
 _atom_site_fract_y
 _atom_site_fract_z
 _atom_site_occupancy
  Ho  Ho0  1  0.000000  0.000000  0.000000  1
  Ho  Ho1  1  0.520741  0.479259  0.693871  1
  Ho  Ho2  1  0.520741  0.041481  0.693871  1
  Ho  Ho3  1  0.958519  0.479259  0.693871  1
  Ho  Ho4  1  0.041481  0.520741  0.306129  1
  Ho  Ho5  1  0.479259  0.958519  0.306129  1
  Ho  Ho6  1  0.479259  0.520741  0.306129  1
  Zn  Zn7  1  0.000000  0.000000  0.500000  1
  Co  Co8  1  0.167778  0.832222  0.802712  1
  Co  Co9  1  0.167778  0.335556  0.802712  1
  Co  Co10  1  0.664444  0.832222  0.802712  1
  Co  Co11  1  0.335556  0.167778  0.197288  1
  Co  Co12  1  0.832222  0.664444  0.197288  1
  Co  Co13  1  0.832222  0.167778  0.197288  1
  Sn  Sn14  1  0.666667  0.333333  0.181004  1
  Sn  Sn15  1  0.666667  0.333333  0.880590  1
  Sn  Sn16  1  0.333333  0.666667  0.119410  1
  Sn  Sn17  1  0.346106  0.346106  0.000000  1
  Sn  Sn18  1  0.000000  0.653894  0.000000  1
  Sn  Sn19  1  0.653894  0.000000  0.000000  1
  Sn  Sn20  1  0.653894  0.653894  0.000000  1
  Sn  Sn21  1  0.333333  0.666667  0.818996  1
  Sn  Sn22  1  0.434129  0.217065  0.453322  1
  Sn  Sn23  1  0.217065  0.782935  0.546678  1
  Sn  Sn24  1  0.217065  0.434129  0.546678  1
  Sn  Sn25  1  0.565871  0.782935  0.546678  1
  Sn  Sn26  1  0.114101  0.885899  0.276076  1
  Sn  Sn27  1  0.782935  0.565871  0.453322  1
  Sn  Sn28  1  0.782935  0.217065  0.453322  1
  Sn  Sn29  1  0.346106  0.000000  0.000000  1
  Sn  Sn30  1  0.114101  0.228202  0.276076  1
  Sn  Sn31  1  0.771798  0.885899  0.276076  1
  Sn  Sn32  1  0.228202  0.114101  0.723924  1
  Sn  Sn33  1  0.885899  0.771798  0.723924  1
  Sn  Sn34  1  0.885899  0.114101  0.723924  1
  Sn  Sn35  1  0.000000  0.346106  0.000000  1
