# generated using pymatgen
data_Dy4YNb2P12Ir17
_symmetry_space_group_name_H-M   'P 1'
_cell_length_a   12.58924700
_cell_length_b   12.79464599
_cell_length_c   4.00361800
_cell_angle_alpha   90.00000000
_cell_angle_beta   90.00000000
_cell_angle_gamma   119.47273854
_symmetry_Int_Tables_number   1
_chemical_formula_structural   Dy4YNb2P12Ir17
_chemical_formula_sum   'Dy4 Y1 Nb2 P12 Ir17'
_cell_volume   561.42827762
_cell_formula_units_Z   1
loop_
 _symmetry_equiv_pos_site_id
 _symmetry_equiv_pos_as_xyz
  1  'x, y, z'
loop_
 _atom_site_type_symbol
 _atom_site_label
 _atom_site_symmetry_multiplicity
 _atom_site_fract_x
 _atom_site_fract_y
 _atom_site_fract_z
 _atom_site_occupancy
  Dy  Dy0  1  0.330293  0.661465  0.500000  1
  Dy  Dy1  1  0.668804  0.338508  0.500000  1
  Dy  Dy2  1  0.185896  0.186733  0.000000  1
  Dy  Dy3  1  0.814996  0.000028  0.000000  1
  Y  Y4  1  0.999240  0.813347  0.000000  1
  Nb  Nb5  1  0.997507  0.450842  0.500000  1
  Nb  Nb6  1  0.546533  0.549049  0.500000  1
  P  P7  1  0.002907  0.641895  0.500000  1
  P  P8  1  0.360868  0.357904  0.500000  1
  P  P9  1  0.645729  0.000006  0.500000  1
  P  P10  1  0.514445  0.683165  0.000000  1
  P  P11  1  0.308831  0.823993  0.000000  1
  P  P12  1  0.163392  0.480793  0.000000  1
  P  P13  1  0.484862  0.176023  0.000000  1
  P  P14  1  0.682604  0.519199  0.000000  1
  P  P15  1  0.831294  0.316799  0.000000  1
  P  P16  1  0.000151  0.175816  0.500000  1
  P  P17  1  0.824269  0.824307  0.500000  1
  P  P18  1  0.180972  0.000184  0.500000  1
  Ir  Ir19  1  0.505557  0.863904  0.000000  1
  Ir  Ir20  1  0.127816  0.641072  0.000000  1
  Ir  Ir21  1  0.354575  0.493387  0.000000  1
  Ir  Ir22  1  0.486649  0.358876  0.000000  1
  Ir  Ir23  1  0.861165  0.506519  0.000000  1
  Ir  Ir24  1  0.641660  0.136101  0.000000  1
  Ir  Ir25  1  0.464499  0.000028  0.500000  1
  Ir  Ir26  1  0.997358  0.282216  0.000000  1
  Ir  Ir27  1  0.715018  0.717740  0.000000  1
  Ir  Ir28  1  0.291718  0.000064  0.000000  1
  Ir  Ir29  1  0.624478  0.807187  0.500000  1
  Ir  Ir30  1  0.201760  0.823914  0.500000  1
  Ir  Ir31  1  0.177490  0.368355  0.500000  1
  Ir  Ir32  1  0.377736  0.176150  0.500000  1
  Ir  Ir33  1  0.808897  0.631462  0.500000  1
  Ir  Ir34  1  0.817335  0.192822  0.500000  1
  Ir  Ir35  1  0.002696  0.000145  0.500000  1
