# generated using pymatgen
data_Tm2PtRhF14
_symmetry_space_group_name_H-M   'P 1'
_cell_length_a   5.47728964
_cell_length_b   8.79652937
_cell_length_c   11.85087064
_cell_angle_alpha   62.65346690
_cell_angle_beta   90.09192373
_cell_angle_gamma   90.02601059
_symmetry_Int_Tables_number   1
_chemical_formula_structural   Tm2PtRhF14
_chemical_formula_sum   'Tm4 Pt2 Rh2 F28'
_cell_volume   507.17663831
_cell_formula_units_Z   2
loop_
 _symmetry_equiv_pos_site_id
 _symmetry_equiv_pos_as_xyz
  1  'x, y, z'
loop_
 _atom_site_type_symbol
 _atom_site_label
 _atom_site_symmetry_multiplicity
 _atom_site_fract_x
 _atom_site_fract_y
 _atom_site_fract_z
 _atom_site_occupancy
  Tm  Tm0  1  0.260074  0.814152  0.263405  1
  Tm  Tm1  1  0.739926  0.185848  0.736595  1
  Tm  Tm2  1  0.761436  0.183728  0.234896  1
  Tm  Tm3  1  0.238564  0.816272  0.765104  1
  Pt  Pt4  1  0.259330  0.272826  0.456787  1
  Pt  Pt5  1  0.740670  0.727174  0.543213  1
  Rh  Rh6  1  0.757071  0.726785  0.042460  1
  Rh  Rh7  1  0.242929  0.273215  0.957540  1
  F  F8  1  0.938253  0.703282  0.414076  1
  F  F9  1  0.061747  0.296718  0.585924  1
  F  F10  1  0.443659  0.292250  0.086448  1
  F  F11  1  0.556341  0.707750  0.913552  1
  F  F12  1  0.465220  0.731736  0.135420  1
  F  F13  1  0.534780  0.268264  0.864580  1
  F  F14  1  0.963202  0.274776  0.361794  1
  F  F15  1  0.036798  0.725224  0.638206  1
  F  F16  1  0.953935  0.746588  0.173642  1
  F  F17  1  0.046065  0.253412  0.826358  1
  F  F18  1  0.452824  0.256360  0.322776  1
  F  F19  1  0.547176  0.743640  0.677224  1
  F  F20  1  0.767297  0.480403  0.139774  1
  F  F21  1  0.232703  0.519597  0.860226  1
  F  F22  1  0.272047  0.523796  0.356499  1
  F  F23  1  0.727953  0.476204  0.643501  1
  F  F24  1  0.943637  0.280437  0.046301  1
  F  F25  1  0.056363  0.719563  0.953699  1
  F  F26  1  0.437350  0.720395  0.455930  1
  F  F27  1  0.562650  0.279605  0.544070  1
  F  F28  1  0.741962  0.977834  0.448555  1
  F  F29  1  0.258038  0.022166  0.551445  1
  F  F30  1  0.240645  0.026943  0.051061  1
  F  F31  1  0.759355  0.973057  0.948939  1
  F  F32  1  0.584876  0.969010  0.232043  1
  F  F33  1  0.415124  0.030990  0.767957  1
  F  F34  1  0.085208  0.028413  0.268629  1
  F  F35  1  0.914792  0.971587  0.731371  1
