# generated using pymatgen
data_K2CaB17C
_symmetry_space_group_name_H-M   'P 1'
_cell_length_a   4.11465100
_cell_length_b   4.19476800
_cell_length_c   12.59616900
_cell_angle_alpha   90.00000000
_cell_angle_beta   90.00000000
_cell_angle_gamma   90.00000000
_symmetry_Int_Tables_number   1
_chemical_formula_structural   K2CaB17C
_chemical_formula_sum   'K2 Ca1 B17 C1'
_cell_volume   217.40995687
_cell_formula_units_Z   1
loop_
 _symmetry_equiv_pos_site_id
 _symmetry_equiv_pos_as_xyz
  1  'x, y, z'
loop_
 _atom_site_type_symbol
 _atom_site_label
 _atom_site_symmetry_multiplicity
 _atom_site_fract_x
 _atom_site_fract_y
 _atom_site_fract_z
 _atom_site_occupancy
  K  K0  1  0.000161  0.000000  0.329681  1
  K  K1  1  0.000161  0.000000  0.670319  1
  Ca  Ca2  1  0.998259  0.000000  0.000000  1
  B  B3  1  0.196324  0.500000  0.164159  1
  B  B4  1  0.196324  0.500000  0.835841  1
  B  B5  1  0.495030  0.500000  0.263885  1
  B  B6  1  0.504893  0.500000  0.599633  1
  B  B7  1  0.496816  0.500000  0.934363  1
  B  B8  1  0.496695  0.200328  0.163693  1
  B  B9  1  0.500297  0.203737  0.500000  1
  B  B10  1  0.496695  0.200328  0.836307  1
  B  B11  1  0.496816  0.500000  0.065637  1
  B  B12  1  0.504893  0.500000  0.400367  1
  B  B13  1  0.495030  0.500000  0.736115  1
  B  B14  1  0.496695  0.799672  0.163693  1
  B  B15  1  0.500297  0.796263  0.500000  1
  B  B16  1  0.496695  0.799672  0.836307  1
  B  B17  1  0.796364  0.500000  0.164148  1
  B  B18  1  0.813285  0.500000  0.500000  1
  B  B19  1  0.796364  0.500000  0.835852  1
  C  C20  1  0.221906  0.500000  0.500000  1
