# generated using pymatgen
data_NdTh7(FeSi3)4
_symmetry_space_group_name_H-M   'P 1'
_cell_length_a   8.08047300
_cell_length_b   8.08047198
_cell_length_c   8.43615900
_cell_angle_alpha   90.00000000
_cell_angle_beta   90.00000000
_cell_angle_gamma   120.00000009
_symmetry_Int_Tables_number   1
_chemical_formula_structural   NdTh7(FeSi3)4
_chemical_formula_sum   'Nd1 Th7 Fe4 Si12'
_cell_volume   477.03352303
_cell_formula_units_Z   1
loop_
 _symmetry_equiv_pos_site_id
 _symmetry_equiv_pos_as_xyz
  1  'x, y, z'
loop_
 _atom_site_type_symbol
 _atom_site_label
 _atom_site_symmetry_multiplicity
 _atom_site_fract_x
 _atom_site_fract_y
 _atom_site_fract_z
 _atom_site_occupancy
  Nd  Nd0  1  0.000000  0.000000  0.250000  1
  Th  Th1  1  0.499937  0.500063  0.750000  1
  Th  Th2  1  0.500141  0.499859  0.250000  1
  Th  Th3  1  0.000125  0.500063  0.750000  1
  Th  Th4  1  0.999717  0.499859  0.250000  1
  Th  Th5  1  0.499937  0.999875  0.750000  1
  Th  Th6  1  0.500141  0.000283  0.250000  1
  Th  Th7  1  0.000000  0.000000  0.750000  1
  Fe  Fe8  1  0.666667  0.333333  0.011731  1
  Fe  Fe9  1  0.333333  0.666667  0.012869  1
  Fe  Fe10  1  0.333333  0.666667  0.487131  1
  Fe  Fe11  1  0.666667  0.333333  0.488269  1
  Si  Si12  1  0.829399  0.170601  0.997442  1
  Si  Si13  1  0.170547  0.829453  0.997217  1
  Si  Si14  1  0.341202  0.170601  0.997442  1
  Si  Si15  1  0.170547  0.829453  0.502783  1
  Si  Si16  1  0.658904  0.829453  0.997217  1
  Si  Si17  1  0.829399  0.170601  0.502558  1
  Si  Si18  1  0.829399  0.658798  0.997442  1
  Si  Si19  1  0.658904  0.829453  0.502783  1
  Si  Si20  1  0.170547  0.341096  0.997217  1
  Si  Si21  1  0.341202  0.170601  0.502558  1
  Si  Si22  1  0.170547  0.341096  0.502783  1
  Si  Si23  1  0.829399  0.658798  0.502558  1
