# generated using pymatgen
data_Yb6TaTcO12
_symmetry_space_group_name_H-M   'P 1'
_cell_length_a   6.41298263
_cell_length_b   6.41298469
_cell_length_c   6.41298300
_cell_angle_alpha   92.85208957
_cell_angle_beta   92.85208154
_cell_angle_gamma   92.85208144
_symmetry_Int_Tables_number   1
_chemical_formula_structural   Yb6TaTcO12
_chemical_formula_sum   'Yb6 Ta1 Tc1 O12'
_cell_volume   262.72873134
_cell_formula_units_Z   1
loop_
 _symmetry_equiv_pos_site_id
 _symmetry_equiv_pos_as_xyz
  1  'x, y, z'
loop_
 _atom_site_type_symbol
 _atom_site_label
 _atom_site_symmetry_multiplicity
 _atom_site_fract_x
 _atom_site_fract_y
 _atom_site_fract_z
 _atom_site_occupancy
  Yb  Yb0  1  0.930317  0.426907  0.747950  1
  Yb  Yb1  1  0.747950  0.930317  0.426907  1
  Yb  Yb2  1  0.573093  0.252050  0.069683  1
  Yb  Yb3  1  0.252050  0.069683  0.573093  1
  Yb  Yb4  1  0.069683  0.573093  0.252050  1
  Yb  Yb5  1  0.426907  0.747950  0.930317  1
  Ta  Ta6  1  0.000000  0.000000  0.000000  1
  Tc  Tc7  1  0.500000  0.500000  0.500000  1
  O  O8  1  0.295255  0.073148  0.930148  1
  O  O9  1  0.073148  0.930148  0.295255  1
  O  O10  1  0.930148  0.295255  0.073148  1
  O  O11  1  0.704745  0.926852  0.069852  1
  O  O12  1  0.926852  0.069852  0.704745  1
  O  O13  1  0.069852  0.704745  0.926852  1
  O  O14  1  0.217296  0.423282  0.545320  1
  O  O15  1  0.423282  0.545320  0.217296  1
  O  O16  1  0.454680  0.782704  0.576718  1
  O  O17  1  0.576718  0.454680  0.782704  1
  O  O18  1  0.782704  0.576718  0.454680  1
  O  O19  1  0.545320  0.217296  0.423282  1
