# generated using pymatgen
data_PaH5
_symmetry_space_group_name_H-M   'P 1'
_cell_length_a   3.50608107
_cell_length_b   4.26036065
_cell_length_c   4.02379698
_cell_angle_alpha   57.97167057
_cell_angle_beta   64.07763636
_cell_angle_gamma   89.88288515
_symmetry_Int_Tables_number   1
_chemical_formula_structural   PaH5
_chemical_formula_sum   'Pa1 H5'
_cell_volume   43.69790106
_cell_formula_units_Z   1
loop_
 _symmetry_equiv_pos_site_id
 _symmetry_equiv_pos_as_xyz
  1  'x, y, z'
loop_
 _atom_site_type_symbol
 _atom_site_label
 _atom_site_symmetry_multiplicity
 _atom_site_fract_x
 _atom_site_fract_y
 _atom_site_fract_z
 _atom_site_occupancy
  Pa  Pa0  1  0.340428  0.995452  0.397468  1
  H  H1  1  0.674912  0.074337  0.726726  1
  H  H2  1  0.344687  0.496980  0.394632  1
  H  H3  1  0.007509  0.400501  0.063557  1
  H  H4  1  0.005162  0.917416  0.068220  1
  H  H5  1  0.673738  0.590242  0.730639  1
