# generated using pymatgen
data_TbDy2In3BiIr2
_symmetry_space_group_name_H-M   'P 1'
_cell_length_a   7.77445957
_cell_length_b   7.78003530
_cell_length_c   4.06093400
_cell_angle_alpha   90.00000000
_cell_angle_beta   90.00000000
_cell_angle_gamma   120.04897831
_symmetry_Int_Tables_number   1
_chemical_formula_structural   TbDy2In3BiIr2
_chemical_formula_sum   'Tb1 Dy2 In3 Bi1 Ir2'
_cell_volume   212.61494425
_cell_formula_units_Z   1
loop_
 _symmetry_equiv_pos_site_id
 _symmetry_equiv_pos_as_xyz
  1  'x, y, z'
loop_
 _atom_site_type_symbol
 _atom_site_label
 _atom_site_symmetry_multiplicity
 _atom_site_fract_x
 _atom_site_fract_y
 _atom_site_fract_z
 _atom_site_occupancy
  Tb  Tb0  1  0.969438  0.583064  0.000000  1
  Dy  Dy1  1  0.416987  0.385963  0.000000  1
  Dy  Dy2  1  0.613933  0.030862  0.000000  1
  In  In3  1  0.979116  0.235249  0.500000  1
  In  In4  1  0.764456  0.743856  0.500000  1
  In  In5  1  0.256195  0.020800  0.500000  1
  Bi  Bi6  1  0.333629  0.666853  0.500000  1
  Ir  Ir7  1  0.000068  0.000312  0.000000  1
  Ir  Ir8  1  0.666178  0.333043  0.500000  1
