# generated using pymatgen
data_Zr3In3IrPt2
_symmetry_space_group_name_H-M   'P 1'
_cell_length_a   7.61722900
_cell_length_b   7.61722977
_cell_length_c   7.06535700
_cell_angle_alpha   90.00000000
_cell_angle_beta   90.00000000
_cell_angle_gamma   119.99999231
_symmetry_Int_Tables_number   1
_chemical_formula_structural   Zr3In3IrPt2
_chemical_formula_sum   'Zr6 In6 Ir2 Pt4'
_cell_volume   355.02492517
_cell_formula_units_Z   2
loop_
 _symmetry_equiv_pos_site_id
 _symmetry_equiv_pos_as_xyz
  1  'x, y, z'
loop_
 _atom_site_type_symbol
 _atom_site_label
 _atom_site_symmetry_multiplicity
 _atom_site_fract_x
 _atom_site_fract_y
 _atom_site_fract_z
 _atom_site_occupancy
  Zr  Zr0  1  0.401728  0.390180  0.750000  1
  Zr  Zr1  1  0.988452  0.598272  0.750000  1
  Zr  Zr2  1  0.609820  0.011548  0.750000  1
  Zr  Zr3  1  0.611040  0.013433  0.250000  1
  Zr  Zr4  1  0.986567  0.597607  0.250000  1
  Zr  Zr5  1  0.402393  0.388960  0.250000  1
  In  In6  1  0.270237  0.995500  0.999983  1
  In  In7  1  0.725263  0.729763  0.999983  1
  In  In8  1  0.004500  0.274737  0.999983  1
  In  In9  1  0.725263  0.729763  0.500017  1
  In  In10  1  0.270237  0.995500  0.500017  1
  In  In11  1  0.004500  0.274737  0.500017  1
  Ir  Ir12  1  0.666667  0.333333  0.998687  1
  Ir  Ir13  1  0.666667  0.333333  0.501313  1
  Pt  Pt14  1  0.000000  0.000000  0.750000  1
  Pt  Pt15  1  0.333333  0.666667  0.497130  1
  Pt  Pt16  1  0.333333  0.666667  0.002870  1
  Pt  Pt17  1  0.000000  0.000000  0.250000  1
