# generated using pymatgen
data_Y8CdInPd2
_symmetry_space_group_name_H-M   'P 1'
_cell_length_a   9.75009996
_cell_length_b   9.75009969
_cell_length_c   9.77277200
_cell_angle_alpha   59.92304847
_cell_angle_beta   59.92304939
_cell_angle_gamma   59.92595881
_symmetry_Int_Tables_number   1
_chemical_formula_structural   Y8CdInPd2
_chemical_formula_sum   'Y16 Cd2 In2 Pd4'
_cell_volume   655.80049296
_cell_formula_units_Z   2
loop_
 _symmetry_equiv_pos_site_id
 _symmetry_equiv_pos_as_xyz
  1  'x, y, z'
loop_
 _atom_site_type_symbol
 _atom_site_label
 _atom_site_symmetry_multiplicity
 _atom_site_fract_x
 _atom_site_fract_y
 _atom_site_fract_z
 _atom_site_occupancy
  Y  Y0  1  0.353250  0.353250  0.353244  1
  Y  Y1  1  0.353250  0.353250  0.940256  1
  Y  Y2  1  0.354194  0.938408  0.353699  1
  Y  Y3  1  0.938408  0.354194  0.353699  1
  Y  Y4  1  0.809862  0.190580  0.189956  1
  Y  Y5  1  0.190580  0.809862  0.809602  1
  Y  Y6  1  0.190580  0.809862  0.189956  1
  Y  Y7  1  0.809862  0.190580  0.809602  1
  Y  Y8  1  0.189124  0.189124  0.810876  1
  Y  Y9  1  0.808673  0.808673  0.191327  1
  Y  Y10  1  0.936707  0.565134  0.564797  1
  Y  Y11  1  0.565134  0.936707  0.933362  1
  Y  Y12  1  0.565134  0.936707  0.564797  1
  Y  Y13  1  0.936707  0.565134  0.933362  1
  Y  Y14  1  0.565528  0.565528  0.934472  1
  Y  Y15  1  0.936137  0.936137  0.563863  1
  Cd  Cd16  1  0.581844  0.251121  0.583518  1
  Cd  Cd17  1  0.251121  0.581844  0.583518  1
  In  In18  1  0.582405  0.582405  0.583944  1
  In  In19  1  0.582405  0.582405  0.251246  1
  Pd  Pd20  1  0.144014  0.144014  0.144836  1
  Pd  Pd21  1  0.144014  0.144014  0.567134  1
  Pd  Pd22  1  0.143630  0.567435  0.144467  1
  Pd  Pd23  1  0.567435  0.143630  0.144467  1
