# generated using pymatgen
data_CuAs2AuO8
_symmetry_space_group_name_H-M   'P 1'
_cell_length_a   5.13474511
_cell_length_b   4.94953614
_cell_length_c   7.63400899
_cell_angle_alpha   84.22444347
_cell_angle_beta   85.62735209
_cell_angle_gamma   73.51287695
_symmetry_Int_Tables_number   1
_chemical_formula_structural   CuAs2AuO8
_chemical_formula_sum   'Cu1 As2 Au1 O8'
_cell_volume   184.86238521
_cell_formula_units_Z   1
loop_
 _symmetry_equiv_pos_site_id
 _symmetry_equiv_pos_as_xyz
  1  'x, y, z'
loop_
 _atom_site_type_symbol
 _atom_site_label
 _atom_site_symmetry_multiplicity
 _atom_site_fract_x
 _atom_site_fract_y
 _atom_site_fract_z
 _atom_site_occupancy
  Cu  Cu0  1  0.000000  0.500000  0.500000  1
  As  As1  1  0.056759  0.935508  0.742128  1
  As  As2  1  0.943241  0.064492  0.257872  1
  Au  Au3  1  0.500000  0.000000  0.000000  1
  O  O4  1  0.246689  0.790107  0.925882  1
  O  O5  1  0.190647  0.738216  0.563964  1
  O  O6  1  0.753311  0.209893  0.074118  1
  O  O7  1  0.809353  0.261784  0.436036  1
  O  O8  1  0.730985  0.896470  0.777650  1
  O  O9  1  0.100892  0.271584  0.704297  1
  O  O10  1  0.269015  0.103530  0.222350  1
  O  O11  1  0.899108  0.728416  0.295703  1
