# generated using pymatgen
data_Dy12TcOsRu2
_symmetry_space_group_name_H-M   'P 1'
_cell_length_a   6.29664201
_cell_length_b   7.38027549
_cell_length_c   9.16200500
_cell_angle_alpha   90.00000000
_cell_angle_beta   90.00000000
_cell_angle_gamma   90.07242864
_symmetry_Int_Tables_number   1
_chemical_formula_structural   Dy12TcOsRu2
_chemical_formula_sum   'Dy12 Tc1 Os1 Ru2'
_cell_volume   425.76676103
_cell_formula_units_Z   1
loop_
 _symmetry_equiv_pos_site_id
 _symmetry_equiv_pos_as_xyz
  1  'x, y, z'
loop_
 _atom_site_type_symbol
 _atom_site_label
 _atom_site_symmetry_multiplicity
 _atom_site_fract_x
 _atom_site_fract_y
 _atom_site_fract_z
 _atom_site_occupancy
  Dy  Dy0  1  0.334415  0.675073  0.062971  1
  Dy  Dy1  1  0.166660  0.175404  0.435924  1
  Dy  Dy2  1  0.668338  0.324618  0.563969  1
  Dy  Dy3  1  0.833445  0.824423  0.936562  1
  Dy  Dy4  1  0.668338  0.324618  0.936031  1
  Dy  Dy5  1  0.833445  0.824423  0.563438  1
  Dy  Dy6  1  0.334415  0.675073  0.437029  1
  Dy  Dy7  1  0.166660  0.175404  0.064076  1
  Dy  Dy8  1  0.869223  0.539680  0.250000  1
  Dy  Dy9  1  0.627073  0.041013  0.250000  1
  Dy  Dy10  1  0.131566  0.458433  0.750000  1
  Dy  Dy11  1  0.367097  0.960203  0.750000  1
  Tc  Tc12  1  0.038479  0.885172  0.250000  1
  Os  Os13  1  0.539835  0.615692  0.750000  1
  Ru  Ru14  1  0.461007  0.383601  0.250000  1
  Ru  Ru15  1  0.960005  0.117171  0.750000  1
