# generated using pymatgen
data_K3Rb3MgTe4
_symmetry_space_group_name_H-M   'P 1'
_cell_length_a   11.20377800
_cell_length_b   11.20377855
_cell_length_c   8.85545600
_cell_angle_alpha   90.00000000
_cell_angle_beta   90.00000000
_cell_angle_gamma   119.99999838
_symmetry_Int_Tables_number   1
_chemical_formula_structural   K3Rb3MgTe4
_chemical_formula_sum   'K6 Rb6 Mg2 Te8'
_cell_volume   962.65479674
_cell_formula_units_Z   2
loop_
 _symmetry_equiv_pos_site_id
 _symmetry_equiv_pos_as_xyz
  1  'x, y, z'
loop_
 _atom_site_type_symbol
 _atom_site_label
 _atom_site_symmetry_multiplicity
 _atom_site_fract_x
 _atom_site_fract_y
 _atom_site_fract_z
 _atom_site_occupancy
  K  K0  1  0.148367  0.851633  0.543104  1
  K  K1  1  0.296734  0.148367  0.043104  1
  K  K2  1  0.851633  0.703266  0.043104  1
  K  K3  1  0.148367  0.296734  0.543104  1
  K  K4  1  0.703266  0.851633  0.543104  1
  K  K5  1  0.851633  0.148367  0.043104  1
  Rb  Rb6  1  0.526152  0.473848  0.364624  1
  Rb  Rb7  1  0.052302  0.526152  0.864624  1
  Rb  Rb8  1  0.473848  0.947698  0.864624  1
  Rb  Rb9  1  0.526152  0.052302  0.364624  1
  Rb  Rb10  1  0.947698  0.473848  0.364624  1
  Rb  Rb11  1  0.473848  0.526152  0.864624  1
  Mg  Mg12  1  0.333333  0.666667  0.248877  1
  Mg  Mg13  1  0.666667  0.333333  0.748877  1
  Te  Te14  1  0.333333  0.666667  0.573253  1
  Te  Te15  1  0.666667  0.333333  0.073253  1
  Te  Te16  1  0.191546  0.808454  0.152060  1
  Te  Te17  1  0.383090  0.191546  0.652060  1
  Te  Te18  1  0.808454  0.616910  0.652060  1
  Te  Te19  1  0.191546  0.383090  0.152060  1
  Te  Te20  1  0.616910  0.808454  0.152060  1
  Te  Te21  1  0.808454  0.191546  0.652060  1
