# generated using pymatgen
data_TaTi(MnBe4)2
_symmetry_space_group_name_H-M   'P 1'
_cell_length_a   4.35202000
_cell_length_b   4.35202011
_cell_length_c   7.11851200
_cell_angle_alpha   90.00000000
_cell_angle_beta   90.00000000
_cell_angle_gamma   119.99999920
_symmetry_Int_Tables_number   1
_chemical_formula_structural   TaTi(MnBe4)2
_chemical_formula_sum   'Ta1 Ti1 Mn2 Be8'
_cell_volume   116.76202876
_cell_formula_units_Z   1
loop_
 _symmetry_equiv_pos_site_id
 _symmetry_equiv_pos_as_xyz
  1  'x, y, z'
loop_
 _atom_site_type_symbol
 _atom_site_label
 _atom_site_symmetry_multiplicity
 _atom_site_fract_x
 _atom_site_fract_y
 _atom_site_fract_z
 _atom_site_occupancy
  Ta  Ta0  1  0.666667  0.333333  0.563247  1
  Ti  Ti1  1  0.333333  0.666667  0.065151  1
  Mn  Mn2  1  0.666667  0.333333  0.934568  1
  Mn  Mn3  1  0.333333  0.666667  0.437659  1
  Be  Be4  1  0.000000  0.000000  0.999216  1
  Be  Be5  1  0.000000  0.000000  0.495730  1
  Be  Be6  1  0.830370  0.660738  0.247495  1
  Be  Be7  1  0.169270  0.830730  0.753982  1
  Be  Be8  1  0.661460  0.830730  0.753982  1
  Be  Be9  1  0.339262  0.169630  0.247495  1
  Be  Be10  1  0.830370  0.169630  0.247495  1
  Be  Be11  1  0.169270  0.338540  0.753982  1
