# generated using pymatgen
data_Pr2Sb5
_symmetry_space_group_name_H-M   'P 1'
_cell_length_a   4.31125400
_cell_length_b   13.62959344
_cell_length_c   15.45659616
_cell_angle_alpha   77.25547308
_cell_angle_beta   90.00000000
_cell_angle_gamma   90.00000000
_symmetry_Int_Tables_number   1
_chemical_formula_structural   Pr2Sb5
_chemical_formula_sum   'Pr8 Sb20'
_cell_volume   885.86353626
_cell_formula_units_Z   4
loop_
 _symmetry_equiv_pos_site_id
 _symmetry_equiv_pos_as_xyz
  1  'x, y, z'
loop_
 _atom_site_type_symbol
 _atom_site_label
 _atom_site_symmetry_multiplicity
 _atom_site_fract_x
 _atom_site_fract_y
 _atom_site_fract_z
 _atom_site_occupancy
  Pr  Pr0  1  0.250000  0.668998  0.576115  1
  Pr  Pr1  1  0.750000  0.331002  0.423885  1
  Pr  Pr2  1  0.250000  0.395500  0.774076  1
  Pr  Pr3  1  0.750000  0.604500  0.225924  1
  Pr  Pr4  1  0.250000  0.948285  0.364024  1
  Pr  Pr5  1  0.750000  0.051715  0.635976  1
  Pr  Pr6  1  0.250000  0.666068  0.854767  1
  Pr  Pr7  1  0.750000  0.333932  0.145233  1
  Sb  Sb8  1  0.250000  0.424584  0.557168  1
  Sb  Sb9  1  0.750000  0.575416  0.442832  1
  Sb  Sb10  1  0.250000  0.714501  0.057796  1
  Sb  Sb11  1  0.750000  0.285499  0.942204  1
  Sb  Sb12  1  0.250000  0.419913  0.976076  1
  Sb  Sb13  1  0.750000  0.580087  0.023924  1
  Sb  Sb14  1  0.250000  0.862730  0.672663  1
  Sb  Sb15  1  0.750000  0.137270  0.327337  1
  Sb  Sb16  1  0.250000  0.148100  0.186226  1
  Sb  Sb17  1  0.750000  0.851900  0.813774  1
  Sb  Sb18  1  0.250000  0.704644  0.353396  1
  Sb  Sb19  1  0.750000  0.295356  0.646604  1
  Sb  Sb20  1  0.250000  0.143607  0.775840  1
  Sb  Sb21  1  0.750000  0.856393  0.224160  1
  Sb  Sb22  1  0.250000  0.422124  0.264928  1
  Sb  Sb23  1  0.750000  0.577876  0.735072  1
  Sb  Sb24  1  0.250000  0.142286  0.476712  1
  Sb  Sb25  1  0.750000  0.857714  0.523288  1
  Sb  Sb26  1  0.250000  0.969560  0.118321  1
  Sb  Sb27  1  0.750000  0.030440  0.881679  1
