# generated using pymatgen
data_Rb4ZnW3N8
_symmetry_space_group_name_H-M   'P 1'
_cell_length_a   6.04086400
_cell_length_b   8.59015500
_cell_length_c   12.37687100
_cell_angle_alpha   90.00000000
_cell_angle_beta   90.00000000
_cell_angle_gamma   90.00000000
_symmetry_Int_Tables_number   1
_chemical_formula_structural   Rb4ZnW3N8
_chemical_formula_sum   'Rb8 Zn2 W6 N16'
_cell_volume   642.26007127
_cell_formula_units_Z   2
loop_
 _symmetry_equiv_pos_site_id
 _symmetry_equiv_pos_as_xyz
  1  'x, y, z'
loop_
 _atom_site_type_symbol
 _atom_site_label
 _atom_site_symmetry_multiplicity
 _atom_site_fract_x
 _atom_site_fract_y
 _atom_site_fract_z
 _atom_site_occupancy
  Rb  Rb0  1  0.750000  0.189442  0.500000  1
  Rb  Rb1  1  0.250000  0.810558  0.000000  1
  Rb  Rb2  1  0.250000  0.895726  0.500000  1
  Rb  Rb3  1  0.750000  0.104274  0.000000  1
  Rb  Rb4  1  0.811758  0.393530  0.780700  1
  Rb  Rb5  1  0.311758  0.606470  0.719300  1
  Rb  Rb6  1  0.188242  0.606470  0.280700  1
  Rb  Rb7  1  0.688242  0.393530  0.219300  1
  Zn  Zn8  1  0.250000  0.362607  0.500000  1
  Zn  Zn9  1  0.750000  0.637393  0.000000  1
  W  W10  1  0.750000  0.628308  0.500000  1
  W  W11  1  0.250000  0.371692  0.000000  1
  W  W12  1  0.301061  0.115750  0.750036  1
  W  W13  1  0.801061  0.884250  0.749964  1
  W  W14  1  0.698939  0.884250  0.250036  1
  W  W15  1  0.198939  0.115750  0.249964  1
  N  N16  1  0.610821  0.062393  0.741112  1
  N  N17  1  0.110821  0.937607  0.758888  1
  N  N18  1  0.389179  0.937607  0.241112  1
  N  N19  1  0.889179  0.062393  0.258888  1
  N  N20  1  0.257114  0.242678  0.871428  1
  N  N21  1  0.757114  0.757322  0.628572  1
  N  N22  1  0.742886  0.757322  0.371428  1
  N  N23  1  0.242886  0.242678  0.128572  1
  N  N24  1  0.766407  0.774086  0.131027  1
  N  N25  1  0.266407  0.225914  0.368973  1
  N  N26  1  0.233593  0.225914  0.631027  1
  N  N27  1  0.733593  0.774086  0.868973  1
  N  N28  1  0.005029  0.492645  0.995419  1
  N  N29  1  0.505029  0.507355  0.504581  1
  N  N30  1  0.994971  0.507355  0.495419  1
  N  N31  1  0.494971  0.492645  0.004581  1
