# generated using pymatgen
data_Dy6Tm9Th(CdNi)4
_symmetry_space_group_name_H-M   'P 1'
_cell_length_a   9.48753897
_cell_length_b   9.48753881
_cell_length_c   9.48753864
_cell_angle_alpha   60.12560777
_cell_angle_beta   60.12561233
_cell_angle_gamma   60.12560567
_symmetry_Int_Tables_number   1
_chemical_formula_structural   Dy6Tm9Th(CdNi)4
_chemical_formula_sum   'Dy6 Tm9 Th1 Cd4 Ni4'
_cell_volume   605.59149934
_cell_formula_units_Z   1
loop_
 _symmetry_equiv_pos_site_id
 _symmetry_equiv_pos_as_xyz
  1  'x, y, z'
loop_
 _atom_site_type_symbol
 _atom_site_label
 _atom_site_symmetry_multiplicity
 _atom_site_fract_x
 _atom_site_fract_y
 _atom_site_fract_z
 _atom_site_occupancy
  Dy  Dy0  1  0.187616  0.814341  0.814341  1
  Dy  Dy1  1  0.812199  0.187391  0.187391  1
  Dy  Dy2  1  0.814341  0.187616  0.814341  1
  Dy  Dy3  1  0.187391  0.812199  0.187391  1
  Dy  Dy4  1  0.814341  0.814341  0.187616  1
  Dy  Dy5  1  0.187391  0.187391  0.812199  1
  Tm  Tm6  1  0.598518  0.598518  0.201080  1
  Tm  Tm7  1  0.598518  0.201080  0.598518  1
  Tm  Tm8  1  0.201080  0.598518  0.598518  1
  Tm  Tm9  1  0.064142  0.437730  0.437730  1
  Tm  Tm10  1  0.438581  0.063434  0.063434  1
  Tm  Tm11  1  0.437730  0.064142  0.437730  1
  Tm  Tm12  1  0.063434  0.438581  0.063434  1
  Tm  Tm13  1  0.437730  0.437730  0.064142  1
  Tm  Tm14  1  0.063434  0.063434  0.438581  1
  Th  Th15  1  0.594282  0.594282  0.594282  1
  Cd  Cd16  1  0.830569  0.830569  0.830569  1
  Cd  Cd17  1  0.831969  0.831969  0.506197  1
  Cd  Cd18  1  0.831969  0.506197  0.831969  1
  Cd  Cd19  1  0.506197  0.831969  0.831969  1
  Ni  Ni20  1  0.392873  0.392873  0.392873  1
  Ni  Ni21  1  0.391713  0.391713  0.822269  1
  Ni  Ni22  1  0.391713  0.822269  0.391713  1
  Ni  Ni23  1  0.822269  0.391713  0.391713  1
