# generated using pymatgen
data_Ta3V2Ga2GeB
_symmetry_space_group_name_H-M   'P 1'
_cell_length_a   7.66820401
_cell_length_b   7.66820456
_cell_length_c   5.11688800
_cell_angle_alpha   90.00000000
_cell_angle_beta   90.00000000
_cell_angle_gamma   120.05358675
_symmetry_Int_Tables_number   1
_chemical_formula_structural   Ta3V2Ga2GeB
_chemical_formula_sum   'Ta6 V4 Ga4 Ge2 B2'
_cell_volume   260.42887175
_cell_formula_units_Z   2
loop_
 _symmetry_equiv_pos_site_id
 _symmetry_equiv_pos_as_xyz
  1  'x, y, z'
loop_
 _atom_site_type_symbol
 _atom_site_label
 _atom_site_symmetry_multiplicity
 _atom_site_fract_x
 _atom_site_fract_y
 _atom_site_fract_z
 _atom_site_occupancy
  Ta  Ta0  1  0.755380  0.755380  0.250000  1
  Ta  Ta1  1  0.244722  0.999176  0.250000  1
  Ta  Ta2  1  0.999176  0.244722  0.250000  1
  Ta  Ta3  1  0.243193  0.243193  0.750000  1
  Ta  Ta4  1  0.757377  0.001640  0.750000  1
  Ta  Ta5  1  0.001640  0.757377  0.750000  1
  V  V6  1  0.666704  0.332180  0.499089  1
  V  V7  1  0.332180  0.666704  0.499089  1
  V  V8  1  0.332180  0.666704  0.000911  1
  V  V9  1  0.666704  0.332180  0.000911  1
  Ga  Ga10  1  0.406570  0.406570  0.250000  1
  Ga  Ga11  1  0.594236  0.998882  0.250000  1
  Ga  Ga12  1  0.998882  0.594236  0.250000  1
  Ga  Ga13  1  0.593278  0.593278  0.750000  1
  Ge  Ge14  1  0.408218  0.000234  0.750000  1
  Ge  Ge15  1  0.000234  0.408218  0.750000  1
  B  B16  1  0.999662  0.999662  0.498827  1
  B  B17  1  0.999662  0.999662  0.001173  1
