# generated using pymatgen
data_Ho10(IrAu)3
_symmetry_space_group_name_H-M   'P 1'
_cell_length_a   11.20537894
_cell_length_b   11.16913200
_cell_length_c   6.33653965
_cell_angle_alpha   90.00000000
_cell_angle_beta   89.72578183
_cell_angle_gamma   90.00000000
_symmetry_Int_Tables_number   1
_chemical_formula_structural   Ho10(IrAu)3
_chemical_formula_sum   'Ho20 Ir6 Au6'
_cell_volume   793.03645938
_cell_formula_units_Z   2
loop_
 _symmetry_equiv_pos_site_id
 _symmetry_equiv_pos_as_xyz
  1  'x, y, z'
loop_
 _atom_site_type_symbol
 _atom_site_label
 _atom_site_symmetry_multiplicity
 _atom_site_fract_x
 _atom_site_fract_y
 _atom_site_fract_z
 _atom_site_occupancy
  Ho  Ho0  1  0.301168  0.090938  0.364647  1
  Ho  Ho1  1  0.301168  0.909062  0.864647  1
  Ho  Ho2  1  0.696680  0.082932  0.858029  1
  Ho  Ho3  1  0.696680  0.917068  0.358029  1
  Ho  Ho4  1  0.575016  0.791107  0.861673  1
  Ho  Ho5  1  0.575016  0.208893  0.361673  1
  Ho  Ho6  1  0.411120  0.793549  0.375335  1
  Ho  Ho7  1  0.411120  0.206451  0.875335  1
  Ho  Ho8  1  0.212429  0.418251  0.626326  1
  Ho  Ho9  1  0.212429  0.581749  0.126326  1
  Ho  Ho10  1  0.799288  0.416322  0.137095  1
  Ho  Ho11  1  0.799288  0.583678  0.637095  1
  Ho  Ho12  1  0.920613  0.698884  0.139124  1
  Ho  Ho13  1  0.920613  0.301116  0.639124  1
  Ho  Ho14  1  0.095364  0.697471  0.638961  1
  Ho  Ho15  1  0.095364  0.302529  0.138961  1
  Ho  Ho16  1  0.998638  0.998696  0.500033  1
  Ho  Ho17  1  0.998638  0.001304  0.000033  1
  Ho  Ho18  1  0.491735  0.498054  0.998559  1
  Ho  Ho19  1  0.491735  0.501946  0.498559  1
  Ir  Ir20  1  0.346830  0.345788  0.249630  1
  Ir  Ir21  1  0.346830  0.654212  0.749630  1
  Ir  Ir22  1  0.499135  0.999513  0.111371  1
  Ir  Ir23  1  0.499135  0.000487  0.611371  1
  Ir  Ir24  1  0.999915  0.500097  0.889802  1
  Ir  Ir25  1  0.999915  0.499903  0.389802  1
  Au  Au26  1  0.841508  0.155569  0.251279  1
  Au  Au27  1  0.841508  0.844431  0.751279  1
  Au  Au28  1  0.154751  0.156165  0.749369  1
  Au  Au29  1  0.154751  0.843835  0.249369  1
  Au  Au30  1  0.655810  0.345967  0.748768  1
  Au  Au31  1  0.655810  0.654033  0.248768  1
