# generated using pymatgen
data_Tm2Al20Ru3Rh
_symmetry_space_group_name_H-M   'P 1'
_cell_length_a   6.83661276
_cell_length_b   6.84508192
_cell_length_c   9.12935147
_cell_angle_alpha   90.16224908
_cell_angle_beta   90.20256135
_cell_angle_gamma   96.76009189
_symmetry_Int_Tables_number   1
_chemical_formula_structural   Tm2Al20Ru3Rh
_chemical_formula_sum   'Tm2 Al20 Ru3 Rh1'
_cell_volume   424.25273244
_cell_formula_units_Z   1
loop_
 _symmetry_equiv_pos_site_id
 _symmetry_equiv_pos_as_xyz
  1  'x, y, z'
loop_
 _atom_site_type_symbol
 _atom_site_label
 _atom_site_symmetry_multiplicity
 _atom_site_fract_x
 _atom_site_fract_y
 _atom_site_fract_z
 _atom_site_occupancy
  Tm  Tm0  1  0.871162  0.127205  0.750690  1
  Tm  Tm1  1  0.128838  0.872795  0.249310  1
  Al  Al2  1  0.620848  0.376363  0.551214  1
  Al  Al3  1  0.379152  0.623637  0.448786  1
  Al  Al4  1  0.377388  0.623087  0.050345  1
  Al  Al5  1  0.622612  0.376913  0.949655  1
  Al  Al6  1  0.226226  0.224362  0.499419  1
  Al  Al7  1  0.773774  0.775638  0.500581  1
  Al  Al8  1  0.774949  0.775341  0.999991  1
  Al  Al9  1  0.225051  0.224659  0.000009  1
  Al  Al10  1  0.844533  0.155924  0.099636  1
  Al  Al11  1  0.155467  0.844076  0.900364  1
  Al  Al12  1  0.156728  0.845375  0.600807  1
  Al  Al13  1  0.843272  0.154625  0.399193  1
  Al  Al14  1  0.857656  0.587097  0.750856  1
  Al  Al15  1  0.142344  0.412903  0.249144  1
  Al  Al16  1  0.413275  0.141410  0.750417  1
  Al  Al17  1  0.586725  0.858590  0.249583  1
  Al  Al18  1  0.222249  0.479981  0.751908  1
  Al  Al19  1  0.777751  0.520019  0.248092  1
  Al  Al20  1  0.520053  0.779231  0.749811  1
  Al  Al21  1  0.479947  0.220769  0.250189  1
  Ru  Ru22  1  0.000000  0.500000  0.000000  1
  Ru  Ru23  1  0.500000  0.000000  0.000000  1
  Ru  Ru24  1  0.500000  0.000000  0.500000  1
  Rh  Rh25  1  0.000000  0.500000  0.500000  1
