# generated using pymatgen
data_Ba4Na2Tc2O11
_symmetry_space_group_name_H-M   'P 1'
_cell_length_a   5.92814829
_cell_length_b   5.92814870
_cell_length_c   8.69838100
_cell_angle_alpha   90.00000000
_cell_angle_beta   90.00000000
_cell_angle_gamma   91.35868382
_symmetry_Int_Tables_number   1
_chemical_formula_structural   Ba4Na2Tc2O11
_chemical_formula_sum   'Ba4 Na2 Tc2 O11'
_cell_volume   305.60077692
_cell_formula_units_Z   1
loop_
 _symmetry_equiv_pos_site_id
 _symmetry_equiv_pos_as_xyz
  1  'x, y, z'
loop_
 _atom_site_type_symbol
 _atom_site_label
 _atom_site_symmetry_multiplicity
 _atom_site_fract_x
 _atom_site_fract_y
 _atom_site_fract_z
 _atom_site_occupancy
  Ba  Ba0  1  0.018337  0.479652  0.280230  1
  Ba  Ba1  1  0.018337  0.479652  0.719770  1
  Ba  Ba2  1  0.520348  0.981663  0.280230  1
  Ba  Ba3  1  0.520348  0.981663  0.719770  1
  Na  Na4  1  0.516130  0.483870  0.500000  1
  Na  Na5  1  0.983065  0.016935  0.000000  1
  Tc  Tc6  1  0.504338  0.495662  0.000000  1
  Tc  Tc7  1  0.019241  0.980759  0.500000  1
  O  O8  1  0.248522  0.751477  0.500000  1
  O  O9  1  0.785553  0.214447  0.500000  1
  O  O10  1  0.786216  0.754845  0.500000  1
  O  O11  1  0.245155  0.213784  0.500000  1
  O  O12  1  0.022126  0.977874  0.269003  1
  O  O13  1  0.022126  0.977874  0.730997  1
  O  O14  1  0.494118  0.505882  0.777594  1
  O  O15  1  0.494118  0.505882  0.222406  1
  O  O16  1  0.716106  0.283894  0.000000  1
  O  O17  1  0.595849  0.796296  0.000000  1
  O  O18  1  0.203704  0.404151  0.000000  1
