# generated using pymatgen
data_Ta3ZnPd9PtRh2
_symmetry_space_group_name_H-M   'P 1'
_cell_length_a   5.59938921
_cell_length_b   5.59938882
_cell_length_c   9.03470300
_cell_angle_alpha   90.00000000
_cell_angle_beta   90.00000000
_cell_angle_gamma   119.71587484
_symmetry_Int_Tables_number   1
_chemical_formula_structural   Ta3ZnPd9PtRh2
_chemical_formula_sum   'Ta3 Zn1 Pd9 Pt1 Rh2'
_cell_volume   246.01528302
_cell_formula_units_Z   1
loop_
 _symmetry_equiv_pos_site_id
 _symmetry_equiv_pos_as_xyz
  1  'x, y, z'
loop_
 _atom_site_type_symbol
 _atom_site_label
 _atom_site_symmetry_multiplicity
 _atom_site_fract_x
 _atom_site_fract_y
 _atom_site_fract_z
 _atom_site_occupancy
  Ta  Ta0  1  0.667643  0.332357  0.500000  1
  Ta  Ta1  1  0.997402  0.002598  0.741783  1
  Ta  Ta2  1  0.997402  0.002598  0.258217  1
  Zn  Zn3  1  0.333270  0.666730  0.000000  1
  Pd  Pd4  1  0.833044  0.166956  0.000000  1
  Pd  Pd5  1  0.833031  0.667604  0.000000  1
  Pd  Pd6  1  0.332396  0.166969  0.000000  1
  Pd  Pd7  1  0.997683  0.497890  0.749741  1
  Pd  Pd8  1  0.501068  0.498932  0.748968  1
  Pd  Pd9  1  0.502110  0.002317  0.749741  1
  Pd  Pd10  1  0.997683  0.497890  0.250259  1
  Pd  Pd11  1  0.501068  0.498932  0.251032  1
  Pd  Pd12  1  0.502110  0.002317  0.250259  1
  Pt  Pt13  1  0.168431  0.831569  0.500000  1
  Rh  Rh14  1  0.168638  0.332979  0.500000  1
  Rh  Rh15  1  0.667021  0.831362  0.500000  1
