# generated using pymatgen
data_Hf3BeTc3P2
_symmetry_space_group_name_H-M   'P 1'
_cell_length_a   6.71484600
_cell_length_b   6.71484631
_cell_length_c   3.36071800
_cell_angle_alpha   90.00000000
_cell_angle_beta   90.00000000
_cell_angle_gamma   120.00000832
_symmetry_Int_Tables_number   1
_chemical_formula_structural   Hf3BeTc3P2
_chemical_formula_sum   'Hf3 Be1 Tc3 P2'
_cell_volume   131.23050535
_cell_formula_units_Z   1
loop_
 _symmetry_equiv_pos_site_id
 _symmetry_equiv_pos_as_xyz
  1  'x, y, z'
loop_
 _atom_site_type_symbol
 _atom_site_label
 _atom_site_symmetry_multiplicity
 _atom_site_fract_x
 _atom_site_fract_y
 _atom_site_fract_z
 _atom_site_occupancy
  Hf  Hf0  1  0.396051  0.396051  0.500000  1
  Hf  Hf1  1  0.603949  0.000000  0.500000  1
  Hf  Hf2  1  0.000000  0.603949  0.500000  1
  Be  Be3  1  0.000000  0.000000  0.500000  1
  Tc  Tc4  1  0.749712  0.749712  0.000000  1
  Tc  Tc5  1  0.250288  0.000000  0.000000  1
  Tc  Tc6  1  0.000000  0.250288  0.000000  1
  P  P7  1  0.666667  0.333333  0.000000  1
  P  P8  1  0.333333  0.666667  0.000000  1
