# generated using pymatgen
data_Ba3CaZrS6
_symmetry_space_group_name_H-M   'P 1'
_cell_length_a   8.38007679
_cell_length_b   8.38007624
_cell_length_c   8.38007691
_cell_angle_alpha   91.99785500
_cell_angle_beta   91.99786619
_cell_angle_gamma   91.99786354
_symmetry_Int_Tables_number   1
_chemical_formula_structural   Ba3CaZrS6
_chemical_formula_sum   'Ba6 Ca2 Zr2 S12'
_cell_volume   587.39779489
_cell_formula_units_Z   2
loop_
 _symmetry_equiv_pos_site_id
 _symmetry_equiv_pos_as_xyz
  1  'x, y, z'
loop_
 _atom_site_type_symbol
 _atom_site_label
 _atom_site_symmetry_multiplicity
 _atom_site_fract_x
 _atom_site_fract_y
 _atom_site_fract_z
 _atom_site_occupancy
  Ba  Ba0  1  0.874070  0.625930  0.250000  1
  Ba  Ba1  1  0.250000  0.874070  0.625930  1
  Ba  Ba2  1  0.625930  0.250000  0.874070  1
  Ba  Ba3  1  0.750000  0.125930  0.374070  1
  Ba  Ba4  1  0.374070  0.750000  0.125930  1
  Ba  Ba5  1  0.125930  0.374070  0.750000  1
  Ca  Ca6  1  0.250000  0.250000  0.250000  1
  Ca  Ca7  1  0.750000  0.750000  0.750000  1
  Zr  Zr8  1  0.500000  0.500000  0.500000  1
  Zr  Zr9  1  0.000000  0.000000  0.000000  1
  S  S10  1  0.206443  0.546337  0.415865  1
  S  S11  1  0.415865  0.206443  0.546337  1
  S  S12  1  0.546337  0.415865  0.206443  1
  S  S13  1  0.915865  0.046337  0.706443  1
  S  S14  1  0.706443  0.915865  0.046337  1
  S  S15  1  0.046337  0.706443  0.915865  1
  S  S16  1  0.793557  0.453663  0.584135  1
  S  S17  1  0.584135  0.793557  0.453663  1
  S  S18  1  0.453663  0.584135  0.793557  1
  S  S19  1  0.084135  0.953663  0.293557  1
  S  S20  1  0.293557  0.084135  0.953663  1
  S  S21  1  0.953663  0.293557  0.084135  1
