# generated using pymatgen
data_Nb12Al5Pd2PtN4
_symmetry_space_group_name_H-M   'P 1'
_cell_length_a   7.07198742
_cell_length_b   7.07341389
_cell_length_c   7.07030205
_cell_angle_alpha   90.25510888
_cell_angle_beta   90.25666425
_cell_angle_gamma   90.25608899
_symmetry_Int_Tables_number   1
_chemical_formula_structural   Nb12Al5Pd2PtN4
_chemical_formula_sum   'Nb12 Al5 Pd2 Pt1 N4'
_cell_volume   353.66776517
_cell_formula_units_Z   1
loop_
 _symmetry_equiv_pos_site_id
 _symmetry_equiv_pos_as_xyz
  1  'x, y, z'
loop_
 _atom_site_type_symbol
 _atom_site_label
 _atom_site_symmetry_multiplicity
 _atom_site_fract_x
 _atom_site_fract_y
 _atom_site_fract_z
 _atom_site_occupancy
  Nb  Nb0  1  0.787595  0.957145  0.380639  1
  Nb  Nb1  1  0.710224  0.042706  0.872423  1
  Nb  Nb2  1  0.210053  0.455486  0.124765  1
  Nb  Nb3  1  0.290935  0.543567  0.623534  1
  Nb  Nb4  1  0.956276  0.380382  0.788189  1
  Nb  Nb5  1  0.041736  0.871747  0.709904  1
  Nb  Nb6  1  0.456460  0.124852  0.210535  1
  Nb  Nb7  1  0.544511  0.623451  0.291008  1
  Nb  Nb8  1  0.381124  0.787332  0.956221  1
  Nb  Nb9  1  0.871428  0.709338  0.041654  1
  Nb  Nb10  1  0.123879  0.210777  0.455027  1
  Nb  Nb11  1  0.623974  0.291189  0.543018  1
  Al  Al12  1  0.677025  0.677223  0.677242  1
  Al  Al13  1  0.570478  0.420698  0.933081  1
  Al  Al14  1  0.420729  0.933397  0.571080  1
  Al  Al15  1  0.933347  0.571359  0.421130  1
  Al  Al16  1  0.073368  0.072604  0.073131  1
  Pd  Pd17  1  0.177490  0.822634  0.318448  1
  Pd  Pd18  1  0.318293  0.177841  0.823078  1
  Pt  Pt19  1  0.822984  0.318450  0.177511  1
  N  N20  1  0.880177  0.126982  0.625716  1
  N  N21  1  0.625424  0.879560  0.126730  1
  N  N22  1  0.126804  0.625309  0.880136  1
  N  N23  1  0.375683  0.375968  0.375799  1
