# generated using pymatgen
data_Zr10AlSiSb6
_symmetry_space_group_name_H-M   'P 1'
_cell_length_a   8.68755500
_cell_length_b   8.68755447
_cell_length_c   5.87398400
_cell_angle_alpha   90.00000000
_cell_angle_beta   90.00000000
_cell_angle_gamma   119.99999822
_symmetry_Int_Tables_number   1
_chemical_formula_structural   Zr10AlSiSb6
_chemical_formula_sum   'Zr10 Al1 Si1 Sb6'
_cell_volume   383.93570853
_cell_formula_units_Z   1
loop_
 _symmetry_equiv_pos_site_id
 _symmetry_equiv_pos_as_xyz
  1  'x, y, z'
loop_
 _atom_site_type_symbol
 _atom_site_label
 _atom_site_symmetry_multiplicity
 _atom_site_fract_x
 _atom_site_fract_y
 _atom_site_fract_z
 _atom_site_occupancy
  Zr  Zr0  1  0.735207  0.735207  0.757383  1
  Zr  Zr1  1  0.264793  0.000000  0.757383  1
  Zr  Zr2  1  0.000000  0.264793  0.757383  1
  Zr  Zr3  1  0.264793  0.264793  0.242617  1
  Zr  Zr4  1  0.735207  0.000000  0.242617  1
  Zr  Zr5  1  0.000000  0.735207  0.242617  1
  Zr  Zr6  1  0.666667  0.333333  0.000000  1
  Zr  Zr7  1  0.333333  0.666667  0.000000  1
  Zr  Zr8  1  0.333333  0.666667  0.500000  1
  Zr  Zr9  1  0.666667  0.333333  0.500000  1
  Al  Al10  1  0.000000  0.000000  0.500000  1
  Si  Si11  1  0.000000  0.000000  0.000000  1
  Sb  Sb12  1  0.392268  0.392268  0.747532  1
  Sb  Sb13  1  0.607732  0.000000  0.747532  1
  Sb  Sb14  1  0.000000  0.607732  0.747532  1
  Sb  Sb15  1  0.607732  0.607732  0.252468  1
  Sb  Sb16  1  0.392268  0.000000  0.252468  1
  Sb  Sb17  1  0.000000  0.392268  0.252468  1
