# generated using pymatgen
data_Hf6Tc5GeAs5Ru
_symmetry_space_group_name_H-M   'P 1'
_cell_length_a   7.72841248
_cell_length_b   7.77342861
_cell_length_c   7.75386961
_cell_angle_alpha   127.59049541
_cell_angle_beta   123.05676663
_cell_angle_gamma   80.99798574
_symmetry_Int_Tables_number   1
_chemical_formula_structural   Hf6Tc5GeAs5Ru
_chemical_formula_sum   'Hf6 Tc5 Ge1 As5 Ru1'
_cell_volume   298.26960722
_cell_formula_units_Z   1
loop_
 _symmetry_equiv_pos_site_id
 _symmetry_equiv_pos_as_xyz
  1  'x, y, z'
loop_
 _atom_site_type_symbol
 _atom_site_label
 _atom_site_symmetry_multiplicity
 _atom_site_fract_x
 _atom_site_fract_y
 _atom_site_fract_z
 _atom_site_occupancy
  Hf  Hf0  1  0.460592  0.684522  0.719677  1
  Hf  Hf1  1  0.531989  0.254417  0.220523  1
  Hf  Hf2  1  0.748576  0.840164  0.594701  1
  Hf  Hf3  1  0.247384  0.838049  0.086430  1
  Hf  Hf4  1  0.055660  0.256037  0.701862  1
  Hf  Hf5  1  0.947389  0.655330  0.208468  1
  Tc  Tc6  1  0.484401  0.500020  0.984394  1
  Tc  Tc7  1  0.012395  0.500459  0.514968  1
  Tc  Tc8  1  0.095069  0.252963  0.096348  1
  Tc  Tc9  1  0.897491  0.004559  0.153404  1
  Tc  Tc10  1  0.352603  0.005761  0.606067  1
  Ge  Ge11  1  0.278910  0.260211  0.483482  1
  As  As12  1  0.731188  0.239440  0.010364  1
  As  As13  1  0.329081  0.586440  0.249457  1
  As  As14  1  0.669283  0.921945  0.258987  1
  As  As15  1  0.162432  0.922411  0.750823  1
  As  As16  1  0.833740  0.584879  0.756088  1
  Ru  Ru17  1  0.661817  0.251995  0.663559  1
