# generated using pymatgen
data_Nd7Lu(SiBr6)2
_symmetry_space_group_name_H-M   'P 1'
_cell_length_a   4.17940200
_cell_length_b   13.68245175
_cell_length_c   14.44605545
_cell_angle_alpha   90.68952079
_cell_angle_beta   90.00000000
_cell_angle_gamma   90.00000000
_symmetry_Int_Tables_number   1
_chemical_formula_structural   Nd7Lu(SiBr6)2
_chemical_formula_sum   'Nd7 Lu1 Si2 Br12'
_cell_volume   826.03015067
_cell_formula_units_Z   1
loop_
 _symmetry_equiv_pos_site_id
 _symmetry_equiv_pos_as_xyz
  1  'x, y, z'
loop_
 _atom_site_type_symbol
 _atom_site_label
 _atom_site_symmetry_multiplicity
 _atom_site_fract_x
 _atom_site_fract_y
 _atom_site_fract_z
 _atom_site_occupancy
  Nd  Nd0  1  0.500000  0.119085  0.340866  1
  Nd  Nd1  1  0.500000  0.881949  0.659923  1
  Nd  Nd2  1  0.500000  0.617585  0.157874  1
  Nd  Nd3  1  0.000000  0.122005  0.581910  1
  Nd  Nd4  1  0.000000  0.880612  0.420243  1
  Nd  Nd5  1  0.000000  0.618790  0.919997  1
  Nd  Nd6  1  0.000000  0.379983  0.078409  1
  Lu  Lu7  1  0.500000  0.382643  0.842025  1
  Si  Si8  1  0.500000  0.001488  0.501063  1
  Si  Si9  1  0.500000  0.496994  0.995899  1
  Br  Br10  1  0.500000  0.242147  0.161096  1
  Br  Br11  1  0.500000  0.756360  0.837053  1
  Br  Br12  1  0.500000  0.741909  0.337386  1
  Br  Br13  1  0.500000  0.261564  0.671523  1
  Br  Br14  1  0.000000  0.256614  0.413097  1
  Br  Br15  1  0.000000  0.744237  0.587703  1
  Br  Br16  1  0.000000  0.755206  0.088145  1
  Br  Br17  1  0.000000  0.254098  0.900786  1
  Br  Br18  1  0.000000  0.000353  0.242967  1
  Br  Br19  1  0.000000  0.000156  0.758083  1
  Br  Br20  1  0.000000  0.501180  0.256157  1
  Br  Br21  1  0.000000  0.485041  0.747796  1
