# generated using pymatgen
data_Hf6Ti4(GaAs)3
_symmetry_space_group_name_H-M   'P 1'
_cell_length_a   7.88064907
_cell_length_b   7.84479434
_cell_length_c   5.34157300
_cell_angle_alpha   90.00000000
_cell_angle_beta   90.00000000
_cell_angle_gamma   120.13590328
_symmetry_Int_Tables_number   1
_chemical_formula_structural   Hf6Ti4(GaAs)3
_chemical_formula_sum   'Hf6 Ti4 Ga3 As3'
_cell_volume   285.59261645
_cell_formula_units_Z   1
loop_
 _symmetry_equiv_pos_site_id
 _symmetry_equiv_pos_as_xyz
  1  'x, y, z'
loop_
 _atom_site_type_symbol
 _atom_site_label
 _atom_site_symmetry_multiplicity
 _atom_site_fract_x
 _atom_site_fract_y
 _atom_site_fract_z
 _atom_site_occupancy
  Hf  Hf0  1  0.255509  0.001015  0.250000  1
  Hf  Hf1  1  0.745574  0.998753  0.750000  1
  Hf  Hf2  1  0.003284  0.249380  0.250000  1
  Hf  Hf3  1  0.996475  0.747495  0.750000  1
  Hf  Hf4  1  0.755198  0.752947  0.250000  1
  Hf  Hf5  1  0.244475  0.246711  0.750000  1
  Ti  Ti6  1  0.332575  0.671916  0.999872  1
  Ti  Ti7  1  0.667332  0.330047  0.000093  1
  Ti  Ti8  1  0.667332  0.330047  0.499907  1
  Ti  Ti9  1  0.332575  0.671916  0.500128  1
  Ga  Ga10  1  0.000948  0.396183  0.750000  1
  Ga  Ga11  1  0.400994  0.402030  0.250000  1
  Ga  Ga12  1  0.598363  0.598301  0.750000  1
  As  As13  1  0.609645  0.999547  0.250000  1
  As  As14  1  0.391687  0.001609  0.750000  1
  As  As15  1  0.998033  0.602102  0.250000  1
