# generated using pymatgen
data_Er2Th2As4Pd3Pt
_symmetry_space_group_name_H-M   'P 1'
_cell_length_a   4.31845900
_cell_length_b   4.31845858
_cell_length_c   15.45616800
_cell_angle_alpha   90.00000000
_cell_angle_beta   90.00000000
_cell_angle_gamma   119.99999558
_symmetry_Int_Tables_number   1
_chemical_formula_structural   Er2Th2As4Pd3Pt
_chemical_formula_sum   'Er2 Th2 As4 Pd3 Pt1'
_cell_volume   249.62612757
_cell_formula_units_Z   1
loop_
 _symmetry_equiv_pos_site_id
 _symmetry_equiv_pos_as_xyz
  1  'x, y, z'
loop_
 _atom_site_type_symbol
 _atom_site_label
 _atom_site_symmetry_multiplicity
 _atom_site_fract_x
 _atom_site_fract_y
 _atom_site_fract_z
 _atom_site_occupancy
  Er  Er0  1  0.000000  0.000000  0.249317  1
  Er  Er1  1  0.000000  0.000000  0.749886  1
  Th  Th2  1  0.000000  0.000000  0.499534  1
  Th  Th3  1  0.000000  0.000000  0.000058  1
  As  As4  1  0.333333  0.666667  0.881641  1
  As  As5  1  0.666667  0.333333  0.117938  1
  As  As6  1  0.666667  0.333333  0.383104  1
  As  As7  1  0.333333  0.666667  0.617865  1
  Pd  Pd8  1  0.333333  0.666667  0.355360  1
  Pd  Pd9  1  0.666667  0.333333  0.644678  1
  Pd  Pd10  1  0.666667  0.333333  0.855687  1
  Pt  Pt11  1  0.333333  0.666667  0.144932  1
