# generated using pymatgen
data_Yb3SmNi13C4
_symmetry_space_group_name_H-M   'P 1'
_cell_length_a   8.29744711
_cell_length_b   8.29744705
_cell_length_c   3.85419700
_cell_angle_alpha   90.00000000
_cell_angle_beta   90.00000000
_cell_angle_gamma   90.30384825
_symmetry_Int_Tables_number   1
_chemical_formula_structural   Yb3SmNi13C4
_chemical_formula_sum   'Yb3 Sm1 Ni13 C4'
_cell_volume   265.34859043
_cell_formula_units_Z   1
loop_
 _symmetry_equiv_pos_site_id
 _symmetry_equiv_pos_as_xyz
  1  'x, y, z'
loop_
 _atom_site_type_symbol
 _atom_site_label
 _atom_site_symmetry_multiplicity
 _atom_site_fract_x
 _atom_site_fract_y
 _atom_site_fract_z
 _atom_site_occupancy
  Yb  Yb0  1  0.809026  0.191675  0.500000  1
  Yb  Yb1  1  0.191675  0.809026  0.500000  1
  Yb  Yb2  1  0.654390  0.654390  0.500000  1
  Sm  Sm3  1  0.347633  0.347633  0.500000  1
  Ni  Ni4  1  0.999359  0.999359  0.000000  1
  Ni  Ni5  1  0.213866  0.572801  0.000000  1
  Ni  Ni6  1  0.784934  0.427588  0.000000  1
  Ni  Ni7  1  0.427588  0.784934  0.000000  1
  Ni  Ni8  1  0.572801  0.213866  0.000000  1
  Ni  Ni9  1  0.998455  0.502989  0.500000  1
  Ni  Ni10  1  0.502989  0.998455  0.500000  1
  Ni  Ni11  1  0.071002  0.288412  0.000000  1
  Ni  Ni12  1  0.927492  0.712245  0.000000  1
  Ni  Ni13  1  0.712245  0.927492  0.000000  1
  Ni  Ni14  1  0.288412  0.071002  0.000000  1
  Ni  Ni15  1  0.116496  0.116496  0.500000  1
  Ni  Ni16  1  0.879418  0.879418  0.500000  1
  C  C17  1  0.998785  0.500510  0.000000  1
  C  C18  1  0.500510  0.998785  0.000000  1
  C  C19  1  0.444079  0.558845  0.000000  1
  C  C20  1  0.558845  0.444079  0.000000  1
