# generated using pymatgen
data_BeNb4Co4SiAs2
_symmetry_space_group_name_H-M   'P 1'
_cell_length_a   3.66779400
_cell_length_b   6.24946397
_cell_length_c   7.09996727
_cell_angle_alpha   89.40424904
_cell_angle_beta   90.00000000
_cell_angle_gamma   90.00000000
_symmetry_Int_Tables_number   1
_chemical_formula_structural   BeNb4Co4SiAs2
_chemical_formula_sum   'Be1 Nb4 Co4 Si1 As2'
_cell_volume   162.73485221
_cell_formula_units_Z   1
loop_
 _symmetry_equiv_pos_site_id
 _symmetry_equiv_pos_as_xyz
  1  'x, y, z'
loop_
 _atom_site_type_symbol
 _atom_site_label
 _atom_site_symmetry_multiplicity
 _atom_site_fract_x
 _atom_site_fract_y
 _atom_site_fract_z
 _atom_site_occupancy
  Be  Be0  1  0.250000  0.275295  0.614585  1
  Nb  Nb1  1  0.250000  0.025220  0.331479  1
  Nb  Nb2  1  0.250000  0.524930  0.187097  1
  Nb  Nb3  1  0.750000  0.993418  0.673142  1
  Nb  Nb4  1  0.750000  0.467523  0.804351  1
  Co  Co5  1  0.250000  0.143619  0.929767  1
  Co  Co6  1  0.250000  0.634911  0.559519  1
  Co  Co7  1  0.750000  0.854816  0.067909  1
  Co  Co8  1  0.750000  0.357861  0.447853  1
  Si  Si9  1  0.750000  0.724612  0.387008  1
  As  As10  1  0.250000  0.768554  0.875939  1
  As  As11  1  0.750000  0.229241  0.121351  1
