# generated using pymatgen
data_Tb4Al18VPd5
_symmetry_space_group_name_H-M   'P 1'
_cell_length_a   7.62137485
_cell_length_b   7.62137548
_cell_length_c   9.57999785
_cell_angle_alpha   89.53986981
_cell_angle_beta   89.53986795
_cell_angle_gamma   118.69199255
_symmetry_Int_Tables_number   1
_chemical_formula_structural   Tb4Al18VPd5
_chemical_formula_sum   'Tb4 Al18 V1 Pd5'
_cell_volume   488.07145119
_cell_formula_units_Z   1
loop_
 _symmetry_equiv_pos_site_id
 _symmetry_equiv_pos_as_xyz
  1  'x, y, z'
loop_
 _atom_site_type_symbol
 _atom_site_label
 _atom_site_symmetry_multiplicity
 _atom_site_fract_x
 _atom_site_fract_y
 _atom_site_fract_z
 _atom_site_occupancy
  Tb  Tb0  1  0.995037  0.677167  0.247372  1
  Tb  Tb1  1  0.004963  0.322833  0.752628  1
  Tb  Tb2  1  0.677167  0.995037  0.247372  1
  Tb  Tb3  1  0.322833  0.004963  0.752628  1
  Al  Al4  1  0.130954  0.130954  0.245696  1
  Al  Al5  1  0.869046  0.869046  0.754304  1
  Al  Al6  1  0.004959  0.332896  0.073653  1
  Al  Al7  1  0.995041  0.667104  0.926347  1
  Al  Al8  1  0.998008  0.661877  0.576382  1
  Al  Al9  1  0.338123  0.001992  0.423618  1
  Al  Al10  1  0.001992  0.338123  0.423618  1
  Al  Al11  1  0.661877  0.998008  0.576382  1
  Al  Al12  1  0.667104  0.995041  0.926347  1
  Al  Al13  1  0.332896  0.004959  0.073653  1
  Al  Al14  1  0.333376  0.333376  0.553177  1
  Al  Al15  1  0.666624  0.666624  0.446823  1
  Al  Al16  1  0.669689  0.669689  0.050296  1
  Al  Al17  1  0.330311  0.330311  0.949704  1
  Al  Al18  1  0.340074  0.547673  0.250385  1
  Al  Al19  1  0.659926  0.452327  0.749615  1
  Al  Al20  1  0.547673  0.340074  0.250385  1
  Al  Al21  1  0.452327  0.659926  0.749615  1
  V  V22  1  0.000000  0.000000  0.000000  1
  Pd  Pd23  1  0.672939  0.327061  0.000000  1
  Pd  Pd24  1  0.327061  0.672939  0.000000  1
  Pd  Pd25  1  0.328332  0.671668  0.500000  1
  Pd  Pd26  1  0.671668  0.328332  0.500000  1
  Pd  Pd27  1  0.000000  0.000000  0.500000  1
