# generated using pymatgen
data_Y7Ho3InSb5
_symmetry_space_group_name_H-M   'P 1'
_cell_length_a   6.41127103
_cell_length_b   8.97294804
_cell_length_c   8.97882362
_cell_angle_alpha   119.96889367
_cell_angle_beta   90.00905843
_cell_angle_gamma   90.00165696
_symmetry_Int_Tables_number   1
_chemical_formula_structural   Y7Ho3InSb5
_chemical_formula_sum   'Y7 Ho3 In1 Sb5'
_cell_volume   447.47151745
_cell_formula_units_Z   1
loop_
 _symmetry_equiv_pos_site_id
 _symmetry_equiv_pos_as_xyz
  1  'x, y, z'
loop_
 _atom_site_type_symbol
 _atom_site_label
 _atom_site_symmetry_multiplicity
 _atom_site_fract_x
 _atom_site_fract_y
 _atom_site_fract_z
 _atom_site_occupancy
  Y  Y0  1  0.001160  0.334540  0.668308  1
  Y  Y1  1  0.749935  0.244485  0.000061  1
  Y  Y2  1  0.749964  0.753495  0.757202  1
  Y  Y3  1  0.749942  0.996273  0.242841  1
  Y  Y4  1  0.250113  0.756904  0.000119  1
  Y  Y5  1  0.250114  0.247442  0.245192  1
  Y  Y6  1  0.250044  0.002218  0.754814  1
  Ho  Ho7  1  0.499120  0.334927  0.668673  1
  Ho  Ho8  1  0.498988  0.666348  0.331473  1
  Ho  Ho9  1  0.001008  0.666283  0.331302  1
  In  In10  1  0.748981  0.604955  0.000472  1
  Sb  Sb11  1  0.749514  0.389110  0.389394  1
  Sb  Sb12  1  0.749606  0.998831  0.610179  1
  Sb  Sb13  1  0.250555  0.391670  0.000428  1
  Sb  Sb14  1  0.250431  0.611696  0.610055  1
  Sb  Sb15  1  0.250530  0.000822  0.389486  1
