# generated using pymatgen
data_Th2CuP3Pd2
_symmetry_space_group_name_H-M   'P 1'
_cell_length_a   4.01977000
_cell_length_b   10.99576300
_cell_length_c   13.38439800
_cell_angle_alpha   90.00000000
_cell_angle_beta   90.00000000
_cell_angle_gamma   90.00000000
_symmetry_Int_Tables_number   1
_chemical_formula_structural   Th2CuP3Pd2
_chemical_formula_sum   'Th8 Cu4 P12 Pd8'
_cell_volume   591.59625711
_cell_formula_units_Z   4
loop_
 _symmetry_equiv_pos_site_id
 _symmetry_equiv_pos_as_xyz
  1  'x, y, z'
loop_
 _atom_site_type_symbol
 _atom_site_label
 _atom_site_symmetry_multiplicity
 _atom_site_fract_x
 _atom_site_fract_y
 _atom_site_fract_z
 _atom_site_occupancy
  Th  Th0  1  0.250000  0.932017  0.793720  1
  Th  Th1  1  0.750000  0.432017  0.706280  1
  Th  Th2  1  0.250000  0.567983  0.293720  1
  Th  Th3  1  0.750000  0.067983  0.206280  1
  Th  Th4  1  0.250000  0.833926  0.503484  1
  Th  Th5  1  0.750000  0.333926  0.996516  1
  Th  Th6  1  0.250000  0.666074  0.003484  1
  Th  Th7  1  0.750000  0.166074  0.496516  1
  Cu  Cu8  1  0.250000  0.862293  0.281520  1
  Cu  Cu9  1  0.750000  0.362293  0.218480  1
  Cu  Cu10  1  0.250000  0.637707  0.781520  1
  Cu  Cu11  1  0.750000  0.137707  0.718480  1
  P  P12  1  0.250000  0.237612  0.643865  1
  P  P13  1  0.750000  0.737612  0.856135  1
  P  P14  1  0.250000  0.262388  0.143865  1
  P  P15  1  0.750000  0.762388  0.356135  1
  P  P16  1  0.250000  0.601393  0.605867  1
  P  P17  1  0.750000  0.101393  0.894133  1
  P  P18  1  0.250000  0.898607  0.105867  1
  P  P19  1  0.750000  0.398607  0.394133  1
  P  P20  1  0.250000  0.051024  0.370043  1
  P  P21  1  0.750000  0.551024  0.129957  1
  P  P22  1  0.250000  0.448976  0.870043  1
  P  P23  1  0.750000  0.948976  0.629957  1
  Pd  Pd24  1  0.250000  0.402093  0.513687  1
  Pd  Pd25  1  0.750000  0.902093  0.986313  1
  Pd  Pd26  1  0.250000  0.097907  0.013687  1
  Pd  Pd27  1  0.750000  0.597907  0.486313  1
  Pd  Pd28  1  0.250000  0.271038  0.329558  1
  Pd  Pd29  1  0.750000  0.771038  0.170442  1
  Pd  Pd30  1  0.250000  0.228962  0.829558  1
  Pd  Pd31  1  0.750000  0.728962  0.670442  1
