# generated using pymatgen
data_Ce10Sn7Bi
_symmetry_space_group_name_H-M   'P 1'
_cell_length_a   9.73795500
_cell_length_b   9.73795420
_cell_length_c   6.58308500
_cell_angle_alpha   90.00000000
_cell_angle_beta   90.00000000
_cell_angle_gamma   120.02788573
_symmetry_Int_Tables_number   1
_chemical_formula_structural   Ce10Sn7Bi
_chemical_formula_sum   'Ce10 Sn7 Bi1'
_cell_volume   540.47235166
_cell_formula_units_Z   1
loop_
 _symmetry_equiv_pos_site_id
 _symmetry_equiv_pos_as_xyz
  1  'x, y, z'
loop_
 _atom_site_type_symbol
 _atom_site_label
 _atom_site_symmetry_multiplicity
 _atom_site_fract_x
 _atom_site_fract_y
 _atom_site_fract_z
 _atom_site_occupancy
  Ce  Ce0  1  0.004103  0.725587  0.750000  1
  Ce  Ce1  1  0.274231  0.274231  0.750000  1
  Ce  Ce2  1  0.330224  0.666541  0.495348  1
  Ce  Ce3  1  0.666541  0.330224  0.495348  1
  Ce  Ce4  1  0.722005  0.722005  0.250000  1
  Ce  Ce5  1  0.725587  0.004103  0.750000  1
  Ce  Ce6  1  0.000517  0.279825  0.250000  1
  Ce  Ce7  1  0.279825  0.000517  0.250000  1
  Ce  Ce8  1  0.330224  0.666541  0.004652  1
  Ce  Ce9  1  0.666541  0.330224  0.004652  1
  Sn  Sn10  1  0.000498  0.379764  0.750000  1
  Sn  Sn11  1  0.379764  0.000498  0.750000  1
  Sn  Sn12  1  0.622373  0.999672  0.250000  1
  Sn  Sn13  1  0.376540  0.376540  0.250000  1
  Sn  Sn14  1  0.000316  0.000316  0.004893  1
  Sn  Sn15  1  0.999672  0.622373  0.250000  1
  Sn  Sn16  1  0.000316  0.000316  0.495107  1
  Bi  Bi17  1  0.620724  0.620724  0.750000  1
