# generated using pymatgen
data_Er5AlRuO12
_symmetry_space_group_name_H-M   'P 1'
_cell_length_a   6.75049323
_cell_length_b   6.75049415
_cell_length_c   7.18394325
_cell_angle_alpha   74.50984972
_cell_angle_beta   74.50983444
_cell_angle_gamma   50.67369601
_symmetry_Int_Tables_number   1
_chemical_formula_structural   Er5AlRuO12
_chemical_formula_sum   'Er5 Al1 Ru1 O12'
_cell_volume   241.92544645
_cell_formula_units_Z   1
loop_
 _symmetry_equiv_pos_site_id
 _symmetry_equiv_pos_as_xyz
  1  'x, y, z'
loop_
 _atom_site_type_symbol
 _atom_site_label
 _atom_site_symmetry_multiplicity
 _atom_site_fract_x
 _atom_site_fract_y
 _atom_site_fract_z
 _atom_site_occupancy
  Er  Er0  1  0.692753  0.690939  0.668540  1
  Er  Er1  1  0.686109  0.707701  0.140843  1
  Er  Er2  1  0.997423  0.002577  0.000000  1
  Er  Er3  1  0.292299  0.313891  0.859157  1
  Er  Er4  1  0.309061  0.307247  0.331460  1
  Al  Al5  1  0.253995  0.746005  0.500000  1
  Ru  Ru6  1  0.763857  0.236143  0.500000  1
  O  O7  1  0.399563  0.908079  0.923555  1
  O  O8  1  0.574451  0.098198  0.583028  1
  O  O9  1  0.901802  0.425549  0.416972  1
  O  O10  1  0.091921  0.600437  0.076445  1
  O  O11  1  0.007007  0.993102  0.319576  1
  O  O12  1  0.503490  0.497230  0.683284  1
  O  O13  1  0.898567  0.404078  0.927235  1
  O  O14  1  0.099997  0.577885  0.581569  1
  O  O15  1  0.422115  0.900003  0.418431  1
  O  O16  1  0.595922  0.101433  0.072765  1
  O  O17  1  0.502770  0.496510  0.316716  1
  O  O18  1  0.006898  0.992993  0.680424  1
