# generated using pymatgen
data_ThPa3(GePd)4
_symmetry_space_group_name_H-M   'P 1'
_cell_length_a   4.43142300
_cell_length_b   7.07073221
_cell_length_c   7.73335191
_cell_angle_alpha   89.72453605
_cell_angle_beta   90.00000000
_cell_angle_gamma   90.00000000
_symmetry_Int_Tables_number   1
_chemical_formula_structural   ThPa3(GePd)4
_chemical_formula_sum   'Th1 Pa3 Ge4 Pd4'
_cell_volume   242.30944960
_cell_formula_units_Z   1
loop_
 _symmetry_equiv_pos_site_id
 _symmetry_equiv_pos_as_xyz
  1  'x, y, z'
loop_
 _atom_site_type_symbol
 _atom_site_label
 _atom_site_symmetry_multiplicity
 _atom_site_fract_x
 _atom_site_fract_y
 _atom_site_fract_z
 _atom_site_occupancy
  Th  Th0  1  0.750000  0.498632  0.790440  1
  Pa  Pa1  1  0.250000  0.997342  0.286154  1
  Pa  Pa2  1  0.250000  0.499799  0.213862  1
  Pa  Pa3  1  0.750000  0.999030  0.710647  1
  Ge  Ge4  1  0.250000  0.266320  0.587311  1
  Ge  Ge5  1  0.250000  0.786598  0.910011  1
  Ge  Ge6  1  0.750000  0.716771  0.405268  1
  Ge  Ge7  1  0.750000  0.216069  0.096598  1
  Pd  Pd8  1  0.250000  0.186690  0.921529  1
  Pd  Pd9  1  0.250000  0.703345  0.576816  1
  Pd  Pd10  1  0.750000  0.817255  0.080571  1
  Pd  Pd11  1  0.750000  0.312147  0.420796  1
