# generated using pymatgen
data_YTm2Lu(WO6)2
_symmetry_space_group_name_H-M   'P 1'
_cell_length_a   5.35123000
_cell_length_b   7.64329340
_cell_length_c   11.37394266
_cell_angle_alpha   75.34368495
_cell_angle_beta   90.00000000
_cell_angle_gamma   90.00000000
_symmetry_Int_Tables_number   1
_chemical_formula_structural   YTm2Lu(WO6)2
_chemical_formula_sum   'Y2 Tm4 Lu2 W4 O24'
_cell_volume   450.06850902
_cell_formula_units_Z   2
loop_
 _symmetry_equiv_pos_site_id
 _symmetry_equiv_pos_as_xyz
  1  'x, y, z'
loop_
 _atom_site_type_symbol
 _atom_site_label
 _atom_site_symmetry_multiplicity
 _atom_site_fract_x
 _atom_site_fract_y
 _atom_site_fract_z
 _atom_site_occupancy
  Y  Y0  1  0.315701  0.500000  0.750000  1
  Y  Y1  1  0.684643  0.500000  0.250000  1
  Tm  Tm2  1  0.184674  0.796203  0.078063  1
  Tm  Tm3  1  0.258996  0.000000  0.750000  1
  Tm  Tm4  1  0.741199  0.000000  0.250000  1
  Tm  Tm5  1  0.184674  0.203797  0.421937  1
  Lu  Lu6  1  0.815003  0.204648  0.921439  1
  Lu  Lu7  1  0.815003  0.795352  0.578561  1
  W  W8  1  0.745056  0.724993  0.884957  1
  W  W9  1  0.255454  0.725240  0.385691  1
  W  W10  1  0.745056  0.275007  0.615043  1
  W  W11  1  0.255454  0.274760  0.114309  1
  O  O12  1  0.852761  0.363591  0.451052  1
  O  O13  1  0.462571  0.847346  0.930302  1
  O  O14  1  0.852761  0.636409  0.048948  1
  O  O15  1  0.019423  0.285372  0.730558  1
  O  O16  1  0.980708  0.285904  0.230057  1
  O  O17  1  0.145147  0.362895  0.950591  1
  O  O18  1  0.643413  0.487923  0.886516  1
  O  O19  1  0.538434  0.152910  0.068071  1
  O  O20  1  0.145147  0.637105  0.549409  1
  O  O21  1  0.019423  0.714628  0.769442  1
  O  O22  1  0.458581  0.205802  0.273961  1
  O  O23  1  0.041194  0.941594  0.395973  1
  O  O24  1  0.462571  0.152654  0.569698  1
  O  O25  1  0.980708  0.714096  0.269943  1
  O  O26  1  0.957039  0.056713  0.604297  1
  O  O27  1  0.542817  0.206037  0.775093  1
  O  O28  1  0.542817  0.793963  0.724907  1
  O  O29  1  0.041194  0.058406  0.104027  1
  O  O30  1  0.643413  0.512077  0.613484  1
  O  O31  1  0.357455  0.511156  0.113232  1
  O  O32  1  0.458581  0.794198  0.226039  1
  O  O33  1  0.357455  0.488844  0.386768  1
  O  O34  1  0.538434  0.847090  0.431929  1
  O  O35  1  0.957039  0.943287  0.895703  1
