# generated using pymatgen
data_Tb10Y2Pd3Pt
_symmetry_space_group_name_H-M   'P 1'
_cell_length_a   6.50028305
_cell_length_b   7.05700057
_cell_length_c   9.72107300
_cell_angle_alpha   90.00000000
_cell_angle_beta   90.00000000
_cell_angle_gamma   89.92760519
_symmetry_Int_Tables_number   1
_chemical_formula_structural   Tb10Y2Pd3Pt
_chemical_formula_sum   'Tb10 Y2 Pd3 Pt1'
_cell_volume   445.92957698
_cell_formula_units_Z   1
loop_
 _symmetry_equiv_pos_site_id
 _symmetry_equiv_pos_as_xyz
  1  'x, y, z'
loop_
 _atom_site_type_symbol
 _atom_site_label
 _atom_site_symmetry_multiplicity
 _atom_site_fract_x
 _atom_site_fract_y
 _atom_site_fract_z
 _atom_site_occupancy
  Tb  Tb0  1  0.636666  0.024263  0.250000  1
  Tb  Tb1  1  0.866525  0.528904  0.250000  1
  Tb  Tb2  1  0.175324  0.178633  0.060516  1
  Tb  Tb3  1  0.824674  0.819571  0.940747  1
  Tb  Tb4  1  0.675254  0.320336  0.940262  1
  Tb  Tb5  1  0.824674  0.819571  0.559253  1
  Tb  Tb6  1  0.322606  0.681939  0.060715  1
  Tb  Tb7  1  0.175324  0.178633  0.439484  1
  Tb  Tb8  1  0.322606  0.681939  0.439285  1
  Tb  Tb9  1  0.675254  0.320336  0.559738  1
  Y  Y10  1  0.365913  0.974411  0.750000  1
  Y  Y11  1  0.134302  0.475216  0.750000  1
  Pd  Pd12  1  0.442476  0.389001  0.250000  1
  Pd  Pd13  1  0.560334  0.610393  0.750000  1
  Pd  Pd14  1  0.939736  0.109804  0.750000  1
  Pt  Pt15  1  0.058332  0.887051  0.250000  1
