# generated using pymatgen
data_Hf18Ta5Ni2W3
_symmetry_space_group_name_H-M   'P 1'
_cell_length_a   8.78141128
_cell_length_b   8.81487689
_cell_length_c   8.52612100
_cell_angle_alpha   90.00000000
_cell_angle_beta   90.00000000
_cell_angle_gamma   120.12615216
_symmetry_Int_Tables_number   1
_chemical_formula_structural   Hf18Ta5Ni2W3
_chemical_formula_sum   'Hf18 Ta5 Ni2 W3'
_cell_volume   570.83318962
_cell_formula_units_Z   1
loop_
 _symmetry_equiv_pos_site_id
 _symmetry_equiv_pos_as_xyz
  1  'x, y, z'
loop_
 _atom_site_type_symbol
 _atom_site_label
 _atom_site_symmetry_multiplicity
 _atom_site_fract_x
 _atom_site_fract_y
 _atom_site_fract_z
 _atom_site_occupancy
  Hf  Hf0  1  0.200920  0.799464  0.441109  1
  Hf  Hf1  1  0.200920  0.401457  0.441109  1
  Hf  Hf2  1  0.599723  0.799862  0.443196  1
  Hf  Hf3  1  0.798760  0.199590  0.560110  1
  Hf  Hf4  1  0.798760  0.599169  0.560110  1
  Hf  Hf5  1  0.401574  0.200786  0.558812  1
  Hf  Hf6  1  0.798760  0.199590  0.939890  1
  Hf  Hf7  1  0.798760  0.599169  0.939890  1
  Hf  Hf8  1  0.401574  0.200786  0.941188  1
  Hf  Hf9  1  0.200920  0.799464  0.058891  1
  Hf  Hf10  1  0.200920  0.401457  0.058891  1
  Hf  Hf11  1  0.599723  0.799862  0.056804  1
  Hf  Hf12  1  0.541732  0.457976  0.250000  1
  Hf  Hf13  1  0.541732  0.083755  0.250000  1
  Hf  Hf14  1  0.915789  0.457894  0.250000  1
  Hf  Hf15  1  0.460278  0.544185  0.750000  1
  Hf  Hf16  1  0.460278  0.916094  0.750000  1
  Hf  Hf17  1  0.084556  0.542279  0.750000  1
  Ta  Ta18  1  0.886256  0.113236  0.250000  1
  Ta  Ta19  1  0.886256  0.773020  0.250000  1
  Ta  Ta20  1  0.226478  0.113239  0.250000  1
  Ta  Ta21  1  0.112090  0.885679  0.750000  1
  Ta  Ta22  1  0.112090  0.226411  0.750000  1
  Ni  Ni23  1  0.334550  0.667276  0.250000  1
  Ni  Ni24  1  0.666464  0.333232  0.750000  1
  W  W25  1  0.774115  0.887058  0.750000  1
  W  W26  1  0.998011  0.999006  0.501092  1
  W  W27  1  0.998011  0.999006  0.998908  1
