# generated using pymatgen
data_Th8TaSi16Mo11
_symmetry_space_group_name_H-M   'P 1'
_cell_length_a   7.07708756
_cell_length_b   7.07708756
_cell_length_c   13.05809459
_cell_angle_alpha   90.02501239
_cell_angle_beta   90.02501239
_cell_angle_gamma   89.74601063
_symmetry_Int_Tables_number   1
_chemical_formula_structural   Th8TaSi16Mo11
_chemical_formula_sum   'Th8 Ta1 Si16 Mo11'
_cell_volume   654.01031558
_cell_formula_units_Z   1
loop_
 _symmetry_equiv_pos_site_id
 _symmetry_equiv_pos_as_xyz
  1  'x, y, z'
loop_
 _atom_site_type_symbol
 _atom_site_label
 _atom_site_symmetry_multiplicity
 _atom_site_fract_x
 _atom_site_fract_y
 _atom_site_fract_z
 _atom_site_occupancy
  Th  Th0  1  0.002520  0.337167  0.219836  1
  Th  Th1  1  0.999794  0.665734  0.719886  1
  Th  Th2  1  0.162968  0.503640  0.469155  1
  Th  Th3  1  0.496360  0.837032  0.030845  1
  Th  Th4  1  0.838174  0.497558  0.971327  1
  Th  Th5  1  0.502442  0.161826  0.528673  1
  Th  Th6  1  0.334266  0.000206  0.780114  1
  Th  Th7  1  0.662833  0.997480  0.280164  1
  Ta  Ta8  1  0.669049  0.330951  0.750000  1
  Si  Si9  1  0.279418  0.033050  0.184564  1
  Si  Si10  1  0.716298  0.962955  0.682597  1
  Si  Si11  1  0.467483  0.777615  0.434007  1
  Si  Si12  1  0.222385  0.532517  0.065993  1
  Si  Si13  1  0.531437  0.219978  0.937008  1
  Si  Si14  1  0.780022  0.468563  0.562992  1
  Si  Si15  1  0.037045  0.283702  0.817403  1
  Si  Si16  1  0.966950  0.720582  0.315436  1
  Si  Si17  1  0.383001  0.305166  0.312047  1
  Si  Si18  1  0.619740  0.699015  0.813182  1
  Si  Si19  1  0.194862  0.884171  0.561697  1
  Si  Si20  1  0.115829  0.805138  0.938303  1
  Si  Si21  1  0.805382  0.115953  0.062009  1
  Si  Si22  1  0.884047  0.194618  0.437991  1
  Si  Si23  1  0.300985  0.380260  0.686818  1
  Si  Si24  1  0.694834  0.616999  0.187953  1
  Mo  Mo25  1  0.167670  0.169986  0.000237  1
  Mo  Mo26  1  0.830014  0.832330  0.499763  1
  Mo  Mo27  1  0.331520  0.668480  0.250000  1
  Mo  Mo28  1  0.170905  0.009624  0.374126  1
  Mo  Mo29  1  0.828701  0.994960  0.872979  1
  Mo  Mo30  1  0.491981  0.666406  0.625375  1
  Mo  Mo31  1  0.333594  0.508019  0.874625  1
  Mo  Mo32  1  0.511614  0.329541  0.126358  1
  Mo  Mo33  1  0.670459  0.488386  0.373642  1
  Mo  Mo34  1  0.005040  0.171299  0.627021  1
  Mo  Mo35  1  0.990376  0.829095  0.125874  1
