# generated using pymatgen
data_CeGd(Be12Ni)2
_symmetry_space_group_name_H-M   'P 1'
_cell_length_a   7.32521424
_cell_length_b   7.36829282
_cell_length_c   7.29478717
_cell_angle_alpha   59.94059501
_cell_angle_beta   59.90240622
_cell_angle_gamma   59.52810833
_symmetry_Int_Tables_number   1
_chemical_formula_structural   CeGd(Be12Ni)2
_chemical_formula_sum   'Ce1 Gd1 Be24 Ni2'
_cell_volume   277.07622816
_cell_formula_units_Z   1
loop_
 _symmetry_equiv_pos_site_id
 _symmetry_equiv_pos_as_xyz
  1  'x, y, z'
loop_
 _atom_site_type_symbol
 _atom_site_label
 _atom_site_symmetry_multiplicity
 _atom_site_fract_x
 _atom_site_fract_y
 _atom_site_fract_z
 _atom_site_occupancy
  Ce  Ce0  1  0.998222  0.001768  0.998245  1
  Gd  Gd1  1  0.500783  0.498975  0.500667  1
  Be  Be2  1  0.315471  0.539704  0.180982  1
  Be  Be3  1  0.180959  0.963853  0.315472  1
  Be  Be4  1  0.038556  0.686669  0.457750  1
  Be  Be5  1  0.457836  0.816931  0.038509  1
  Be  Be6  1  0.685241  0.034142  0.817315  1
  Be  Be7  1  0.817312  0.463249  0.685327  1
  Be  Be8  1  0.959769  0.544665  0.310683  1
  Be  Be9  1  0.542561  0.957055  0.187450  1
  Be  Be10  1  0.187498  0.312923  0.542649  1
  Be  Be11  1  0.310662  0.185012  0.959785  1
  Be  Be12  1  0.461308  0.032338  0.687420  1
  Be  Be13  1  0.035524  0.464998  0.815480  1
  Be  Be14  1  0.815440  0.683877  0.035522  1
  Be  Be15  1  0.687397  0.818921  0.461371  1
  Be  Be16  1  0.311684  0.960376  0.543012  1
  Be  Be17  1  0.185193  0.542963  0.959630  1
  Be  Be18  1  0.543106  0.185019  0.311606  1
  Be  Be19  1  0.959580  0.312180  0.185165  1
  Be  Be20  1  0.688442  0.462156  0.034781  1
  Be  Be21  1  0.815783  0.034999  0.461856  1
  Be  Be22  1  0.034960  0.814462  0.688420  1
  Be  Be23  1  0.461699  0.687267  0.815809  1
  Be  Be24  1  0.249994  0.250087  0.250017  1
  Be  Be25  1  0.749808  0.750143  0.749744  1
  Ni  Ni26  1  0.549387  0.307041  0.955842  1
  Ni  Ni27  1  0.955823  0.188224  0.549493  1
