# generated using pymatgen
data_Ba3Sc2Cl2O5
_symmetry_space_group_name_H-M   'P 1'
_cell_length_a   4.24673177
_cell_length_b   4.24673197
_cell_length_c   13.03630395
_cell_angle_alpha   99.37415025
_cell_angle_beta   99.37414886
_cell_angle_gamma   90.00000198
_symmetry_Int_Tables_number   1
_chemical_formula_structural   Ba3Sc2Cl2O5
_chemical_formula_sum   'Ba3 Sc2 Cl2 O5'
_cell_volume   228.78382444
_cell_formula_units_Z   1
loop_
 _symmetry_equiv_pos_site_id
 _symmetry_equiv_pos_as_xyz
  1  'x, y, z'
loop_
 _atom_site_type_symbol
 _atom_site_label
 _atom_site_symmetry_multiplicity
 _atom_site_fract_x
 _atom_site_fract_y
 _atom_site_fract_z
 _atom_site_occupancy
  Ba  Ba0  1  0.843750  0.843750  0.687499  1
  Ba  Ba1  1  0.156374  0.156374  0.312748  1
  Ba  Ba2  1  0.000059  0.000059  0.000119  1
  Sc  Sc3  1  0.578468  0.578468  0.156937  1
  Sc  Sc4  1  0.421870  0.421870  0.843740  1
  Cl  Cl5  1  0.299670  0.299670  0.599340  1
  Cl  Cl6  1  0.699887  0.699887  0.399773  1
  O  O7  1  0.411293  0.911293  0.822587  1
  O  O8  1  0.588647  0.088647  0.177295  1
  O  O9  1  0.911293  0.411293  0.822587  1
  O  O10  1  0.500122  0.500122  0.000243  1
  O  O11  1  0.088647  0.588647  0.177295  1
