# generated using pymatgen
data_Tm8Sc2Si5Pb
_symmetry_space_group_name_H-M   'P 1'
_cell_length_a   8.35898608
_cell_length_b   8.35898511
_cell_length_c   6.17805908
_cell_angle_alpha   90.00918136
_cell_angle_beta   90.00917635
_cell_angle_gamma   120.18560616
_symmetry_Int_Tables_number   1
_chemical_formula_structural   Tm8Sc2Si5Pb
_chemical_formula_sum   'Tm8 Sc2 Si5 Pb1'
_cell_volume   373.14233176
_cell_formula_units_Z   1
loop_
 _symmetry_equiv_pos_site_id
 _symmetry_equiv_pos_as_xyz
  1  'x, y, z'
loop_
 _atom_site_type_symbol
 _atom_site_label
 _atom_site_symmetry_multiplicity
 _atom_site_fract_x
 _atom_site_fract_y
 _atom_site_fract_z
 _atom_site_occupancy
  Tm  Tm0  1  0.330607  0.675450  0.995511  1
  Tm  Tm1  1  0.675450  0.330607  0.995511  1
  Tm  Tm2  1  0.767537  0.767537  0.252405  1
  Tm  Tm3  1  0.240902  0.987698  0.253470  1
  Tm  Tm4  1  0.987698  0.240902  0.253470  1
  Tm  Tm5  1  0.239972  0.239972  0.749263  1
  Tm  Tm6  1  0.754628  0.997931  0.746380  1
  Tm  Tm7  1  0.997931  0.754628  0.746380  1
  Sc  Sc8  1  0.675839  0.331198  0.503672  1
  Sc  Sc9  1  0.331198  0.675839  0.503672  1
  Si  Si10  1  0.601694  0.998090  0.260797  1
  Si  Si11  1  0.998090  0.601694  0.260797  1
  Si  Si12  1  0.603330  0.603330  0.741569  1
  Si  Si13  1  0.395723  0.001566  0.739182  1
  Si  Si14  1  0.001566  0.395723  0.739182  1
  Pb  Pb15  1  0.397834  0.397834  0.258740  1
