# generated using pymatgen
data_Y8Zr12Si15Sn
_symmetry_space_group_name_H-M   'P 1'
_cell_length_a   7.18964165
_cell_length_b   7.33828450
_cell_length_c   14.05854761
_cell_angle_alpha   89.84958111
_cell_angle_beta   90.55828968
_cell_angle_gamma   90.02500782
_symmetry_Int_Tables_number   1
_chemical_formula_structural   Y8Zr12Si15Sn
_chemical_formula_sum   'Y8 Zr12 Si15 Sn1'
_cell_volume   741.68602260
_cell_formula_units_Z   1
loop_
 _symmetry_equiv_pos_site_id
 _symmetry_equiv_pos_as_xyz
  1  'x, y, z'
loop_
 _atom_site_type_symbol
 _atom_site_label
 _atom_site_symmetry_multiplicity
 _atom_site_fract_x
 _atom_site_fract_y
 _atom_site_fract_z
 _atom_site_occupancy
  Y  Y0  1  0.513491  0.670879  0.601267  1
  Y  Y1  1  0.019974  0.822765  0.902602  1
  Y  Y2  1  0.478702  0.323131  0.096150  1
  Y  Y3  1  0.994085  0.183886  0.399550  1
  Y  Y4  1  0.480169  0.329551  0.401177  1
  Y  Y5  1  0.979878  0.176711  0.096078  1
  Y  Y6  1  0.520950  0.678030  0.902799  1
  Y  Y7  1  0.018676  0.822584  0.599333  1
  Zr  Zr8  1  0.670619  0.185340  0.630781  1
  Zr  Zr9  1  0.174640  0.323751  0.876500  1
  Zr  Zr10  1  0.323686  0.823929  0.123414  1
  Zr  Zr11  1  0.835548  0.662585  0.369563  1
  Zr  Zr12  1  0.316340  0.821693  0.373837  1
  Zr  Zr13  1  0.823343  0.675783  0.123486  1
  Zr  Zr14  1  0.676476  0.175899  0.875699  1
  Zr  Zr15  1  0.173152  0.324750  0.627273  1
  Zr  Zr16  1  0.849111  0.498770  0.750757  1
  Zr  Zr17  1  0.348933  0.003380  0.751023  1
  Zr  Zr18  1  0.151307  0.501127  0.248348  1
  Zr  Zr19  1  0.650127  0.996451  0.244585  1
  Si  Si20  1  0.148485  0.531318  0.041809  1
  Si  Si21  1  0.349684  0.030939  0.957752  1
  Si  Si22  1  0.847056  0.467456  0.540942  1
  Si  Si23  1  0.337633  0.034857  0.543428  1
  Si  Si24  1  0.849860  0.468576  0.957927  1
  Si  Si25  1  0.650267  0.968945  0.040510  1
  Si  Si26  1  0.154163  0.533423  0.461782  1
  Si  Si27  1  0.470703  0.384538  0.753485  1
  Si  Si28  1  0.972845  0.118171  0.751373  1
  Si  Si29  1  0.526218  0.618997  0.249149  1
  Si  Si30  1  0.026126  0.882366  0.247821  1
  Si  Si31  1  0.722981  0.874400  0.750613  1
  Si  Si32  1  0.222498  0.626832  0.751667  1
  Si  Si33  1  0.279311  0.125509  0.248999  1
  Si  Si34  1  0.775212  0.369477  0.247751  1
  Sn  Sn35  1  0.667752  0.963201  0.460770  1
