# generated using pymatgen
data_TbYTh2(GaRh)4
_symmetry_space_group_name_H-M   'P 1'
_cell_length_a   4.36895000
_cell_length_b   6.91651908
_cell_length_c   7.93242409
_cell_angle_alpha   89.98289581
_cell_angle_beta   90.00000000
_cell_angle_gamma   90.00000000
_symmetry_Int_Tables_number   1
_chemical_formula_structural   TbYTh2(GaRh)4
_chemical_formula_sum   'Tb1 Y1 Th2 Ga4 Rh4'
_cell_volume   239.70139359
_cell_formula_units_Z   1
loop_
 _symmetry_equiv_pos_site_id
 _symmetry_equiv_pos_as_xyz
  1  'x, y, z'
loop_
 _atom_site_type_symbol
 _atom_site_label
 _atom_site_symmetry_multiplicity
 _atom_site_fract_x
 _atom_site_fract_y
 _atom_site_fract_z
 _atom_site_occupancy
  Tb  Tb0  1  0.750000  0.034152  0.692597  1
  Y  Y1  1  0.750000  0.534147  0.807108  1
  Th  Th2  1  0.250000  0.967437  0.319559  1
  Th  Th3  1  0.250000  0.467638  0.179948  1
  Ga  Ga4  1  0.250000  0.353154  0.574805  1
  Ga  Ga5  1  0.250000  0.852621  0.925300  1
  Ga  Ga6  1  0.750000  0.644889  0.440888  1
  Ga  Ga7  1  0.750000  0.145060  0.059256  1
  Rh  Rh8  1  0.250000  0.240400  0.893073  1
  Rh  Rh9  1  0.250000  0.741074  0.606942  1
  Rh  Rh10  1  0.750000  0.759773  0.118764  1
  Rh  Rh11  1  0.750000  0.259657  0.381761  1
