# generated using pymatgen
data_Ho3Er(AlRu)4
_symmetry_space_group_name_H-M   'P 1'
_cell_length_a   7.06766452
_cell_length_b   4.03054600
_cell_length_c   8.12434000
_cell_angle_alpha   90.00000000
_cell_angle_beta   89.77911487
_cell_angle_gamma   90.00000000
_symmetry_Int_Tables_number   1
_chemical_formula_structural   Ho3Er(AlRu)4
_chemical_formula_sum   'Ho3 Er1 Al4 Ru4'
_cell_volume   231.43267314
_cell_formula_units_Z   1
loop_
 _symmetry_equiv_pos_site_id
 _symmetry_equiv_pos_as_xyz
  1  'x, y, z'
loop_
 _atom_site_type_symbol
 _atom_site_label
 _atom_site_symmetry_multiplicity
 _atom_site_fract_x
 _atom_site_fract_y
 _atom_site_fract_z
 _atom_site_occupancy
  Ho  Ho0  1  0.968241  0.250000  0.177818  1
  Ho  Ho1  1  0.467147  0.250000  0.323071  1
  Ho  Ho2  1  0.033220  0.750000  0.821598  1
  Er  Er3  1  0.531873  0.750000  0.679488  1
  Al  Al4  1  0.861342  0.250000  0.557850  1
  Al  Al5  1  0.363084  0.250000  0.941494  1
  Al  Al6  1  0.137154  0.750000  0.441264  1
  Al  Al7  1  0.638346  0.750000  0.058098  1
  Ru  Ru8  1  0.730217  0.250000  0.872527  1
  Ru  Ru9  1  0.230196  0.250000  0.626939  1
  Ru  Ru10  1  0.270564  0.750000  0.126459  1
  Ru  Ru11  1  0.768620  0.750000  0.373396  1
