# generated using pymatgen
data_Ho2Tc3Ru
_symmetry_space_group_name_H-M   'P 1'
_cell_length_a   5.25291430
_cell_length_b   5.25291355
_cell_length_c   9.18849300
_cell_angle_alpha   90.00000000
_cell_angle_beta   90.00000000
_cell_angle_gamma   119.99544468
_symmetry_Int_Tables_number   1
_chemical_formula_structural   Ho2Tc3Ru
_chemical_formula_sum   'Ho4 Tc6 Ru2'
_cell_volume   219.58133569
_cell_formula_units_Z   2
loop_
 _symmetry_equiv_pos_site_id
 _symmetry_equiv_pos_as_xyz
  1  'x, y, z'
loop_
 _atom_site_type_symbol
 _atom_site_label
 _atom_site_symmetry_multiplicity
 _atom_site_fract_x
 _atom_site_fract_y
 _atom_site_fract_z
 _atom_site_occupancy
  Ho  Ho0  1  0.666709  0.333291  0.562659  1
  Ho  Ho1  1  0.333291  0.666709  0.437341  1
  Ho  Ho2  1  0.333291  0.666709  0.062659  1
  Ho  Ho3  1  0.666709  0.333291  0.937341  1
  Tc  Tc4  1  0.171314  0.342534  0.750000  1
  Tc  Tc5  1  0.171262  0.828738  0.750000  1
  Tc  Tc6  1  0.657466  0.828686  0.750000  1
  Tc  Tc7  1  0.828686  0.657466  0.250000  1
  Tc  Tc8  1  0.828738  0.171262  0.250000  1
  Tc  Tc9  1  0.342534  0.171314  0.250000  1
  Ru  Ru10  1  0.000000  0.000000  0.500000  1
  Ru  Ru11  1  0.000000  0.000000  0.000000  1
