# generated using pymatgen
data_EuSiP2
_symmetry_space_group_name_H-M   'P 1'
_cell_length_a   6.16739217
_cell_length_b   6.16739179
_cell_length_c   6.16739307
_cell_angle_alpha   102.87098224
_cell_angle_beta   112.86876131
_cell_angle_gamma   112.86876835
_symmetry_Int_Tables_number   1
_chemical_formula_structural   EuSiP2
_chemical_formula_sum   'Eu2 Si2 P4'
_cell_volume   178.81680128
_cell_formula_units_Z   2
loop_
 _symmetry_equiv_pos_site_id
 _symmetry_equiv_pos_as_xyz
  1  'x, y, z'
loop_
 _atom_site_type_symbol
 _atom_site_label
 _atom_site_symmetry_multiplicity
 _atom_site_fract_x
 _atom_site_fract_y
 _atom_site_fract_z
 _atom_site_occupancy
  Eu  Eu0  1  0.499999  0.749999  0.249999  1
  Eu  Eu1  1  0.000000  0.500001  0.500001  1
  Si  Si2  1  0.000000  0.000000  0.000000  1
  Si  Si3  1  0.500000  0.250001  0.750000  1
  P  P4  1  0.914866  0.625001  0.039865  1
  P  P5  1  0.414865  0.289863  0.374999  1
  P  P6  1  0.085135  0.125000  0.710135  1
  P  P7  1  0.585138  0.960138  0.875002  1
