# generated using pymatgen
data_K2Pa(PO4)2
_symmetry_space_group_name_H-M   'P 1'
_cell_length_a   5.41736800
_cell_length_b   5.41736646
_cell_length_c   9.35696800
_cell_angle_alpha   90.00000000
_cell_angle_beta   90.00000000
_cell_angle_gamma   119.99998899
_symmetry_Int_Tables_number   1
_chemical_formula_structural   K2Pa(PO4)2
_chemical_formula_sum   'K2 Pa1 P2 O8'
_cell_volume   237.81671570
_cell_formula_units_Z   1
loop_
 _symmetry_equiv_pos_site_id
 _symmetry_equiv_pos_as_xyz
  1  'x, y, z'
loop_
 _atom_site_type_symbol
 _atom_site_label
 _atom_site_symmetry_multiplicity
 _atom_site_fract_x
 _atom_site_fract_y
 _atom_site_fract_z
 _atom_site_occupancy
  K  K0  1  0.333333  0.666667  0.649354  1
  K  K1  1  0.666667  0.333333  0.350646  1
  Pa  Pa2  1  0.000000  0.000000  0.000000  1
  P  P3  1  0.333333  0.666667  0.203965  1
  P  P4  1  0.666667  0.333333  0.796035  1
  O  O5  1  0.333333  0.666667  0.366553  1
  O  O6  1  0.666667  0.333333  0.633447  1
  O  O7  1  0.284552  0.909418  0.144564  1
  O  O8  1  0.090582  0.375133  0.144564  1
  O  O9  1  0.624867  0.715448  0.144564  1
  O  O10  1  0.715448  0.090582  0.855436  1
  O  O11  1  0.909418  0.624867  0.855436  1
  O  O12  1  0.375133  0.284552  0.855436  1
