# generated using pymatgen
data_Ac3DyAu4
_symmetry_space_group_name_H-M   'P 1'
_cell_length_a   4.92481100
_cell_length_b   6.09253352
_cell_length_c   7.87729500
_cell_angle_alpha   87.97959292
_cell_angle_beta   90.00000000
_cell_angle_gamma   90.00000000
_symmetry_Int_Tables_number   1
_chemical_formula_structural   Ac3DyAu4
_chemical_formula_sum   'Ac3 Dy1 Au4'
_cell_volume   236.20796350
_cell_formula_units_Z   1
loop_
 _symmetry_equiv_pos_site_id
 _symmetry_equiv_pos_as_xyz
  1  'x, y, z'
loop_
 _atom_site_type_symbol
 _atom_site_label
 _atom_site_symmetry_multiplicity
 _atom_site_fract_x
 _atom_site_fract_y
 _atom_site_fract_z
 _atom_site_occupancy
  Ac  Ac0  1  0.250000  0.349918  0.689088  1
  Ac  Ac1  1  0.250000  0.143669  0.181672  1
  Ac  Ac2  1  0.750000  0.646998  0.311876  1
  Dy  Dy3  1  0.750000  0.854595  0.815696  1
  Au  Au4  1  0.250000  0.848729  0.565573  1
  Au  Au5  1  0.250000  0.667738  0.018616  1
  Au  Au6  1  0.750000  0.142994  0.466347  1
  Au  Au7  1  0.750000  0.345358  0.951131  1
