# generated using pymatgen
data_Dy3In3Ir2Rh
_symmetry_space_group_name_H-M   'P 1'
_cell_length_a   7.56843500
_cell_length_b   7.56843564
_cell_length_c   3.90477500
_cell_angle_alpha   90.00000000
_cell_angle_beta   90.00000000
_cell_angle_gamma   119.99999285
_symmetry_Int_Tables_number   1
_chemical_formula_structural   Dy3In3Ir2Rh
_chemical_formula_sum   'Dy3 In3 Ir2 Rh1'
_cell_volume   193.70413177
_cell_formula_units_Z   1
loop_
 _symmetry_equiv_pos_site_id
 _symmetry_equiv_pos_as_xyz
  1  'x, y, z'
loop_
 _atom_site_type_symbol
 _atom_site_label
 _atom_site_symmetry_multiplicity
 _atom_site_fract_x
 _atom_site_fract_y
 _atom_site_fract_z
 _atom_site_occupancy
  Dy  Dy0  1  0.000000  0.590076  0.500000  1
  Dy  Dy1  1  0.590076  0.000000  0.500000  1
  Dy  Dy2  1  0.409924  0.409924  0.500000  1
  In  In3  1  0.000000  0.256945  0.000000  1
  In  In4  1  0.256945  0.000000  0.000000  1
  In  In5  1  0.743055  0.743055  0.000000  1
  Ir  Ir6  1  0.666667  0.333333  0.000000  1
  Ir  Ir7  1  0.333333  0.666667  0.000000  1
  Rh  Rh8  1  0.000000  0.000000  0.500000  1
