# generated using pymatgen
data_TbHo3Co12(Ni2P3)4
_symmetry_space_group_name_H-M   'P 1'
_cell_length_a   3.68331400
_cell_length_b   10.27147947
_cell_length_c   11.83452254
_cell_angle_alpha   89.96548718
_cell_angle_beta   90.00000000
_cell_angle_gamma   90.00000000
_symmetry_Int_Tables_number   1
_chemical_formula_structural   TbHo3Co12(Ni2P3)4
_chemical_formula_sum   'Tb1 Ho3 Co12 Ni8 P12'
_cell_volume   447.73640539
_cell_formula_units_Z   1
loop_
 _symmetry_equiv_pos_site_id
 _symmetry_equiv_pos_as_xyz
  1  'x, y, z'
loop_
 _atom_site_type_symbol
 _atom_site_label
 _atom_site_symmetry_multiplicity
 _atom_site_fract_x
 _atom_site_fract_y
 _atom_site_fract_z
 _atom_site_occupancy
  Tb  Tb0  1  0.750000  0.081479  0.796695  1
  Ho  Ho1  1  0.250000  0.581314  0.703420  1
  Ho  Ho2  1  0.250000  0.918569  0.203364  1
  Ho  Ho3  1  0.750000  0.418689  0.296561  1
  Co  Co4  1  0.250000  0.222176  0.176023  1
  Co  Co5  1  0.250000  0.278676  0.675672  1
  Co  Co6  1  0.750000  0.777787  0.824131  1
  Co  Co7  1  0.750000  0.721839  0.324047  1
  Co  Co8  1  0.250000  0.879936  0.697591  1
  Co  Co9  1  0.250000  0.619279  0.197980  1
  Co  Co10  1  0.750000  0.119412  0.301930  1
  Co  Co11  1  0.750000  0.381242  0.802133  1
  Co  Co12  1  0.250000  0.467429  0.932730  1
  Co  Co13  1  0.250000  0.033067  0.431923  1
  Co  Co14  1  0.750000  0.533270  0.067589  1
  Co  Co15  1  0.750000  0.966456  0.566832  1
  Ni  Ni16  1  0.250000  0.713153  0.990415  1
  Ni  Ni17  1  0.250000  0.786454  0.489600  1
  Ni  Ni18  1  0.750000  0.286894  0.010366  1
  Ni  Ni19  1  0.750000  0.213456  0.510095  1
  Ni  Ni20  1  0.250000  0.408452  0.484623  1
  Ni  Ni21  1  0.250000  0.091316  0.986170  1
  Ni  Ni22  1  0.750000  0.591542  0.515187  1
  Ni  Ni23  1  0.750000  0.907932  0.015467  1
  P  P24  1  0.250000  0.420467  0.113046  1
  P  P25  1  0.250000  0.079798  0.612000  1
  P  P26  1  0.750000  0.579827  0.887138  1
  P  P27  1  0.750000  0.920261  0.386700  1
  P  P28  1  0.250000  0.272653  0.865724  1
  P  P29  1  0.250000  0.228480  0.365481  1
  P  P30  1  0.750000  0.728335  0.134652  1
  P  P31  1  0.750000  0.771452  0.634527  1
  P  P32  1  0.250000  0.605150  0.387699  1
  P  P33  1  0.250000  0.893740  0.887939  1
  P  P34  1  0.750000  0.394745  0.612260  1
  P  P35  1  0.750000  0.105274  0.112292  1
