# generated using pymatgen
data_LaPr3Ga7(SiPt2)3
_symmetry_space_group_name_H-M   'P 1'
_cell_length_a   8.52123689
_cell_length_b   8.55472637
_cell_length_c   8.55472558
_cell_angle_alpha   138.00704968
_cell_angle_beta   105.91315806
_cell_angle_gamma   89.06042227
_symmetry_Int_Tables_number   1
_chemical_formula_structural   LaPr3Ga7(SiPt2)3
_chemical_formula_sum   'La1 Pr3 Ga7 Si3 Pt6'
_cell_volume   383.83992908
_cell_formula_units_Z   1
loop_
 _symmetry_equiv_pos_site_id
 _symmetry_equiv_pos_as_xyz
  1  'x, y, z'
loop_
 _atom_site_type_symbol
 _atom_site_label
 _atom_site_symmetry_multiplicity
 _atom_site_fract_x
 _atom_site_fract_y
 _atom_site_fract_z
 _atom_site_occupancy
  La  La0  1  0.868934  0.629919  0.239016  1
  Pr  Pr1  1  0.135938  0.370090  0.765847  1
  Pr  Pr2  1  0.393624  0.130228  0.263397  1
  Pr  Pr3  1  0.607498  0.869953  0.737546  1
  Ga  Ga4  1  0.500866  0.750658  0.249122  1
  Ga  Ga5  1  0.500866  0.251745  0.750208  1
  Ga  Ga6  1  0.233440  0.983245  0.753552  1
  Ga  Ga7  1  0.764859  0.510306  0.741237  1
  Ga  Ga8  1  0.764859  0.023623  0.254553  1
  Ga  Ga9  1  0.233440  0.479887  0.250195  1
  Ga  Ga10  1  0.037263  0.891829  0.145433  1
  Si  Si11  1  0.962375  0.106700  0.855675  1
  Si  Si12  1  0.742868  0.390158  0.352710  1
  Si  Si13  1  0.251942  0.606515  0.645428  1
  Pt  Pt14  1  0.996267  0.746231  0.736775  1
  Pt  Pt15  1  0.996267  0.259492  0.250036  1
  Pt  Pt16  1  0.247096  0.863773  0.383324  1
  Pt  Pt17  1  0.761752  0.134053  0.627698  1
  Pt  Pt18  1  0.490579  0.365898  0.124681  1
  Pt  Pt19  1  0.509267  0.635699  0.873568  1
