# generated using pymatgen
data_Tb12TcOsPd2
_symmetry_space_group_name_H-M   'P 1'
_cell_length_a   6.38934718
_cell_length_b   7.29283949
_cell_length_c   9.44155100
_cell_angle_alpha   90.00000000
_cell_angle_beta   90.00000000
_cell_angle_gamma   90.07698171
_symmetry_Int_Tables_number   1
_chemical_formula_structural   Tb12TcOsPd2
_chemical_formula_sum   'Tb12 Tc1 Os1 Pd2'
_cell_volume   439.94267718
_cell_formula_units_Z   1
loop_
 _symmetry_equiv_pos_site_id
 _symmetry_equiv_pos_as_xyz
  1  'x, y, z'
loop_
 _atom_site_type_symbol
 _atom_site_label
 _atom_site_symmetry_multiplicity
 _atom_site_fract_x
 _atom_site_fract_y
 _atom_site_fract_z
 _atom_site_occupancy
  Tb  Tb0  1  0.327397  0.683915  0.057169  1
  Tb  Tb1  1  0.168114  0.174520  0.435971  1
  Tb  Tb2  1  0.667418  0.325561  0.564023  1
  Tb  Tb3  1  0.827623  0.815307  0.941645  1
  Tb  Tb4  1  0.667418  0.325561  0.935977  1
  Tb  Tb5  1  0.827623  0.815307  0.558355  1
  Tb  Tb6  1  0.327397  0.683915  0.442831  1
  Tb  Tb7  1  0.168114  0.174520  0.064029  1
  Tb  Tb8  1  0.876247  0.538813  0.250000  1
  Tb  Tb9  1  0.634190  0.028348  0.250000  1
  Tb  Tb10  1  0.136049  0.471996  0.750000  1
  Tb  Tb11  1  0.376615  0.958882  0.750000  1
  Tc  Tc12  1  0.049928  0.887082  0.250000  1
  Os  Os13  1  0.551546  0.614427  0.750000  1
  Pd  Pd14  1  0.445458  0.389902  0.250000  1
  Pd  Pd15  1  0.948864  0.111941  0.750000  1
