# generated using pymatgen
data_V7CoS12
_symmetry_space_group_name_H-M   'P 1'
_cell_length_a   5.56329700
_cell_length_b   5.56329766
_cell_length_c   11.72367000
_cell_angle_alpha   90.00000000
_cell_angle_beta   90.00000000
_cell_angle_gamma   120.00000204
_symmetry_Int_Tables_number   1
_chemical_formula_structural   V7CoS12
_chemical_formula_sum   'V7 Co1 S12'
_cell_volume   314.23803516
_cell_formula_units_Z   1
loop_
 _symmetry_equiv_pos_site_id
 _symmetry_equiv_pos_as_xyz
  1  'x, y, z'
loop_
 _atom_site_type_symbol
 _atom_site_label
 _atom_site_symmetry_multiplicity
 _atom_site_fract_x
 _atom_site_fract_y
 _atom_site_fract_z
 _atom_site_occupancy
  V  V0  1  0.333333  0.666667  0.003161  1
  V  V1  1  0.666667  0.333333  0.494066  1
  V  V2  1  0.333333  0.666667  0.496839  1
  V  V3  1  0.000000  0.000000  0.005155  1
  V  V4  1  0.666667  0.333333  0.005934  1
  V  V5  1  0.000000  0.000000  0.494845  1
  V  V6  1  0.666667  0.333333  0.750000  1
  Co  Co7  1  0.333333  0.666667  0.250000  1
  S  S8  1  0.000961  0.667471  0.128842  1
  S  S9  1  0.667973  0.667261  0.620679  1
  S  S10  1  0.000961  0.333490  0.371158  1
  S  S11  1  0.332529  0.333490  0.128842  1
  S  S12  1  0.332739  0.000712  0.620679  1
  S  S13  1  0.332739  0.332027  0.879321  1
  S  S14  1  0.666510  0.667471  0.371158  1
  S  S15  1  0.999288  0.667261  0.879321  1
  S  S16  1  0.667973  0.000712  0.879321  1
  S  S17  1  0.332529  0.999039  0.371158  1
  S  S18  1  0.666510  0.999039  0.128842  1
  S  S19  1  0.999288  0.332027  0.620679  1
