# generated using pymatgen
data_MgSc2Al3Si2Rh
_symmetry_space_group_name_H-M   'P 1'
_cell_length_a   6.62900100
_cell_length_b   6.62231679
_cell_length_c   4.05285900
_cell_angle_alpha   90.00000000
_cell_angle_beta   90.00000000
_cell_angle_gamma   120.03338951
_symmetry_Int_Tables_number   1
_chemical_formula_structural   MgSc2Al3Si2Rh
_chemical_formula_sum   'Mg1 Sc2 Al3 Si2 Rh1'
_cell_volume   154.02951377
_cell_formula_units_Z   1
loop_
 _symmetry_equiv_pos_site_id
 _symmetry_equiv_pos_as_xyz
  1  'x, y, z'
loop_
 _atom_site_type_symbol
 _atom_site_label
 _atom_site_symmetry_multiplicity
 _atom_site_fract_x
 _atom_site_fract_y
 _atom_site_fract_z
 _atom_site_occupancy
  Mg  Mg0  1  0.415532  0.000000  0.000000  1
  Sc  Sc1  1  0.999772  0.421752  0.000000  1
  Sc  Sc2  1  0.578019  0.578248  0.000000  1
  Al  Al3  1  0.759552  0.000000  0.500000  1
  Al  Al4  1  0.239669  0.242093  0.500000  1
  Al  Al5  1  0.997576  0.757906  0.500000  1
  Si  Si6  1  0.670558  0.336107  0.500000  1
  Si  Si7  1  0.334449  0.663892  0.500000  1
  Rh  Rh8  1  0.004873  0.000000  0.000000  1
