# generated using pymatgen
data_Co3Te12Ir
_symmetry_space_group_name_H-M   'P 1'
_cell_length_a   11.34472900
_cell_length_b   8.33814240
_cell_length_c   11.22895781
_cell_angle_alpha   63.42897822
_cell_angle_beta   90.00000000
_cell_angle_gamma   90.00000000
_symmetry_Int_Tables_number   1
_chemical_formula_structural   Co3Te12Ir
_chemical_formula_sum   'Co6 Te24 Ir2'
_cell_volume   950.00358934
_cell_formula_units_Z   2
loop_
 _symmetry_equiv_pos_site_id
 _symmetry_equiv_pos_as_xyz
  1  'x, y, z'
loop_
 _atom_site_type_symbol
 _atom_site_label
 _atom_site_symmetry_multiplicity
 _atom_site_fract_x
 _atom_site_fract_y
 _atom_site_fract_z
 _atom_site_occupancy
  Co  Co0  1  0.997507  0.995801  0.320587  1
  Co  Co1  1  0.497507  0.004199  0.179413  1
  Co  Co2  1  0.997222  0.993733  0.682795  1
  Co  Co3  1  0.497222  0.006267  0.817205  1
  Co  Co4  1  0.715186  0.049655  0.483439  1
  Co  Co5  1  0.215186  0.950345  0.016561  1
  Te  Te6  1  0.094994  0.166336  0.445084  1
  Te  Te7  1  0.594994  0.833664  0.054916  1
  Te  Te8  1  0.895175  0.832696  0.555276  1
  Te  Te9  1  0.395175  0.167304  0.944724  1
  Te  Te10  1  0.661374  0.236152  0.764240  1
  Te  Te11  1  0.161374  0.763848  0.735760  1
  Te  Te12  1  0.334427  0.773786  0.229164  1
  Te  Te13  1  0.834427  0.226214  0.270836  1
  Te  Te14  1  0.835255  0.225810  0.578575  1
  Te  Te15  1  0.335255  0.774190  0.921425  1
  Te  Te16  1  0.160547  0.764159  0.421486  1
  Te  Te17  1  0.660547  0.235841  0.078514  1
  Te  Te18  1  0.381882  0.176658  0.604017  1
  Te  Te19  1  0.881882  0.823342  0.895983  1
  Te  Te20  1  0.621765  0.842639  0.388950  1
  Te  Te21  1  0.121765  0.157361  0.111050  1
  Te  Te22  1  0.566049  0.294236  0.401798  1
  Te  Te23  1  0.066049  0.705764  0.098202  1
  Te  Te24  1  0.447988  0.703496  0.599303  1
  Te  Te25  1  0.947988  0.296504  0.900697  1
  Te  Te26  1  0.382063  0.174776  0.278908  1
  Te  Te27  1  0.882063  0.825224  0.221092  1
  Te  Te28  1  0.621761  0.844597  0.715297  1
  Te  Te29  1  0.121761  0.155403  0.784703  1
  Ir  Ir30  1  0.286803  0.952164  0.515961  1
  Ir  Ir31  1  0.786803  0.047836  0.984039  1
