# generated using pymatgen
data_Dy5ErAl24Ru7Pt
_symmetry_space_group_name_H-M   'P 1'
_cell_length_a   8.80273213
_cell_length_b   8.80273107
_cell_length_c   9.53669048
_cell_angle_alpha   89.83110513
_cell_angle_beta   90.16890156
_cell_angle_gamma   119.87005551
_symmetry_Int_Tables_number   1
_chemical_formula_structural   Dy5ErAl24Ru7Pt
_chemical_formula_sum   'Dy5 Er1 Al24 Ru7 Pt1'
_cell_volume   640.80796395
_cell_formula_units_Z   1
loop_
 _symmetry_equiv_pos_site_id
 _symmetry_equiv_pos_as_xyz
  1  'x, y, z'
loop_
 _atom_site_type_symbol
 _atom_site_label
 _atom_site_symmetry_multiplicity
 _atom_site_fract_x
 _atom_site_fract_y
 _atom_site_fract_z
 _atom_site_occupancy
  Dy  Dy0  1  0.192250  0.386928  0.250305  1
  Dy  Dy1  1  0.807736  0.612987  0.749648  1
  Dy  Dy2  1  0.613072  0.807750  0.250305  1
  Dy  Dy3  1  0.387013  0.192264  0.749648  1
  Dy  Dy4  1  0.194486  0.805514  0.250484  1
  Er  Er5  1  0.805217  0.194783  0.749820  1
  Al  Al6  1  0.330808  0.669192  0.020035  1
  Al  Al7  1  0.669344  0.330656  0.979724  1
  Al  Al8  1  0.666958  0.333042  0.516831  1
  Al  Al9  1  0.333179  0.666821  0.483369  1
  Al  Al10  1  0.162445  0.323903  0.578968  1
  Al  Al11  1  0.837326  0.675989  0.421169  1
  Al  Al12  1  0.676097  0.837555  0.578968  1
  Al  Al13  1  0.842365  0.676456  0.078034  1
  Al  Al14  1  0.324011  0.162674  0.421169  1
  Al  Al15  1  0.157403  0.323436  0.921778  1
  Al  Al16  1  0.162570  0.837430  0.578653  1
  Al  Al17  1  0.323544  0.157635  0.078034  1
  Al  Al18  1  0.837409  0.162591  0.421643  1
  Al  Al19  1  0.676564  0.842597  0.921778  1
  Al  Al20  1  0.837495  0.162505  0.077816  1
  Al  Al21  1  0.162485  0.837515  0.921865  1
  Al  Al22  1  0.560687  0.121935  0.248709  1
  Al  Al23  1  0.439756  0.878446  0.751264  1
  Al  Al24  1  0.878065  0.439313  0.248709  1
  Al  Al25  1  0.121554  0.560244  0.751264  1
  Al  Al26  1  0.562003  0.437997  0.252056  1
  Al  Al27  1  0.437966  0.562034  0.747951  1
  Al  Al28  1  0.999604  0.000396  0.249981  1
  Al  Al29  1  0.000198  0.999802  0.750007  1
  Ru  Ru30  1  0.500209  0.000106  0.999836  1
  Ru  Ru31  1  0.999894  0.499791  0.999836  1
  Ru  Ru32  1  0.500266  0.000143  0.500173  1
  Ru  Ru33  1  0.999857  0.499734  0.500173  1
  Ru  Ru34  1  0.500085  0.499915  0.500050  1
  Ru  Ru35  1  0.000009  0.999991  0.999976  1
  Ru  Ru36  1  0.000005  0.999995  0.500014  1
  Pt  Pt37  1  0.500065  0.499935  0.999960  1
