# generated using pymatgen
data_Hf5ZrSi6OsRu5
_symmetry_space_group_name_H-M   'P 1'
_cell_length_a   7.62141656
_cell_length_b   7.61503286
_cell_length_c   7.61639686
_cell_angle_alpha   127.90812989
_cell_angle_beta   122.01763572
_cell_angle_gamma   81.67604316
_symmetry_Int_Tables_number   1
_chemical_formula_structural   Hf5ZrSi6OsRu5
_chemical_formula_sum   'Hf5 Zr1 Si6 Os1 Ru5'
_cell_volume   284.68649799
_cell_formula_units_Z   1
loop_
 _symmetry_equiv_pos_site_id
 _symmetry_equiv_pos_as_xyz
  1  'x, y, z'
loop_
 _atom_site_type_symbol
 _atom_site_label
 _atom_site_symmetry_multiplicity
 _atom_site_fract_x
 _atom_site_fract_y
 _atom_site_fract_z
 _atom_site_occupancy
  Hf  Hf0  1  0.529881  0.258291  0.227275  1
  Hf  Hf1  1  0.746908  0.831013  0.583588  1
  Hf  Hf2  1  0.253150  0.836735  0.084093  1
  Hf  Hf3  1  0.053588  0.257293  0.704261  1
  Hf  Hf4  1  0.946820  0.651259  0.203915  1
  Zr  Zr5  1  0.470083  0.697106  0.727996  1
  Si  Si6  1  0.274052  0.268493  0.493618  1
  Si  Si7  1  0.725320  0.217923  0.993568  1
  Si  Si8  1  0.326549  0.587675  0.249226  1
  Si  Si9  1  0.673557  0.923644  0.261943  1
  Si  Si10  1  0.161003  0.923052  0.749220  1
  Si  Si11  1  0.839134  0.587423  0.761121  1
  Os  Os12  1  0.501169  0.500115  0.001893  1
  Ru  Ru13  1  0.998156  0.499643  0.498448  1
  Ru  Ru14  1  0.096909  0.254062  0.103136  1
  Ru  Ru15  1  0.905011  0.006740  0.158988  1
  Ru  Ru16  1  0.347844  0.005982  0.600932  1
  Ru  Ru17  1  0.650865  0.253152  0.656382  1
