# generated using pymatgen
data_Lu7Se8
_symmetry_space_group_name_H-M   'P 1'
_cell_length_a   7.94053378
_cell_length_b   7.93685853
_cell_length_c   7.94022413
_cell_angle_alpha   119.99273816
_cell_angle_beta   90.01654444
_cell_angle_gamma   119.99563143
_symmetry_Int_Tables_number   1
_chemical_formula_structural   Lu7Se8
_chemical_formula_sum   'Lu7 Se8'
_cell_volume   353.85857548
_cell_formula_units_Z   1
loop_
 _symmetry_equiv_pos_site_id
 _symmetry_equiv_pos_as_xyz
  1  'x, y, z'
loop_
 _atom_site_type_symbol
 _atom_site_label
 _atom_site_symmetry_multiplicity
 _atom_site_fract_x
 _atom_site_fract_y
 _atom_site_fract_z
 _atom_site_occupancy
  Lu  Lu0  1  0.249905  0.999998  0.249904  1
  Lu  Lu1  1  0.249926  0.499812  0.249906  1
  Lu  Lu2  1  0.750060  0.999952  0.249893  1
  Lu  Lu3  1  0.249971  0.500009  0.750020  1
  Lu  Lu4  1  0.249916  0.000007  0.750112  1
  Lu  Lu5  1  0.750119  0.000034  0.750081  1
  Lu  Lu6  1  0.750101  0.500164  0.750127  1
  Se  Se7  1  0.000028  0.000038  0.000012  1
  Se  Se8  1  0.500006  0.999980  0.499962  1
  Se  Se9  1  0.996661  0.993327  0.496677  1
  Se  Se10  1  0.996693  0.500000  0.496629  1
  Se  Se11  1  0.503375  0.499982  0.496587  1
  Se  Se12  1  0.996573  0.499958  0.003408  1
  Se  Se13  1  0.503287  0.499975  0.003308  1
  Se  Se14  1  0.503380  0.006769  0.003382  1
