# generated using pymatgen
data_Ho4Cd(InCo)2
_symmetry_space_group_name_H-M   'P 1'
_cell_length_a   3.62511600
_cell_length_b   7.36395052
_cell_length_c   8.05032220
_cell_angle_alpha   71.29719640
_cell_angle_beta   90.00000000
_cell_angle_gamma   90.00000000
_symmetry_Int_Tables_number   1
_chemical_formula_structural   Ho4Cd(InCo)2
_chemical_formula_sum   'Ho4 Cd1 In2 Co2'
_cell_volume   203.55662471
_cell_formula_units_Z   1
loop_
 _symmetry_equiv_pos_site_id
 _symmetry_equiv_pos_as_xyz
  1  'x, y, z'
loop_
 _atom_site_type_symbol
 _atom_site_label
 _atom_site_symmetry_multiplicity
 _atom_site_fract_x
 _atom_site_fract_y
 _atom_site_fract_z
 _atom_site_occupancy
  Ho  Ho0  1  0.500000  0.605255  0.183779  1
  Ho  Ho1  1  0.500000  0.092455  0.275235  1
  Ho  Ho2  1  0.500000  0.394745  0.816221  1
  Ho  Ho3  1  0.500000  0.907545  0.724765  1
  Cd  Cd4  1  0.000000  0.000000  0.000000  1
  In  In5  1  0.000000  0.705580  0.502611  1
  In  In6  1  0.000000  0.294420  0.497389  1
  Co  Co7  1  0.000000  0.646032  0.890618  1
  Co  Co8  1  0.000000  0.353968  0.109382  1
