# generated using pymatgen
data_La7TbEr2Si8O3
_symmetry_space_group_name_H-M   'P 1'
_cell_length_a   10.75817603
_cell_length_b   10.77947732
_cell_length_c   4.53853500
_cell_angle_alpha   90.00000000
_cell_angle_beta   90.00000000
_cell_angle_gamma   120.06551997
_symmetry_Int_Tables_number   1
_chemical_formula_structural   La7TbEr2Si8O3
_chemical_formula_sum   'La7 Tb1 Er2 Si8 O3'
_cell_volume   455.50752939
_cell_formula_units_Z   1
loop_
 _symmetry_equiv_pos_site_id
 _symmetry_equiv_pos_as_xyz
  1  'x, y, z'
loop_
 _atom_site_type_symbol
 _atom_site_label
 _atom_site_symmetry_multiplicity
 _atom_site_fract_x
 _atom_site_fract_y
 _atom_site_fract_z
 _atom_site_occupancy
  La  La0  1  0.212340  0.788929  0.000000  1
  La  La1  1  0.576421  0.788210  0.000000  1
  La  La2  1  0.787660  0.576590  0.000000  1
  La  La3  1  0.000000  0.000000  0.000000  1
  La  La4  1  0.212340  0.423410  0.000000  1
  La  La5  1  0.423579  0.211790  0.000000  1
  La  La6  1  0.787660  0.211071  0.000000  1
  Tb  Tb7  1  0.000000  0.500000  0.500000  1
  Er  Er8  1  0.500000  0.500000  0.500000  1
  Er  Er9  1  0.500000  0.000000  0.500000  1
  Si  Si10  1  0.000000  0.776838  0.500000  1
  Si  Si11  1  0.000000  0.223162  0.500000  1
  Si  Si12  1  0.223939  0.223744  0.500000  1
  Si  Si13  1  0.776061  0.999805  0.500000  1
  Si  Si14  1  0.335702  0.667852  0.500000  1
  Si  Si15  1  0.223939  0.000195  0.500000  1
  Si  Si16  1  0.664298  0.332148  0.500000  1
  Si  Si17  1  0.776061  0.776256  0.500000  1
  O  O18  1  0.000000  0.500000  0.000000  1
  O  O19  1  0.500000  0.500000  0.000000  1
  O  O20  1  0.500000  0.000000  0.000000  1
