# generated using pymatgen
data_Hf8Al3Si3(MoN)2
_symmetry_space_group_name_H-M   'P 1'
_cell_length_a   7.86502600
_cell_length_b   7.86502696
_cell_length_c   5.44313200
_cell_angle_alpha   89.99994351
_cell_angle_beta   90.00000000
_cell_angle_gamma   119.99997299
_symmetry_Int_Tables_number   1
_chemical_formula_structural   Hf8Al3Si3(MoN)2
_chemical_formula_sum   'Hf8 Al3 Si3 Mo2 N2'
_cell_volume   291.59494736
_cell_formula_units_Z   1
loop_
 _symmetry_equiv_pos_site_id
 _symmetry_equiv_pos_as_xyz
  1  'x, y, z'
loop_
 _atom_site_type_symbol
 _atom_site_label
 _atom_site_symmetry_multiplicity
 _atom_site_fract_x
 _atom_site_fract_y
 _atom_site_fract_z
 _atom_site_occupancy
  Hf  Hf0  1  0.233218  0.999980  0.251306  1
  Hf  Hf1  1  0.000020  0.233238  0.251306  1
  Hf  Hf2  1  0.766762  0.766782  0.251306  1
  Hf  Hf3  1  0.666666  0.333333  0.498837  1
  Hf  Hf4  1  0.333333  0.666667  0.498811  1
  Hf  Hf5  1  0.768914  0.999982  0.748892  1
  Hf  Hf6  1  0.000018  0.768932  0.748892  1
  Hf  Hf7  1  0.231068  0.231086  0.748892  1
  Al  Al8  1  0.410871  0.999907  0.773114  1
  Al  Al9  1  0.000093  0.410964  0.773114  1
  Al  Al10  1  0.589036  0.589129  0.773113  1
  Si  Si11  1  0.589386  0.999921  0.226875  1
  Si  Si12  1  0.000078  0.589464  0.226874  1
  Si  Si13  1  0.410535  0.410613  0.226875  1
  Mo  Mo14  1  0.666667  0.333334  0.002803  1
  Mo  Mo15  1  0.333333  0.666667  0.002807  1
  N  N16  1  0.000000  0.000000  0.999316  1
  N  N17  1  0.000001  0.000000  0.496868  1
