# generated using pymatgen
data_Er2AlZnPtRh
_symmetry_space_group_name_H-M   'P 1'
_cell_length_a   4.17212300
_cell_length_b   6.88114533
_cell_length_c   8.03169298
_cell_angle_alpha   89.04650694
_cell_angle_beta   90.00000000
_cell_angle_gamma   90.00000000
_symmetry_Int_Tables_number   1
_chemical_formula_structural   Er2AlZnPtRh
_chemical_formula_sum   'Er4 Al2 Zn2 Pt2 Rh2'
_cell_volume   230.54982268
_cell_formula_units_Z   2
loop_
 _symmetry_equiv_pos_site_id
 _symmetry_equiv_pos_as_xyz
  1  'x, y, z'
loop_
 _atom_site_type_symbol
 _atom_site_label
 _atom_site_symmetry_multiplicity
 _atom_site_fract_x
 _atom_site_fract_y
 _atom_site_fract_z
 _atom_site_occupancy
  Er  Er0  1  0.250000  0.539731  0.181693  1
  Er  Er1  1  0.750000  0.460269  0.818307  1
  Er  Er2  1  0.750000  0.964882  0.683247  1
  Er  Er3  1  0.250000  0.035118  0.316753  1
  Al  Al4  1  0.250000  0.636362  0.559121  1
  Al  Al5  1  0.750000  0.363638  0.440879  1
  Zn  Zn6  1  0.750000  0.858295  0.066608  1
  Zn  Zn7  1  0.250000  0.141705  0.933392  1
  Pt  Pt8  1  0.250000  0.755628  0.870278  1
  Pt  Pt9  1  0.750000  0.244372  0.129722  1
  Rh  Rh10  1  0.750000  0.735998  0.388700  1
  Rh  Rh11  1  0.250000  0.264002  0.611300  1
