# generated using pymatgen
data_Lu8Sc12Si15Ge
_symmetry_space_group_name_H-M   'P 1'
_cell_length_a   7.03726577
_cell_length_b   7.32708982
_cell_length_c   13.87204376
_cell_angle_alpha   90.02494792
_cell_angle_beta   89.78813024
_cell_angle_gamma   90.03799698
_symmetry_Int_Tables_number   1
_chemical_formula_structural   Lu8Sc12Si15Ge
_chemical_formula_sum   'Lu8 Sc12 Si15 Ge1'
_cell_volume   715.27461592
_cell_formula_units_Z   1
loop_
 _symmetry_equiv_pos_site_id
 _symmetry_equiv_pos_as_xyz
  1  'x, y, z'
loop_
 _atom_site_type_symbol
 _atom_site_label
 _atom_site_symmetry_multiplicity
 _atom_site_fract_x
 _atom_site_fract_y
 _atom_site_fract_z
 _atom_site_occupancy
  Lu  Lu0  1  0.011994  0.177198  0.096009  1
  Lu  Lu1  1  0.988140  0.823115  0.904055  1
  Lu  Lu2  1  0.488778  0.677037  0.903985  1
  Lu  Lu3  1  0.988375  0.823501  0.596143  1
  Lu  Lu4  1  0.511435  0.323089  0.096221  1
  Lu  Lu5  1  0.009823  0.176707  0.403310  1
  Lu  Lu6  1  0.511643  0.321486  0.402935  1
  Lu  Lu7  1  0.492166  0.678818  0.596609  1
  Sc  Sc8  1  0.162155  0.503924  0.751220  1
  Sc  Sc9  1  0.837441  0.496083  0.250197  1
  Sc  Sc10  1  0.337858  0.003957  0.249988  1
  Sc  Sc11  1  0.662093  0.995908  0.750046  1
  Sc  Sc12  1  0.334380  0.173877  0.626558  1
  Sc  Sc13  1  0.666782  0.823889  0.373924  1
  Sc  Sc14  1  0.165994  0.677441  0.374305  1
  Sc  Sc15  1  0.668018  0.822664  0.125085  1
  Sc  Sc16  1  0.831570  0.323702  0.625280  1
  Sc  Sc17  1  0.331664  0.177122  0.874801  1
  Sc  Sc18  1  0.831575  0.322792  0.874837  1
  Sc  Sc19  1  0.168233  0.677263  0.125157  1
  Si  Si20  1  0.033439  0.112430  0.750205  1
  Si  Si21  1  0.966301  0.888522  0.249431  1
  Si  Si22  1  0.465416  0.612339  0.249486  1
  Si  Si23  1  0.533723  0.387906  0.750497  1
  Si  Si24  1  0.285939  0.868732  0.750414  1
  Si  Si25  1  0.714182  0.130595  0.249397  1
  Si  Si26  1  0.213541  0.369483  0.249895  1
  Si  Si27  1  0.786788  0.630741  0.750210  1
  Si  Si28  1  0.832460  0.536048  0.459933  1
  Si  Si29  1  0.338038  0.965362  0.460713  1
  Si  Si30  1  0.839605  0.534211  0.039422  1
  Si  Si31  1  0.661858  0.034976  0.539133  1
  Si  Si32  1  0.160256  0.465808  0.960723  1
  Si  Si33  1  0.660122  0.034374  0.960593  1
  Si  Si34  1  0.339725  0.965735  0.039414  1
  Ge  Ge35  1  0.168494  0.463166  0.539871  1
