# generated using pymatgen
data_Pr10Tl3Bi3Se2
_symmetry_space_group_name_H-M   'P 1'
_cell_length_a   9.66585400
_cell_length_b   9.65800874
_cell_length_c   7.01378500
_cell_angle_alpha   90.00000000
_cell_angle_beta   90.00000000
_cell_angle_gamma   120.40557474
_symmetry_Int_Tables_number   1
_chemical_formula_structural   Pr10Tl3Bi3Se2
_chemical_formula_sum   'Pr10 Tl3 Bi3 Se2'
_cell_volume   564.70478357
_cell_formula_units_Z   1
loop_
 _symmetry_equiv_pos_site_id
 _symmetry_equiv_pos_as_xyz
  1  'x, y, z'
loop_
 _atom_site_type_symbol
 _atom_site_label
 _atom_site_symmetry_multiplicity
 _atom_site_fract_x
 _atom_site_fract_y
 _atom_site_fract_z
 _atom_site_occupancy
  Pr  Pr0  1  0.247819  0.996361  0.750000  1
  Pr  Pr1  1  0.749091  0.999107  0.250000  1
  Pr  Pr2  1  0.997682  0.249664  0.750000  1
  Pr  Pr3  1  0.002267  0.751957  0.250000  1
  Pr  Pr4  1  0.749977  0.747638  0.750000  1
  Pr  Pr5  1  0.251625  0.249233  0.250000  1
  Pr  Pr6  1  0.332136  0.673254  0.500343  1
  Pr  Pr7  1  0.668284  0.328806  0.499394  1
  Pr  Pr8  1  0.668284  0.328806  0.000606  1
  Pr  Pr9  1  0.332136  0.673254  0.999657  1
  Tl  Tl10  1  0.603872  0.000729  0.750000  1
  Tl  Tl11  1  0.397841  0.001939  0.250000  1
  Tl  Tl12  1  0.998408  0.604976  0.750000  1
  Bi  Bi13  1  0.001379  0.394413  0.250000  1
  Bi  Bi14  1  0.393878  0.393714  0.750000  1
  Bi  Bi15  1  0.606434  0.605054  0.250000  1
  Se  Se16  1  0.999443  0.000548  0.499872  1
  Se  Se17  1  0.999443  0.000548  0.000128  1
