# generated using pymatgen
data_Tm3Al12ReRh3
_symmetry_space_group_name_H-M   'P 1'
_cell_length_a   8.80996500
_cell_length_b   8.80996482
_cell_length_c   9.52472200
_cell_angle_alpha   90.00000000
_cell_angle_beta   90.00000000
_cell_angle_gamma   120.00000443
_symmetry_Int_Tables_number   1
_chemical_formula_structural   Tm3Al12ReRh3
_chemical_formula_sum   'Tm6 Al24 Re2 Rh6'
_cell_volume   640.22300905
_cell_formula_units_Z   2
loop_
 _symmetry_equiv_pos_site_id
 _symmetry_equiv_pos_as_xyz
  1  'x, y, z'
loop_
 _atom_site_type_symbol
 _atom_site_label
 _atom_site_symmetry_multiplicity
 _atom_site_fract_x
 _atom_site_fract_y
 _atom_site_fract_z
 _atom_site_occupancy
  Tm  Tm0  1  0.807479  0.192521  0.750000  1
  Tm  Tm1  1  0.192521  0.807479  0.250000  1
  Tm  Tm2  1  0.385042  0.192521  0.750000  1
  Tm  Tm3  1  0.614958  0.807479  0.250000  1
  Tm  Tm4  1  0.807479  0.614958  0.750000  1
  Tm  Tm5  1  0.192521  0.385042  0.250000  1
  Al  Al6  1  0.666667  0.333333  0.970085  1
  Al  Al7  1  0.333333  0.666667  0.029915  1
  Al  Al8  1  0.333333  0.666667  0.470085  1
  Al  Al9  1  0.666667  0.333333  0.529915  1
  Al  Al10  1  0.836420  0.163580  0.423783  1
  Al  Al11  1  0.163580  0.836420  0.576217  1
  Al  Al12  1  0.327159  0.163580  0.423783  1
  Al  Al13  1  0.163580  0.836420  0.923783  1
  Al  Al14  1  0.672841  0.836420  0.576217  1
  Al  Al15  1  0.836420  0.163580  0.076217  1
  Al  Al16  1  0.836420  0.672841  0.423783  1
  Al  Al17  1  0.672841  0.836420  0.923783  1
  Al  Al18  1  0.163580  0.327159  0.576217  1
  Al  Al19  1  0.327159  0.163580  0.076217  1
  Al  Al20  1  0.163580  0.327159  0.923783  1
  Al  Al21  1  0.836420  0.672841  0.076217  1
  Al  Al22  1  0.437676  0.562324  0.750000  1
  Al  Al23  1  0.562324  0.437676  0.250000  1
  Al  Al24  1  0.124648  0.562324  0.750000  1
  Al  Al25  1  0.875352  0.437676  0.250000  1
  Al  Al26  1  0.437676  0.875352  0.750000  1
  Al  Al27  1  0.562324  0.124648  0.250000  1
  Al  Al28  1  0.000000  0.000000  0.750000  1
  Al  Al29  1  0.000000  0.000000  0.250000  1
  Re  Re30  1  0.000000  0.000000  0.000000  1
  Re  Re31  1  0.000000  0.000000  0.500000  1
  Rh  Rh32  1  0.500000  0.500000  0.000000  1
  Rh  Rh33  1  0.000000  0.500000  0.000000  1
  Rh  Rh34  1  0.500000  0.500000  0.500000  1
  Rh  Rh35  1  0.500000  0.000000  0.000000  1
  Rh  Rh36  1  0.000000  0.500000  0.500000  1
  Rh  Rh37  1  0.500000  0.000000  0.500000  1
