# generated using pymatgen
data_HfZr7In4(Co3Cu)2
_symmetry_space_group_name_H-M   'P 1'
_cell_length_a   7.26591315
_cell_length_b   7.26591269
_cell_length_c   6.62524500
_cell_angle_alpha   90.00000000
_cell_angle_beta   90.00000000
_cell_angle_gamma   90.75242002
_symmetry_Int_Tables_number   1
_chemical_formula_structural   HfZr7In4(Co3Cu)2
_chemical_formula_sum   'Hf1 Zr7 In4 Co6 Cu2'
_cell_volume   349.73965004
_cell_formula_units_Z   1
loop_
 _symmetry_equiv_pos_site_id
 _symmetry_equiv_pos_as_xyz
  1  'x, y, z'
loop_
 _atom_site_type_symbol
 _atom_site_label
 _atom_site_symmetry_multiplicity
 _atom_site_fract_x
 _atom_site_fract_y
 _atom_site_fract_z
 _atom_site_occupancy
  Hf  Hf0  1  0.354622  0.645378  0.500000  1
  Zr  Zr1  1  0.157660  0.182811  0.000000  1
  Zr  Zr2  1  0.817189  0.842340  0.000000  1
  Zr  Zr3  1  0.670796  0.329204  0.500000  1
  Zr  Zr4  1  0.671173  0.328827  0.000000  1
  Zr  Zr5  1  0.346492  0.653508  0.000000  1
  Zr  Zr6  1  0.809384  0.838543  0.500000  1
  Zr  Zr7  1  0.161457  0.190616  0.500000  1
  In  In8  1  0.490142  0.001673  0.249558  1
  In  In9  1  0.490142  0.001673  0.750442  1
  In  In10  1  0.998327  0.509858  0.249558  1
  In  In11  1  0.998327  0.509858  0.750442  1
  Co  Co12  1  0.376430  0.370373  0.246704  1
  Co  Co13  1  0.629627  0.623570  0.753296  1
  Co  Co14  1  0.629627  0.623570  0.246704  1
  Co  Co15  1  0.882474  0.117526  0.747415  1
  Co  Co16  1  0.882474  0.117526  0.252585  1
  Co  Co17  1  0.376430  0.370373  0.753296  1
  Cu  Cu18  1  0.128612  0.871388  0.265724  1
  Cu  Cu19  1  0.128612  0.871388  0.734276  1
