# generated using pymatgen
data_LiTm12Co2Ni2Sn
_symmetry_space_group_name_H-M   'P 1'
_cell_length_a   8.25759555
_cell_length_b   8.25759486
_cell_length_c   8.25759561
_cell_angle_alpha   111.44937419
_cell_angle_beta   109.96433293
_cell_angle_gamma   107.03081530
_symmetry_Int_Tables_number   1
_chemical_formula_structural   LiTm12Co2Ni2Sn
_chemical_formula_sum   'Li1 Tm12 Co2 Ni2 Sn1'
_cell_volume   432.78713945
_cell_formula_units_Z   1
loop_
 _symmetry_equiv_pos_site_id
 _symmetry_equiv_pos_as_xyz
  1  'x, y, z'
loop_
 _atom_site_type_symbol
 _atom_site_label
 _atom_site_symmetry_multiplicity
 _atom_site_fract_x
 _atom_site_fract_y
 _atom_site_fract_z
 _atom_site_occupancy
  Li  Li0  1  0.000000  0.000000  0.000000  1
  Tm  Tm1  1  0.429172  0.229851  0.199321  1
  Tm  Tm2  1  0.570828  0.770149  0.800679  1
  Tm  Tm3  1  0.030530  0.229851  0.800679  1
  Tm  Tm4  1  0.969470  0.770149  0.199321  1
  Tm  Tm5  1  0.182636  0.288490  0.471125  1
  Tm  Tm6  1  0.817364  0.711510  0.528875  1
  Tm  Tm7  1  0.182636  0.711510  0.894144  1
  Tm  Tm8  1  0.817364  0.288490  0.105856  1
  Tm  Tm9  1  0.316732  0.625066  0.308332  1
  Tm  Tm10  1  0.683268  0.374934  0.691668  1
  Tm  Tm11  1  0.316732  0.008401  0.691668  1
  Tm  Tm12  1  0.683268  0.991599  0.308332  1
  Co  Co13  1  0.115375  0.615375  0.500000  1
  Co  Co14  1  0.884625  0.384625  0.500000  1
  Ni  Ni15  1  0.352159  0.000000  0.352159  1
  Ni  Ni16  1  0.647841  0.000000  0.647841  1
  Sn  Sn17  1  0.500000  0.500000  0.000000  1
