# generated using pymatgen
data_Nd3Ga4Co2Ni7B2
_symmetry_space_group_name_H-M   'P 1'
_cell_length_a   5.24775521
_cell_length_b   5.25926070
_cell_length_c   10.69400600
_cell_angle_alpha   90.00000000
_cell_angle_beta   90.00000000
_cell_angle_gamma   120.07255928
_symmetry_Int_Tables_number   1
_chemical_formula_structural   Nd3Ga4Co2Ni7B2
_chemical_formula_sum   'Nd3 Ga4 Co2 Ni7 B2'
_cell_volume   255.41789507
_cell_formula_units_Z   1
loop_
 _symmetry_equiv_pos_site_id
 _symmetry_equiv_pos_as_xyz
  1  'x, y, z'
loop_
 _atom_site_type_symbol
 _atom_site_label
 _atom_site_symmetry_multiplicity
 _atom_site_fract_x
 _atom_site_fract_y
 _atom_site_fract_z
 _atom_site_occupancy
  Nd  Nd0  1  0.000000  0.000000  0.645233  1
  Nd  Nd1  1  0.000000  0.000000  0.306117  1
  Nd  Nd2  1  0.000000  0.000000  0.991565  1
  Ga  Ga3  1  0.336081  0.668041  0.320156  1
  Ga  Ga4  1  0.663919  0.331959  0.320156  1
  Ga  Ga5  1  0.667819  0.333909  0.690695  1
  Ga  Ga6  1  0.332181  0.666091  0.690695  1
  Co  Co7  1  0.500000  0.000000  0.130156  1
  Co  Co8  1  0.500000  0.500000  0.130156  1
  Ni  Ni9  1  0.000000  0.500000  0.875820  1
  Ni  Ni10  1  0.500000  0.000000  0.503151  1
  Ni  Ni11  1  0.500000  0.500000  0.503151  1
  Ni  Ni12  1  0.000000  0.500000  0.501233  1
  Ni  Ni13  1  0.000000  0.500000  0.130835  1
  Ni  Ni14  1  0.500000  0.000000  0.874819  1
  Ni  Ni15  1  0.500000  0.500000  0.874819  1
  B  B16  1  0.659199  0.329599  0.005622  1
  B  B17  1  0.340801  0.670401  0.005622  1
