# generated using pymatgen
data_Tm8Ta7Si16Mo5
_symmetry_space_group_name_H-M   'P 1'
_cell_length_a   6.76605610
_cell_length_b   6.97859684
_cell_length_c   13.12683106
_cell_angle_alpha   89.94185940
_cell_angle_beta   89.93195006
_cell_angle_gamma   89.94012220
_symmetry_Int_Tables_number   1
_chemical_formula_structural   Tm8Ta7Si16Mo5
_chemical_formula_sum   'Tm8 Ta7 Si16 Mo5'
_cell_volume   619.81607141
_cell_formula_units_Z   1
loop_
 _symmetry_equiv_pos_site_id
 _symmetry_equiv_pos_as_xyz
  1  'x, y, z'
loop_
 _atom_site_type_symbol
 _atom_site_label
 _atom_site_symmetry_multiplicity
 _atom_site_fract_x
 _atom_site_fract_y
 _atom_site_fract_z
 _atom_site_occupancy
  Tm  Tm0  1  0.002507  0.169973  0.095251  1
  Tm  Tm1  1  0.998065  0.829125  0.904370  1
  Tm  Tm2  1  0.497463  0.670800  0.905320  1
  Tm  Tm3  1  0.998331  0.827867  0.593718  1
  Tm  Tm4  1  0.503387  0.328376  0.095232  1
  Tm  Tm5  1  0.001640  0.171402  0.406143  1
  Tm  Tm6  1  0.502060  0.328494  0.405518  1
  Tm  Tm7  1  0.497775  0.672358  0.593782  1
  Ta  Ta8  1  0.160526  0.492489  0.748476  1
  Ta  Ta9  1  0.839506  0.507126  0.251118  1
  Ta  Ta10  1  0.338832  0.991884  0.251094  1
  Ta  Ta11  1  0.660421  0.007192  0.749068  1
  Ta  Ta12  1  0.334952  0.170813  0.873612  1
  Ta  Ta13  1  0.832781  0.326638  0.874394  1
  Ta  Ta14  1  0.164949  0.673136  0.126512  1
  Si  Si15  1  0.038062  0.123847  0.746196  1
  Si  Si16  1  0.959703  0.875619  0.253055  1
  Si  Si17  1  0.464612  0.624333  0.252042  1
  Si  Si18  1  0.537181  0.376931  0.746059  1
  Si  Si19  1  0.294571  0.869351  0.749333  1
  Si  Si20  1  0.704237  0.129200  0.250381  1
  Si  Si21  1  0.205800  0.370057  0.250381  1
  Si  Si22  1  0.793960  0.630277  0.749652  1
  Si  Si23  1  0.162871  0.459638  0.542442  1
  Si  Si24  1  0.837697  0.541063  0.456972  1
  Si  Si25  1  0.337607  0.959331  0.457377  1
  Si  Si26  1  0.835147  0.540179  0.043143  1
  Si  Si27  1  0.662647  0.041117  0.542538  1
  Si  Si28  1  0.162938  0.463280  0.958539  1
  Si  Si29  1  0.664614  0.035058  0.960442  1
  Si  Si30  1  0.339152  0.962683  0.042774  1
  Mo  Mo31  1  0.334125  0.167261  0.621560  1
  Mo  Mo32  1  0.665214  0.832121  0.376667  1
  Mo  Mo33  1  0.165494  0.669756  0.377075  1
  Mo  Mo34  1  0.666375  0.829997  0.127822  1
  Mo  Mo35  1  0.834797  0.331224  0.621942  1
