# generated using pymatgen
data_CsHf(AgTe2)4
_symmetry_space_group_name_H-M   'P 1'
_cell_length_a   12.31422867
_cell_length_b   12.31422904
_cell_length_c   10.82018800
_cell_angle_alpha   83.59593584
_cell_angle_beta   83.59593565
_cell_angle_gamma   14.48718197
_symmetry_Int_Tables_number   1
_chemical_formula_structural   CsHf(AgTe2)4
_chemical_formula_sum   'Cs1 Hf1 Ag4 Te8'
_cell_volume   407.85928064
_cell_formula_units_Z   1
loop_
 _symmetry_equiv_pos_site_id
 _symmetry_equiv_pos_as_xyz
  1  'x, y, z'
loop_
 _atom_site_type_symbol
 _atom_site_label
 _atom_site_symmetry_multiplicity
 _atom_site_fract_x
 _atom_site_fract_y
 _atom_site_fract_z
 _atom_site_occupancy
  Cs  Cs0  1  0.000000  0.000000  0.000000  1
  Hf  Hf1  1  0.500000  0.500000  0.500000  1
  Ag  Ag2  1  0.223632  0.223632  0.117407  1
  Ag  Ag3  1  0.837554  0.837554  0.482095  1
  Ag  Ag4  1  0.162446  0.162446  0.517905  1
  Ag  Ag5  1  0.776368  0.776368  0.882593  1
  Te  Te6  1  0.921493  0.921493  0.674990  1
  Te  Te7  1  0.078507  0.078507  0.325010  1
  Te  Te8  1  0.578038  0.578038  0.688567  1
  Te  Te9  1  0.421962  0.421962  0.311433  1
  Te  Te10  1  0.652919  0.652919  0.971880  1
  Te  Te11  1  0.347081  0.347081  0.028120  1
  Te  Te12  1  0.741301  0.741301  0.340019  1
  Te  Te13  1  0.258699  0.258699  0.659981  1
