# generated using pymatgen
data_Mn3Ga2AsRu6
_symmetry_space_group_name_H-M   'P 1'
_cell_length_a   4.25996800
_cell_length_b   6.01395300
_cell_length_c   12.71820300
_cell_angle_alpha   90.00000000
_cell_angle_beta   89.99960003
_cell_angle_gamma   90.00000000
_symmetry_Int_Tables_number   1
_chemical_formula_structural   Mn3Ga2AsRu6
_chemical_formula_sum   'Mn6 Ga4 As2 Ru12'
_cell_volume   325.83078829
_cell_formula_units_Z   2
loop_
 _symmetry_equiv_pos_site_id
 _symmetry_equiv_pos_as_xyz
  1  'x, y, z'
loop_
 _atom_site_type_symbol
 _atom_site_label
 _atom_site_symmetry_multiplicity
 _atom_site_fract_x
 _atom_site_fract_y
 _atom_site_fract_z
 _atom_site_occupancy
  Mn  Mn0  1  0.999987  0.500001  0.995301  1
  Mn  Mn1  1  0.499822  0.000000  0.171376  1
  Mn  Mn2  1  0.999824  0.500001  0.338227  1
  Mn  Mn3  1  0.500007  0.000000  0.500303  1
  Mn  Mn4  1  0.000200  0.500001  0.666359  1
  Mn  Mn5  1  0.500166  0.000000  0.828430  1
  Ga  Ga6  1  0.999808  0.000000  0.332614  1
  Ga  Ga7  1  0.499997  0.500001  0.500205  1
  Ga  Ga8  1  0.000214  0.000000  0.666404  1
  Ga  Ga9  1  0.500163  0.500001  0.834088  1
  As  As10  1  0.999991  0.000000  0.000373  1
  As  As11  1  0.499831  0.500001  0.166321  1
  Ru  Ru12  1  0.499980  0.243669  0.002637  1
  Ru  Ru13  1  0.499980  0.756330  0.002637  1
  Ru  Ru14  1  0.999837  0.256341  0.164034  1
  Ru  Ru15  1  0.999837  0.743659  0.164034  1
  Ru  Ru16  1  0.499828  0.253815  0.330929  1
  Ru  Ru17  1  0.499828  0.746185  0.330929  1
  Ru  Ru18  1  0.000007  0.250383  0.499935  1
  Ru  Ru19  1  0.000007  0.749618  0.499935  1
  Ru  Ru20  1  0.500201  0.249594  0.666717  1
  Ru  Ru21  1  0.500201  0.750406  0.666717  1
  Ru  Ru22  1  0.000145  0.246171  0.835747  1
  Ru  Ru23  1  0.000145  0.753829  0.835747  1
