# generated using pymatgen
data_Li2Yb2Si2P
_symmetry_space_group_name_H-M   'P 1'
_cell_length_a   9.36441000
_cell_length_b   9.36440971
_cell_length_c   6.67104400
_cell_angle_alpha   90.00000000
_cell_angle_beta   90.00000000
_cell_angle_gamma   153.63814385
_symmetry_Int_Tables_number   1
_chemical_formula_structural   Li2Yb2Si2P
_chemical_formula_sum   'Li4 Yb4 Si4 P2'
_cell_volume   259.76194411
_cell_formula_units_Z   2
loop_
 _symmetry_equiv_pos_site_id
 _symmetry_equiv_pos_as_xyz
  1  'x, y, z'
loop_
 _atom_site_type_symbol
 _atom_site_label
 _atom_site_symmetry_multiplicity
 _atom_site_fract_x
 _atom_site_fract_y
 _atom_site_fract_z
 _atom_site_occupancy
  Li  Li0  1  0.807628  0.192372  0.442573  1
  Li  Li1  1  0.192372  0.807628  0.557427  1
  Li  Li2  1  0.807628  0.192372  0.057427  1
  Li  Li3  1  0.192372  0.807628  0.942573  1
  Yb  Yb4  1  0.560031  0.439969  0.750000  1
  Yb  Yb5  1  0.439969  0.560031  0.250000  1
  Yb  Yb6  1  0.339134  0.660866  0.750000  1
  Yb  Yb7  1  0.660866  0.339134  0.250000  1
  Si  Si8  1  0.942815  0.057185  0.924348  1
  Si  Si9  1  0.057185  0.942815  0.075652  1
  Si  Si10  1  0.942815  0.057185  0.575652  1
  Si  Si11  1  0.057185  0.942815  0.424348  1
  P  P12  1  0.722231  0.277769  0.750000  1
  P  P13  1  0.277769  0.722231  0.250000  1
