# generated using pymatgen
data_Tb4Zn3Ga5Ag4
_symmetry_space_group_name_H-M   'P 1'
_cell_length_a   4.34477800
_cell_length_b   6.96411704
_cell_length_c   10.33332907
_cell_angle_alpha   90.01278964
_cell_angle_beta   90.00000000
_cell_angle_gamma   90.00000000
_symmetry_Int_Tables_number   1
_chemical_formula_structural   Tb4Zn3Ga5Ag4
_chemical_formula_sum   'Tb4 Zn3 Ga5 Ag4'
_cell_volume   312.66113574
_cell_formula_units_Z   1
loop_
 _symmetry_equiv_pos_site_id
 _symmetry_equiv_pos_as_xyz
  1  'x, y, z'
loop_
 _atom_site_type_symbol
 _atom_site_label
 _atom_site_symmetry_multiplicity
 _atom_site_fract_x
 _atom_site_fract_y
 _atom_site_fract_z
 _atom_site_occupancy
  Tb  Tb0  1  0.250000  0.780812  0.828848  1
  Tb  Tb1  1  0.750000  0.216323  0.169839  1
  Tb  Tb2  1  0.750000  0.720865  0.328360  1
  Tb  Tb3  1  0.250000  0.281304  0.672338  1
  Zn  Zn4  1  0.250000  0.923872  0.149054  1
  Zn  Zn5  1  0.750000  0.076334  0.850280  1
  Zn  Zn6  1  0.750000  0.576922  0.651076  1
  Ga  Ga7  1  0.250000  0.425121  0.347724  1
  Ga  Ga8  1  0.250000  0.702578  0.538581  1
  Ga  Ga9  1  0.750000  0.297162  0.465810  1
  Ga  Ga10  1  0.750000  0.798251  0.037838  1
  Ga  Ga11  1  0.250000  0.200738  0.962713  1
  Ag  Ag12  1  0.250000  0.542113  0.097894  1
  Ag  Ag13  1  0.750000  0.458328  0.900649  1
  Ag  Ag14  1  0.750000  0.957981  0.599354  1
  Ag  Ag15  1  0.250000  0.041298  0.399642  1
