# generated using pymatgen
data_Li2Ho8Si12IrPd
_symmetry_space_group_name_H-M   'P 1'
_cell_length_a   8.15341400
_cell_length_b   8.15341480
_cell_length_c   7.92856500
_cell_angle_alpha   90.00000000
_cell_angle_beta   90.00000000
_cell_angle_gamma   120.00000486
_symmetry_Int_Tables_number   1
_chemical_formula_structural   Li2Ho8Si12IrPd
_chemical_formula_sum   'Li2 Ho8 Si12 Ir1 Pd1'
_cell_volume   456.46158461
_cell_formula_units_Z   1
loop_
 _symmetry_equiv_pos_site_id
 _symmetry_equiv_pos_as_xyz
  1  'x, y, z'
loop_
 _atom_site_type_symbol
 _atom_site_label
 _atom_site_symmetry_multiplicity
 _atom_site_fract_x
 _atom_site_fract_y
 _atom_site_fract_z
 _atom_site_occupancy
  Li  Li0  1  0.666667  0.333333  0.961006  1
  Li  Li1  1  0.333333  0.666667  0.035422  1
  Ho  Ho2  1  0.000000  0.000000  0.245963  1
  Ho  Ho3  1  0.000000  0.000000  0.754957  1
  Ho  Ho4  1  0.510081  0.489919  0.252628  1
  Ho  Ho5  1  0.510081  0.020162  0.252628  1
  Ho  Ho6  1  0.979838  0.489919  0.252628  1
  Ho  Ho7  1  0.494245  0.505755  0.747336  1
  Ho  Ho8  1  0.494245  0.988491  0.747336  1
  Ho  Ho9  1  0.011509  0.505755  0.747336  1
  Si  Si10  1  0.165021  0.834979  0.491907  1
  Si  Si11  1  0.165021  0.330040  0.491907  1
  Si  Si12  1  0.669960  0.834979  0.491907  1
  Si  Si13  1  0.833414  0.166586  0.509466  1
  Si  Si14  1  0.833414  0.666830  0.509466  1
  Si  Si15  1  0.333170  0.166586  0.509466  1
  Si  Si16  1  0.833071  0.166929  0.007556  1
  Si  Si17  1  0.833071  0.666142  0.007556  1
  Si  Si18  1  0.333858  0.166929  0.007556  1
  Si  Si19  1  0.167194  0.832806  0.992415  1
  Si  Si20  1  0.167194  0.334385  0.992415  1
  Si  Si21  1  0.665615  0.832806  0.992415  1
  Ir  Ir22  1  0.666667  0.333333  0.519942  1
  Pd  Pd23  1  0.333333  0.666667  0.478790  1
