# generated using pymatgen
data_Tb6DyCo5TcSn23
_symmetry_space_group_name_H-M   'P 1'
_cell_length_a   9.74543499
_cell_length_b   9.74463611
_cell_length_c   10.00724983
_cell_angle_alpha   90.04769813
_cell_angle_beta   89.95050977
_cell_angle_gamma   119.80313185
_symmetry_Int_Tables_number   1
_chemical_formula_structural   Tb6DyCo5TcSn23
_chemical_formula_sum   'Tb6 Dy1 Co5 Tc1 Sn23'
_cell_volume   824.65092033
_cell_formula_units_Z   1
loop_
 _symmetry_equiv_pos_site_id
 _symmetry_equiv_pos_as_xyz
  1  'x, y, z'
loop_
 _atom_site_type_symbol
 _atom_site_label
 _atom_site_symmetry_multiplicity
 _atom_site_fract_x
 _atom_site_fract_y
 _atom_site_fract_z
 _atom_site_occupancy
  Tb  Tb0  1  0.995748  0.004248  0.004977  1
  Tb  Tb1  1  0.479743  0.520228  0.307223  1
  Tb  Tb2  1  0.520798  0.479174  0.693677  1
  Tb  Tb3  1  0.481174  0.959146  0.305809  1
  Tb  Tb4  1  0.519272  0.040828  0.694465  1
  Tb  Tb5  1  0.040863  0.518827  0.305859  1
  Dy  Dy6  1  0.959409  0.480831  0.694479  1
  Co  Co7  1  0.167457  0.832240  0.801527  1
  Co  Co8  1  0.832207  0.662589  0.196388  1
  Co  Co9  1  0.169703  0.337569  0.801484  1
  Co  Co10  1  0.337401  0.167792  0.196366  1
  Co  Co11  1  0.662530  0.830195  0.801523  1
  Tc  Tc12  1  0.833646  0.166358  0.199437  1
  Sn  Sn13  1  0.343886  0.998903  0.999369  1
  Sn  Sn14  1  0.649780  0.996818  0.995461  1
  Sn  Sn15  1  0.003181  0.350257  0.995390  1
  Sn  Sn16  1  0.001054  0.656064  0.999341  1
  Sn  Sn17  1  0.653296  0.653016  0.999657  1
  Sn  Sn18  1  0.346964  0.346742  0.999636  1
  Sn  Sn19  1  0.332908  0.666918  0.817018  1
  Sn  Sn20  1  0.665445  0.334588  0.183185  1
  Sn  Sn21  1  0.999545  0.000424  0.500743  1
  Sn  Sn22  1  0.780006  0.220213  0.458750  1
  Sn  Sn23  1  0.217219  0.782365  0.548111  1
  Sn  Sn24  1  0.782099  0.564217  0.451622  1
  Sn  Sn25  1  0.218543  0.436337  0.548266  1
  Sn  Sn26  1  0.435772  0.217978  0.451527  1
  Sn  Sn27  1  0.563669  0.781267  0.548155  1
  Sn  Sn28  1  0.332945  0.667038  0.116494  1
  Sn  Sn29  1  0.667203  0.333270  0.881810  1
  Sn  Sn30  1  0.117784  0.882189  0.272077  1
  Sn  Sn31  1  0.883034  0.117188  0.727074  1
  Sn  Sn32  1  0.126369  0.237817  0.273907  1
  Sn  Sn33  1  0.881719  0.764412  0.727631  1
  Sn  Sn34  1  0.762212  0.873640  0.273914  1
  Sn  Sn35  1  0.235416  0.118312  0.727647  1
