# generated using pymatgen
data_Ho8TcRuBr8
_symmetry_space_group_name_H-M   'P 1'
_cell_length_a   8.90586576
_cell_length_b   8.90586574
_cell_length_c   6.54074300
_cell_angle_alpha   89.51447816
_cell_angle_beta   89.51447173
_cell_angle_gamma   89.37617066
_symmetry_Int_Tables_number   1
_chemical_formula_structural   Ho8TcRuBr8
_chemical_formula_sum   'Ho8 Tc1 Ru1 Br8'
_cell_volume   518.70780084
_cell_formula_units_Z   1
loop_
 _symmetry_equiv_pos_site_id
 _symmetry_equiv_pos_as_xyz
  1  'x, y, z'
loop_
 _atom_site_type_symbol
 _atom_site_label
 _atom_site_symmetry_multiplicity
 _atom_site_fract_x
 _atom_site_fract_y
 _atom_site_fract_z
 _atom_site_occupancy
  Ho  Ho0  1  0.248616  0.901198  0.011282  1
  Ho  Ho1  1  0.750449  0.099218  0.990785  1
  Ho  Ho2  1  0.098802  0.751384  0.488718  1
  Ho  Ho3  1  0.900782  0.249551  0.509215  1
  Ho  Ho4  1  0.752108  0.902759  0.507024  1
  Ho  Ho5  1  0.247866  0.097456  0.490940  1
  Ho  Ho6  1  0.097241  0.247892  0.992976  1
  Ho  Ho7  1  0.902544  0.752134  0.009060  1
  Tc  Tc8  1  0.994364  0.005636  0.250000  1
  Ru  Ru9  1  0.005761  0.994239  0.750000  1
  Br  Br10  1  0.420767  0.816996  0.406171  1
  Br  Br11  1  0.579655  0.182760  0.595005  1
  Br  Br12  1  0.183004  0.579233  0.093829  1
  Br  Br13  1  0.817240  0.420345  0.904995  1
  Br  Br14  1  0.416231  0.191656  0.095920  1
  Br  Br15  1  0.584495  0.808270  0.903605  1
  Br  Br16  1  0.808344  0.583769  0.404080  1
  Br  Br17  1  0.191730  0.415505  0.596395  1
