# generated using pymatgen
data_NpSe23
_symmetry_space_group_name_H-M   'P 1'
_cell_length_a   6.12113826
_cell_length_b   10.09588829
_cell_length_c   16.23841400
_cell_angle_alpha   89.63401781
_cell_angle_beta   90.46346231
_cell_angle_gamma   87.71809494
_symmetry_Int_Tables_number   1
_chemical_formula_structural   NpSe23
_chemical_formula_sum   'Np1 Se23'
_cell_volume   1002.65566271
_cell_formula_units_Z   1
loop_
 _symmetry_equiv_pos_site_id
 _symmetry_equiv_pos_as_xyz
  1  'x, y, z'
loop_
 _atom_site_type_symbol
 _atom_site_label
 _atom_site_symmetry_multiplicity
 _atom_site_fract_x
 _atom_site_fract_y
 _atom_site_fract_z
 _atom_site_occupancy
  Np  Np0  1  0.503946  0.422939  0.466601  1
  Se  Se1  1  0.518325  0.808753  0.372409  1
  Se  Se2  1  0.003880  0.318812  0.127044  1
  Se  Se3  1  0.894496  0.272621  0.479331  1
  Se  Se4  1  0.301101  0.735414  0.481439  1
  Se  Se5  1  0.198248  0.262463  0.006458  1
  Se  Se6  1  0.782061  0.735362  0.001722  1
  Se  Se7  1  0.120528  0.379096  0.378780  1
  Se  Se8  1  0.766145  0.614106  0.360366  1
  Se  Se9  1  0.800598  0.133073  0.163246  1
  Se  Se10  1  0.223665  0.852418  0.143309  1
  Se  Se11  1  0.693587  0.575671  0.624520  1
  Se  Se12  1  0.233692  0.350349  0.617619  1
  Se  Se13  1  0.201965  0.857281  0.853021  1
  Se  Se14  1  0.775150  0.137366  0.856193  1
  Se  Se15  1  0.000809  0.671883  0.116740  1
  Se  Se16  1  0.502939  0.784248  0.602726  1
  Se  Se17  1  0.462644  0.185569  0.556432  1
  Se  Se18  1  0.982622  0.675730  0.882971  1
  Se  Se19  1  0.980897  0.323258  0.890143  1
  Se  Se20  1  0.547727  0.457232  0.295516  1
  Se  Se21  1  0.037362  0.988446  0.240044  1
  Se  Se22  1  0.477106  0.454676  0.715962  1
  Se  Se23  1  0.990506  0.003234  0.767408  1
