# generated using pymatgen
data_CaPr8TmInSi4Ge
_symmetry_space_group_name_H-M   'P 1'
_cell_length_a   7.77021300
_cell_length_b   9.27678203
_cell_length_c   7.77021300
_cell_angle_alpha   114.75878628
_cell_angle_beta   90.00000000
_cell_angle_gamma   114.75878628
_symmetry_Int_Tables_number   1
_chemical_formula_structural   CaPr8TmInSi4Ge
_chemical_formula_sum   'Ca1 Pr8 Tm1 In1 Si4 Ge1'
_cell_volume   451.29176308
_cell_formula_units_Z   1
loop_
 _symmetry_equiv_pos_site_id
 _symmetry_equiv_pos_as_xyz
  1  'x, y, z'
loop_
 _atom_site_type_symbol
 _atom_site_label
 _atom_site_symmetry_multiplicity
 _atom_site_fract_x
 _atom_site_fract_y
 _atom_site_fract_z
 _atom_site_occupancy
  Ca  Ca0  1  0.983615  0.967229  0.983615  1
  Pr  Pr1  1  0.525590  0.721033  0.673229  1
  Pr  Pr2  1  0.195445  0.721033  0.047805  1
  Pr  Pr3  1  0.673229  0.721033  0.195445  1
  Pr  Pr4  1  0.047805  0.721033  0.525590  1
  Pr  Pr5  1  0.452568  0.279161  0.305455  1
  Pr  Pr6  1  0.826591  0.279161  0.973703  1
  Pr  Pr7  1  0.305455  0.279161  0.826591  1
  Pr  Pr8  1  0.973703  0.279161  0.452568  1
  Tm  Tm9  1  0.518080  0.036161  0.518080  1
  In  In10  1  0.747512  0.495024  0.747512  1
  Si  Si11  1  0.879261  0.000414  0.613364  1
  Si  Si12  1  0.121153  0.000414  0.387050  1
  Si  Si13  1  0.613364  0.000414  0.121153  1
  Si  Si14  1  0.387050  0.000414  0.879261  1
  Ge  Ge15  1  0.249578  0.499156  0.249578  1
