# generated using pymatgen
data_CaTbFeSbO6
_symmetry_space_group_name_H-M   'P 1'
_cell_length_a   7.86142042
_cell_length_b   8.01098222
_cell_length_c   7.96572560
_cell_angle_alpha   89.44442273
_cell_angle_beta   89.02422956
_cell_angle_gamma   92.88314356
_symmetry_Int_Tables_number   1
_chemical_formula_structural   CaTbFeSbO6
_chemical_formula_sum   'Ca4 Tb4 Fe4 Sb4 O24'
_cell_volume   500.92743400
_cell_formula_units_Z   4
loop_
 _symmetry_equiv_pos_site_id
 _symmetry_equiv_pos_as_xyz
  1  'x, y, z'
loop_
 _atom_site_type_symbol
 _atom_site_label
 _atom_site_symmetry_multiplicity
 _atom_site_fract_x
 _atom_site_fract_y
 _atom_site_fract_z
 _atom_site_occupancy
  Ca  Ca0  1  0.538262  0.982993  0.250496  1
  Ca  Ca1  1  0.038591  0.483845  0.249357  1
  Ca  Ca2  1  0.479384  0.533080  0.750997  1
  Ca  Ca3  1  0.978960  0.033765  0.750385  1
  Tb  Tb4  1  0.522195  0.455887  0.245398  1
  Tb  Tb5  1  0.022045  0.956998  0.244776  1
  Tb  Tb6  1  0.451959  0.018289  0.748677  1
  Tb  Tb7  1  0.952558  0.519118  0.747524  1
  Fe  Fe8  1  0.251149  0.746802  0.999725  1
  Fe  Fe9  1  0.246707  0.250736  0.499172  1
  Fe  Fe10  1  0.751722  0.246833  0.000235  1
  Fe  Fe11  1  0.746667  0.750650  0.499007  1
  Sb  Sb12  1  0.752083  0.247616  0.499364  1
  Sb  Sb13  1  0.252129  0.747810  0.499368  1
  Sb  Sb14  1  0.747563  0.752022  0.999408  1
  Sb  Sb15  1  0.247766  0.252249  0.999373  1
  O  O16  1  0.329586  0.277793  0.760550  1
  O  O17  1  0.829406  0.778485  0.760815  1
  O  O18  1  0.279835  0.830524  0.261148  1
  O  O19  1  0.781009  0.330511  0.261113  1
  O  O20  1  0.200419  0.009495  0.948129  1
  O  O21  1  0.702491  0.509174  0.947165  1
  O  O22  1  0.503886  0.204720  0.444856  1
  O  O23  1  0.003776  0.702991  0.446500  1
  O  O24  1  0.208327  0.984290  0.569072  1
  O  O25  1  0.708626  0.484293  0.568825  1
  O  O26  1  0.490368  0.206833  0.064029  1
  O  O27  1  0.990700  0.708461  0.064637  1
  O  O28  1  0.708540  0.162428  0.737043  1
  O  O29  1  0.209761  0.662847  0.737119  1
  O  O30  1  0.663942  0.709498  0.237326  1
  O  O31  1  0.163943  0.210707  0.237537  1
  O  O32  1  0.496731  0.807736  0.557307  1
  O  O33  1  0.996483  0.305981  0.558757  1
  O  O34  1  0.806245  0.991084  0.057257  1
  O  O35  1  0.308061  0.491212  0.056469  1
  O  O36  1  0.508670  0.809659  0.937364  1
  O  O37  1  0.009345  0.311548  0.937866  1
  O  O38  1  0.809824  0.015358  0.432831  1
  O  O39  1  0.310286  0.515671  0.433025  1
