# generated using pymatgen
data_Na4YP12Ir19
_symmetry_space_group_name_H-M   'P 1'
_cell_length_a   12.64578878
_cell_length_b   12.63455874
_cell_length_c   3.96314200
_cell_angle_alpha   90.00000000
_cell_angle_beta   90.00000000
_cell_angle_gamma   119.97062029
_symmetry_Int_Tables_number   1
_chemical_formula_structural   Na4YP12Ir19
_chemical_formula_sum   'Na4 Y1 P12 Ir19'
_cell_volume   548.53553153
_cell_formula_units_Z   1
loop_
 _symmetry_equiv_pos_site_id
 _symmetry_equiv_pos_as_xyz
  1  'x, y, z'
loop_
 _atom_site_type_symbol
 _atom_site_label
 _atom_site_symmetry_multiplicity
 _atom_site_fract_x
 _atom_site_fract_y
 _atom_site_fract_z
 _atom_site_occupancy
  Na  Na0  1  0.818895  0.817726  0.500000  1
  Na  Na1  1  0.181105  0.998831  0.500000  1
  Na  Na2  1  0.667688  0.333992  0.000000  1
  Na  Na3  1  0.332312  0.666305  0.000000  1
  Y  Y4  1  0.000000  0.177437  0.500000  1
  P  P5  1  0.000000  0.819203  0.000000  1
  P  P6  1  0.183354  0.178116  0.000000  1
  P  P7  1  0.816646  0.994762  0.000000  1
  P  P8  1  0.688072  0.175943  0.500000  1
  P  P9  1  0.823505  0.513295  0.500000  1
  P  P10  1  0.487773  0.311882  0.500000  1
  P  P11  1  0.176495  0.689789  0.500000  1
  P  P12  1  0.512227  0.824110  0.500000  1
  P  P13  1  0.311928  0.487871  0.500000  1
  P  P14  1  0.000000  0.360552  0.000000  1
  P  P15  1  0.639748  0.640272  0.000000  1
  P  P16  1  0.360252  0.000524  0.000000  1
  Ir  Ir17  1  0.000000  0.541590  0.000000  1
  Ir  Ir18  1  0.456144  0.460141  0.000000  1
  Ir  Ir19  1  0.543856  0.003996  0.000000  1
  Ir  Ir20  1  0.000000  0.708182  0.500000  1
  Ir  Ir21  1  0.290569  0.291863  0.500000  1
  Ir  Ir22  1  0.709431  0.001293  0.500000  1
  Ir  Ir23  1  0.806491  0.180289  0.000000  1
  Ir  Ir24  1  0.817519  0.621268  0.000000  1
  Ir  Ir25  1  0.380273  0.197946  0.000000  1
  Ir  Ir26  1  0.182481  0.803748  0.000000  1
  Ir  Ir27  1  0.619727  0.817673  0.000000  1
  Ir  Ir28  1  0.193509  0.373796  0.000000  1
  Ir  Ir29  1  0.870163  0.360487  0.500000  1
  Ir  Ir30  1  0.638079  0.510880  0.500000  1
  Ir  Ir31  1  0.490563  0.130406  0.500000  1
  Ir  Ir32  1  0.361921  0.872801  0.500000  1
  Ir  Ir33  1  0.509437  0.639843  0.500000  1
  Ir  Ir34  1  0.129837  0.490323  0.500000  1
  Ir  Ir35  1  0.000000  0.002868  0.000000  1
