# generated using pymatgen
data_Eu20Cd3Cu8Pb
_symmetry_space_group_name_H-M   'P 1'
_cell_length_a   8.15125900
_cell_length_b   8.15125900
_cell_length_c   15.06717800
_cell_angle_alpha   90.00000000
_cell_angle_beta   90.00000000
_cell_angle_gamma   90.00000000
_symmetry_Int_Tables_number   1
_chemical_formula_structural   Eu20Cd3Cu8Pb
_chemical_formula_sum   'Eu20 Cd3 Cu8 Pb1'
_cell_volume   1001.10885869
_cell_formula_units_Z   1
loop_
 _symmetry_equiv_pos_site_id
 _symmetry_equiv_pos_as_xyz
  1  'x, y, z'
loop_
 _atom_site_type_symbol
 _atom_site_label
 _atom_site_symmetry_multiplicity
 _atom_site_fract_x
 _atom_site_fract_y
 _atom_site_fract_z
 _atom_site_occupancy
  Eu  Eu0  1  0.669349  0.168362  0.110122  1
  Eu  Eu1  1  0.169235  0.668835  0.611589  1
  Eu  Eu2  1  0.330651  0.831638  0.110122  1
  Eu  Eu3  1  0.830765  0.331165  0.611589  1
  Eu  Eu4  1  0.831638  0.669349  0.110122  1
  Eu  Eu5  1  0.331165  0.169235  0.611589  1
  Eu  Eu6  1  0.168362  0.330651  0.110122  1
  Eu  Eu7  1  0.668835  0.830765  0.611589  1
  Eu  Eu8  1  0.831638  0.330651  0.889878  1
  Eu  Eu9  1  0.331165  0.830765  0.388411  1
  Eu  Eu10  1  0.168362  0.669349  0.889878  1
  Eu  Eu11  1  0.668835  0.169235  0.388411  1
  Eu  Eu12  1  0.669349  0.831638  0.889878  1
  Eu  Eu13  1  0.169235  0.331165  0.388411  1
  Eu  Eu14  1  0.330651  0.168362  0.889878  1
  Eu  Eu15  1  0.830765  0.668835  0.388411  1
  Eu  Eu16  1  0.500000  0.500000  0.751779  1
  Eu  Eu17  1  0.000000  0.000000  0.248391  1
  Eu  Eu18  1  0.000000  0.000000  0.751609  1
  Eu  Eu19  1  0.500000  0.500000  0.248221  1
  Cd  Cd20  1  0.500000  0.500000  0.500000  1
  Cd  Cd21  1  0.500000  0.500000  0.000000  1
  Cd  Cd22  1  0.000000  0.000000  0.500000  1
  Cu  Cu23  1  0.612946  0.113972  0.750421  1
  Cu  Cu24  1  0.113972  0.612946  0.249579  1
  Cu  Cu25  1  0.886028  0.387054  0.249579  1
  Cu  Cu26  1  0.387054  0.886028  0.750421  1
  Cu  Cu27  1  0.886028  0.612946  0.750421  1
  Cu  Cu28  1  0.387054  0.113972  0.249579  1
  Cu  Cu29  1  0.113972  0.387054  0.750421  1
  Cu  Cu30  1  0.612946  0.886028  0.249579  1
  Pb  Pb31  1  0.000000  0.000000  0.000000  1
