# generated using pymatgen
data_Er8Zn3Si12Rh
_symmetry_space_group_name_H-M   'P 1'
_cell_length_a   8.09018900
_cell_length_b   8.09018908
_cell_length_c   7.97767800
_cell_angle_alpha   90.00000000
_cell_angle_beta   90.00000000
_cell_angle_gamma   120.00000376
_symmetry_Int_Tables_number   1
_chemical_formula_structural   Er8Zn3Si12Rh
_chemical_formula_sum   'Er8 Zn3 Si12 Rh1'
_cell_volume   452.19364829
_cell_formula_units_Z   1
loop_
 _symmetry_equiv_pos_site_id
 _symmetry_equiv_pos_as_xyz
  1  'x, y, z'
loop_
 _atom_site_type_symbol
 _atom_site_label
 _atom_site_symmetry_multiplicity
 _atom_site_fract_x
 _atom_site_fract_y
 _atom_site_fract_z
 _atom_site_occupancy
  Er  Er0  1  0.996044  0.498022  0.250528  1
  Er  Er1  1  0.501978  0.498022  0.250528  1
  Er  Er2  1  0.495349  0.990697  0.749535  1
  Er  Er3  1  0.009303  0.504651  0.749535  1
  Er  Er4  1  0.495349  0.504651  0.749535  1
  Er  Er5  1  0.501978  0.003956  0.250528  1
  Er  Er6  1  0.000000  0.000000  0.751227  1
  Er  Er7  1  0.000000  0.000000  0.248558  1
  Zn  Zn8  1  0.333333  0.666667  0.019391  1
  Zn  Zn9  1  0.666667  0.333333  0.983833  1
  Zn  Zn10  1  0.666667  0.333333  0.506374  1
  Si  Si11  1  0.169563  0.830437  0.496392  1
  Si  Si12  1  0.169563  0.339125  0.496392  1
  Si  Si13  1  0.660875  0.830437  0.496392  1
  Si  Si14  1  0.333708  0.166855  0.002919  1
  Si  Si15  1  0.836455  0.672911  0.503594  1
  Si  Si16  1  0.833145  0.166855  0.002919  1
  Si  Si17  1  0.833145  0.666292  0.002919  1
  Si  Si18  1  0.166880  0.333760  0.996501  1
  Si  Si19  1  0.666240  0.833120  0.996501  1
  Si  Si20  1  0.327089  0.163545  0.503594  1
  Si  Si21  1  0.836455  0.163545  0.503594  1
  Si  Si22  1  0.166880  0.833120  0.996501  1
  Rh  Rh23  1  0.333333  0.666667  0.492208  1
