# generated using pymatgen
data_DyCu2Ni2Au
_symmetry_space_group_name_H-M   'P 1'
_cell_length_a   5.01123628
_cell_length_b   4.97458711
_cell_length_c   4.97458784
_cell_angle_alpha   59.77859489
_cell_angle_beta   59.75599205
_cell_angle_gamma   59.75599386
_symmetry_Int_Tables_number   1
_chemical_formula_structural   DyCu2Ni2Au
_chemical_formula_sum   'Dy1 Cu2 Ni2 Au1'
_cell_volume   87.21793828
_cell_formula_units_Z   1
loop_
 _symmetry_equiv_pos_site_id
 _symmetry_equiv_pos_as_xyz
  1  'x, y, z'
loop_
 _atom_site_type_symbol
 _atom_site_label
 _atom_site_symmetry_multiplicity
 _atom_site_fract_x
 _atom_site_fract_y
 _atom_site_fract_z
 _atom_site_occupancy
  Dy  Dy0  1  0.002033  0.997967  0.997967  1
  Cu  Cu1  1  0.623948  0.624894  0.127211  1
  Cu  Cu2  1  0.623948  0.127211  0.624894  1
  Ni  Ni3  1  0.126226  0.624847  0.624847  1
  Ni  Ni4  1  0.624081  0.624847  0.624847  1
  Au  Au5  1  0.249764  0.250236  0.250236  1
