# generated using pymatgen
data_TbDy4Mn2O12
_symmetry_space_group_name_H-M   'P 1'
_cell_length_a   6.82165414
_cell_length_b   6.82182340
_cell_length_c   7.24987500
_cell_angle_alpha   74.53907061
_cell_angle_beta   74.53884899
_cell_angle_gamma   49.99293850
_symmetry_Int_Tables_number   1
_chemical_formula_structural   TbDy4Mn2O12
_chemical_formula_sum   'Tb1 Dy4 Mn2 O12'
_cell_volume   246.99068371
_cell_formula_units_Z   1
loop_
 _symmetry_equiv_pos_site_id
 _symmetry_equiv_pos_as_xyz
  1  'x, y, z'
loop_
 _atom_site_type_symbol
 _atom_site_label
 _atom_site_symmetry_multiplicity
 _atom_site_fract_x
 _atom_site_fract_y
 _atom_site_fract_z
 _atom_site_occupancy
  Tb  Tb0  1  0.000000  0.000000  0.500000  1
  Dy  Dy1  1  0.305167  0.305167  0.356261  1
  Dy  Dy2  1  0.694833  0.694833  0.643739  1
  Dy  Dy3  1  0.307415  0.307405  0.835654  1
  Dy  Dy4  1  0.692585  0.692595  0.164346  1
  Mn  Mn5  1  0.753980  0.246026  0.999999  1
  Mn  Mn6  1  0.246020  0.753974  0.000001  1
  O  O7  1  0.901248  0.421375  0.918904  1
  O  O8  1  0.421364  0.901248  0.918908  1
  O  O9  1  0.098752  0.578625  0.081096  1
  O  O10  1  0.578636  0.098752  0.081092  1
  O  O11  1  0.096985  0.596819  0.574963  1
  O  O12  1  0.596821  0.096980  0.574966  1
  O  O13  1  0.903015  0.403181  0.425037  1
  O  O14  1  0.403179  0.903020  0.425034  1
  O  O15  1  0.999887  0.999889  0.822306  1
  O  O16  1  0.000113  0.000111  0.177694  1
  O  O17  1  0.499937  0.499940  0.820056  1
  O  O18  1  0.500063  0.500060  0.179944  1
