# generated using pymatgen
data_La2Pr6SnPd24
_symmetry_space_group_name_H-M   'P 1'
_cell_length_a   8.58321128
_cell_length_b   8.58321128
_cell_length_c   8.58321128
_cell_angle_alpha   89.97926455
_cell_angle_beta   90.02073545
_cell_angle_gamma   90.02073545
_symmetry_Int_Tables_number   1
_chemical_formula_structural   La2Pr6SnPd24
_chemical_formula_sum   'La2 Pr6 Sn1 Pd24'
_cell_volume   632.33806211
_cell_formula_units_Z   1
loop_
 _symmetry_equiv_pos_site_id
 _symmetry_equiv_pos_as_xyz
  1  'x, y, z'
loop_
 _atom_site_type_symbol
 _atom_site_label
 _atom_site_symmetry_multiplicity
 _atom_site_fract_x
 _atom_site_fract_y
 _atom_site_fract_z
 _atom_site_occupancy
  La  La0  1  0.252404  0.747596  0.747596  1
  La  La1  1  0.747596  0.252404  0.252404  1
  Pr  Pr2  1  0.251878  0.251900  0.251900  1
  Pr  Pr3  1  0.748122  0.748100  0.748100  1
  Pr  Pr4  1  0.748100  0.748122  0.251900  1
  Pr  Pr5  1  0.748100  0.251900  0.748122  1
  Pr  Pr6  1  0.251900  0.251878  0.748100  1
  Pr  Pr7  1  0.251900  0.748100  0.251878  1
  Sn  Sn8  1  0.000000  0.000000  0.000000  1
  Pd  Pd9  1  0.267330  0.500018  0.999966  1
  Pd  Pd10  1  0.732670  0.499982  0.000034  1
  Pd  Pd11  1  0.999966  0.267330  0.499982  1
  Pd  Pd12  1  0.500018  0.267330  0.000034  1
  Pd  Pd13  1  0.000034  0.732670  0.500018  1
  Pd  Pd14  1  0.499982  0.732670  0.999966  1
  Pd  Pd15  1  0.500018  0.000034  0.267330  1
  Pd  Pd16  1  0.267330  0.999966  0.500018  1
  Pd  Pd17  1  0.499982  0.999966  0.732670  1
  Pd  Pd18  1  0.732670  0.000034  0.499982  1
  Pd  Pd19  1  0.999966  0.499982  0.267330  1
  Pd  Pd20  1  0.000034  0.500018  0.732670  1
  Pd  Pd21  1  0.255660  0.499988  0.499988  1
  Pd  Pd22  1  0.744340  0.500012  0.500012  1
  Pd  Pd23  1  0.499988  0.255660  0.500012  1
  Pd  Pd24  1  0.500012  0.744340  0.499988  1
  Pd  Pd25  1  0.499988  0.500012  0.255660  1
  Pd  Pd26  1  0.500012  0.499988  0.744340  1
  Pd  Pd27  1  0.313771  0.000125  0.000125  1
  Pd  Pd28  1  0.686229  0.999875  0.999875  1
  Pd  Pd29  1  0.000125  0.313771  0.999875  1
  Pd  Pd30  1  0.999875  0.686229  0.000125  1
  Pd  Pd31  1  0.000125  0.999875  0.313771  1
  Pd  Pd32  1  0.999875  0.000125  0.686229  1
