# generated using pymatgen
data_DyYHo2(Sn5Rh3)2
_symmetry_space_group_name_H-M   'P 1'
_cell_length_a   13.46887264
_cell_length_b   13.46887292
_cell_length_c   7.26119770
_cell_angle_alpha   90.04941890
_cell_angle_beta   89.95058174
_cell_angle_gamma   161.06843447
_symmetry_Int_Tables_number   1
_chemical_formula_structural   DyYHo2(Sn5Rh3)2
_chemical_formula_sum   'Dy1 Y1 Ho2 Sn10 Rh6'
_cell_volume   427.36908224
_cell_formula_units_Z   1
loop_
 _symmetry_equiv_pos_site_id
 _symmetry_equiv_pos_as_xyz
  1  'x, y, z'
loop_
 _atom_site_type_symbol
 _atom_site_label
 _atom_site_symmetry_multiplicity
 _atom_site_fract_x
 _atom_site_fract_y
 _atom_site_fract_z
 _atom_site_occupancy
  Dy  Dy0  1  0.827806  0.172194  0.246100  1
  Y  Y1  1  0.172405  0.827595  0.747039  1
  Ho  Ho2  1  0.476045  0.523955  0.760122  1
  Ho  Ho3  1  0.523897  0.476103  0.259922  1
  Sn  Sn4  1  0.880895  0.119105  0.769756  1
  Sn  Sn5  1  0.118952  0.881048  0.268917  1
  Sn  Sn6  1  0.704770  0.295230  0.453817  1
  Sn  Sn7  1  0.295220  0.704780  0.953340  1
  Sn  Sn8  1  0.596294  0.403706  0.884366  1
  Sn  Sn9  1  0.403713  0.596287  0.385394  1
  Sn  Sn10  1  0.952604  0.047396  0.099918  1
  Sn  Sn11  1  0.047162  0.952838  0.599475  1
  Sn  Sn12  1  0.291046  0.708954  0.524137  1
  Sn  Sn13  1  0.709055  0.290945  0.024433  1
  Rh  Rh14  1  0.050263  0.949737  0.980510  1
  Rh  Rh15  1  0.949779  0.050221  0.480914  1
  Rh  Rh16  1  0.777614  0.222386  0.737761  1
  Rh  Rh17  1  0.222545  0.777455  0.238050  1
  Rh  Rh18  1  0.394172  0.605828  0.015388  1
  Rh  Rh19  1  0.605764  0.394236  0.514643  1
