# generated using pymatgen
data_LiTc2B4W
_symmetry_space_group_name_H-M   'P 1'
_cell_length_a   3.01619100
_cell_length_b   4.45190773
_cell_length_c   5.84652125
_cell_angle_alpha   89.06339617
_cell_angle_beta   90.00000000
_cell_angle_gamma   90.00000000
_symmetry_Int_Tables_number   1
_chemical_formula_structural   LiTc2B4W
_chemical_formula_sum   'Li1 Tc2 B4 W1'
_cell_volume   78.49545259
_cell_formula_units_Z   1
loop_
 _symmetry_equiv_pos_site_id
 _symmetry_equiv_pos_as_xyz
  1  'x, y, z'
loop_
 _atom_site_type_symbol
 _atom_site_label
 _atom_site_symmetry_multiplicity
 _atom_site_fract_x
 _atom_site_fract_y
 _atom_site_fract_z
 _atom_site_occupancy
  Li  Li0  1  0.500000  0.365624  0.328328  1
  Tc  Tc1  1  0.000000  0.132367  0.672497  1
  Tc  Tc2  1  0.000000  0.879966  0.176715  1
  B  B3  1  0.000000  0.648167  0.525140  1
  B  B4  1  0.000000  0.348760  0.033255  1
  B  B5  1  0.500000  0.845012  0.464771  1
  B  B6  1  0.500000  0.151299  0.974702  1
  W  W7  1  0.500000  0.628806  0.824589  1
