# generated using pymatgen
data_Ba8Np3UN12
_symmetry_space_group_name_H-M   'P 1'
_cell_length_a   7.58315477
_cell_length_b   7.58314140
_cell_length_c   12.12961400
_cell_angle_alpha   89.99765380
_cell_angle_beta   90.00233061
_cell_angle_gamma   131.89261819
_symmetry_Int_Tables_number   1
_chemical_formula_structural   Ba8Np3UN12
_chemical_formula_sum   'Ba8 Np3 U1 N12'
_cell_volume   519.21951547
_cell_formula_units_Z   1
loop_
 _symmetry_equiv_pos_site_id
 _symmetry_equiv_pos_as_xyz
  1  'x, y, z'
loop_
 _atom_site_type_symbol
 _atom_site_label
 _atom_site_symmetry_multiplicity
 _atom_site_fract_x
 _atom_site_fract_y
 _atom_site_fract_z
 _atom_site_occupancy
  Ba  Ba0  1  0.901815  0.098186  0.369197  1
  Ba  Ba1  1  0.402041  0.597959  0.131497  1
  Ba  Ba2  1  0.597640  0.402360  0.870348  1
  Ba  Ba3  1  0.097232  0.902768  0.628873  1
  Ba  Ba4  1  0.401129  0.598871  0.629471  1
  Ba  Ba5  1  0.599866  0.400133  0.368602  1
  Ba  Ba6  1  0.099626  0.900374  0.132149  1
  Ba  Ba7  1  0.900666  0.099334  0.869775  1
  Np  Np8  1  0.748869  0.251132  0.625263  1
  Np  Np9  1  0.751108  0.248892  0.126495  1
  Np  Np10  1  0.251120  0.748880  0.374291  1
  U  U11  1  0.248898  0.751102  0.873228  1
  N  N12  1  0.997868  0.501199  0.749820  1
  N  N13  1  0.501611  0.998309  0.250862  1
  N  N14  1  0.001691  0.498389  0.250862  1
  N  N15  1  0.498801  0.002132  0.749820  1
  N  N16  1  0.392065  0.607936  0.883636  1
  N  N17  1  0.608584  0.391414  0.116189  1
  N  N18  1  0.108580  0.891418  0.383975  1
  N  N19  1  0.606455  0.393543  0.614904  1
  N  N20  1  0.105851  0.894149  0.884697  1
  N  N21  1  0.893530  0.106471  0.115228  1
  N  N22  1  0.393556  0.606445  0.384940  1
  N  N23  1  0.891398  0.108604  0.615878  1
