# generated using pymatgen
data_Li4Co15Ni5P12
_symmetry_space_group_name_H-M   'P 1'
_cell_length_a   3.53493300
_cell_length_b   10.04732238
_cell_length_c   11.70320599
_cell_angle_alpha   89.65816571
_cell_angle_beta   90.00000000
_cell_angle_gamma   90.00000000
_symmetry_Int_Tables_number   1
_chemical_formula_structural   Li4Co15Ni5P12
_chemical_formula_sum   'Li4 Co15 Ni5 P12'
_cell_volume   415.65082199
_cell_formula_units_Z   1
loop_
 _symmetry_equiv_pos_site_id
 _symmetry_equiv_pos_as_xyz
  1  'x, y, z'
loop_
 _atom_site_type_symbol
 _atom_site_label
 _atom_site_symmetry_multiplicity
 _atom_site_fract_x
 _atom_site_fract_y
 _atom_site_fract_z
 _atom_site_occupancy
  Li  Li0  1  0.250000  0.578723  0.707299  1
  Li  Li1  1  0.250000  0.921779  0.206552  1
  Li  Li2  1  0.750000  0.421617  0.293158  1
  Li  Li3  1  0.750000  0.077445  0.793000  1
  Co  Co4  1  0.250000  0.091102  0.982789  1
  Co  Co5  1  0.750000  0.592999  0.517766  1
  Co  Co6  1  0.750000  0.907493  0.016183  1
  Co  Co7  1  0.250000  0.218773  0.172084  1
  Co  Co8  1  0.250000  0.281152  0.674320  1
  Co  Co9  1  0.750000  0.779809  0.826741  1
  Co  Co10  1  0.750000  0.720723  0.325783  1
  Co  Co11  1  0.250000  0.877413  0.699797  1
  Co  Co12  1  0.250000  0.622121  0.199746  1
  Co  Co13  1  0.750000  0.121513  0.299741  1
  Co  Co14  1  0.750000  0.377500  0.801524  1
  Co  Co15  1  0.250000  0.462161  0.931759  1
  Co  Co16  1  0.250000  0.037804  0.431829  1
  Co  Co17  1  0.750000  0.536901  0.068904  1
  Co  Co18  1  0.750000  0.963173  0.568989  1
  Ni  Ni19  1  0.250000  0.715682  0.989658  1
  Ni  Ni20  1  0.250000  0.786029  0.489337  1
  Ni  Ni21  1  0.750000  0.283277  0.010313  1
  Ni  Ni22  1  0.750000  0.216516  0.511496  1
  Ni  Ni23  1  0.250000  0.407647  0.479901  1
  P  P24  1  0.250000  0.421960  0.117082  1
  P  P25  1  0.250000  0.078857  0.616643  1
  P  P26  1  0.750000  0.577500  0.883601  1
  P  P27  1  0.750000  0.921880  0.384202  1
  P  P28  1  0.250000  0.259441  0.863072  1
  P  P29  1  0.250000  0.238642  0.360019  1
  P  P30  1  0.750000  0.739745  0.136866  1
  P  P31  1  0.750000  0.759491  0.638112  1
  P  P32  1  0.250000  0.599927  0.388318  1
  P  P33  1  0.250000  0.903594  0.887873  1
  P  P34  1  0.750000  0.404724  0.614381  1
  P  P35  1  0.750000  0.094888  0.111160  1
