# generated using pymatgen
data_Cs3AlBi2
_symmetry_space_group_name_H-M   'P 1'
_cell_length_a   10.25321340
_cell_length_b   10.25321301
_cell_length_c   10.25321383
_cell_angle_alpha   125.70899458
_cell_angle_beta   72.68244565
_cell_angle_gamma   135.56119945
_symmetry_Int_Tables_number   1
_chemical_formula_structural   Cs3AlBi2
_chemical_formula_sum   'Cs6 Al2 Bi4'
_cell_volume   599.21160934
_cell_formula_units_Z   2
loop_
 _symmetry_equiv_pos_site_id
 _symmetry_equiv_pos_as_xyz
  1  'x, y, z'
loop_
 _atom_site_type_symbol
 _atom_site_label
 _atom_site_symmetry_multiplicity
 _atom_site_fract_x
 _atom_site_fract_y
 _atom_site_fract_z
 _atom_site_occupancy
  Cs  Cs0  1  0.326315  0.698250  0.024565  1
  Cs  Cs1  1  0.173685  0.198250  0.371936  1
  Cs  Cs2  1  0.750000  0.250000  0.500000  1
  Cs  Cs3  1  0.250000  0.749999  0.499999  1
  Cs  Cs4  1  0.826315  0.801751  0.628065  1
  Cs  Cs5  1  0.673685  0.301751  0.975436  1
  Al  Al6  1  0.250000  0.250000  0.000000  1
  Al  Al7  1  0.750000  0.750000  0.000000  1
  Bi  Bi8  1  0.912845  0.173005  0.085849  1
  Bi  Bi9  1  0.587156  0.673006  0.260160  1
  Bi  Bi10  1  0.412844  0.326994  0.739839  1
  Bi  Bi11  1  0.087156  0.826994  0.914150  1
