# generated using pymatgen
data_Ce4DyHo3(AlRu)8
_symmetry_space_group_name_H-M   'P 1'
_cell_length_a   4.06078500
_cell_length_b   7.08506462
_cell_length_c   16.00469310
_cell_angle_alpha   90.19898290
_cell_angle_beta   90.00000000
_cell_angle_gamma   90.00000000
_symmetry_Int_Tables_number   1
_chemical_formula_structural   Ce4DyHo3(AlRu)8
_chemical_formula_sum   'Ce4 Dy1 Ho3 Al8 Ru8'
_cell_volume   460.46703430
_cell_formula_units_Z   1
loop_
 _symmetry_equiv_pos_site_id
 _symmetry_equiv_pos_as_xyz
  1  'x, y, z'
loop_
 _atom_site_type_symbol
 _atom_site_label
 _atom_site_symmetry_multiplicity
 _atom_site_fract_x
 _atom_site_fract_y
 _atom_site_fract_z
 _atom_site_occupancy
  Ce  Ce0  1  0.750000  0.464599  0.282396  1
  Ce  Ce1  1  0.750000  0.332425  0.062466  1
  Ce  Ce2  1  0.250000  0.041801  0.780418  1
  Ce  Ce3  1  0.250000  0.539440  0.717867  1
  Dy  Dy4  1  0.250000  0.667263  0.938071  1
  Ho  Ho5  1  0.750000  0.959764  0.218698  1
  Ho  Ho6  1  0.250000  0.160922  0.559032  1
  Ho  Ho7  1  0.750000  0.836059  0.439325  1
  Al  Al8  1  0.750000  0.492447  0.562220  1
  Al  Al9  1  0.750000  0.373074  0.852567  1
  Al  Al10  1  0.750000  0.998191  0.937206  1
  Al  Al11  1  0.750000  0.871040  0.646756  1
  Al  Al12  1  0.250000  0.496198  0.437609  1
  Al  Al13  1  0.250000  0.995025  0.065884  1
  Al  Al14  1  0.250000  0.639249  0.150233  1
  Al  Al15  1  0.250000  0.122334  0.347394  1
  Ru  Ru16  1  0.750000  0.760547  0.808393  1
  Ru  Ru17  1  0.250000  0.236768  0.937173  1
  Ru  Ru18  1  0.750000  0.261039  0.429024  1
  Ru  Ru19  1  0.250000  0.742864  0.315826  1
  Ru  Ru20  1  0.750000  0.763941  0.065811  1
  Ru  Ru21  1  0.750000  0.250357  0.691607  1
  Ru  Ru22  1  0.250000  0.267633  0.185379  1
  Ru  Ru23  1  0.250000  0.727017  0.568646  1
