# generated using pymatgen
data_Ho6TmCoI12
_symmetry_space_group_name_H-M   'P 1'
_cell_length_a   9.72664917
_cell_length_b   9.72829968
_cell_length_c   9.72313135
_cell_angle_alpha   106.81741396
_cell_angle_beta   106.80779660
_cell_angle_gamma   106.81201921
_symmetry_Int_Tables_number   1
_chemical_formula_structural   Ho6TmCoI12
_chemical_formula_sum   'Ho6 Tm1 Co1 I12'
_cell_volume   770.10475262
_cell_formula_units_Z   1
loop_
 _symmetry_equiv_pos_site_id
 _symmetry_equiv_pos_as_xyz
  1  'x, y, z'
loop_
 _atom_site_type_symbol
 _atom_site_label
 _atom_site_symmetry_multiplicity
 _atom_site_fract_x
 _atom_site_fract_y
 _atom_site_fract_z
 _atom_site_occupancy
  Ho  Ho0  1  0.500148  0.499939  0.500082  1
  Ho  Ho1  1  0.020309  0.091325  0.285669  1
  Ho  Ho2  1  0.090674  0.285631  0.020691  1
  Ho  Ho3  1  0.285832  0.020886  0.091333  1
  Ho  Ho4  1  0.978010  0.908627  0.713834  1
  Ho  Ho5  1  0.908158  0.714238  0.978910  1
  Tm  Tm6  1  0.716421  0.979506  0.909827  1
  Co  Co7  1  0.999580  0.999997  0.999900  1
  I  I8  1  0.161158  0.462637  0.385699  1
  I  I9  1  0.462784  0.385352  0.160913  1
  I  I10  1  0.385853  0.161037  0.462803  1
  I  I11  1  0.839347  0.537439  0.614325  1
  I  I12  1  0.537273  0.614487  0.838909  1
  I  I13  1  0.613792  0.838675  0.537371  1
  I  I14  1  0.676299  0.070410  0.223064  1
  I  I15  1  0.070559  0.223642  0.676340  1
  I  I16  1  0.223964  0.676825  0.070497  1
  I  I17  1  0.323825  0.929430  0.776474  1
  I  I18  1  0.929727  0.776417  0.323663  1
  I  I19  1  0.776284  0.323498  0.929698  1
