# generated using pymatgen
data_Th2V3Ni9As7
_symmetry_space_group_name_H-M   'P 1'
_cell_length_a   9.52411300
_cell_length_b   9.52411292
_cell_length_c   3.91591700
_cell_angle_alpha   90.00000000
_cell_angle_beta   90.00000000
_cell_angle_gamma   119.99999681
_symmetry_Int_Tables_number   1
_chemical_formula_structural   Th2V3Ni9As7
_chemical_formula_sum   'Th2 V3 Ni9 As7'
_cell_volume   307.61903044
_cell_formula_units_Z   1
loop_
 _symmetry_equiv_pos_site_id
 _symmetry_equiv_pos_as_xyz
  1  'x, y, z'
loop_
 _atom_site_type_symbol
 _atom_site_label
 _atom_site_symmetry_multiplicity
 _atom_site_fract_x
 _atom_site_fract_y
 _atom_site_fract_z
 _atom_site_occupancy
  Th  Th0  1  0.333333  0.666667  0.000000  1
  Th  Th1  1  0.000000  0.000000  0.500000  1
  V  V2  1  0.771084  0.226846  0.500000  1
  V  V3  1  0.773154  0.544238  0.500000  1
  V  V4  1  0.455762  0.228916  0.500000  1
  Ni  Ni5  1  0.033846  0.267416  0.000000  1
  Ni  Ni6  1  0.732584  0.766429  0.000000  1
  Ni  Ni7  1  0.233571  0.966154  0.000000  1
  Ni  Ni8  1  0.533582  0.052897  0.000000  1
  Ni  Ni9  1  0.947103  0.480685  0.000000  1
  Ni  Ni10  1  0.519315  0.466418  0.000000  1
  Ni  Ni11  1  0.607427  0.897842  0.500000  1
  Ni  Ni12  1  0.102158  0.709583  0.500000  1
  Ni  Ni13  1  0.290417  0.392573  0.500000  1
  As  As14  1  0.771284  0.035347  0.000000  1
  As  As15  1  0.964653  0.735938  0.000000  1
  As  As16  1  0.264062  0.228716  0.000000  1
  As  As17  1  0.371742  0.935362  0.500000  1
  As  As18  1  0.064638  0.436381  0.500000  1
  As  As19  1  0.563619  0.628258  0.500000  1
  As  As20  1  0.666667  0.333333  0.000000  1
