# generated using pymatgen
data_TbEr7In3Ru
_symmetry_space_group_name_H-M   'P 1'
_cell_length_a   10.32908644
_cell_length_b   10.32908561
_cell_length_c   7.03413066
_cell_angle_alpha   89.94427710
_cell_angle_beta   90.05572024
_cell_angle_gamma   120.02882105
_symmetry_Int_Tables_number   1
_chemical_formula_structural   TbEr7In3Ru
_chemical_formula_sum   'Tb2 Er14 In6 Ru2'
_cell_volume   649.73816343
_cell_formula_units_Z   2
loop_
 _symmetry_equiv_pos_site_id
 _symmetry_equiv_pos_as_xyz
  1  'x, y, z'
loop_
 _atom_site_type_symbol
 _atom_site_label
 _atom_site_symmetry_multiplicity
 _atom_site_fract_x
 _atom_site_fract_y
 _atom_site_fract_z
 _atom_site_occupancy
  Tb  Tb0  1  0.532370  0.065162  0.793687  1
  Tb  Tb1  1  0.934838  0.467630  0.793687  1
  Er  Er2  1  0.532993  0.467007  0.794579  1
  Er  Er3  1  0.466198  0.932394  0.294267  1
  Er  Er4  1  0.067606  0.533802  0.294267  1
  Er  Er5  1  0.466468  0.533532  0.294867  1
  Er  Er6  1  0.822485  0.645782  0.497405  1
  Er  Er7  1  0.354218  0.177515  0.497405  1
  Er  Er8  1  0.823174  0.176826  0.496975  1
  Er  Er9  1  0.177795  0.354575  0.998681  1
  Er  Er10  1  0.645425  0.822205  0.998681  1
  Er  Er11  1  0.176897  0.823103  0.999144  1
  Er  Er12  1  0.666255  0.333745  0.173999  1
  Er  Er13  1  0.333793  0.666207  0.672947  1
  Er  Er14  1  0.000039  0.999961  0.778160  1
  Er  Er15  1  0.000066  0.999934  0.278345  1
  In  In16  1  0.836815  0.674475  0.040257  1
  In  In17  1  0.325525  0.163185  0.040257  1
  In  In18  1  0.837520  0.162480  0.040418  1
  In  In19  1  0.163036  0.325969  0.539956  1
  In  In20  1  0.674031  0.836964  0.539956  1
  In  In21  1  0.162940  0.837060  0.540080  1
  Ru  Ru22  1  0.666264  0.333736  0.568533  1
  Ru  Ru23  1  0.333251  0.666749  0.069350  1
