# generated using pymatgen
data_Co6Ni2MoW15C4
_symmetry_space_group_name_H-M   'P 1'
_cell_length_a   8.00711058
_cell_length_b   8.00467586
_cell_length_c   8.01049756
_cell_angle_alpha   59.93340548
_cell_angle_beta   59.96698099
_cell_angle_gamma   59.93600021
_symmetry_Int_Tables_number   1
_chemical_formula_structural   Co6Ni2MoW15C4
_chemical_formula_sum   'Co6 Ni2 Mo1 W15 C4'
_cell_volume   362.59887618
_cell_formula_units_Z   1
loop_
 _symmetry_equiv_pos_site_id
 _symmetry_equiv_pos_as_xyz
  1  'x, y, z'
loop_
 _atom_site_type_symbol
 _atom_site_label
 _atom_site_symmetry_multiplicity
 _atom_site_fract_x
 _atom_site_fract_y
 _atom_site_fract_z
 _atom_site_occupancy
  Co  Co0  1  0.830663  0.830144  0.831830  1
  Co  Co1  1  0.830304  0.830495  0.507231  1
  Co  Co2  1  0.509157  0.829272  0.830614  1
  Co  Co3  1  0.829337  0.509050  0.830920  1
  Co  Co4  1  0.418571  0.418348  0.417335  1
  Co  Co5  1  0.418369  0.418600  0.745750  1
  Ni  Ni6  1  0.416760  0.751558  0.415968  1
  Ni  Ni7  1  0.751667  0.416733  0.415743  1
  Mo  Mo8  1  0.438705  0.063785  0.059400  1
  W  W9  1  0.063709  0.438680  0.438135  1
  W  W10  1  0.063727  0.438480  0.059230  1
  W  W11  1  0.059369  0.059350  0.440335  1
  W  W12  1  0.439192  0.063610  0.437981  1
  W  W13  1  0.436878  0.436213  0.063430  1
  W  W14  1  0.187408  0.813297  0.187215  1
  W  W15  1  0.812514  0.187381  0.812756  1
  W  W16  1  0.812738  0.187601  0.187428  1
  W  W17  1  0.186448  0.186292  0.814009  1
  W  W18  1  0.187478  0.812875  0.812302  1
  W  W19  1  0.811178  0.811871  0.188467  1
  W  W20  1  0.623903  0.624007  0.627513  1
  W  W21  1  0.623986  0.624077  0.124293  1
  W  W22  1  0.124917  0.623081  0.626002  1
  W  W23  1  0.623028  0.124692  0.626213  1
  C  C24  1  0.125349  0.125506  0.126088  1
  C  C25  1  0.125394  0.125444  0.623150  1
  C  C26  1  0.624766  0.124604  0.125350  1
  C  C27  1  0.124482  0.624951  0.125313  1
