# generated using pymatgen
data_Ca20P13Au3
_symmetry_space_group_name_H-M   'P 1'
_cell_length_a   7.47458400
_cell_length_b   7.69316120
_cell_length_c   14.50543200
_cell_angle_alpha   90.00000000
_cell_angle_beta   90.00000000
_cell_angle_gamma   88.15085824
_symmetry_Int_Tables_number   1
_chemical_formula_structural   Ca20P13Au3
_chemical_formula_sum   'Ca20 P13 Au3'
_cell_volume   833.67410119
_cell_formula_units_Z   1
loop_
 _symmetry_equiv_pos_site_id
 _symmetry_equiv_pos_as_xyz
  1  'x, y, z'
loop_
 _atom_site_type_symbol
 _atom_site_label
 _atom_site_symmetry_multiplicity
 _atom_site_fract_x
 _atom_site_fract_y
 _atom_site_fract_z
 _atom_site_occupancy
  Ca  Ca0  1  0.026577  0.193676  0.407455  1
  Ca  Ca1  1  0.872318  0.639770  0.387257  1
  Ca  Ca2  1  0.532758  0.311882  0.097870  1
  Ca  Ca3  1  0.131048  0.354564  0.612394  1
  Ca  Ca4  1  0.375840  0.859942  0.389796  1
  Ca  Ca5  1  0.131048  0.354564  0.887606  1
  Ca  Ca6  1  0.375840  0.859942  0.110204  1
  Ca  Ca7  1  0.204113  0.494101  0.250000  1
  Ca  Ca8  1  0.532758  0.311882  0.402130  1
  Ca  Ca9  1  0.785856  0.506406  0.750000  1
  Ca  Ca10  1  0.973256  0.805248  0.911830  1
  Ca  Ca11  1  0.973256  0.805248  0.588170  1
  Ca  Ca12  1  0.471537  0.676888  0.597969  1
  Ca  Ca13  1  0.617319  0.148132  0.609008  1
  Ca  Ca14  1  0.293727  0.000378  0.750000  1
  Ca  Ca15  1  0.617319  0.148132  0.890992  1
  Ca  Ca16  1  0.704057  0.006588  0.250000  1
  Ca  Ca17  1  0.872318  0.639770  0.112743  1
  Ca  Ca18  1  0.471537  0.676888  0.902031  1
  Ca  Ca19  1  0.026577  0.193676  0.092545  1
  P  P20  1  0.830962  0.358718  0.250000  1
  P  P21  1  0.405754  0.410122  0.750000  1
  P  P22  1  0.675744  0.868604  0.750000  1
  P  P23  1  0.777938  0.457606  0.548355  1
  P  P24  1  0.731307  0.965422  0.052421  1
  P  P25  1  0.777938  0.457606  0.951645  1
  P  P26  1  0.232418  0.540462  0.449023  1
  P  P27  1  0.232418  0.540462  0.050977  1
  P  P28  1  0.184543  0.624599  0.750000  1
  P  P29  1  0.329988  0.140073  0.250000  1
  P  P30  1  0.266500  0.029929  0.946011  1
  P  P31  1  0.731307  0.965422  0.447579  1
  P  P32  1  0.266500  0.029929  0.553989  1
  Au  Au33  1  0.573470  0.619033  0.250000  1
  Au  Au34  1  0.077152  0.881893  0.250000  1
  Au  Au35  1  0.917004  0.122444  0.750000  1
