# generated using pymatgen
data_Li4Ca2YbTmSi8
_symmetry_space_group_name_H-M   'P 1'
_cell_length_a   3.78886600
_cell_length_b   7.83740558
_cell_length_c   10.46117046
_cell_angle_alpha   89.74110339
_cell_angle_beta   90.00000000
_cell_angle_gamma   90.00000000
_symmetry_Int_Tables_number   1
_chemical_formula_structural   Li4Ca2YbTmSi8
_chemical_formula_sum   'Li4 Ca2 Yb1 Tm1 Si8'
_cell_volume   310.64002549
_cell_formula_units_Z   1
loop_
 _symmetry_equiv_pos_site_id
 _symmetry_equiv_pos_as_xyz
  1  'x, y, z'
loop_
 _atom_site_type_symbol
 _atom_site_label
 _atom_site_symmetry_multiplicity
 _atom_site_fract_x
 _atom_site_fract_y
 _atom_site_fract_z
 _atom_site_occupancy
  Li  Li0  1  0.250000  0.997556  0.388219  1
  Li  Li1  1  0.750000  0.000689  0.610580  1
  Li  Li2  1  0.250000  0.496681  0.108612  1
  Li  Li3  1  0.750000  0.509903  0.889055  1
  Ca  Ca4  1  0.250000  0.635571  0.637702  1
  Ca  Ca5  1  0.750000  0.363034  0.364580  1
  Yb  Yb6  1  0.750000  0.866475  0.134770  1
  Tm  Tm7  1  0.250000  0.127343  0.866067  1
  Si  Si8  1  0.750000  0.265781  0.058716  1
  Si  Si9  1  0.250000  0.741978  0.934321  1
  Si  Si10  1  0.750000  0.767312  0.431537  1
  Si  Si11  1  0.250000  0.225670  0.575206  1
  Si  Si12  1  0.750000  0.846257  0.824768  1
  Si  Si13  1  0.250000  0.160897  0.168092  1
  Si  Si14  1  0.750000  0.329932  0.684799  1
  Si  Si15  1  0.250000  0.664922  0.322978  1
