# generated using pymatgen
data_Er6ScCo17P12
_symmetry_space_group_name_H-M   'P 1'
_cell_length_a   3.68387000
_cell_length_b   10.52369100
_cell_length_c   12.19050800
_cell_angle_alpha   90.00000000
_cell_angle_beta   90.00000000
_cell_angle_gamma   90.00000000
_symmetry_Int_Tables_number   1
_chemical_formula_structural   Er6ScCo17P12
_chemical_formula_sum   'Er6 Sc1 Co17 P12'
_cell_volume   472.60051169
_cell_formula_units_Z   1
loop_
 _symmetry_equiv_pos_site_id
 _symmetry_equiv_pos_as_xyz
  1  'x, y, z'
loop_
 _atom_site_type_symbol
 _atom_site_label
 _atom_site_symmetry_multiplicity
 _atom_site_fract_x
 _atom_site_fract_y
 _atom_site_fract_z
 _atom_site_occupancy
  Er  Er0  1  0.750000  0.250000  0.472083  1
  Er  Er1  1  0.250000  0.750000  0.522846  1
  Er  Er2  1  0.250000  0.928345  0.792399  1
  Er  Er3  1  0.250000  0.571655  0.792399  1
  Er  Er4  1  0.750000  0.067780  0.204255  1
  Er  Er5  1  0.750000  0.432220  0.204255  1
  Sc  Sc6  1  0.250000  0.250000  0.846791  1
  Co  Co7  1  0.750000  0.750000  0.163677  1
  Co  Co8  1  0.250000  0.250000  0.297026  1
  Co  Co9  1  0.750000  0.750000  0.703686  1
  Co  Co10  1  0.750000  0.250000  0.015777  1
  Co  Co11  1  0.250000  0.750000  0.986495  1
  Co  Co12  1  0.250000  0.423461  0.010408  1
  Co  Co13  1  0.250000  0.076539  0.010408  1
  Co  Co14  1  0.750000  0.587928  0.998607  1
  Co  Co15  1  0.750000  0.912072  0.998607  1
  Co  Co16  1  0.250000  0.455596  0.565548  1
  Co  Co17  1  0.250000  0.044404  0.565548  1
  Co  Co18  1  0.750000  0.548144  0.429383  1
  Co  Co19  1  0.750000  0.951856  0.429383  1
  Co  Co20  1  0.250000  0.869959  0.292803  1
  Co  Co21  1  0.250000  0.630041  0.292803  1
  Co  Co22  1  0.750000  0.127016  0.703162  1
  Co  Co23  1  0.750000  0.372984  0.703162  1
  P  P24  1  0.250000  0.250000  0.117484  1
  P  P25  1  0.750000  0.750000  0.883321  1
  P  P26  1  0.250000  0.250000  0.641032  1
  P  P27  1  0.750000  0.750000  0.346526  1
  P  P28  1  0.250000  0.440149  0.381741  1
  P  P29  1  0.250000  0.059851  0.381741  1
  P  P30  1  0.750000  0.562008  0.613932  1
  P  P31  1  0.750000  0.937992  0.613932  1
  P  P32  1  0.250000  0.898420  0.111799  1
  P  P33  1  0.250000  0.601580  0.111799  1
  P  P34  1  0.750000  0.086225  0.897592  1
  P  P35  1  0.750000  0.413775  0.897592  1
