# generated using pymatgen
data_Sc4Nb2Sn5
_symmetry_space_group_name_H-M   'P 1'
_cell_length_a   10.84694839
_cell_length_b   10.84694828
_cell_length_c   10.84694858
_cell_angle_alpha   148.91873946
_cell_angle_beta   131.66742248
_cell_angle_gamma   58.58442248
_symmetry_Int_Tables_number   1
_chemical_formula_structural   Sc4Nb2Sn5
_chemical_formula_sum   'Sc8 Nb4 Sn10'
_cell_volume   488.32385039
_cell_formula_units_Z   2
loop_
 _symmetry_equiv_pos_site_id
 _symmetry_equiv_pos_as_xyz
  1  'x, y, z'
loop_
 _atom_site_type_symbol
 _atom_site_label
 _atom_site_symmetry_multiplicity
 _atom_site_fract_x
 _atom_site_fract_y
 _atom_site_fract_z
 _atom_site_occupancy
  Sc  Sc0  1  0.674842  0.435825  0.239017  1
  Sc  Sc1  1  0.325158  0.564175  0.760983  1
  Sc  Sc2  1  0.196807  0.935825  0.260983  1
  Sc  Sc3  1  0.803193  0.064175  0.739017  1
  Sc  Sc4  1  0.259267  0.146021  0.113247  1
  Sc  Sc5  1  0.740733  0.853979  0.886753  1
  Sc  Sc6  1  0.032774  0.646021  0.386753  1
  Sc  Sc7  1  0.967226  0.353979  0.613247  1
  Nb  Nb8  1  0.308109  0.558109  0.250000  1
  Nb  Nb9  1  0.691891  0.441891  0.750000  1
  Nb  Nb10  1  0.691891  0.941891  0.250000  1
  Nb  Nb11  1  0.308109  0.058109  0.750000  1
  Sn  Sn12  1  0.587323  0.288052  0.299271  1
  Sn  Sn13  1  0.412677  0.711948  0.700729  1
  Sn  Sn14  1  0.988781  0.788052  0.200729  1
  Sn  Sn15  1  0.011219  0.211948  0.799271  1
  Sn  Sn16  1  0.000000  0.250000  0.250000  1
  Sn  Sn17  1  0.000000  0.750000  0.750000  1
  Sn  Sn18  1  0.470166  0.070762  0.399402  1
  Sn  Sn19  1  0.529834  0.929238  0.600598  1
  Sn  Sn20  1  0.671360  0.570762  0.100598  1
  Sn  Sn21  1  0.328640  0.429238  0.899402  1
