# generated using pymatgen
data_DyFeH5
_symmetry_space_group_name_H-M   'P 1'
_cell_length_a   4.22932700
_cell_length_b   4.56547600
_cell_length_c   11.19839400
_cell_angle_alpha   90.00000000
_cell_angle_beta   90.00000000
_cell_angle_gamma   90.00000000
_symmetry_Int_Tables_number   1
_chemical_formula_structural   DyFeH5
_chemical_formula_sum   'Dy4 Fe4 H20'
_cell_volume   216.22856817
_cell_formula_units_Z   4
loop_
 _symmetry_equiv_pos_site_id
 _symmetry_equiv_pos_as_xyz
  1  'x, y, z'
loop_
 _atom_site_type_symbol
 _atom_site_label
 _atom_site_symmetry_multiplicity
 _atom_site_fract_x
 _atom_site_fract_y
 _atom_site_fract_z
 _atom_site_occupancy
  Dy  Dy0  1  0.276528  0.162765  0.649141  1
  Dy  Dy1  1  0.776528  0.337235  0.350859  1
  Dy  Dy2  1  0.223472  0.837235  0.149141  1
  Dy  Dy3  1  0.723472  0.662765  0.850859  1
  Fe  Fe4  1  0.317419  0.162497  0.912171  1
  Fe  Fe5  1  0.817419  0.337503  0.087829  1
  Fe  Fe6  1  0.182581  0.837503  0.412171  1
  Fe  Fe7  1  0.682581  0.662497  0.587829  1
  H  H8  1  0.536227  0.403979  0.516892  1
  H  H9  1  0.036227  0.096021  0.483108  1
  H  H10  1  0.963773  0.596021  0.016892  1
  H  H11  1  0.463773  0.903979  0.983108  1
  H  H12  1  0.166303  0.934005  0.824026  1
  H  H13  1  0.666303  0.565995  0.175974  1
  H  H14  1  0.333697  0.065995  0.324026  1
  H  H15  1  0.833697  0.434005  0.675974  1
  H  H16  1  0.206851  0.434559  0.831435  1
  H  H17  1  0.706851  0.065441  0.168565  1
  H  H18  1  0.293149  0.565441  0.331435  1
  H  H19  1  0.793149  0.934559  0.668565  1
  H  H20  1  0.611669  0.156651  0.828030  1
  H  H21  1  0.111669  0.343349  0.171970  1
  H  H22  1  0.888331  0.843349  0.328030  1
  H  H23  1  0.388331  0.656651  0.671970  1
  H  H24  1  0.992601  0.096974  0.996556  1
  H  H25  1  0.492601  0.403026  0.003444  1
  H  H26  1  0.507399  0.903026  0.496556  1
  H  H27  1  0.007399  0.596974  0.503444  1
