# generated using pymatgen
data_La2Y4RuI10
_symmetry_space_group_name_H-M   'P 1'
_cell_length_a   7.88639126
_cell_length_b   9.95391236
_cell_length_c   9.82399636
_cell_angle_alpha   106.57764130
_cell_angle_beta   95.58611186
_cell_angle_gamma   105.56355042
_symmetry_Int_Tables_number   1
_chemical_formula_structural   La2Y4RuI10
_chemical_formula_sum   'La2 Y4 Ru1 I10'
_cell_volume   699.28872893
_cell_formula_units_Z   1
loop_
 _symmetry_equiv_pos_site_id
 _symmetry_equiv_pos_as_xyz
  1  'x, y, z'
loop_
 _atom_site_type_symbol
 _atom_site_label
 _atom_site_symmetry_multiplicity
 _atom_site_fract_x
 _atom_site_fract_y
 _atom_site_fract_z
 _atom_site_occupancy
  La  La0  1  0.886333  0.957685  0.229658  1
  La  La1  1  0.113667  0.042315  0.770342  1
  Y  Y2  1  0.028310  0.709823  0.911950  1
  Y  Y3  1  0.971690  0.290177  0.088050  1
  Y  Y4  1  0.646778  0.872001  0.832951  1
  Y  Y5  1  0.353222  0.127999  0.167049  1
  Ru  Ru6  1  0.000000  0.000000  0.000000  1
  I  I7  1  0.651679  0.553268  0.730895  1
  I  I8  1  0.348321  0.446732  0.269105  1
  I  I9  1  0.730337  0.909553  0.543173  1
  I  I10  1  0.269663  0.090447  0.456827  1
  I  I11  1  0.082735  0.378402  0.823924  1
  I  I12  1  0.917265  0.621598  0.176076  1
  I  I13  1  0.447490  0.817984  0.089159  1
  I  I14  1  0.552510  0.182016  0.910841  1
  I  I15  1  0.225186  0.737149  0.657490  1
  I  I16  1  0.774814  0.262851  0.342510  1
