# generated using pymatgen
data_La8Al8Rh7Au
_symmetry_space_group_name_H-M   'P 1'
_cell_length_a   4.30997700
_cell_length_b   7.32754633
_cell_length_c   16.32957788
_cell_angle_alpha   90.23239844
_cell_angle_beta   90.00000000
_cell_angle_gamma   90.00000000
_symmetry_Int_Tables_number   1
_chemical_formula_structural   La8Al8Rh7Au
_chemical_formula_sum   'La8 Al8 Rh7 Au1'
_cell_volume   515.70923861
_cell_formula_units_Z   1
loop_
 _symmetry_equiv_pos_site_id
 _symmetry_equiv_pos_as_xyz
  1  'x, y, z'
loop_
 _atom_site_type_symbol
 _atom_site_label
 _atom_site_symmetry_multiplicity
 _atom_site_fract_x
 _atom_site_fract_y
 _atom_site_fract_z
 _atom_site_occupancy
  La  La0  1  0.250000  0.520197  0.779813  1
  La  La1  1  0.750000  0.467910  0.223021  1
  La  La2  1  0.750000  0.986890  0.284541  1
  La  La3  1  0.250000  0.021551  0.719214  1
  La  La4  1  0.250000  0.658599  0.561226  1
  La  La5  1  0.750000  0.344556  0.442720  1
  La  La6  1  0.750000  0.848894  0.050914  1
  La  La7  1  0.250000  0.158178  0.937350  1
  Al  Al8  1  0.250000  0.652031  0.356204  1
  Al  Al9  1  0.750000  0.346191  0.648555  1
  Al  Al10  1  0.750000  0.844762  0.849997  1
  Al  Al11  1  0.250000  0.160536  0.145972  1
  Al  Al12  1  0.250000  0.500918  0.057502  1
  Al  Al13  1  0.750000  0.492565  0.938452  1
  Al  Al14  1  0.750000  0.994768  0.560865  1
  Al  Al15  1  0.250000  0.005618  0.441535  1
  Rh  Rh16  1  0.750000  0.225123  0.819802  1
  Rh  Rh17  1  0.750000  0.727198  0.679154  1
  Rh  Rh18  1  0.250000  0.274453  0.321640  1
  Rh  Rh19  1  0.250000  0.711283  0.925764  1
  Rh  Rh20  1  0.750000  0.287480  0.072177  1
  Rh  Rh21  1  0.750000  0.787351  0.427665  1
  Rh  Rh22  1  0.250000  0.214633  0.573674  1
  Au  Au23  1  0.250000  0.768316  0.182242  1
