# generated using pymatgen
data_Tb15Ho5Sn9Pb7
_symmetry_space_group_name_H-M   'P 1'
_cell_length_a   8.09638471
_cell_length_b   8.24316457
_cell_length_c   15.59381852
_cell_angle_alpha   90.01341821
_cell_angle_beta   89.88533896
_cell_angle_gamma   90.01973085
_symmetry_Int_Tables_number   1
_chemical_formula_structural   Tb15Ho5Sn9Pb7
_chemical_formula_sum   'Tb15 Ho5 Sn9 Pb7'
_cell_volume   1040.72664795
_cell_formula_units_Z   1
loop_
 _symmetry_equiv_pos_site_id
 _symmetry_equiv_pos_as_xyz
  1  'x, y, z'
loop_
 _atom_site_type_symbol
 _atom_site_label
 _atom_site_symmetry_multiplicity
 _atom_site_fract_x
 _atom_site_fract_y
 _atom_site_fract_z
 _atom_site_occupancy
  Tb  Tb0  1  0.867760  0.661601  0.624007  1
  Tb  Tb1  1  0.631484  0.161698  0.376069  1
  Tb  Tb2  1  0.130619  0.337965  0.122761  1
  Tb  Tb3  1  0.633198  0.164567  0.123093  1
  Tb  Tb4  1  0.131296  0.338286  0.376245  1
  Tb  Tb5  1  0.368204  0.838678  0.624363  1
  Tb  Tb6  1  0.867435  0.660306  0.877547  1
  Tb  Tb7  1  0.525039  0.323438  0.900480  1
  Tb  Tb8  1  0.024098  0.177795  0.601568  1
  Tb  Tb9  1  0.476775  0.678529  0.398895  1
  Tb  Tb10  1  0.976151  0.818684  0.100146  1
  Tb  Tb11  1  0.480205  0.676227  0.099553  1
  Tb  Tb12  1  0.976420  0.821478  0.398718  1
  Tb  Tb13  1  0.523446  0.321673  0.601440  1
  Tb  Tb14  1  0.021526  0.179665  0.899876  1
  Ho  Ho15  1  0.366847  0.838933  0.875416  1
  Ho  Ho16  1  0.198829  0.502775  0.750497  1
  Ho  Ho17  1  0.698560  0.997431  0.750124  1
  Ho  Ho18  1  0.800908  0.497296  0.248400  1
  Ho  Ho19  1  0.301382  0.002576  0.249618  1
  Sn  Sn20  1  0.792195  0.463792  0.042068  1
  Sn  Sn21  1  0.563851  0.619926  0.750677  1
  Sn  Sn22  1  0.063846  0.879908  0.750678  1
  Sn  Sn23  1  0.435524  0.380736  0.249989  1
  Sn  Sn24  1  0.936384  0.118666  0.249583  1
  Sn  Sn25  1  0.330338  0.148961  0.751103  1
  Sn  Sn26  1  0.830198  0.351115  0.750378  1
  Sn  Sn27  1  0.669210  0.851421  0.249374  1
  Sn  Sn28  1  0.169982  0.648779  0.249418  1
  Pb  Pb29  1  0.291247  0.035662  0.040943  1
  Pb  Pb30  1  0.790397  0.463753  0.458166  1
  Pb  Pb31  1  0.709784  0.963220  0.541706  1
  Pb  Pb32  1  0.210551  0.538466  0.958549  1
  Pb  Pb33  1  0.706675  0.962819  0.958325  1
  Pb  Pb34  1  0.209480  0.536729  0.541837  1
  Pb  Pb35  1  0.290155  0.036447  0.458388  1
