# generated using pymatgen
data_YTmFe4(CoB2)4
_symmetry_space_group_name_H-M   'P 1'
_cell_length_a   6.93563306
_cell_length_b   6.91893131
_cell_length_c   3.82032700
_cell_angle_alpha   90.00000000
_cell_angle_beta   90.00000000
_cell_angle_gamma   90.03950150
_symmetry_Int_Tables_number   1
_chemical_formula_structural   YTmFe4(CoB2)4
_chemical_formula_sum   'Y1 Tm1 Fe4 Co4 B8'
_cell_volume   183.32663264
_cell_formula_units_Z   1
loop_
 _symmetry_equiv_pos_site_id
 _symmetry_equiv_pos_as_xyz
  1  'x, y, z'
loop_
 _atom_site_type_symbol
 _atom_site_label
 _atom_site_symmetry_multiplicity
 _atom_site_fract_x
 _atom_site_fract_y
 _atom_site_fract_z
 _atom_site_occupancy
  Y  Y0  1  0.500000  0.500000  0.495779  1
  Tm  Tm1  1  0.000000  0.000000  0.996651  1
  Fe  Fe2  1  0.867999  0.383145  0.108405  1
  Fe  Fe3  1  0.132001  0.616855  0.108405  1
  Fe  Fe4  1  0.884653  0.633190  0.608805  1
  Fe  Fe5  1  0.115347  0.366810  0.608805  1
  Co  Co6  1  0.639194  0.116713  0.389749  1
  Co  Co7  1  0.360806  0.883287  0.389749  1
  Co  Co8  1  0.618203  0.862818  0.890260  1
  Co  Co9  1  0.381797  0.137182  0.890260  1
  B  B10  1  0.335022  0.800773  0.895571  1
  B  B11  1  0.664978  0.199227  0.895571  1
  B  B12  1  0.296186  0.163439  0.395295  1
  B  B13  1  0.703814  0.836561  0.395295  1
  B  B14  1  0.165629  0.698661  0.608344  1
  B  B15  1  0.834371  0.301339  0.608344  1
  B  B16  1  0.195089  0.332923  0.107357  1
  B  B17  1  0.804911  0.667077  0.107357  1
