# generated using pymatgen
data_La6TcI10
_symmetry_space_group_name_H-M   'P 1'
_cell_length_a   8.15262170
_cell_length_b   10.17748195
_cell_length_c   10.20420862
_cell_angle_alpha   107.73929155
_cell_angle_beta   97.49134699
_cell_angle_gamma   105.49199515
_symmetry_Int_Tables_number   1
_chemical_formula_structural   La6TcI10
_chemical_formula_sum   'La6 Tc1 I10'
_cell_volume   756.15417448
_cell_formula_units_Z   1
loop_
 _symmetry_equiv_pos_site_id
 _symmetry_equiv_pos_as_xyz
  1  'x, y, z'
loop_
 _atom_site_type_symbol
 _atom_site_label
 _atom_site_symmetry_multiplicity
 _atom_site_fract_x
 _atom_site_fract_y
 _atom_site_fract_z
 _atom_site_occupancy
  La  La0  1  0.469240  0.286628  0.586185  1
  La  La1  1  0.530760  0.713372  0.413815  1
  La  La2  1  0.854257  0.132025  0.674653  1
  La  La3  1  0.145743  0.867975  0.325347  1
  La  La4  1  0.382976  0.957246  0.738913  1
  La  La5  1  0.617024  0.042754  0.261087  1
  Tc  Tc6  1  0.500000  0.000000  0.500000  1
  I  I7  1  0.414328  0.631079  0.679999  1
  I  I8  1  0.585672  0.368921  0.320001  1
  I  I9  1  0.293283  0.261422  0.851169  1
  I  I10  1  0.706717  0.738578  0.148831  1
  I  I11  1  0.856496  0.458721  0.772442  1
  I  I12  1  0.143504  0.541279  0.227558  1
  I  I13  1  0.045849  0.181334  0.412231  1
  I  I14  1  0.239649  0.913829  0.039322  1
  I  I15  1  0.760351  0.086171  0.960678  1
  I  I16  1  0.954151  0.818666  0.587769  1
