# generated using pymatgen
data_Tm20NiRhAu6
_symmetry_space_group_name_H-M   'P 1'
_cell_length_a   9.27019600
_cell_length_b   9.27019666
_cell_length_c   9.43005900
_cell_angle_alpha   90.00000000
_cell_angle_beta   90.00000000
_cell_angle_gamma   119.99999763
_symmetry_Int_Tables_number   1
_chemical_formula_structural   Tm20NiRhAu6
_chemical_formula_sum   'Tm20 Ni1 Rh1 Au6'
_cell_volume   701.81543622
_cell_formula_units_Z   1
loop_
 _symmetry_equiv_pos_site_id
 _symmetry_equiv_pos_as_xyz
  1  'x, y, z'
loop_
 _atom_site_type_symbol
 _atom_site_label
 _atom_site_symmetry_multiplicity
 _atom_site_fract_x
 _atom_site_fract_y
 _atom_site_fract_z
 _atom_site_occupancy
  Tm  Tm0  1  0.000000  0.000000  0.499872  1
  Tm  Tm1  1  0.000000  0.000000  0.000128  1
  Tm  Tm2  1  0.543181  0.456819  0.250000  1
  Tm  Tm3  1  0.543181  0.086361  0.250000  1
  Tm  Tm4  1  0.913639  0.456819  0.250000  1
  Tm  Tm5  1  0.457226  0.542774  0.750000  1
  Tm  Tm6  1  0.457226  0.914450  0.750000  1
  Tm  Tm7  1  0.085550  0.542774  0.750000  1
  Tm  Tm8  1  0.206776  0.793224  0.443147  1
  Tm  Tm9  1  0.206776  0.413552  0.443147  1
  Tm  Tm10  1  0.586448  0.793224  0.443147  1
  Tm  Tm11  1  0.791020  0.208980  0.559944  1
  Tm  Tm12  1  0.791020  0.582040  0.559944  1
  Tm  Tm13  1  0.417960  0.208980  0.559944  1
  Tm  Tm14  1  0.791020  0.208980  0.940056  1
  Tm  Tm15  1  0.791020  0.582040  0.940056  1
  Tm  Tm16  1  0.417960  0.208980  0.940056  1
  Tm  Tm17  1  0.206776  0.793224  0.056853  1
  Tm  Tm18  1  0.206776  0.413552  0.056853  1
  Tm  Tm19  1  0.586448  0.793224  0.056853  1
  Ni  Ni20  1  0.666667  0.333333  0.750000  1
  Rh  Rh21  1  0.333333  0.666667  0.250000  1
  Au  Au22  1  0.880519  0.119481  0.250000  1
  Au  Au23  1  0.880519  0.761039  0.250000  1
  Au  Au24  1  0.238961  0.119481  0.250000  1
  Au  Au25  1  0.118873  0.881127  0.750000  1
  Au  Au26  1  0.118873  0.237746  0.750000  1
  Au  Au27  1  0.762254  0.881127  0.750000  1
