# generated using pymatgen
data_LuNb8AlSe16
_symmetry_space_group_name_H-M   'P 1'
_cell_length_a   7.02100700
_cell_length_b   7.02100912
_cell_length_c   13.53622100
_cell_angle_alpha   90.00000000
_cell_angle_beta   90.00000000
_cell_angle_gamma   120.00000416
_symmetry_Int_Tables_number   1
_chemical_formula_structural   LuNb8AlSe16
_chemical_formula_sum   'Lu1 Nb8 Al1 Se16'
_cell_volume   577.86580066
_cell_formula_units_Z   1
loop_
 _symmetry_equiv_pos_site_id
 _symmetry_equiv_pos_as_xyz
  1  'x, y, z'
loop_
 _atom_site_type_symbol
 _atom_site_label
 _atom_site_symmetry_multiplicity
 _atom_site_fract_x
 _atom_site_fract_y
 _atom_site_fract_z
 _atom_site_occupancy
  Lu  Lu0  1  0.000000  0.000000  0.500000  1
  Nb  Nb1  1  0.000000  0.000000  0.242419  1
  Nb  Nb2  1  0.000000  0.000000  0.757581  1
  Nb  Nb3  1  0.506304  0.012609  0.239524  1
  Nb  Nb4  1  0.493696  0.987391  0.760476  1
  Nb  Nb5  1  0.987391  0.493696  0.239524  1
  Nb  Nb6  1  0.012609  0.506304  0.760476  1
  Nb  Nb7  1  0.506304  0.493696  0.239524  1
  Nb  Nb8  1  0.493696  0.506304  0.760476  1
  Al  Al9  1  0.000000  0.000000  0.000000  1
  Se  Se10  1  0.333333  0.666667  0.633108  1
  Se  Se11  1  0.666667  0.333333  0.366892  1
  Se  Se12  1  0.666667  0.333333  0.114008  1
  Se  Se13  1  0.333333  0.666667  0.885992  1
  Se  Se14  1  0.167225  0.334450  0.117027  1
  Se  Se15  1  0.832775  0.665550  0.882973  1
  Se  Se16  1  0.665550  0.832775  0.117027  1
  Se  Se17  1  0.829938  0.659875  0.636592  1
  Se  Se18  1  0.334450  0.167225  0.882973  1
  Se  Se19  1  0.170062  0.340125  0.363408  1
  Se  Se20  1  0.167225  0.832775  0.117027  1
  Se  Se21  1  0.340125  0.170062  0.636592  1
  Se  Se22  1  0.832775  0.167225  0.882973  1
  Se  Se23  1  0.659875  0.829938  0.363408  1
  Se  Se24  1  0.829938  0.170062  0.636592  1
  Se  Se25  1  0.170062  0.829938  0.363408  1
