# generated using pymatgen
data_Ho16Er4Ir7Au5
_symmetry_space_group_name_H-M   'P 1'
_cell_length_a   11.13628564
_cell_length_b   11.13628535
_cell_length_c   6.29047516
_cell_angle_alpha   89.94802332
_cell_angle_beta   89.94802658
_cell_angle_gamma   89.55891296
_symmetry_Int_Tables_number   1
_chemical_formula_structural   Ho16Er4Ir7Au5
_chemical_formula_sum   'Ho16 Er4 Ir7 Au5'
_cell_volume   780.10118847
_cell_formula_units_Z   1
loop_
 _symmetry_equiv_pos_site_id
 _symmetry_equiv_pos_as_xyz
  1  'x, y, z'
loop_
 _atom_site_type_symbol
 _atom_site_label
 _atom_site_symmetry_multiplicity
 _atom_site_fract_x
 _atom_site_fract_y
 _atom_site_fract_z
 _atom_site_occupancy
  Ho  Ho0  1  0.299749  0.090987  0.364861  1
  Ho  Ho1  1  0.301299  0.907339  0.863405  1
  Ho  Ho2  1  0.697811  0.080671  0.860211  1
  Ho  Ho3  1  0.698211  0.905862  0.362032  1
  Ho  Ho4  1  0.580986  0.784703  0.876412  1
  Ho  Ho5  1  0.575967  0.206897  0.363514  1
  Ho  Ho6  1  0.417937  0.788304  0.376471  1
  Ho  Ho7  1  0.411180  0.208341  0.878009  1
  Ho  Ho8  1  0.215297  0.419014  0.623588  1
  Ho  Ho9  1  0.211696  0.582063  0.123529  1
  Ho  Ho10  1  0.793103  0.424033  0.136486  1
  Ho  Ho11  1  0.791659  0.588820  0.621991  1
  Ho  Ho12  1  0.909013  0.700251  0.135139  1
  Ho  Ho13  1  0.919329  0.302189  0.639789  1
  Ho  Ho14  1  0.092661  0.698701  0.636595  1
  Ho  Ho15  1  0.094138  0.301789  0.137968  1
  Er  Er16  1  0.998663  0.000559  0.499414  1
  Er  Er17  1  0.999441  0.001337  0.000586  1
  Er  Er18  1  0.495819  0.502323  0.001394  1
  Er  Er19  1  0.497677  0.504181  0.498606  1
  Ir  Ir20  1  0.652976  0.651123  0.250229  1
  Ir  Ir21  1  0.348877  0.347024  0.249771  1
  Ir  Ir22  1  0.345638  0.654362  0.750000  1
  Ir  Ir23  1  0.499370  0.999255  0.112179  1
  Ir  Ir24  1  0.499240  0.000290  0.613420  1
  Ir  Ir25  1  0.999710  0.500760  0.886580  1
  Ir  Ir26  1  0.000745  0.500630  0.387821  1
  Au  Au27  1  0.842211  0.157789  0.250000  1
  Au  Au28  1  0.844197  0.845944  0.750472  1
  Au  Au29  1  0.154056  0.155803  0.749528  1
  Au  Au30  1  0.155671  0.844329  0.250000  1
  Au  Au31  1  0.655671  0.344329  0.750000  1
