# generated using pymatgen
data_Ho16Co3NiAg4
_symmetry_space_group_name_H-M   'P 1'
_cell_length_a   9.35633769
_cell_length_b   9.37521958
_cell_length_c   9.37522000
_cell_angle_alpha   60.00000557
_cell_angle_beta   59.93322536
_cell_angle_gamma   59.93322803
_symmetry_Int_Tables_number   1
_chemical_formula_structural   Ho16Co3NiAg4
_chemical_formula_sum   'Ho16 Co3 Ni1 Ag4'
_cell_volume   580.91790453
_cell_formula_units_Z   1
loop_
 _symmetry_equiv_pos_site_id
 _symmetry_equiv_pos_as_xyz
  1  'x, y, z'
loop_
 _atom_site_type_symbol
 _atom_site_label
 _atom_site_symmetry_multiplicity
 _atom_site_fract_x
 _atom_site_fract_y
 _atom_site_fract_z
 _atom_site_occupancy
  Ho  Ho0  1  0.936182  0.936868  0.563475  1
  Ho  Ho1  1  0.814140  0.188844  0.188844  1
  Ho  Ho2  1  0.936182  0.563475  0.563475  1
  Ho  Ho3  1  0.936182  0.563475  0.936868  1
  Ho  Ho4  1  0.814140  0.808172  0.188844  1
  Ho  Ho5  1  0.346611  0.349305  0.349305  1
  Ho  Ho6  1  0.561926  0.936700  0.936700  1
  Ho  Ho7  1  0.561926  0.936700  0.564674  1
  Ho  Ho8  1  0.188041  0.811951  0.811951  1
  Ho  Ho9  1  0.188041  0.188057  0.811951  1
  Ho  Ho10  1  0.346611  0.349305  0.954781  1
  Ho  Ho11  1  0.346611  0.954781  0.349305  1
  Ho  Ho12  1  0.814140  0.188844  0.808172  1
  Ho  Ho13  1  0.561926  0.564674  0.936700  1
  Ho  Ho14  1  0.188041  0.811951  0.188057  1
  Ho  Ho15  1  0.957726  0.347425  0.347425  1
  Co  Co16  1  0.142532  0.141319  0.141319  1
  Co  Co17  1  0.142532  0.574832  0.141319  1
  Co  Co18  1  0.142532  0.141319  0.574832  1
  Ni  Ni19  1  0.575496  0.141502  0.141502  1
  Ag  Ag20  1  0.581080  0.581397  0.256127  1
  Ag  Ag21  1  0.255247  0.581585  0.581585  1
  Ag  Ag22  1  0.581080  0.581397  0.581397  1
  Ag  Ag23  1  0.581080  0.256127  0.581397  1
