# generated using pymatgen
data_TbDySi2NiRu
_symmetry_space_group_name_H-M   'P 1'
_cell_length_a   4.25832000
_cell_length_b   6.94845934
_cell_length_c   7.12064856
_cell_angle_alpha   91.46210254
_cell_angle_beta   90.00000000
_cell_angle_gamma   90.00000000
_symmetry_Int_Tables_number   1
_chemical_formula_structural   TbDySi2NiRu
_chemical_formula_sum   'Tb2 Dy2 Si4 Ni2 Ru2'
_cell_volume   210.62258865
_cell_formula_units_Z   2
loop_
 _symmetry_equiv_pos_site_id
 _symmetry_equiv_pos_as_xyz
  1  'x, y, z'
loop_
 _atom_site_type_symbol
 _atom_site_label
 _atom_site_symmetry_multiplicity
 _atom_site_fract_x
 _atom_site_fract_y
 _atom_site_fract_z
 _atom_site_occupancy
  Tb  Tb0  1  0.250000  0.987834  0.800137  1
  Tb  Tb1  1  0.750000  0.012166  0.199863  1
  Dy  Dy2  1  0.250000  0.486974  0.681002  1
  Dy  Dy3  1  0.750000  0.513026  0.318998  1
  Si  Si4  1  0.250000  0.302215  0.098661  1
  Si  Si5  1  0.750000  0.697785  0.901339  1
  Si  Si6  1  0.250000  0.804616  0.396810  1
  Si  Si7  1  0.750000  0.195384  0.603190  1
  Ni  Ni8  1  0.750000  0.837246  0.575376  1
  Ni  Ni9  1  0.250000  0.162754  0.424624  1
  Ru  Ru10  1  0.750000  0.346084  0.930034  1
  Ru  Ru11  1  0.250000  0.653916  0.069966  1
