# generated using pymatgen
data_Sc4VRe2Os5
_symmetry_space_group_name_H-M   'P 1'
_cell_length_a   5.32325287
_cell_length_b   5.16949671
_cell_length_c   8.66414800
_cell_angle_alpha   90.00000000
_cell_angle_beta   90.00000000
_cell_angle_gamma   121.85255437
_symmetry_Int_Tables_number   1
_chemical_formula_structural   Sc4VRe2Os5
_chemical_formula_sum   'Sc4 V1 Re2 Os5'
_cell_volume   202.52007244
_cell_formula_units_Z   1
loop_
 _symmetry_equiv_pos_site_id
 _symmetry_equiv_pos_as_xyz
  1  'x, y, z'
loop_
 _atom_site_type_symbol
 _atom_site_label
 _atom_site_symmetry_multiplicity
 _atom_site_fract_x
 _atom_site_fract_y
 _atom_site_fract_z
 _atom_site_occupancy
  Sc  Sc0  1  0.332388  0.659800  0.435150  1
  Sc  Sc1  1  0.667685  0.338584  0.564897  1
  Sc  Sc2  1  0.667685  0.338584  0.935103  1
  Sc  Sc3  1  0.332388  0.659800  0.064850  1
  V  V4  1  0.168313  0.339813  0.750000  1
  Re  Re5  1  0.341771  0.172057  0.250000  1
  Re  Re6  1  0.830388  0.665391  0.250000  1
  Os  Os7  1  0.173203  0.822766  0.750000  1
  Os  Os8  1  0.650539  0.825032  0.750000  1
  Os  Os9  1  0.005778  0.001724  0.995593  1
  Os  Os10  1  0.824079  0.174728  0.250000  1
  Os  Os11  1  0.005778  0.001724  0.504407  1
