# generated using pymatgen
data_Tm4Fe5Mo3(PRh)12
_symmetry_space_group_name_H-M   'P 1'
_cell_length_a   3.83895700
_cell_length_b   10.64123221
_cell_length_c   12.40878665
_cell_angle_alpha   90.54205904
_cell_angle_beta   90.00000000
_cell_angle_gamma   90.00000000
_symmetry_Int_Tables_number   1
_chemical_formula_structural   Tm4Fe5Mo3(PRh)12
_chemical_formula_sum   'Tm4 Fe5 Mo3 P12 Rh12'
_cell_volume   506.89154766
_cell_formula_units_Z   1
loop_
 _symmetry_equiv_pos_site_id
 _symmetry_equiv_pos_as_xyz
  1  'x, y, z'
loop_
 _atom_site_type_symbol
 _atom_site_label
 _atom_site_symmetry_multiplicity
 _atom_site_fract_x
 _atom_site_fract_y
 _atom_site_fract_z
 _atom_site_occupancy
  Tm  Tm0  1  0.250000  0.580091  0.712899  1
  Tm  Tm1  1  0.250000  0.916224  0.207753  1
  Tm  Tm2  1  0.750000  0.419611  0.287992  1
  Tm  Tm3  1  0.750000  0.083005  0.794485  1
  Fe  Fe4  1  0.750000  0.381516  0.799738  1
  Fe  Fe5  1  0.250000  0.462060  0.932847  1
  Fe  Fe6  1  0.250000  0.041104  0.438006  1
  Fe  Fe7  1  0.750000  0.536661  0.061079  1
  Fe  Fe8  1  0.750000  0.966072  0.565708  1
  Mo  Mo9  1  0.250000  0.703035  0.986744  1
  Mo  Mo10  1  0.250000  0.794562  0.486887  1
  Mo  Mo11  1  0.750000  0.295123  0.008618  1
  P  P12  1  0.250000  0.425374  0.103954  1
  P  P13  1  0.250000  0.072124  0.610688  1
  P  P14  1  0.750000  0.564236  0.887202  1
  P  P15  1  0.750000  0.927603  0.394562  1
  P  P16  1  0.250000  0.272802  0.866243  1
  P  P17  1  0.250000  0.232662  0.367303  1
  P  P18  1  0.750000  0.729681  0.127785  1
  P  P19  1  0.750000  0.770849  0.630370  1
  P  P20  1  0.250000  0.599051  0.390309  1
  P  P21  1  0.250000  0.898624  0.891689  1
  P  P22  1  0.750000  0.403729  0.619970  1
  P  P23  1  0.750000  0.102524  0.108557  1
  Rh  Rh24  1  0.750000  0.211851  0.516185  1
  Rh  Rh25  1  0.250000  0.405408  0.483598  1
  Rh  Rh26  1  0.250000  0.095833  0.981398  1
  Rh  Rh27  1  0.750000  0.593086  0.518235  1
  Rh  Rh28  1  0.750000  0.905955  0.017333  1
  Rh  Rh29  1  0.250000  0.229390  0.176887  1
  Rh  Rh30  1  0.250000  0.271557  0.679042  1
  Rh  Rh31  1  0.750000  0.766094  0.821557  1
  Rh  Rh32  1  0.750000  0.731475  0.321269  1
  Rh  Rh33  1  0.250000  0.885363  0.701666  1
  Rh  Rh34  1  0.250000  0.611336  0.200137  1
  Rh  Rh35  1  0.750000  0.114326  0.301303  1
