# generated using pymatgen
data_Yb8Fe2CuN8
_symmetry_space_group_name_H-M   'P 1'
_cell_length_a   9.03877504
_cell_length_b   4.95256550
_cell_length_c   6.95973793
_cell_angle_alpha   90.00000896
_cell_angle_beta   75.35827017
_cell_angle_gamma   74.09983102
_symmetry_Int_Tables_number   1
_chemical_formula_structural   Yb8Fe2CuN8
_chemical_formula_sum   'Yb8 Fe2 Cu1 N8'
_cell_volume   289.09919639
_cell_formula_units_Z   1
loop_
 _symmetry_equiv_pos_site_id
 _symmetry_equiv_pos_as_xyz
  1  'x, y, z'
loop_
 _atom_site_type_symbol
 _atom_site_label
 _atom_site_symmetry_multiplicity
 _atom_site_fract_x
 _atom_site_fract_y
 _atom_site_fract_z
 _atom_site_occupancy
  Yb  Yb0  1  0.057456  0.971272  0.742970  1
  Yb  Yb1  1  0.942544  0.028728  0.257030  1
  Yb  Yb2  1  0.668992  0.665505  0.467354  1
  Yb  Yb3  1  0.331008  0.334495  0.532646  1
  Yb  Yb4  1  0.816867  0.591567  0.975590  1
  Yb  Yb5  1  0.183133  0.408433  0.024410  1
  Yb  Yb6  1  0.598674  0.200663  0.810282  1
  Yb  Yb7  1  0.401326  0.799337  0.189718  1
  Fe  Fe8  1  0.376830  0.811584  0.791474  1
  Fe  Fe9  1  0.623170  0.188416  0.208526  1
  Cu  Cu10  1  0.000000  0.500000  0.500000  1
  N  N11  1  0.207054  0.896473  0.995917  1
  N  N12  1  0.792946  0.103527  0.004083  1
  N  N13  1  0.352198  0.823900  0.552318  1
  N  N14  1  0.647802  0.176100  0.447682  1
  N  N15  1  0.566836  0.716582  0.830329  1
  N  N16  1  0.433164  0.283418  0.169671  1
  N  N17  1  0.061658  0.469171  0.738700  1
  N  N18  1  0.938342  0.530829  0.261300  1
