# generated using pymatgen
data_Ho20Ir7Os4Rh
_symmetry_space_group_name_H-M   'P 1'
_cell_length_a   10.82216131
_cell_length_b   10.82216131
_cell_length_c   6.39384108
_cell_angle_alpha   90.01260748
_cell_angle_beta   90.01260748
_cell_angle_gamma   90.02449074
_symmetry_Int_Tables_number   1
_chemical_formula_structural   Ho20Ir7Os4Rh
_chemical_formula_sum   'Ho20 Ir7 Os4 Rh1'
_cell_volume   748.84129044
_cell_formula_units_Z   1
loop_
 _symmetry_equiv_pos_site_id
 _symmetry_equiv_pos_as_xyz
  1  'x, y, z'
loop_
 _atom_site_type_symbol
 _atom_site_label
 _atom_site_symmetry_multiplicity
 _atom_site_fract_x
 _atom_site_fract_y
 _atom_site_fract_z
 _atom_site_occupancy
  Ho  Ho0  1  0.293610  0.086186  0.376879  1
  Ho  Ho1  1  0.293587  0.913798  0.876676  1
  Ho  Ho2  1  0.705833  0.085885  0.876258  1
  Ho  Ho3  1  0.705884  0.913030  0.377108  1
  Ho  Ho4  1  0.586282  0.793654  0.876822  1
  Ho  Ho5  1  0.585520  0.206328  0.377160  1
  Ho  Ho6  1  0.413854  0.793646  0.376964  1
  Ho  Ho7  1  0.413786  0.206328  0.876699  1
  Ho  Ho8  1  0.206346  0.413718  0.623178  1
  Ho  Ho9  1  0.206354  0.586146  0.123036  1
  Ho  Ho10  1  0.793672  0.414480  0.122840  1
  Ho  Ho11  1  0.793672  0.586214  0.623301  1
  Ho  Ho12  1  0.913814  0.706390  0.123121  1
  Ho  Ho13  1  0.914115  0.294167  0.623742  1
  Ho  Ho14  1  0.086202  0.706413  0.623324  1
  Ho  Ho15  1  0.086970  0.294116  0.122892  1
  Ho  Ho16  1  0.000210  0.999836  0.500504  1
  Ho  Ho17  1  0.000164  0.999790  0.999496  1
  Ho  Ho18  1  0.500040  0.499995  0.000210  1
  Ho  Ho19  1  0.500005  0.499960  0.499790  1
  Ir  Ir20  1  0.847828  0.848123  0.749920  1
  Ir  Ir21  1  0.151877  0.152172  0.750080  1
  Ir  Ir22  1  0.152171  0.847829  0.250000  1
  Ir  Ir23  1  0.652346  0.347654  0.750000  1
  Ir  Ir24  1  0.652289  0.652238  0.250115  1
  Ir  Ir25  1  0.347762  0.347711  0.249885  1
  Ir  Ir26  1  0.347804  0.652196  0.750000  1
  Os  Os27  1  0.500386  0.000268  0.122804  1
  Os  Os28  1  0.500303  0.000234  0.622497  1
  Os  Os29  1  0.999766  0.499697  0.877503  1
  Os  Os30  1  0.999732  0.499614  0.377196  1
  Rh  Rh31  1  0.847817  0.152183  0.250000  1
