# generated using pymatgen
data_CaYb5(TmSb3)2
_symmetry_space_group_name_H-M   'P 1'
_cell_length_a   8.16194290
_cell_length_b   8.14279167
_cell_length_c   8.08415109
_cell_angle_alpha   109.44711444
_cell_angle_beta   109.54895074
_cell_angle_gamma   109.75777838
_symmetry_Int_Tables_number   1
_chemical_formula_structural   CaYb5(TmSb3)2
_chemical_formula_sum   'Ca1 Yb5 Tm2 Sb6'
_cell_volume   411.85101101
_cell_formula_units_Z   1
loop_
 _symmetry_equiv_pos_site_id
 _symmetry_equiv_pos_as_xyz
  1  'x, y, z'
loop_
 _atom_site_type_symbol
 _atom_site_label
 _atom_site_symmetry_multiplicity
 _atom_site_fract_x
 _atom_site_fract_y
 _atom_site_fract_z
 _atom_site_occupancy
  Ca  Ca0  1  0.004260  0.355397  0.499354  1
  Yb  Yb1  1  0.351203  0.494208  0.995926  1
  Yb  Yb2  1  0.004901  0.855931  0.500601  1
  Yb  Yb3  1  0.855357  0.498391  0.004249  1
  Yb  Yb4  1  0.499098  0.004325  0.858371  1
  Yb  Yb5  1  0.140812  0.145901  0.141533  1
  Tm  Tm6  1  0.498871  0.000061  0.353590  1
  Tm  Tm7  1  0.645369  0.646505  0.646309  1
  Sb  Sb8  1  0.863542  0.113480  0.737656  1
  Sb  Sb9  1  0.383626  0.253331  0.620251  1
  Sb  Sb10  1  0.121927  0.751808  0.880191  1
  Sb  Sb11  1  0.741734  0.871454  0.119837  1
  Sb  Sb12  1  0.263422  0.633238  0.379756  1
  Sb  Sb13  1  0.625876  0.375968  0.262376  1
