# generated using pymatgen
data_Dy2Fe7Ni5P7
_symmetry_space_group_name_H-M   'P 1'
_cell_length_a   9.03979642
_cell_length_b   9.06575456
_cell_length_c   3.65940400
_cell_angle_alpha   90.00000000
_cell_angle_beta   90.00000000
_cell_angle_gamma   120.01824359
_symmetry_Int_Tables_number   1
_chemical_formula_structural   Dy2Fe7Ni5P7
_chemical_formula_sum   'Dy2 Fe7 Ni5 P7'
_cell_volume   259.67116672
_cell_formula_units_Z   1
loop_
 _symmetry_equiv_pos_site_id
 _symmetry_equiv_pos_as_xyz
  1  'x, y, z'
loop_
 _atom_site_type_symbol
 _atom_site_label
 _atom_site_symmetry_multiplicity
 _atom_site_fract_x
 _atom_site_fract_y
 _atom_site_fract_z
 _atom_site_occupancy
  Dy  Dy0  1  0.336118  0.668184  0.000000  1
  Dy  Dy1  1  0.997632  0.998803  0.500000  1
  Fe  Fe2  1  0.941938  0.489337  0.000000  1
  Fe  Fe3  1  0.509152  0.450677  0.000000  1
  Fe  Fe4  1  0.548258  0.062038  0.000000  1
  Fe  Fe5  1  0.619213  0.899224  0.500000  1
  Fe  Fe6  1  0.762263  0.552682  0.500000  1
  Fe  Fe7  1  0.449372  0.212086  0.500000  1
  Fe  Fe8  1  0.786196  0.239016  0.500000  1
  Ni  Ni9  1  0.727971  0.764550  0.000000  1
  Ni  Ni10  1  0.232481  0.959020  0.000000  1
  Ni  Ni11  1  0.037632  0.269634  0.000000  1
  Ni  Ni12  1  0.104453  0.720890  0.500000  1
  Ni  Ni13  1  0.278813  0.382137  0.500000  1
  P  P14  1  0.959731  0.737445  0.000000  1
  P  P15  1  0.260993  0.219771  0.000000  1
  P  P16  1  0.772567  0.032987  0.000000  1
  P  P17  1  0.064354  0.447395  0.500000  1
  P  P18  1  0.553876  0.622693  0.500000  1
  P  P19  1  0.389830  0.935850  0.500000  1
  P  P20  1  0.667157  0.335583  0.000000  1
