# generated using pymatgen
data_Er5LuMoO12
_symmetry_space_group_name_H-M   'P 1'
_cell_length_a   6.41608161
_cell_length_b   6.40406446
_cell_length_c   6.41205808
_cell_angle_alpha   98.79468500
_cell_angle_beta   98.70136276
_cell_angle_gamma   98.62960970
_symmetry_Int_Tables_number   1
_chemical_formula_structural   Er5LuMoO12
_chemical_formula_sum   'Er5 Lu1 Mo1 O12'
_cell_volume   253.29411039
_cell_formula_units_Z   1
loop_
 _symmetry_equiv_pos_site_id
 _symmetry_equiv_pos_as_xyz
  1  'x, y, z'
loop_
 _atom_site_type_symbol
 _atom_site_label
 _atom_site_symmetry_multiplicity
 _atom_site_fract_x
 _atom_site_fract_y
 _atom_site_fract_z
 _atom_site_occupancy
  Er  Er0  1  0.318019  0.143359  0.611100  1
  Er  Er1  1  0.855850  0.388179  0.681403  1
  Er  Er2  1  0.611774  0.317886  0.144327  1
  Er  Er3  1  0.389199  0.683249  0.856615  1
  Er  Er4  1  0.143544  0.612256  0.317505  1
  Lu  Lu5  1  0.679446  0.854902  0.389371  1
  Mo  Mo6  1  0.998911  0.999323  0.999510  1
  O  O7  1  0.918478  0.033584  0.700187  1
  O  O8  1  0.298225  0.079277  0.963806  1
  O  O9  1  0.591400  0.174316  0.429017  1
  O  O10  1  0.964215  0.299283  0.079242  1
  O  O11  1  0.569824  0.409956  0.822197  1
  O  O12  1  0.177258  0.430315  0.589306  1
  O  O13  1  0.821092  0.573511  0.410782  1
  O  O14  1  0.431814  0.592506  0.178845  1
  O  O15  1  0.035968  0.700937  0.920552  1
  O  O16  1  0.413524  0.822120  0.569369  1
  O  O17  1  0.701844  0.920461  0.038402  1
  O  O18  1  0.079618  0.964581  0.298463  1
