# generated using pymatgen
data_LiZnCrF6
_symmetry_space_group_name_H-M   'P 1'
_cell_length_a   4.73573500
_cell_length_b   4.73573500
_cell_length_c   9.24772700
_cell_angle_alpha   90.00000000
_cell_angle_beta   90.00000000
_cell_angle_gamma   90.00000000
_symmetry_Int_Tables_number   1
_chemical_formula_structural   LiZnCrF6
_chemical_formula_sum   'Li2 Zn2 Cr2 F12'
_cell_volume   207.40049342
_cell_formula_units_Z   2
loop_
 _symmetry_equiv_pos_site_id
 _symmetry_equiv_pos_as_xyz
  1  'x, y, z'
loop_
 _atom_site_type_symbol
 _atom_site_label
 _atom_site_symmetry_multiplicity
 _atom_site_fract_x
 _atom_site_fract_y
 _atom_site_fract_z
 _atom_site_occupancy
  Li  Li0  1  0.500000  0.500000  0.168018  1
  Li  Li1  1  0.000000  0.000000  0.668018  1
  Zn  Zn2  1  0.500000  0.500000  0.497802  1
  Zn  Zn3  1  0.000000  0.000000  0.997802  1
  Cr  Cr4  1  0.500000  0.500000  0.833765  1
  Cr  Cr5  1  0.000000  0.000000  0.333765  1
  F  F6  1  0.192276  0.807724  0.174792  1
  F  F7  1  0.192365  0.807635  0.492278  1
  F  F8  1  0.206806  0.793194  0.833138  1
  F  F9  1  0.807724  0.192276  0.174792  1
  F  F10  1  0.807635  0.192365  0.492278  1
  F  F11  1  0.793194  0.206806  0.833138  1
  F  F12  1  0.307635  0.307635  0.992278  1
  F  F13  1  0.293194  0.293194  0.333138  1
  F  F14  1  0.307724  0.307724  0.674792  1
  F  F15  1  0.706806  0.706806  0.333138  1
  F  F16  1  0.692276  0.692276  0.674792  1
  F  F17  1  0.692365  0.692365  0.992278  1
