# generated using pymatgen
data_TbY(Ga3Ir)3
_symmetry_space_group_name_H-M   'P 1'
_cell_length_a   7.59727860
_cell_length_b   7.59759471
_cell_length_c   9.53936500
_cell_angle_alpha   90.00000000
_cell_angle_beta   90.00000000
_cell_angle_gamma   119.86051500
_symmetry_Int_Tables_number   1
_chemical_formula_structural   TbY(Ga3Ir)3
_chemical_formula_sum   'Tb2 Y2 Ga18 Ir6'
_cell_volume   477.52155355
_cell_formula_units_Z   2
loop_
 _symmetry_equiv_pos_site_id
 _symmetry_equiv_pos_as_xyz
  1  'x, y, z'
loop_
 _atom_site_type_symbol
 _atom_site_label
 _atom_site_symmetry_multiplicity
 _atom_site_fract_x
 _atom_site_fract_y
 _atom_site_fract_z
 _atom_site_occupancy
  Tb  Tb0  1  0.997168  0.667994  0.250000  1
  Tb  Tb1  1  0.002832  0.332006  0.750000  1
  Y  Y2  1  0.667984  0.997147  0.250000  1
  Y  Y3  1  0.332016  0.002853  0.750000  1
  Ga  Ga4  1  0.127378  0.127290  0.250000  1
  Ga  Ga5  1  0.872622  0.872710  0.750000  1
  Ga  Ga6  1  0.999533  0.334123  0.079679  1
  Ga  Ga7  1  0.000467  0.665877  0.920321  1
  Ga  Ga8  1  0.000467  0.665877  0.579679  1
  Ga  Ga9  1  0.334268  0.999570  0.420346  1
  Ga  Ga10  1  0.999533  0.334123  0.420321  1
  Ga  Ga11  1  0.665732  0.000430  0.579654  1
  Ga  Ga12  1  0.665732  0.000430  0.920346  1
  Ga  Ga13  1  0.334268  0.999570  0.079654  1
  Ga  Ga14  1  0.332560  0.332521  0.563105  1
  Ga  Ga15  1  0.667440  0.667479  0.436895  1
  Ga  Ga16  1  0.667440  0.667479  0.063105  1
  Ga  Ga17  1  0.332560  0.332521  0.936895  1
  Ga  Ga18  1  0.338435  0.545728  0.250000  1
  Ga  Ga19  1  0.661565  0.454272  0.750000  1
  Ga  Ga20  1  0.545785  0.338590  0.250000  1
  Ga  Ga21  1  0.454215  0.661410  0.750000  1
  Ir  Ir22  1  0.671507  0.328540  0.999994  1
  Ir  Ir23  1  0.328493  0.671460  0.000006  1
  Ir  Ir24  1  0.328493  0.671460  0.499994  1
  Ir  Ir25  1  0.671507  0.328540  0.500006  1
  Ir  Ir26  1  0.000000  0.000000  0.000000  1
  Ir  Ir27  1  0.000000  0.000000  0.500000  1
