# generated using pymatgen
data_Sm4Ho4Sc12Si15Ru
_symmetry_space_group_name_H-M   'P 1'
_cell_length_a   7.10626880
_cell_length_b   7.46409572
_cell_length_c   13.99528642
_cell_angle_alpha   90.00867338
_cell_angle_beta   89.97328759
_cell_angle_gamma   90.12064668
_symmetry_Int_Tables_number   1
_chemical_formula_structural   Sm4Ho4Sc12Si15Ru
_chemical_formula_sum   'Sm4 Ho4 Sc12 Si15 Ru1'
_cell_volume   742.33443532
_cell_formula_units_Z   1
loop_
 _symmetry_equiv_pos_site_id
 _symmetry_equiv_pos_as_xyz
  1  'x, y, z'
loop_
 _atom_site_type_symbol
 _atom_site_label
 _atom_site_symmetry_multiplicity
 _atom_site_fract_x
 _atom_site_fract_y
 _atom_site_fract_z
 _atom_site_occupancy
  Sm  Sm0  1  0.511950  0.324444  0.094934  1
  Sm  Sm1  1  0.010856  0.176685  0.404941  1
  Sm  Sm2  1  0.511512  0.324746  0.403799  1
  Sm  Sm3  1  0.488632  0.674719  0.596344  1
  Ho  Ho4  1  0.011989  0.178375  0.096097  1
  Ho  Ho5  1  0.990507  0.826614  0.903214  1
  Ho  Ho6  1  0.487756  0.677229  0.902592  1
  Ho  Ho7  1  0.990410  0.827003  0.597885  1
  Sc  Sc8  1  0.156073  0.498911  0.750445  1
  Sc  Sc9  1  0.839060  0.496600  0.249491  1
  Sc  Sc10  1  0.339107  0.004534  0.249479  1
  Sc  Sc11  1  0.669848  0.999275  0.750401  1
  Sc  Sc12  1  0.316466  0.170798  0.628308  1
  Sc  Sc13  1  0.672869  0.826404  0.374204  1
  Sc  Sc14  1  0.171010  0.678471  0.374176  1
  Sc  Sc15  1  0.672198  0.825850  0.124734  1
  Sc  Sc16  1  0.836838  0.319622  0.628288  1
  Sc  Sc17  1  0.315794  0.171171  0.872686  1
  Sc  Sc18  1  0.837802  0.318476  0.872682  1
  Sc  Sc19  1  0.171397  0.678582  0.124938  1
  Si  Si20  1  0.968421  0.882228  0.249092  1
  Si  Si21  1  0.468404  0.619292  0.249592  1
  Si  Si22  1  0.529354  0.386035  0.751242  1
  Si  Si23  1  0.284918  0.868917  0.751318  1
  Si  Si24  1  0.714376  0.125888  0.248573  1
  Si  Si25  1  0.212025  0.373904  0.248738  1
  Si  Si26  1  0.781030  0.626290  0.751522  1
  Si  Si27  1  0.155841  0.470057  0.538497  1
  Si  Si28  1  0.847204  0.539551  0.462423  1
  Si  Si29  1  0.346424  0.964171  0.460712  1
  Si  Si30  1  0.847712  0.537138  0.037897  1
  Si  Si31  1  0.656168  0.033861  0.539638  1
  Si  Si32  1  0.158538  0.469364  0.961723  1
  Si  Si33  1  0.655921  0.031578  0.960162  1
  Si  Si34  1  0.343885  0.963684  0.039124  1
  Ru  Ru35  1  0.027705  0.109536  0.750110  1
