# generated using pymatgen
data_LiEr3In4Os
_symmetry_space_group_name_H-M   'P 1'
_cell_length_a   8.14757700
_cell_length_b   8.14757704
_cell_length_c   3.59005200
_cell_angle_alpha   90.00000000
_cell_angle_beta   90.00000000
_cell_angle_gamma   119.99999576
_symmetry_Int_Tables_number   1
_chemical_formula_structural   LiEr3In4Os
_chemical_formula_sum   'Li1 Er3 In4 Os1'
_cell_volume   206.38985159
_cell_formula_units_Z   1
loop_
 _symmetry_equiv_pos_site_id
 _symmetry_equiv_pos_as_xyz
  1  'x, y, z'
loop_
 _atom_site_type_symbol
 _atom_site_label
 _atom_site_symmetry_multiplicity
 _atom_site_fract_x
 _atom_site_fract_y
 _atom_site_fract_z
 _atom_site_occupancy
  Li  Li0  1  0.666667  0.333333  0.500000  1
  Er  Er1  1  0.708899  0.954312  0.500000  1
  Er  Er2  1  0.245413  0.291101  0.500000  1
  Er  Er3  1  0.045688  0.754587  0.500000  1
  In  In4  1  0.933503  0.335298  0.000000  1
  In  In5  1  0.401796  0.066497  0.000000  1
  In  In6  1  0.664702  0.598204  0.000000  1
  In  In7  1  0.333333  0.666667  0.000000  1
  Os  Os8  1  0.000000  0.000000  0.000000  1
