# generated using pymatgen
data_Tm(NbC)5
_symmetry_space_group_name_H-M   'P 1'
_cell_length_a   5.59167966
_cell_length_b   5.59167888
_cell_length_c   5.56717455
_cell_angle_alpha   80.92316408
_cell_angle_beta   80.92316133
_cell_angle_gamma   120.29607542
_symmetry_Int_Tables_number   1
_chemical_formula_structural   Tm(NbC)5
_chemical_formula_sum   'Tm1 Nb5 C5'
_cell_volume   142.54742886
_cell_formula_units_Z   1
loop_
 _symmetry_equiv_pos_site_id
 _symmetry_equiv_pos_as_xyz
  1  'x, y, z'
loop_
 _atom_site_type_symbol
 _atom_site_label
 _atom_site_symmetry_multiplicity
 _atom_site_fract_x
 _atom_site_fract_y
 _atom_site_fract_z
 _atom_site_occupancy
  Tm  Tm0  1  0.750074  0.750074  0.747413  1
  Nb  Nb1  1  0.260788  0.260788  0.262428  1
  Nb  Nb2  1  0.088779  0.445246  0.742787  1
  Nb  Nb3  1  0.555521  0.908281  0.254181  1
  Nb  Nb4  1  0.908281  0.555521  0.254181  1
  Nb  Nb5  1  0.445246  0.088779  0.742787  1
  C  C6  1  0.493647  0.493647  0.496292  1
  C  C7  1  0.662450  0.320270  0.008296  1
  C  C8  1  0.320270  0.662450  0.008296  1
  C  C9  1  0.836394  0.178549  0.491671  1
  C  C10  1  0.178549  0.836394  0.491671  1
