# generated using pymatgen
data_SrYb9(AlSb3)4
_symmetry_space_group_name_H-M   'P 1'
_cell_length_a   4.46502500
_cell_length_b   7.40075094
_cell_length_c   23.22568835
_cell_angle_alpha   90.10247319
_cell_angle_beta   90.00000000
_cell_angle_gamma   90.00000000
_symmetry_Int_Tables_number   1
_chemical_formula_structural   SrYb9(AlSb3)4
_chemical_formula_sum   'Sr1 Yb9 Al4 Sb12'
_cell_volume   767.48091288
_cell_formula_units_Z   1
loop_
 _symmetry_equiv_pos_site_id
 _symmetry_equiv_pos_as_xyz
  1  'x, y, z'
loop_
 _atom_site_type_symbol
 _atom_site_label
 _atom_site_symmetry_multiplicity
 _atom_site_fract_x
 _atom_site_fract_y
 _atom_site_fract_z
 _atom_site_occupancy
  Sr  Sr0  1  0.000000  0.455521  0.910554  1
  Yb  Yb1  1  0.000000  0.265969  0.745926  1
  Yb  Yb2  1  0.000000  0.768217  0.751167  1
  Yb  Yb3  1  0.000000  0.549535  0.090939  1
  Yb  Yb4  1  0.000000  0.950555  0.589823  1
  Yb  Yb5  1  0.000000  0.999520  0.000760  1
  Yb  Yb6  1  0.000000  0.733081  0.253270  1
  Yb  Yb7  1  0.000000  0.049560  0.409912  1
  Yb  Yb8  1  0.000000  0.499862  0.499845  1
  Yb  Yb9  1  0.000000  0.233493  0.246936  1
  Al  Al10  1  0.500000  0.809990  0.877612  1
  Al  Al11  1  0.500000  0.185192  0.123238  1
  Al  Al12  1  0.500000  0.687155  0.378464  1
  Al  Al13  1  0.500000  0.312977  0.621268  1
  Sb  Sb14  1  0.500000  0.803921  0.494343  1
  Sb  Sb15  1  0.000000  0.475557  0.364586  1
  Sb  Sb16  1  0.000000  0.974496  0.136243  1
  Sb  Sb17  1  0.500000  0.518573  0.806290  1
  Sb  Sb18  1  0.500000  0.487351  0.188792  1
  Sb  Sb19  1  0.000000  0.017897  0.864263  1
  Sb  Sb20  1  0.000000  0.524191  0.634832  1
  Sb  Sb21  1  0.500000  0.987201  0.311956  1
  Sb  Sb22  1  0.500000  0.195824  0.505566  1
  Sb  Sb23  1  0.500000  0.013290  0.687627  1
  Sb  Sb24  1  0.500000  0.302897  0.009451  1
  Sb  Sb25  1  0.500000  0.698175  0.996338  1
