# generated using pymatgen
data_Nd(CuPd2)4
_symmetry_space_group_name_H-M   'P 1'
_cell_length_a   6.81210712
_cell_length_b   6.81210751
_cell_length_c   6.81210840
_cell_angle_alpha   97.91381575
_cell_angle_beta   97.91382076
_cell_angle_gamma   136.43834528
_symmetry_Int_Tables_number   1
_chemical_formula_structural   Nd(CuPd2)4
_chemical_formula_sum   'Nd1 Cu4 Pd8'
_cell_volume   202.29353779
_cell_formula_units_Z   1
loop_
 _symmetry_equiv_pos_site_id
 _symmetry_equiv_pos_as_xyz
  1  'x, y, z'
loop_
 _atom_site_type_symbol
 _atom_site_label
 _atom_site_symmetry_multiplicity
 _atom_site_fract_x
 _atom_site_fract_y
 _atom_site_fract_z
 _atom_site_occupancy
  Nd  Nd0  1  0.000000  0.000000  0.000000  1
  Cu  Cu1  1  0.000000  0.000000  0.500000  1
  Cu  Cu2  1  0.500000  0.500000  0.500000  1
  Cu  Cu3  1  0.500000  0.000000  0.000000  1
  Cu  Cu4  1  0.000000  0.500000  0.000000  1
  Pd  Pd5  1  0.281296  0.500000  0.781296  1
  Pd  Pd6  1  0.500000  0.718704  0.218704  1
  Pd  Pd7  1  0.651626  0.000000  0.651626  1
  Pd  Pd8  1  0.000000  0.348374  0.348374  1
  Pd  Pd9  1  0.000000  0.651626  0.651626  1
  Pd  Pd10  1  0.348374  0.000000  0.348374  1
  Pd  Pd11  1  0.718704  0.500000  0.218704  1
  Pd  Pd12  1  0.500000  0.281296  0.781296  1
