# generated using pymatgen
data_Gd2UNi3Sb4
_symmetry_space_group_name_H-M   'P 1'
_cell_length_a   8.22712434
_cell_length_b   8.22712456
_cell_length_c   8.22712513
_cell_angle_alpha   109.43000150
_cell_angle_beta   109.42999841
_cell_angle_gamma   109.55369327
_symmetry_Int_Tables_number   1
_chemical_formula_structural   Gd2UNi3Sb4
_chemical_formula_sum   'Gd4 U2 Ni6 Sb8'
_cell_volume   428.66859956
_cell_formula_units_Z   2
loop_
 _symmetry_equiv_pos_site_id
 _symmetry_equiv_pos_as_xyz
  1  'x, y, z'
loop_
 _atom_site_type_symbol
 _atom_site_label
 _atom_site_symmetry_multiplicity
 _atom_site_fract_x
 _atom_site_fract_y
 _atom_site_fract_z
 _atom_site_occupancy
  Gd  Gd0  1  0.872250  0.250000  0.122250  1
  Gd  Gd1  1  0.627750  0.750000  0.377750  1
  Gd  Gd2  1  0.250000  0.127750  0.877750  1
  Gd  Gd3  1  0.750000  0.372250  0.622250  1
  U  U4  1  0.125000  0.875000  0.250000  1
  U  U5  1  0.375000  0.625000  0.750000  1
  Ni  Ni6  1  0.371209  0.250000  0.621209  1
  Ni  Ni7  1  0.128791  0.750000  0.878791  1
  Ni  Ni8  1  0.250000  0.628791  0.378791  1
  Ni  Ni9  1  0.750000  0.871209  0.121209  1
  Ni  Ni10  1  0.625000  0.375000  0.250000  1
  Ni  Ni11  1  0.875000  0.125000  0.750000  1
  Sb  Sb12  1  0.655687  0.501071  0.000252  1
  Sb  Sb13  1  0.499181  0.998929  0.654616  1
  Sb  Sb14  1  0.000819  0.655435  0.499748  1
  Sb  Sb15  1  0.844313  0.844565  0.845384  1
  Sb  Sb16  1  0.498929  0.999181  0.154616  1
  Sb  Sb17  1  0.155435  0.500819  0.999748  1
  Sb  Sb18  1  0.001071  0.155687  0.500252  1
  Sb  Sb19  1  0.344565  0.344313  0.345384  1
