# generated using pymatgen
data_Dy4Y16(IrRh3)3
_symmetry_space_group_name_H-M   'P 1'
_cell_length_a   10.94058812
_cell_length_b   10.94059839
_cell_length_c   6.38500400
_cell_angle_alpha   89.99753048
_cell_angle_beta   89.99800477
_cell_angle_gamma   89.96281732
_symmetry_Int_Tables_number   1
_chemical_formula_structural   Dy4Y16(IrRh3)3
_chemical_formula_sum   'Dy4 Y16 Ir3 Rh9'
_cell_volume   764.26298485
_cell_formula_units_Z   1
loop_
 _symmetry_equiv_pos_site_id
 _symmetry_equiv_pos_as_xyz
  1  'x, y, z'
loop_
 _atom_site_type_symbol
 _atom_site_label
 _atom_site_symmetry_multiplicity
 _atom_site_fract_x
 _atom_site_fract_y
 _atom_site_fract_z
 _atom_site_occupancy
  Dy  Dy0  1  0.999890  0.999952  0.499950  1
  Dy  Dy1  1  0.000048  0.000110  0.000048  1
  Dy  Dy2  1  0.499718  0.500098  0.999988  1
  Dy  Dy3  1  0.499903  0.500282  0.500010  1
  Y  Y4  1  0.291084  0.090030  0.378558  1
  Y  Y5  1  0.291162  0.909802  0.878451  1
  Y  Y6  1  0.709059  0.088752  0.878587  1
  Y  Y7  1  0.708775  0.909907  0.378393  1
  Y  Y8  1  0.587952  0.789788  0.879576  1
  Y  Y9  1  0.587620  0.209425  0.378491  1
  Y  Y10  1  0.412037  0.789937  0.379122  1
  Y  Y11  1  0.410708  0.209521  0.879738  1
  Y  Y12  1  0.210212  0.412047  0.620425  1
  Y  Y13  1  0.210064  0.587965  0.120877  1
  Y  Y14  1  0.790576  0.412380  0.121506  1
  Y  Y15  1  0.790481  0.589293  0.620261  1
  Y  Y16  1  0.909971  0.708918  0.121441  1
  Y  Y17  1  0.911248  0.290939  0.621414  1
  Y  Y18  1  0.090197  0.708840  0.621550  1
  Y  Y19  1  0.090093  0.291225  0.121609  1
  Ir  Ir20  1  0.654160  0.653599  0.250055  1
  Ir  Ir21  1  0.346401  0.345841  0.249941  1
  Ir  Ir22  1  0.345810  0.654190  0.749997  1
  Rh  Rh23  1  0.846587  0.153414  0.249998  1
  Rh  Rh24  1  0.847050  0.847312  0.750133  1
  Rh  Rh25  1  0.152690  0.152949  0.749863  1
  Rh  Rh26  1  0.152780  0.847215  0.249998  1
  Rh  Rh27  1  0.654257  0.345744  0.749997  1
  Rh  Rh28  1  0.500225  0.000429  0.124362  1
  Rh  Rh29  1  0.500288  0.000614  0.624918  1
  Rh  Rh30  1  0.999381  0.499707  0.875108  1
  Rh  Rh31  1  0.999574  0.499774  0.375634  1
