# generated using pymatgen
data_KRb3InSb7Au8
_symmetry_space_group_name_H-M   'P 1'
_cell_length_a   4.87361800
_cell_length_b   9.11698136
_cell_length_c   12.44981000
_cell_angle_alpha   90.01717772
_cell_angle_beta   90.00000000
_cell_angle_gamma   90.00000000
_symmetry_Int_Tables_number   1
_chemical_formula_structural   KRb3InSb7Au8
_chemical_formula_sum   'K1 Rb3 In1 Sb7 Au8'
_cell_volume   553.17845440
_cell_formula_units_Z   1
loop_
 _symmetry_equiv_pos_site_id
 _symmetry_equiv_pos_as_xyz
  1  'x, y, z'
loop_
 _atom_site_type_symbol
 _atom_site_label
 _atom_site_symmetry_multiplicity
 _atom_site_fract_x
 _atom_site_fract_y
 _atom_site_fract_z
 _atom_site_occupancy
  K  K0  1  0.750000  0.744892  0.334795  1
  Rb  Rb1  1  0.250000  0.757478  0.837610  1
  Rb  Rb2  1  0.250000  0.256586  0.661523  1
  Rb  Rb3  1  0.750000  0.240634  0.165542  1
  In  In4  1  0.250000  0.390418  0.949186  1
  Sb  Sb5  1  0.250000  0.401130  0.347204  1
  Sb  Sb6  1  0.250000  0.898726  0.156580  1
  Sb  Sb7  1  0.750000  0.607520  0.049723  1
  Sb  Sb8  1  0.750000  0.603202  0.649687  1
  Sb  Sb9  1  0.750000  0.104684  0.852826  1
  Sb  Sb10  1  0.250000  0.891704  0.547983  1
  Sb  Sb11  1  0.750000  0.110178  0.454314  1
  Au  Au12  1  0.250000  0.077246  0.965753  1
  Au  Au13  1  0.750000  0.432386  0.836666  1
  Au  Au14  1  0.750000  0.930016  0.660117  1
  Au  Au15  1  0.250000  0.567919  0.157931  1
  Au  Au16  1  0.250000  0.066559  0.345625  1
  Au  Au17  1  0.750000  0.909375  0.036947  1
  Au  Au18  1  0.250000  0.588627  0.530023  1
  Au  Au19  1  0.750000  0.420722  0.459966  1
