# generated using pymatgen
data_Tb2DyIn3Ni2Ag
_symmetry_space_group_name_H-M   'P 1'
_cell_length_a   7.72017146
_cell_length_b   7.72245306
_cell_length_c   3.73293400
_cell_angle_alpha   90.00000000
_cell_angle_beta   90.00000000
_cell_angle_gamma   120.06055058
_symmetry_Int_Tables_number   1
_chemical_formula_structural   Tb2DyIn3Ni2Ag
_chemical_formula_sum   'Tb2 Dy1 In3 Ni2 Ag1'
_cell_volume   192.61843874
_cell_formula_units_Z   1
loop_
 _symmetry_equiv_pos_site_id
 _symmetry_equiv_pos_as_xyz
  1  'x, y, z'
loop_
 _atom_site_type_symbol
 _atom_site_label
 _atom_site_symmetry_multiplicity
 _atom_site_fract_x
 _atom_site_fract_y
 _atom_site_fract_z
 _atom_site_occupancy
  Tb  Tb0  1  0.394729  0.420026  0.500000  1
  Tb  Tb1  1  0.579933  0.974734  0.500000  1
  Dy  Dy2  1  0.025427  0.605637  0.500000  1
  In  In3  1  0.750201  0.746325  0.000000  1
  In  In4  1  0.996635  0.250294  0.000000  1
  In  In5  1  0.253208  0.003242  0.000000  1
  Ni  Ni6  1  0.332665  0.666231  0.000000  1
  Ni  Ni7  1  0.999801  0.999675  0.500000  1
  Ag  Ag8  1  0.667400  0.333839  0.000000  1
