# generated using pymatgen
data_YbP2Rh3
_symmetry_space_group_name_H-M   'P 1'
_cell_length_a   3.94083100
_cell_length_b   11.21702800
_cell_length_c   12.65877700
_cell_angle_alpha   90.00000000
_cell_angle_beta   90.00000000
_cell_angle_gamma   90.00000000
_symmetry_Int_Tables_number   1
_chemical_formula_structural   YbP2Rh3
_chemical_formula_sum   'Yb6 P12 Rh18'
_cell_volume   559.57378975
_cell_formula_units_Z   6
loop_
 _symmetry_equiv_pos_site_id
 _symmetry_equiv_pos_as_xyz
  1  'x, y, z'
loop_
 _atom_site_type_symbol
 _atom_site_label
 _atom_site_symmetry_multiplicity
 _atom_site_fract_x
 _atom_site_fract_y
 _atom_site_fract_z
 _atom_site_occupancy
  Yb  Yb0  1  0.000000  0.500000  0.523964  1
  Yb  Yb1  1  0.500000  0.000000  0.476036  1
  Yb  Yb2  1  0.500000  0.820322  0.206516  1
  Yb  Yb3  1  0.500000  0.179678  0.206516  1
  Yb  Yb4  1  0.000000  0.679678  0.793484  1
  Yb  Yb5  1  0.000000  0.320322  0.793484  1
  P  P6  1  0.500000  0.500000  0.879383  1
  P  P7  1  0.000000  0.000000  0.120617  1
  P  P8  1  0.500000  0.500000  0.345676  1
  P  P9  1  0.000000  0.000000  0.654324  1
  P  P10  1  0.500000  0.310708  0.618712  1
  P  P11  1  0.500000  0.689292  0.618712  1
  P  P12  1  0.000000  0.189292  0.381288  1
  P  P13  1  0.000000  0.810708  0.381288  1
  P  P14  1  0.500000  0.845493  0.892131  1
  P  P15  1  0.500000  0.154507  0.892131  1
  P  P16  1  0.000000  0.654507  0.107869  1
  P  P17  1  0.000000  0.345493  0.107869  1
  Rh  Rh18  1  0.500000  0.500000  0.162487  1
  Rh  Rh19  1  0.000000  0.000000  0.837513  1
  Rh  Rh20  1  0.500000  0.500000  0.698581  1
  Rh  Rh21  1  0.000000  0.000000  0.301419  1
  Rh  Rh22  1  0.000000  0.500000  0.984631  1
  Rh  Rh23  1  0.500000  0.000000  0.015369  1
  Rh  Rh24  1  0.500000  0.332452  0.991301  1
  Rh  Rh25  1  0.500000  0.667548  0.991301  1
  Rh  Rh26  1  0.000000  0.167548  0.008699  1
  Rh  Rh27  1  0.000000  0.832452  0.008699  1
  Rh  Rh28  1  0.500000  0.295311  0.430757  1
  Rh  Rh29  1  0.500000  0.704689  0.430757  1
  Rh  Rh30  1  0.000000  0.204689  0.569243  1
  Rh  Rh31  1  0.000000  0.795311  0.569243  1
  Rh  Rh32  1  0.500000  0.873777  0.711088  1
  Rh  Rh33  1  0.500000  0.126223  0.711088  1
  Rh  Rh34  1  0.000000  0.626223  0.288912  1
  Rh  Rh35  1  0.000000  0.373777  0.288912  1
