# generated using pymatgen
data_Ce(TmSi2)2
_symmetry_space_group_name_H-M   'P 1'
_cell_length_a   3.89165819
_cell_length_b   4.19012035
_cell_length_c   9.11522720
_cell_angle_alpha   76.71266323
_cell_angle_beta   77.67720328
_cell_angle_gamma   90.00008334
_symmetry_Int_Tables_number   1
_chemical_formula_structural   Ce(TmSi2)2
_chemical_formula_sum   'Ce1 Tm2 Si4'
_cell_volume   141.13750058
_cell_formula_units_Z   1
loop_
 _symmetry_equiv_pos_site_id
 _symmetry_equiv_pos_as_xyz
  1  'x, y, z'
loop_
 _atom_site_type_symbol
 _atom_site_label
 _atom_site_symmetry_multiplicity
 _atom_site_fract_x
 _atom_site_fract_y
 _atom_site_fract_z
 _atom_site_occupancy
  Ce  Ce0  1  0.000021  0.000004  0.999999  1
  Tm  Tm1  1  0.684006  0.184008  0.631986  1
  Tm  Tm2  1  0.315987  0.815988  0.368015  1
  Si  Si3  1  0.850558  0.350574  0.298828  1
  Si  Si4  1  0.149424  0.649420  0.701172  1
  Si  Si5  1  0.567094  0.567101  0.865828  1
  Si  Si6  1  0.432912  0.432905  0.134171  1
