# generated using pymatgen
data_TbYb3(Y4Ir3)4
_symmetry_space_group_name_H-M   'P 1'
_cell_length_a   6.34216516
_cell_length_b   10.94538707
_cell_length_c   10.94498922
_cell_angle_alpha   89.99708022
_cell_angle_beta   89.97734023
_cell_angle_gamma   90.01241593
_symmetry_Int_Tables_number   1
_chemical_formula_structural   TbYb3(Y4Ir3)4
_chemical_formula_sum   'Tb1 Yb3 Y16 Ir12'
_cell_volume   759.77319129
_cell_formula_units_Z   1
loop_
 _symmetry_equiv_pos_site_id
 _symmetry_equiv_pos_as_xyz
  1  'x, y, z'
loop_
 _atom_site_type_symbol
 _atom_site_label
 _atom_site_symmetry_multiplicity
 _atom_site_fract_x
 _atom_site_fract_y
 _atom_site_fract_z
 _atom_site_occupancy
  Tb  Tb0  1  0.379926  0.840592  0.541824  1
  Yb  Yb1  1  0.999898  0.750036  0.249975  1
  Yb  Yb2  1  0.000065  0.249996  0.749955  1
  Yb  Yb3  1  0.499999  0.249991  0.750013  1
  Y  Y4  1  0.878881  0.662556  0.539036  1
  Y  Y5  1  0.878962  0.837348  0.960870  1
  Y  Y6  1  0.379757  0.659476  0.958317  1
  Y  Y7  1  0.879564  0.540410  0.836911  1
  Y  Y8  1  0.380173  0.960343  0.839865  1
  Y  Y9  1  0.379985  0.539586  0.660389  1
  Y  Y10  1  0.879308  0.959805  0.663161  1
  Y  Y11  1  0.619931  0.160371  0.460150  1
  Y  Y12  1  0.120595  0.336705  0.459736  1
  Y  Y13  1  0.120741  0.163176  0.040316  1
  Y  Y14  1  0.619888  0.339678  0.039845  1
  Y  Y15  1  0.121093  0.460964  0.162539  1
  Y  Y16  1  0.620339  0.041858  0.159568  1
  Y  Y17  1  0.620522  0.458063  0.340375  1
  Y  Y18  1  0.120880  0.038975  0.337460  1
  Y  Y19  1  0.500164  0.749991  0.249860  1
  Ir  Ir20  1  0.252965  0.905059  0.094448  1
  Ir  Ir21  1  0.746960  0.594466  0.095021  1
  Ir  Ir22  1  0.746522  0.905535  0.405258  1
  Ir  Ir23  1  0.253201  0.595084  0.405718  1
  Ir  Ir24  1  0.752661  0.091877  0.906883  1
  Ir  Ir25  1  0.247483  0.407044  0.908096  1
  Ir  Ir26  1  0.247809  0.092700  0.591858  1
  Ir  Ir27  1  0.752424  0.408089  0.593076  1
  Ir  Ir28  1  0.121600  0.750045  0.749749  1
  Ir  Ir29  1  0.621181  0.750122  0.749748  1
  Ir  Ir30  1  0.878676  0.250022  0.249987  1
  Ir  Ir31  1  0.377851  0.250039  0.249994  1
