# generated using pymatgen
data_Nd4Al18MoPd5
_symmetry_space_group_name_H-M   'P 1'
_cell_length_a   7.70539095
_cell_length_b   7.70539115
_cell_length_c   9.70766211
_cell_angle_alpha   89.75754535
_cell_angle_beta   89.75755076
_cell_angle_gamma   119.02193799
_symmetry_Int_Tables_number   1
_chemical_formula_structural   Nd4Al18MoPd5
_chemical_formula_sum   'Nd4 Al18 Mo1 Pd5'
_cell_volume   503.98308155
_cell_formula_units_Z   1
loop_
 _symmetry_equiv_pos_site_id
 _symmetry_equiv_pos_as_xyz
  1  'x, y, z'
loop_
 _atom_site_type_symbol
 _atom_site_label
 _atom_site_symmetry_multiplicity
 _atom_site_fract_x
 _atom_site_fract_y
 _atom_site_fract_z
 _atom_site_occupancy
  Nd  Nd0  1  0.995333  0.675606  0.249091  1
  Nd  Nd1  1  0.004667  0.324394  0.750909  1
  Nd  Nd2  1  0.675606  0.995333  0.249091  1
  Nd  Nd3  1  0.324394  0.004667  0.750909  1
  Al  Al4  1  0.136404  0.136404  0.247886  1
  Al  Al5  1  0.863596  0.863596  0.752114  1
  Al  Al6  1  0.004623  0.333931  0.073870  1
  Al  Al7  1  0.995377  0.666069  0.926130  1
  Al  Al8  1  0.996021  0.661879  0.576709  1
  Al  Al9  1  0.338121  0.003979  0.423291  1
  Al  Al10  1  0.003979  0.338121  0.423291  1
  Al  Al11  1  0.661879  0.996021  0.576709  1
  Al  Al12  1  0.666069  0.995377  0.926130  1
  Al  Al13  1  0.333931  0.004623  0.073870  1
  Al  Al14  1  0.335188  0.335188  0.550350  1
  Al  Al15  1  0.664812  0.664812  0.449650  1
  Al  Al16  1  0.667091  0.667091  0.047796  1
  Al  Al17  1  0.332909  0.332909  0.952204  1
  Al  Al18  1  0.343233  0.548307  0.250244  1
  Al  Al19  1  0.656767  0.451693  0.749756  1
  Al  Al20  1  0.548307  0.343233  0.250244  1
  Al  Al21  1  0.451693  0.656767  0.749756  1
  Mo  Mo22  1  0.000000  0.000000  0.000000  1
  Pd  Pd23  1  0.671759  0.328241  0.000000  1
  Pd  Pd24  1  0.328241  0.671759  0.000000  1
  Pd  Pd25  1  0.328471  0.671529  0.500000  1
  Pd  Pd26  1  0.671529  0.328471  0.500000  1
  Pd  Pd27  1  0.000000  0.000000  0.500000  1
