# generated using pymatgen
data_Tb4Ho4Sc12GaSi15
_symmetry_space_group_name_H-M   'P 1'
_cell_length_a   7.11054966
_cell_length_b   7.39968529
_cell_length_c   14.03921153
_cell_angle_alpha   89.93162937
_cell_angle_beta   89.98059513
_cell_angle_gamma   90.03016167
_symmetry_Int_Tables_number   1
_chemical_formula_structural   Tb4Ho4Sc12GaSi15
_chemical_formula_sum   'Tb4 Ho4 Sc12 Ga1 Si15'
_cell_volume   738.68409265
_cell_formula_units_Z   1
loop_
 _symmetry_equiv_pos_site_id
 _symmetry_equiv_pos_as_xyz
  1  'x, y, z'
loop_
 _atom_site_type_symbol
 _atom_site_label
 _atom_site_symmetry_multiplicity
 _atom_site_fract_x
 _atom_site_fract_y
 _atom_site_fract_z
 _atom_site_occupancy
  Tb  Tb0  1  0.011639  0.175104  0.097177  1
  Tb  Tb1  1  0.987942  0.825267  0.903556  1
  Tb  Tb2  1  0.487831  0.675870  0.903794  1
  Tb  Tb3  1  0.987436  0.826758  0.597202  1
  Ho  Ho4  1  0.511980  0.323901  0.097286  1
  Ho  Ho5  1  0.010816  0.174083  0.400940  1
  Ho  Ho6  1  0.512751  0.323062  0.401439  1
  Ho  Ho7  1  0.489928  0.678802  0.597622  1
  Sc  Sc8  1  0.161176  0.502474  0.751402  1
  Sc  Sc9  1  0.839453  0.497795  0.249893  1
  Sc  Sc10  1  0.338868  0.002502  0.249789  1
  Sc  Sc11  1  0.661966  0.996715  0.750108  1
  Sc  Sc12  1  0.333282  0.173833  0.625979  1
  Sc  Sc13  1  0.668029  0.823897  0.374077  1
  Sc  Sc14  1  0.170073  0.677185  0.373225  1
  Sc  Sc15  1  0.669084  0.823396  0.125593  1
  Sc  Sc16  1  0.828315  0.323598  0.625150  1
  Sc  Sc17  1  0.330486  0.176080  0.875094  1
  Sc  Sc18  1  0.830041  0.323451  0.875180  1
  Sc  Sc19  1  0.169279  0.676605  0.125677  1
  Ga  Ga20  1  0.161149  0.461334  0.538924  1
  Si  Si21  1  0.034253  0.119221  0.750610  1
  Si  Si22  1  0.966078  0.882895  0.249882  1
  Si  Si23  1  0.467797  0.615132  0.250003  1
  Si  Si24  1  0.532402  0.384666  0.749536  1
  Si  Si25  1  0.285241  0.873644  0.750140  1
  Si  Si26  1  0.713667  0.127315  0.249755  1
  Si  Si27  1  0.214739  0.372287  0.249738  1
  Si  Si28  1  0.785493  0.626293  0.750430  1
  Si  Si29  1  0.841341  0.535272  0.459893  1
  Si  Si30  1  0.341364  0.964524  0.459801  1
  Si  Si31  1  0.841693  0.535309  0.039072  1
  Si  Si32  1  0.657047  0.036272  0.538506  1
  Si  Si33  1  0.157308  0.463774  0.962161  1
  Si  Si34  1  0.656688  0.036397  0.961225  1
  Si  Si35  1  0.343364  0.965293  0.040139  1
