# generated using pymatgen
data_Dy16YHo3(CoBi2)4
_symmetry_space_group_name_H-M   'P 1'
_cell_length_a   7.99515945
_cell_length_b   8.88313016
_cell_length_c   12.40583220
_cell_angle_alpha   90.02065973
_cell_angle_beta   89.98174814
_cell_angle_gamma   89.99398860
_symmetry_Int_Tables_number   1
_chemical_formula_structural   Dy16YHo3(CoBi2)4
_chemical_formula_sum   'Dy16 Y1 Ho3 Co4 Bi8'
_cell_volume   881.08742887
_cell_formula_units_Z   1
loop_
 _symmetry_equiv_pos_site_id
 _symmetry_equiv_pos_as_xyz
  1  'x, y, z'
loop_
 _atom_site_type_symbol
 _atom_site_label
 _atom_site_symmetry_multiplicity
 _atom_site_fract_x
 _atom_site_fract_y
 _atom_site_fract_z
 _atom_site_occupancy
  Dy  Dy0  1  0.653429  0.249962  0.300239  1
  Dy  Dy1  1  0.846760  0.249934  0.800335  1
  Dy  Dy2  1  0.153392  0.750051  0.199803  1
  Dy  Dy3  1  0.884598  0.750106  0.810718  1
  Dy  Dy4  1  0.115088  0.249890  0.189351  1
  Dy  Dy5  1  0.384922  0.249960  0.689359  1
  Dy  Dy6  1  0.615345  0.750065  0.310325  1
  Dy  Dy7  1  0.676097  0.537817  0.562827  1
  Dy  Dy8  1  0.324001  0.462157  0.436864  1
  Dy  Dy9  1  0.175995  0.462092  0.936909  1
  Dy  Dy10  1  0.324139  0.037831  0.436895  1
  Dy  Dy11  1  0.824137  0.537974  0.063209  1
  Dy  Dy12  1  0.051742  0.750034  0.497756  1
  Dy  Dy13  1  0.947786  0.249958  0.501867  1
  Dy  Dy14  1  0.552258  0.249926  0.002231  1
  Dy  Dy15  1  0.447876  0.750080  0.998239  1
  Y  Y16  1  0.346107  0.750055  0.700951  1
  Ho  Ho17  1  0.675798  0.962163  0.562783  1
  Ho  Ho18  1  0.824637  0.962065  0.063152  1
  Ho  Ho19  1  0.175484  0.037935  0.936986  1
  Co  Co20  1  0.065901  0.750216  0.991674  1
  Co  Co21  1  0.934147  0.249779  0.008283  1
  Co  Co22  1  0.565936  0.249899  0.508298  1
  Co  Co23  1  0.434637  0.750115  0.490834  1
  Bi  Bi24  1  0.572299  0.509439  0.826783  1
  Bi  Bi25  1  0.427881  0.490230  0.173516  1
  Bi  Bi26  1  0.071780  0.490221  0.673325  1
  Bi  Bi27  1  0.428018  0.009738  0.173459  1
  Bi  Bi28  1  0.927966  0.509564  0.326475  1
  Bi  Bi29  1  0.572191  0.990565  0.826781  1
  Bi  Bi30  1  0.927955  0.990432  0.326439  1
  Bi  Bi31  1  0.071694  0.009747  0.673334  1
