# generated using pymatgen
data_Ba5Bi3H
_symmetry_space_group_name_H-M   'P 1'
_cell_length_a   10.27739500
_cell_length_b   10.27739648
_cell_length_c   7.81872100
_cell_angle_alpha   90.00000000
_cell_angle_beta   90.00000000
_cell_angle_gamma   120.00000489
_symmetry_Int_Tables_number   1
_chemical_formula_structural   Ba5Bi3H
_chemical_formula_sum   'Ba10 Bi6 H2'
_cell_volume   715.20820165
_cell_formula_units_Z   2
loop_
 _symmetry_equiv_pos_site_id
 _symmetry_equiv_pos_as_xyz
  1  'x, y, z'
loop_
 _atom_site_type_symbol
 _atom_site_label
 _atom_site_symmetry_multiplicity
 _atom_site_fract_x
 _atom_site_fract_y
 _atom_site_fract_z
 _atom_site_occupancy
  Ba  Ba0  1  0.756823  0.756823  0.250000  1
  Ba  Ba1  1  0.756823  0.000000  0.750000  1
  Ba  Ba2  1  0.000000  0.243177  0.250000  1
  Ba  Ba3  1  0.000000  0.756823  0.750000  1
  Ba  Ba4  1  0.243177  0.243177  0.750000  1
  Ba  Ba5  1  0.243177  0.000000  0.250000  1
  Ba  Ba6  1  0.333333  0.666667  0.500000  1
  Ba  Ba7  1  0.666667  0.333333  0.000000  1
  Ba  Ba8  1  0.666667  0.333333  0.500000  1
  Ba  Ba9  1  0.333333  0.666667  0.000000  1
  Bi  Bi10  1  0.393052  0.000000  0.750000  1
  Bi  Bi11  1  0.393052  0.393052  0.250000  1
  Bi  Bi12  1  0.000000  0.606948  0.250000  1
  Bi  Bi13  1  0.000000  0.393052  0.750000  1
  Bi  Bi14  1  0.606948  0.606948  0.750000  1
  Bi  Bi15  1  0.606948  0.000000  0.250000  1
  H  H16  1  0.000000  0.000000  0.500000  1
  H  H17  1  0.000000  0.000000  0.000000  1
