# generated using pymatgen
data_Ho3Er5B24Rh3W
_symmetry_space_group_name_H-M   'P 1'
_cell_length_a   3.64601600
_cell_length_b   9.15507813
_cell_length_c   11.52407100
_cell_angle_alpha   90.24572686
_cell_angle_beta   90.00000000
_cell_angle_gamma   90.00000000
_symmetry_Int_Tables_number   1
_chemical_formula_structural   Ho3Er5B24Rh3W
_chemical_formula_sum   'Ho3 Er5 B24 Rh3 W1'
_cell_volume   384.66489748
_cell_formula_units_Z   1
loop_
 _symmetry_equiv_pos_site_id
 _symmetry_equiv_pos_as_xyz
  1  'x, y, z'
loop_
 _atom_site_type_symbol
 _atom_site_label
 _atom_site_symmetry_multiplicity
 _atom_site_fract_x
 _atom_site_fract_y
 _atom_site_fract_z
 _atom_site_occupancy
  Ho  Ho0  1  0.500000  0.318860  0.410703  1
  Ho  Ho1  1  0.500000  0.676627  0.584930  1
  Ho  Ho2  1  0.500000  0.178789  0.916562  1
  Er  Er3  1  0.500000  0.823468  0.086718  1
  Er  Er4  1  0.500000  0.445716  0.125476  1
  Er  Er5  1  0.500000  0.557701  0.871524  1
  Er  Er6  1  0.500000  0.055940  0.629318  1
  Er  Er7  1  0.500000  0.944137  0.374556  1
  B  B8  1  0.000000  0.106237  0.472952  1
  B  B9  1  0.000000  0.892011  0.530663  1
  B  B10  1  0.000000  0.395710  0.969059  1
  B  B11  1  0.000000  0.609073  0.028355  1
  B  B12  1  0.000000  0.131720  0.317352  1
  B  B13  1  0.000000  0.866781  0.683950  1
  B  B14  1  0.000000  0.368831  0.815990  1
  B  B15  1  0.000000  0.633230  0.183535  1
  B  B16  1  0.000000  0.051365  0.064597  1
  B  B17  1  0.000000  0.946518  0.933172  1
  B  B18  1  0.000000  0.444847  0.565506  1
  B  B19  1  0.000000  0.552688  0.433600  1
  B  B20  1  0.000000  0.483395  0.287132  1
  B  B21  1  0.000000  0.517195  0.711878  1
  B  B22  1  0.000000  0.017375  0.787786  1
  B  B23  1  0.000000  0.979231  0.214122  1
  B  B24  1  0.000000  0.251546  0.078396  1
  B  B25  1  0.000000  0.751608  0.919667  1
  B  B26  1  0.000000  0.249880  0.579636  1
  B  B27  1  0.000000  0.748322  0.420991  1
  B  B28  1  0.000000  0.295630  0.235923  1
  B  B29  1  0.000000  0.706607  0.763581  1
  B  B30  1  0.000000  0.208085  0.736057  1
  B  B31  1  0.000000  0.791758  0.266043  1
  Rh  Rh32  1  0.500000  0.861298  0.820824  1
  Rh  Rh33  1  0.500000  0.361166  0.679266  1
  Rh  Rh34  1  0.500000  0.638694  0.321069  1
  W  W35  1  0.500000  0.137960  0.179110  1
