# generated using pymatgen
data_Ho3ThCoAu
_symmetry_space_group_name_H-M   'P 1'
_cell_length_a   9.40272003
_cell_length_b   9.40271959
_cell_length_c   9.40272000
_cell_angle_alpha   60.00000558
_cell_angle_beta   60.00000715
_cell_angle_gamma   60.00000726
_symmetry_Int_Tables_number   1
_chemical_formula_structural   Ho3ThCoAu
_chemical_formula_sum   'Ho12 Th4 Co4 Au4'
_cell_volume   587.82162770
_cell_formula_units_Z   4
loop_
 _symmetry_equiv_pos_site_id
 _symmetry_equiv_pos_as_xyz
  1  'x, y, z'
loop_
 _atom_site_type_symbol
 _atom_site_label
 _atom_site_symmetry_multiplicity
 _atom_site_fract_x
 _atom_site_fract_y
 _atom_site_fract_z
 _atom_site_occupancy
  Ho  Ho0  1  0.810238  0.189762  0.189762  1
  Ho  Ho1  1  0.189762  0.810238  0.810238  1
  Ho  Ho2  1  0.189762  0.810238  0.189762  1
  Ho  Ho3  1  0.810238  0.189762  0.810238  1
  Ho  Ho4  1  0.189762  0.189762  0.810238  1
  Ho  Ho5  1  0.810238  0.810238  0.189762  1
  Ho  Ho6  1  0.934532  0.565468  0.565468  1
  Ho  Ho7  1  0.565468  0.934532  0.934532  1
  Ho  Ho8  1  0.565468  0.934532  0.565468  1
  Ho  Ho9  1  0.934532  0.565468  0.934532  1
  Ho  Ho10  1  0.565468  0.565468  0.934532  1
  Ho  Ho11  1  0.934532  0.934532  0.565468  1
  Th  Th12  1  0.348501  0.348501  0.348501  1
  Th  Th13  1  0.348501  0.348501  0.954500  1
  Th  Th14  1  0.348501  0.954500  0.348501  1
  Th  Th15  1  0.954500  0.348501  0.348501  1
  Co  Co16  1  0.143881  0.143881  0.143881  1
  Co  Co17  1  0.143881  0.143881  0.568356  1
  Co  Co18  1  0.143881  0.568356  0.143881  1
  Co  Co19  1  0.568356  0.143881  0.143881  1
  Au  Au20  1  0.586753  0.586753  0.586753  1
  Au  Au21  1  0.586753  0.586753  0.239739  1
  Au  Au22  1  0.586753  0.239739  0.586753  1
  Au  Au23  1  0.239739  0.586753  0.586753  1
