# generated using pymatgen
data_PaInCo(Ni10B3)2
_symmetry_space_group_name_H-M   'P 1'
_cell_length_a   7.48941242
_cell_length_b   7.51399278
_cell_length_c   7.51399200
_cell_angle_alpha   59.99999464
_cell_angle_beta   59.89136694
_cell_angle_gamma   59.89136790
_symmetry_Int_Tables_number   1
_chemical_formula_structural   PaInCo(Ni10B3)2
_chemical_formula_sum   'Pa1 In1 Co1 Ni20 B6'
_cell_volume   298.51019980
_cell_formula_units_Z   1
loop_
 _symmetry_equiv_pos_site_id
 _symmetry_equiv_pos_as_xyz
  1  'x, y, z'
loop_
 _atom_site_type_symbol
 _atom_site_label
 _atom_site_symmetry_multiplicity
 _atom_site_fract_x
 _atom_site_fract_y
 _atom_site_fract_z
 _atom_site_occupancy
  Pa  Pa0  1  0.242167  0.252611  0.252611  1
  In  In1  1  0.749561  0.750146  0.750146  1
  Co  Co2  1  0.847023  0.384326  0.384326  1
  Ni  Ni3  1  0.156455  0.614515  0.614515  1
  Ni  Ni4  1  0.613550  0.614152  0.614152  1
  Ni  Ni5  1  0.613550  0.614152  0.158146  1
  Ni  Ni6  1  0.386235  0.838865  0.387450  1
  Ni  Ni7  1  0.661915  0.335748  0.001168  1
  Ni  Ni8  1  0.000883  0.336065  0.663041  1
  Ni  Ni9  1  0.386235  0.387450  0.387450  1
  Ni  Ni10  1  0.000883  0.000012  0.336065  1
  Ni  Ni11  1  0.000883  0.000012  0.663041  1
  Ni  Ni12  1  0.000883  0.336065  0.000012  1
  Ni  Ni13  1  0.661915  0.001168  0.335748  1
  Ni  Ni14  1  0.338133  0.999871  0.999871  1
  Ni  Ni15  1  0.000883  0.663041  0.000012  1
  Ni  Ni16  1  0.338133  0.999871  0.662124  1
  Ni  Ni17  1  0.000883  0.663041  0.336065  1
  Ni  Ni18  1  0.338133  0.662124  0.999871  1
  Ni  Ni19  1  0.613550  0.158146  0.614152  1
  Ni  Ni20  1  0.000997  0.999668  0.999668  1
  Ni  Ni21  1  0.661915  0.001168  0.001168  1
  Ni  Ni22  1  0.386235  0.387450  0.838865  1
  B  B23  1  0.730083  0.725702  0.272108  1
  B  B24  1  0.730083  0.272108  0.725702  1
  B  B25  1  0.269583  0.730330  0.730330  1
  B  B26  1  0.269583  0.269757  0.730330  1
  B  B27  1  0.269583  0.730330  0.269757  1
  B  B28  1  0.730083  0.272108  0.272108  1
