# generated using pymatgen
data_Li3Y2PaPt3
_symmetry_space_group_name_H-M   'P 1'
_cell_length_a   7.28730200
_cell_length_b   7.12314522
_cell_length_c   4.00017300
_cell_angle_alpha   90.00000000
_cell_angle_beta   90.00000000
_cell_angle_gamma   120.76531426
_symmetry_Int_Tables_number   1
_chemical_formula_structural   Li3Y2PaPt3
_chemical_formula_sum   'Li3 Y2 Pa1 Pt3'
_cell_volume   178.42136124
_cell_formula_units_Z   1
loop_
 _symmetry_equiv_pos_site_id
 _symmetry_equiv_pos_as_xyz
  1  'x, y, z'
loop_
 _atom_site_type_symbol
 _atom_site_label
 _atom_site_symmetry_multiplicity
 _atom_site_fract_x
 _atom_site_fract_y
 _atom_site_fract_z
 _atom_site_occupancy
  Li  Li0  1  0.773018  0.000000  0.000000  1
  Li  Li1  1  0.239356  0.244999  0.000000  1
  Li  Li2  1  0.994359  0.755001  0.000000  1
  Y  Y3  1  0.993487  0.400845  0.500000  1
  Y  Y4  1  0.592642  0.599155  0.500000  1
  Pa  Pa5  1  0.409775  0.000000  0.500000  1
  Pt  Pt6  1  0.018645  0.000000  0.500000  1
  Pt  Pt7  1  0.647047  0.315374  0.000000  1
  Pt  Pt8  1  0.331671  0.684626  0.000000  1
