# generated using pymatgen
data_Rb(RhSe2)4
_symmetry_space_group_name_H-M   'P 1'
_cell_length_a   3.81884584
_cell_length_b   8.37375574
_cell_length_c   9.49138600
_cell_angle_alpha   80.72447093
_cell_angle_beta   78.39434907
_cell_angle_gamma   76.81919494
_symmetry_Int_Tables_number   1
_chemical_formula_structural   Rb(RhSe2)4
_chemical_formula_sum   'Rb1 Rh4 Se8'
_cell_volume   287.35503980
_cell_formula_units_Z   1
loop_
 _symmetry_equiv_pos_site_id
 _symmetry_equiv_pos_as_xyz
  1  'x, y, z'
loop_
 _atom_site_type_symbol
 _atom_site_label
 _atom_site_symmetry_multiplicity
 _atom_site_fract_x
 _atom_site_fract_y
 _atom_site_fract_z
 _atom_site_occupancy
  Rb  Rb0  1  0.499601  0.000099  0.000698  1
  Rh  Rh1  1  0.634023  0.197422  0.534532  1
  Rh  Rh2  1  0.839220  0.501481  0.820076  1
  Rh  Rh3  1  0.161161  0.497743  0.179936  1
  Rh  Rh4  1  0.365884  0.803364  0.464867  1
  Se  Se5  1  0.456278  0.324909  0.762536  1
  Se  Se6  1  0.544149  0.674458  0.237243  1
  Se  Se7  1  0.897771  0.634702  0.569757  1
  Se  Se8  1  0.101790  0.365960  0.430460  1
  Se  Se9  1  0.213385  0.652863  0.920366  1
  Se  Se10  1  0.786982  0.346184  0.079854  1
  Se  Se11  1  0.827764  0.988412  0.356059  1
  Se  Se12  1  0.171992  0.012403  0.643612  1
