# generated using pymatgen
data_Tb2ZrSc(Al3Rh)6
_symmetry_space_group_name_H-M   'P 1'
_cell_length_a   7.52167801
_cell_length_b   7.51748359
_cell_length_c   9.38989300
_cell_angle_alpha   90.00000000
_cell_angle_beta   90.00000000
_cell_angle_gamma   119.52968337
_symmetry_Int_Tables_number   1
_chemical_formula_structural   Tb2ZrSc(Al3Rh)6
_chemical_formula_sum   'Tb2 Zr1 Sc1 Al18 Rh6'
_cell_volume   461.97372215
_cell_formula_units_Z   1
loop_
 _symmetry_equiv_pos_site_id
 _symmetry_equiv_pos_as_xyz
  1  'x, y, z'
loop_
 _atom_site_type_symbol
 _atom_site_label
 _atom_site_symmetry_multiplicity
 _atom_site_fract_x
 _atom_site_fract_y
 _atom_site_fract_z
 _atom_site_occupancy
  Tb  Tb0  1  0.006273  0.327520  0.750000  1
  Tb  Tb1  1  0.328984  0.007111  0.750000  1
  Zr  Zr2  1  0.995605  0.672130  0.250000  1
  Sc  Sc3  1  0.672734  0.995518  0.250000  1
  Al  Al4  1  0.120289  0.119188  0.250000  1
  Al  Al5  1  0.869331  0.869013  0.750000  1
  Al  Al6  1  0.996459  0.335290  0.083480  1
  Al  Al7  1  0.998808  0.664783  0.929888  1
  Al  Al8  1  0.998808  0.664783  0.570112  1
  Al  Al9  1  0.335653  0.997027  0.416531  1
  Al  Al10  1  0.996459  0.335290  0.416520  1
  Al  Al11  1  0.664571  0.998164  0.570254  1
  Al  Al12  1  0.664571  0.998164  0.929746  1
  Al  Al13  1  0.335653  0.997027  0.083469  1
  Al  Al14  1  0.334016  0.334178  0.544501  1
  Al  Al15  1  0.670134  0.670244  0.438883  1
  Al  Al16  1  0.670134  0.670244  0.061117  1
  Al  Al17  1  0.334016  0.334178  0.955499  1
  Al  Al18  1  0.338804  0.557097  0.250000  1
  Al  Al19  1  0.660160  0.451395  0.750000  1
  Al  Al20  1  0.558802  0.342658  0.250000  1
  Al  Al21  1  0.450678  0.659713  0.750000  1
  Rh  Rh22  1  0.672877  0.328072  0.002174  1
  Rh  Rh23  1  0.327604  0.672763  0.002493  1
  Rh  Rh24  1  0.327604  0.672763  0.497507  1
  Rh  Rh25  1  0.672877  0.328072  0.497826  1
  Rh  Rh26  1  0.999049  0.998806  0.002084  1
  Rh  Rh27  1  0.999049  0.998806  0.497916  1
