# generated using pymatgen
data_Er20IrRu4Pt7
_symmetry_space_group_name_H-M   'P 1'
_cell_length_a   10.87042674
_cell_length_b   10.87042674
_cell_length_c   6.39242360
_cell_angle_alpha   89.96511805
_cell_angle_beta   89.96511805
_cell_angle_gamma   90.24197706
_symmetry_Int_Tables_number   1
_chemical_formula_structural   Er20IrRu4Pt7
_chemical_formula_sum   'Er20 Ir1 Ru4 Pt7'
_cell_volume   755.36124371
_cell_formula_units_Z   1
loop_
 _symmetry_equiv_pos_site_id
 _symmetry_equiv_pos_as_xyz
  1  'x, y, z'
loop_
 _atom_site_type_symbol
 _atom_site_label
 _atom_site_symmetry_multiplicity
 _atom_site_fract_x
 _atom_site_fract_y
 _atom_site_fract_z
 _atom_site_occupancy
  Er  Er0  1  0.296810  0.085291  0.374324  1
  Er  Er1  1  0.296620  0.911297  0.873787  1
  Er  Er2  1  0.703397  0.085631  0.873861  1
  Er  Er3  1  0.703255  0.914341  0.373755  1
  Er  Er4  1  0.583208  0.795306  0.873050  1
  Er  Er5  1  0.585798  0.203853  0.374794  1
  Er  Er6  1  0.412908  0.794312  0.377554  1
  Er  Er7  1  0.414131  0.202955  0.874288  1
  Er  Er8  1  0.204694  0.416792  0.626950  1
  Er  Er9  1  0.205688  0.587092  0.122446  1
  Er  Er10  1  0.796147  0.414202  0.125206  1
  Er  Er11  1  0.797045  0.585869  0.625712  1
  Er  Er12  1  0.914709  0.703190  0.125676  1
  Er  Er13  1  0.914369  0.296603  0.626139  1
  Er  Er14  1  0.088703  0.703380  0.626213  1
  Er  Er15  1  0.085659  0.296745  0.126245  1
  Er  Er16  1  0.999961  0.999743  0.500131  1
  Er  Er17  1  0.000257  0.000039  0.999869  1
  Er  Er18  1  0.498341  0.501572  0.998973  1
  Er  Er19  1  0.498428  0.501659  0.501027  1
  Ir  Ir20  1  0.347129  0.652871  0.750000  1
  Ru  Ru21  1  0.500404  0.000474  0.126260  1
  Ru  Ru22  1  0.500123  0.000242  0.625501  1
  Ru  Ru23  1  0.999758  0.499877  0.874499  1
  Ru  Ru24  1  0.999526  0.499596  0.373740  1
  Pt  Pt25  1  0.846732  0.153268  0.250000  1
  Pt  Pt26  1  0.846370  0.846682  0.750306  1
  Pt  Pt27  1  0.153318  0.153630  0.749694  1
  Pt  Pt28  1  0.152861  0.847139  0.250000  1
  Pt  Pt29  1  0.653182  0.346818  0.750000  1
  Pt  Pt30  1  0.654000  0.653534  0.250225  1
  Pt  Pt31  1  0.346466  0.346000  0.249775  1
