# generated using pymatgen
data_Pr11Hg9Pt4
_symmetry_space_group_name_H-M   'P 1'
_cell_length_a   13.60345697
_cell_length_b   13.60345577
_cell_length_c   3.83759600
_cell_angle_alpha   90.00000000
_cell_angle_beta   90.00000000
_cell_angle_gamma   113.11574111
_symmetry_Int_Tables_number   1
_chemical_formula_structural   Pr11Hg9Pt4
_chemical_formula_sum   'Pr11 Hg9 Pt4'
_cell_volume   653.14624197
_cell_formula_units_Z   1
loop_
 _symmetry_equiv_pos_site_id
 _symmetry_equiv_pos_as_xyz
  1  'x, y, z'
loop_
 _atom_site_type_symbol
 _atom_site_label
 _atom_site_symmetry_multiplicity
 _atom_site_fract_x
 _atom_site_fract_y
 _atom_site_fract_z
 _atom_site_occupancy
  Pr  Pr0  1  0.500000  0.500000  0.500000  1
  Pr  Pr1  1  0.805502  0.805502  0.500000  1
  Pr  Pr2  1  0.194498  0.194498  0.500000  1
  Pr  Pr3  1  0.576877  0.917423  0.500000  1
  Pr  Pr4  1  0.423123  0.082577  0.500000  1
  Pr  Pr5  1  0.917423  0.576877  0.500000  1
  Pr  Pr6  1  0.082577  0.423123  0.500000  1
  Pr  Pr7  1  0.126248  0.873752  0.500000  1
  Pr  Pr8  1  0.873752  0.126248  0.500000  1
  Pr  Pr9  1  0.333126  0.666874  0.500000  1
  Pr  Pr10  1  0.666874  0.333126  0.500000  1
  Hg  Hg11  1  0.341072  0.867208  0.000000  1
  Hg  Hg12  1  0.658928  0.132792  0.000000  1
  Hg  Hg13  1  0.867208  0.341072  0.000000  1
  Hg  Hg14  1  0.132792  0.658928  0.000000  1
  Hg  Hg15  1  0.565360  0.712451  0.000000  1
  Hg  Hg16  1  0.434640  0.287549  0.000000  1
  Hg  Hg17  1  0.712451  0.565360  0.000000  1
  Hg  Hg18  1  0.287549  0.434640  0.000000  1
  Hg  Hg19  1  0.000000  0.000000  0.000000  1
  Pt  Pt20  1  0.749868  0.950035  0.000000  1
  Pt  Pt21  1  0.250132  0.049965  0.000000  1
  Pt  Pt22  1  0.950035  0.749868  0.000000  1
  Pt  Pt23  1  0.049965  0.250132  0.000000  1
