# generated using pymatgen
data_K2UAg3S5
_symmetry_space_group_name_H-M   'P 1'
_cell_length_a   4.21788100
_cell_length_b   7.38689461
_cell_length_c   18.80830400
_cell_angle_alpha   90.00000000
_cell_angle_beta   90.00000000
_cell_angle_gamma   73.41141069
_symmetry_Int_Tables_number   1
_chemical_formula_structural   K2UAg3S5
_chemical_formula_sum   'K4 U2 Ag6 S10'
_cell_volume   561.62102082
_cell_formula_units_Z   2
loop_
 _symmetry_equiv_pos_site_id
 _symmetry_equiv_pos_as_xyz
  1  'x, y, z'
loop_
 _atom_site_type_symbol
 _atom_site_label
 _atom_site_symmetry_multiplicity
 _atom_site_fract_x
 _atom_site_fract_y
 _atom_site_fract_z
 _atom_site_occupancy
  K  K0  1  0.764116  0.471770  0.133674  1
  K  K1  1  0.764116  0.471770  0.366326  1
  K  K2  1  0.235884  0.528231  0.633674  1
  K  K3  1  0.235884  0.528231  0.866326  1
  U  U4  1  0.500000  0.000000  0.000000  1
  U  U5  1  0.500000  0.000000  0.500000  1
  Ag  Ag6  1  0.045557  0.908884  0.144175  1
  Ag  Ag7  1  0.555084  0.889832  0.250000  1
  Ag  Ag8  1  0.045557  0.908884  0.355825  1
  Ag  Ag9  1  0.954443  0.091116  0.644175  1
  Ag  Ag10  1  0.444916  0.110168  0.750000  1
  Ag  Ag11  1  0.954443  0.091116  0.855825  1
  S  S12  1  0.117976  0.764050  0.021050  1
  S  S13  1  0.438062  0.123875  0.130027  1
  S  S14  1  0.164398  0.671207  0.250000  1
  S  S15  1  0.438062  0.123875  0.369973  1
  S  S16  1  0.117976  0.764050  0.478950  1
  S  S17  1  0.882025  0.235949  0.521050  1
  S  S18  1  0.561939  0.876125  0.630027  1
  S  S19  1  0.835603  0.328793  0.750000  1
  S  S20  1  0.561939  0.876125  0.869973  1
  S  S21  1  0.882025  0.235949  0.978950  1
