# generated using pymatgen
data_La13Pr7Ir12
_symmetry_space_group_name_H-M   'P 1'
_cell_length_a   11.41747266
_cell_length_b   11.43908797
_cell_length_c   6.66035711
_cell_angle_alpha   89.86008349
_cell_angle_beta   89.97722304
_cell_angle_gamma   89.84497861
_symmetry_Int_Tables_number   1
_chemical_formula_structural   La13Pr7Ir12
_chemical_formula_sum   'La13 Pr7 Ir12'
_cell_volume   869.87325448
_cell_formula_units_Z   1
loop_
 _symmetry_equiv_pos_site_id
 _symmetry_equiv_pos_as_xyz
  1  'x, y, z'
loop_
 _atom_site_type_symbol
 _atom_site_label
 _atom_site_symmetry_multiplicity
 _atom_site_fract_x
 _atom_site_fract_y
 _atom_site_fract_z
 _atom_site_occupancy
  La  La0  1  0.291483  0.092064  0.390183  1
  La  La1  1  0.291583  0.908335  0.889565  1
  La  La2  1  0.708550  0.092176  0.890985  1
  La  La3  1  0.707908  0.908531  0.391302  1
  La  La4  1  0.592476  0.791269  0.890980  1
  La  La5  1  0.592675  0.208837  0.392476  1
  La  La6  1  0.406899  0.791315  0.391287  1
  La  La7  1  0.406896  0.208964  0.891981  1
  La  La8  1  0.205562  0.408896  0.608228  1
  La  La9  1  0.207473  0.591069  0.108568  1
  La  La10  1  0.793077  0.406854  0.107957  1
  La  La11  1  0.793351  0.590197  0.607691  1
  La  La12  1  0.908672  0.709012  0.108479  1
  Pr  Pr13  1  0.909785  0.290572  0.609880  1
  Pr  Pr14  1  0.091278  0.709766  0.610328  1
  Pr  Pr15  1  0.090272  0.290384  0.110431  1
  Pr  Pr16  1  0.999315  0.999937  0.498609  1
  Pr  Pr17  1  0.000918  0.001058  0.997051  1
  Pr  Pr18  1  0.500353  0.499287  0.001983  1
  Pr  Pr19  1  0.500016  0.500205  0.502180  1
  Ir  Ir20  1  0.845374  0.152712  0.247763  1
  Ir  Ir21  1  0.845887  0.845566  0.749323  1
  Ir  Ir22  1  0.154653  0.153419  0.746218  1
  Ir  Ir23  1  0.155585  0.848006  0.247722  1
  Ir  Ir24  1  0.653859  0.345161  0.750712  1
  Ir  Ir25  1  0.654867  0.654551  0.249458  1
  Ir  Ir26  1  0.345119  0.346032  0.251478  1
  Ir  Ir27  1  0.346100  0.654286  0.750754  1
  Ir  Ir28  1  0.499622  0.000340  0.123216  1
  Ir  Ir29  1  0.500470  0.999805  0.623219  1
  Ir  Ir30  1  0.000286  0.499827  0.881573  1
  Ir  Ir31  1  0.999635  0.501567  0.378418  1
