# generated using pymatgen
data_Nd4Al3ZnPt3Rh
_symmetry_space_group_name_H-M   'P 1'
_cell_length_a   4.48187200
_cell_length_b   7.07809697
_cell_length_c   7.94770903
_cell_angle_alpha   89.59720277
_cell_angle_beta   90.00000000
_cell_angle_gamma   90.00000000
_symmetry_Int_Tables_number   1
_chemical_formula_structural   Nd4Al3ZnPt3Rh
_chemical_formula_sum   'Nd4 Al3 Zn1 Pt3 Rh1'
_cell_volume   252.11993356
_cell_formula_units_Z   1
loop_
 _symmetry_equiv_pos_site_id
 _symmetry_equiv_pos_as_xyz
  1  'x, y, z'
loop_
 _atom_site_type_symbol
 _atom_site_label
 _atom_site_symmetry_multiplicity
 _atom_site_fract_x
 _atom_site_fract_y
 _atom_site_fract_z
 _atom_site_occupancy
  Nd  Nd0  1  0.750000  0.470318  0.186175  1
  Nd  Nd1  1  0.250000  0.031366  0.681878  1
  Nd  Nd2  1  0.750000  0.975248  0.312375  1
  Nd  Nd3  1  0.250000  0.533547  0.819431  1
  Al  Al4  1  0.250000  0.638125  0.435414  1
  Al  Al5  1  0.750000  0.352347  0.565766  1
  Al  Al6  1  0.250000  0.146804  0.065010  1
  Zn  Zn7  1  0.750000  0.850685  0.929861  1
  Pt  Pt8  1  0.750000  0.716923  0.604387  1
  Pt  Pt9  1  0.750000  0.230406  0.887394  1
  Pt  Pt10  1  0.250000  0.779491  0.122745  1
  Rh  Rh11  1  0.250000  0.274740  0.389563  1
