# generated using pymatgen
data_Er3Pa5Co12
_symmetry_space_group_name_H-M   'P 1'
_cell_length_a   5.33808300
_cell_length_b   7.51195646
_cell_length_c   8.35524415
_cell_angle_alpha   89.16981676
_cell_angle_beta   90.00000000
_cell_angle_gamma   90.00000000
_symmetry_Int_Tables_number   1
_chemical_formula_structural   Er3Pa5Co12
_chemical_formula_sum   'Er3 Pa5 Co12'
_cell_volume   335.00550126
_cell_formula_units_Z   1
loop_
 _symmetry_equiv_pos_site_id
 _symmetry_equiv_pos_as_xyz
  1  'x, y, z'
loop_
 _atom_site_type_symbol
 _atom_site_label
 _atom_site_symmetry_multiplicity
 _atom_site_fract_x
 _atom_site_fract_y
 _atom_site_fract_z
 _atom_site_occupancy
  Er  Er0  1  0.750000  0.441771  0.092264  1
  Er  Er1  1  0.250000  0.060990  0.601553  1
  Er  Er2  1  0.250000  0.566209  0.893590  1
  Pa  Pa3  1  0.750000  0.902010  0.861955  1
  Pa  Pa4  1  0.750000  0.386387  0.640217  1
  Pa  Pa5  1  0.250000  0.112028  0.141410  1
  Pa  Pa6  1  0.250000  0.598463  0.352899  1
  Pa  Pa7  1  0.750000  0.924610  0.399195  1
  Co  Co8  1  0.750000  0.584096  0.384591  1
  Co  Co9  1  0.750000  0.082436  0.140971  1
  Co  Co10  1  0.250000  0.418163  0.601819  1
  Co  Co11  1  0.250000  0.922674  0.897492  1
  Co  Co12  1  0.994086  0.263759  0.366862  1
  Co  Co13  1  0.501148  0.775463  0.140494  1
  Co  Co14  1  0.504008  0.733276  0.623379  1
  Co  Co15  1  0.999092  0.227585  0.865289  1
  Co  Co16  1  0.995992  0.733276  0.623379  1
  Co  Co17  1  0.500908  0.227585  0.865289  1
  Co  Co18  1  0.505914  0.263759  0.366862  1
  Co  Co19  1  0.998852  0.775463  0.140494  1
