# generated using pymatgen
data_Nd6GdDySb20
_symmetry_space_group_name_H-M   'P 1'
_cell_length_a   4.25852300
_cell_length_b   13.48677701
_cell_length_c   15.12884600
_cell_angle_alpha   77.98193868
_cell_angle_beta   90.00000000
_cell_angle_gamma   90.00000000
_symmetry_Int_Tables_number   1
_chemical_formula_structural   Nd6GdDySb20
_chemical_formula_sum   'Nd6 Gd1 Dy1 Sb20'
_cell_volume   849.86168161
_cell_formula_units_Z   1
loop_
 _symmetry_equiv_pos_site_id
 _symmetry_equiv_pos_as_xyz
  1  'x, y, z'
loop_
 _atom_site_type_symbol
 _atom_site_label
 _atom_site_symmetry_multiplicity
 _atom_site_fract_x
 _atom_site_fract_y
 _atom_site_fract_z
 _atom_site_occupancy
  Nd  Nd0  1  0.750000  0.335505  0.142886  1
  Nd  Nd1  1  0.250000  0.949879  0.360684  1
  Nd  Nd2  1  0.250000  0.664365  0.857481  1
  Nd  Nd3  1  0.250000  0.668159  0.575981  1
  Nd  Nd4  1  0.750000  0.050258  0.639163  1
  Nd  Nd5  1  0.750000  0.331548  0.423872  1
  Gd  Gd6  1  0.750000  0.604155  0.227815  1
  Dy  Dy7  1  0.250000  0.396312  0.772573  1
  Sb  Sb8  1  0.750000  0.851151  0.820342  1
  Sb  Sb9  1  0.250000  0.861934  0.675051  1
  Sb  Sb10  1  0.250000  0.142893  0.478282  1
  Sb  Sb11  1  0.750000  0.284249  0.934776  1
  Sb  Sb12  1  0.250000  0.146963  0.780364  1
  Sb  Sb13  1  0.750000  0.574072  0.442323  1
  Sb  Sb14  1  0.750000  0.138442  0.324714  1
  Sb  Sb15  1  0.250000  0.706495  0.349911  1
  Sb  Sb16  1  0.750000  0.293369  0.650268  1
  Sb  Sb17  1  0.750000  0.853827  0.219710  1
  Sb  Sb18  1  0.250000  0.420294  0.972941  1
  Sb  Sb19  1  0.250000  0.425649  0.558071  1
  Sb  Sb20  1  0.750000  0.572466  0.736370  1
  Sb  Sb21  1  0.250000  0.426599  0.263925  1
  Sb  Sb22  1  0.750000  0.857654  0.521370  1
  Sb  Sb23  1  0.750000  0.031030  0.891680  1
  Sb  Sb24  1  0.250000  0.715317  0.065277  1
  Sb  Sb25  1  0.250000  0.969001  0.108151  1
  Sb  Sb26  1  0.250000  0.148765  0.179438  1
  Sb  Sb27  1  0.750000  0.579646  0.026581  1
