# generated using pymatgen
data_Tm8Mg2ZnNi3Sb2
_symmetry_space_group_name_H-M   'P 1'
_cell_length_a   8.41611138
_cell_length_b   8.41611221
_cell_length_c   8.52419281
_cell_angle_alpha   127.84715510
_cell_angle_beta   127.84714930
_cell_angle_gamma   75.94384240
_symmetry_Int_Tables_number   1
_chemical_formula_structural   Tm8Mg2ZnNi3Sb2
_chemical_formula_sum   'Tm8 Mg2 Zn1 Ni3 Sb2'
_cell_volume   367.74315684
_cell_formula_units_Z   1
loop_
 _symmetry_equiv_pos_site_id
 _symmetry_equiv_pos_as_xyz
  1  'x, y, z'
loop_
 _atom_site_type_symbol
 _atom_site_label
 _atom_site_symmetry_multiplicity
 _atom_site_fract_x
 _atom_site_fract_y
 _atom_site_fract_z
 _atom_site_occupancy
  Tm  Tm0  1  0.796941  0.296941  0.832731  1
  Tm  Tm1  1  0.216752  0.716752  0.198919  1
  Tm  Tm2  1  0.482167  0.982167  0.198919  1
  Tm  Tm3  1  0.295310  0.455257  0.483501  1
  Tm  Tm4  1  0.028244  0.188191  0.483501  1
  Tm  Tm5  1  0.535790  0.035790  0.832731  1
  Tm  Tm6  1  0.688191  0.528244  0.483501  1
  Tm  Tm7  1  0.955257  0.795310  0.483501  1
  Mg  Mg8  1  0.998650  0.999084  0.997735  1
  Mg  Mg9  1  0.499084  0.498650  0.997735  1
  Zn  Zn10  1  0.129832  0.629832  0.759662  1
  Ni  Ni11  1  0.882028  0.382028  0.264057  1
  Ni  Ni12  1  0.629766  0.875240  0.505006  1
  Ni  Ni13  1  0.375240  0.129766  0.505006  1
  Sb  Sb14  1  0.243374  0.243374  0.986748  1
  Sb  Sb15  1  0.743374  0.743374  0.986748  1
