# generated using pymatgen
data_Pr3Nd2FeRuO12
_symmetry_space_group_name_H-M   'P 1'
_cell_length_a   7.08593341
_cell_length_b   7.08593418
_cell_length_c   7.63174616
_cell_angle_alpha   74.35371664
_cell_angle_beta   74.35371169
_cell_angle_gamma   50.80853216
_symmetry_Int_Tables_number   1
_chemical_formula_structural   Pr3Nd2FeRuO12
_chemical_formula_sum   'Pr3 Nd2 Fe1 Ru1 O12'
_cell_volume   283.44350637
_cell_formula_units_Z   1
loop_
 _symmetry_equiv_pos_site_id
 _symmetry_equiv_pos_as_xyz
  1  'x, y, z'
loop_
 _atom_site_type_symbol
 _atom_site_label
 _atom_site_symmetry_multiplicity
 _atom_site_fract_x
 _atom_site_fract_y
 _atom_site_fract_z
 _atom_site_occupancy
  Pr  Pr0  1  0.692714  0.694040  0.165988  1
  Pr  Pr1  1  0.305960  0.307286  0.834012  1
  Pr  Pr2  1  0.003953  0.996047  0.500000  1
  Nd  Nd3  1  0.309327  0.302654  0.357912  1
  Nd  Nd4  1  0.697346  0.690673  0.642088  1
  Fe  Fe5  1  0.752456  0.247544  0.000000  1
  Ru  Ru6  1  0.239785  0.760215  0.000000  1
  O  O7  1  0.096322  0.593232  0.576386  1
  O  O8  1  0.009699  0.989185  0.175174  1
  O  O9  1  0.406768  0.903678  0.423614  1
  O  O10  1  0.485951  0.513728  0.176515  1
  O  O11  1  0.100439  0.580348  0.079694  1
  O  O12  1  0.907662  0.401926  0.423084  1
  O  O13  1  0.010815  0.990301  0.824826  1
  O  O14  1  0.598074  0.092337  0.576916  1
  O  O15  1  0.486272  0.514049  0.823485  1
  O  O16  1  0.582399  0.105594  0.077842  1
  O  O17  1  0.419652  0.899561  0.920306  1
  O  O18  1  0.894406  0.417601  0.922158  1
