# generated using pymatgen
data_Tb4MnRu6W
_symmetry_space_group_name_H-M   'P 1'
_cell_length_a   5.19962091
_cell_length_b   5.19962053
_cell_length_c   9.05339900
_cell_angle_alpha   90.00000000
_cell_angle_beta   90.00000000
_cell_angle_gamma   115.76345799
_symmetry_Int_Tables_number   1
_chemical_formula_structural   Tb4MnRu6W
_chemical_formula_sum   'Tb4 Mn1 Ru6 W1'
_cell_volume   220.43730250
_cell_formula_units_Z   1
loop_
 _symmetry_equiv_pos_site_id
 _symmetry_equiv_pos_as_xyz
  1  'x, y, z'
loop_
 _atom_site_type_symbol
 _atom_site_label
 _atom_site_symmetry_multiplicity
 _atom_site_fract_x
 _atom_site_fract_y
 _atom_site_fract_z
 _atom_site_occupancy
  Tb  Tb0  1  0.327331  0.672669  0.436565  1
  Tb  Tb1  1  0.667223  0.332777  0.567493  1
  Tb  Tb2  1  0.667223  0.332777  0.932507  1
  Tb  Tb3  1  0.327331  0.672669  0.063435  1
  Mn  Mn4  1  0.164729  0.835271  0.750000  1
  Ru  Ru5  1  0.992804  0.007196  0.503283  1
  Ru  Ru6  1  0.992804  0.007196  0.996717  1
  Ru  Ru7  1  0.829336  0.643199  0.250000  1
  Ru  Ru8  1  0.356801  0.170664  0.250000  1
  Ru  Ru9  1  0.175019  0.347181  0.750000  1
  Ru  Ru10  1  0.652819  0.824981  0.750000  1
  W  W11  1  0.846578  0.153422  0.250000  1
