# generated using pymatgen
data_Y2HoCoSn6
_symmetry_space_group_name_H-M   'P 1'
_cell_length_a   8.47543580
_cell_length_b   8.47543635
_cell_length_c   13.15612200
_cell_angle_alpha   90.00000000
_cell_angle_beta   90.00000000
_cell_angle_gamma   148.77260601
_symmetry_Int_Tables_number   1
_chemical_formula_structural   Y2HoCoSn6
_chemical_formula_sum   'Y4 Ho2 Co2 Sn12'
_cell_volume   489.94471279
_cell_formula_units_Z   2
loop_
 _symmetry_equiv_pos_site_id
 _symmetry_equiv_pos_as_xyz
  1  'x, y, z'
loop_
 _atom_site_type_symbol
 _atom_site_label
 _atom_site_symmetry_multiplicity
 _atom_site_fract_x
 _atom_site_fract_y
 _atom_site_fract_z
 _atom_site_occupancy
  Y  Y0  1  0.899676  0.100324  0.093201  1
  Y  Y1  1  0.100324  0.899676  0.593201  1
  Y  Y2  1  0.100324  0.899676  0.906799  1
  Y  Y3  1  0.899676  0.100324  0.406799  1
  Ho  Ho4  1  0.900552  0.099448  0.750000  1
  Ho  Ho5  1  0.099448  0.900552  0.250000  1
  Co  Co6  1  0.298166  0.701834  0.250000  1
  Co  Co7  1  0.701834  0.298166  0.750000  1
  Sn  Sn8  1  0.755645  0.244355  0.571243  1
  Sn  Sn9  1  0.427281  0.572719  0.576847  1
  Sn  Sn10  1  0.572719  0.427281  0.423153  1
  Sn  Sn11  1  0.732792  0.267208  0.250000  1
  Sn  Sn12  1  0.267208  0.732792  0.750000  1
  Sn  Sn13  1  0.244355  0.755645  0.071243  1
  Sn  Sn14  1  0.244355  0.755645  0.428757  1
  Sn  Sn15  1  0.572719  0.427281  0.076847  1
  Sn  Sn16  1  0.453000  0.547000  0.250000  1
  Sn  Sn17  1  0.547000  0.453000  0.750000  1
  Sn  Sn18  1  0.755645  0.244355  0.928757  1
  Sn  Sn19  1  0.427281  0.572719  0.923153  1
