# generated using pymatgen
data_LiCaLaSi(PPd4)5
_symmetry_space_group_name_H-M   'P 1'
_cell_length_a   8.63085749
_cell_length_b   8.63164353
_cell_length_c   8.63164300
_cell_angle_alpha   60.01220740
_cell_angle_beta   60.00300285
_cell_angle_gamma   60.00300120
_symmetry_Int_Tables_number   1
_chemical_formula_structural   LiCaLaSi(PPd4)5
_chemical_formula_sum   'Li1 Ca1 La1 Si1 P5 Pd20'
_cell_volume   454.76357663
_cell_formula_units_Z   1
loop_
 _symmetry_equiv_pos_site_id
 _symmetry_equiv_pos_as_xyz
  1  'x, y, z'
loop_
 _atom_site_type_symbol
 _atom_site_label
 _atom_site_symmetry_multiplicity
 _atom_site_fract_x
 _atom_site_fract_y
 _atom_site_fract_z
 _atom_site_occupancy
  Li  Li0  1  0.999358  0.000642  0.000642  1
  Ca  Ca1  1  0.250465  0.249535  0.249535  1
  La  La2  1  0.750523  0.749477  0.749477  1
  Si  Si3  1  0.737963  0.262037  0.262037  1
  P  P4  1  0.260990  0.739010  0.739010  1
  P  P5  1  0.262552  0.737486  0.260668  1
  P  P6  1  0.739295  0.260668  0.737486  1
  P  P7  1  0.262552  0.260668  0.737486  1
  P  P8  1  0.739295  0.737486  0.260668  1
  Pd  Pd9  1  0.383376  0.384444  0.384444  1
  Pd  Pd10  1  0.611981  0.611883  0.611883  1
  Pd  Pd11  1  0.384193  0.384702  0.846909  1
  Pd  Pd12  1  0.384193  0.846909  0.384702  1
  Pd  Pd13  1  0.611645  0.614461  0.162247  1
  Pd  Pd14  1  0.611645  0.162247  0.614461  1
  Pd  Pd15  1  0.847734  0.384444  0.384444  1
  Pd  Pd16  1  0.164254  0.611883  0.611883  1
  Pd  Pd17  1  0.342945  0.000303  0.000303  1
  Pd  Pd18  1  0.656449  0.000303  0.000303  1
  Pd  Pd19  1  0.998267  0.345219  0.658247  1
  Pd  Pd20  1  0.998267  0.658247  0.345219  1
  Pd  Pd21  1  0.000962  0.345960  0.997158  1
  Pd  Pd22  1  0.655919  0.997158  0.345960  1
  Pd  Pd23  1  0.999616  0.656265  0.999589  1
  Pd  Pd24  1  0.344530  0.999589  0.656265  1
  Pd  Pd25  1  0.000962  0.997158  0.345960  1
  Pd  Pd26  1  0.999616  0.999589  0.656265  1
  Pd  Pd27  1  0.655919  0.345960  0.997158  1
  Pd  Pd28  1  0.344530  0.656265  0.999589  1
