# generated using pymatgen
data_Tm3Lu9Co4CuBi
_symmetry_space_group_name_H-M   'P 1'
_cell_length_a   8.16656870
_cell_length_b   8.16280402
_cell_length_c   8.16656765
_cell_angle_alpha   110.25458309
_cell_angle_beta   111.36483000
_cell_angle_gamma   106.84572618
_symmetry_Int_Tables_number   1
_chemical_formula_structural   Tm3Lu9Co4CuBi
_chemical_formula_sum   'Tm3 Lu9 Co4 Cu1 Bi1'
_cell_volume   418.28719835
_cell_formula_units_Z   1
loop_
 _symmetry_equiv_pos_site_id
 _symmetry_equiv_pos_as_xyz
  1  'x, y, z'
loop_
 _atom_site_type_symbol
 _atom_site_label
 _atom_site_symmetry_multiplicity
 _atom_site_fract_x
 _atom_site_fract_y
 _atom_site_fract_z
 _atom_site_occupancy
  Tm  Tm0  1  0.785218  0.582921  0.797701  1
  Tm  Tm1  1  0.214841  0.012673  0.797832  1
  Tm  Tm2  1  0.785250  0.987666  0.202416  1
  Lu  Lu3  1  0.287013  0.182372  0.469127  1
  Lu  Lu4  1  0.712646  0.817488  0.530354  1
  Lu  Lu5  1  0.287134  0.817488  0.104841  1
  Lu  Lu6  1  0.713245  0.182372  0.895360  1
  Lu  Lu7  1  0.620821  0.313129  0.307898  1
  Lu  Lu8  1  0.378799  0.686575  0.691642  1
  Lu  Lu9  1  0.005231  0.313129  0.692309  1
  Lu  Lu10  1  0.994933  0.686575  0.307775  1
  Lu  Lu11  1  0.214587  0.417089  0.202504  1
  Co  Co12  1  0.000257  0.376199  0.375942  1
  Co  Co13  1  0.999833  0.623633  0.623800  1
  Co  Co14  1  0.386564  0.886376  0.499811  1
  Co  Co15  1  0.613296  0.113345  0.500050  1
  Cu  Cu16  1  0.000479  0.000972  0.000493  1
  Bi  Bi17  1  0.499853  0.500000  0.000146  1
