# generated using pymatgen
data_Tc2GeAs2
_symmetry_space_group_name_H-M   'P 1'
_cell_length_a   6.25071858
_cell_length_b   6.82838906
_cell_length_c   8.22516525
_cell_angle_alpha   95.50719603
_cell_angle_beta   100.92553225
_cell_angle_gamma   103.23165591
_symmetry_Int_Tables_number   1
_chemical_formula_structural   Tc2GeAs2
_chemical_formula_sum   'Tc8 Ge4 As8'
_cell_volume   331.96937908
_cell_formula_units_Z   4
loop_
 _symmetry_equiv_pos_site_id
 _symmetry_equiv_pos_as_xyz
  1  'x, y, z'
loop_
 _atom_site_type_symbol
 _atom_site_label
 _atom_site_symmetry_multiplicity
 _atom_site_fract_x
 _atom_site_fract_y
 _atom_site_fract_z
 _atom_site_occupancy
  Tc  Tc0  1  0.887863  0.424824  0.127283  1
  Tc  Tc1  1  0.112137  0.575176  0.872717  1
  Tc  Tc2  1  0.387176  0.424706  0.127258  1
  Tc  Tc3  1  0.612824  0.575294  0.872742  1
  Tc  Tc4  1  0.563242  0.881856  0.370763  1
  Tc  Tc5  1  0.436758  0.118144  0.629237  1
  Tc  Tc6  1  0.063534  0.881960  0.370668  1
  Tc  Tc7  1  0.936466  0.118040  0.629332  1
  Ge  Ge8  1  0.736079  0.576776  0.369046  1
  Ge  Ge9  1  0.263921  0.423224  0.630954  1
  Ge  Ge10  1  0.235981  0.576101  0.370158  1
  Ge  Ge11  1  0.764019  0.423899  0.629842  1
  As  As12  1  0.870276  0.157872  0.323310  1
  As  As13  1  0.129724  0.842128  0.676690  1
  As  As14  1  0.370503  0.158050  0.323269  1
  As  As15  1  0.629497  0.841950  0.676731  1
  As  As16  1  0.536168  0.196257  0.949155  1
  As  As17  1  0.463832  0.803743  0.050845  1
  As  As18  1  0.035698  0.195617  0.948997  1
  As  As19  1  0.964302  0.804383  0.051003  1
