# generated using pymatgen
data_Tb4Al18NiRh5
_symmetry_space_group_name_H-M   'P 1'
_cell_length_a   7.55581190
_cell_length_b   7.55581208
_cell_length_c   9.45869771
_cell_angle_alpha   90.16693005
_cell_angle_beta   90.16692849
_cell_angle_gamma   119.61172458
_symmetry_Int_Tables_number   1
_chemical_formula_structural   Tb4Al18NiRh5
_chemical_formula_sum   'Tb4 Al18 Ni1 Rh5'
_cell_volume   469.46465487
_cell_formula_units_Z   1
loop_
 _symmetry_equiv_pos_site_id
 _symmetry_equiv_pos_as_xyz
  1  'x, y, z'
loop_
 _atom_site_type_symbol
 _atom_site_label
 _atom_site_symmetry_multiplicity
 _atom_site_fract_x
 _atom_site_fract_y
 _atom_site_fract_z
 _atom_site_occupancy
  Tb  Tb0  1  0.994883  0.670846  0.249368  1
  Tb  Tb1  1  0.005117  0.329154  0.750632  1
  Tb  Tb2  1  0.670846  0.994883  0.249368  1
  Tb  Tb3  1  0.329154  0.005117  0.750632  1
  Al  Al4  1  0.126424  0.126424  0.247471  1
  Al  Al5  1  0.873576  0.873576  0.752529  1
  Al  Al6  1  0.000772  0.332895  0.074436  1
  Al  Al7  1  0.999228  0.667105  0.925564  1
  Al  Al8  1  0.999202  0.665327  0.574548  1
  Al  Al9  1  0.334673  0.000798  0.425452  1
  Al  Al10  1  0.000798  0.334673  0.425452  1
  Al  Al11  1  0.665327  0.999202  0.574548  1
  Al  Al12  1  0.667105  0.999228  0.925564  1
  Al  Al13  1  0.332895  0.000772  0.074436  1
  Al  Al14  1  0.333398  0.333398  0.550086  1
  Al  Al15  1  0.666602  0.666602  0.449914  1
  Al  Al16  1  0.668769  0.668769  0.049622  1
  Al  Al17  1  0.331231  0.331231  0.950378  1
  Al  Al18  1  0.339141  0.548792  0.249782  1
  Al  Al19  1  0.660859  0.451208  0.750218  1
  Al  Al20  1  0.548792  0.339141  0.249782  1
  Al  Al21  1  0.451208  0.660859  0.750218  1
  Ni  Ni22  1  0.000000  0.000000  0.000000  1
  Rh  Rh23  1  0.671980  0.328020  0.000000  1
  Rh  Rh24  1  0.328020  0.671980  0.000000  1
  Rh  Rh25  1  0.328035  0.671965  0.500000  1
  Rh  Rh26  1  0.671965  0.328035  0.500000  1
  Rh  Rh27  1  0.000000  0.000000  0.500000  1
