# generated using pymatgen
data_MgZr11(AlIr2)4
_symmetry_space_group_name_H-M   'P 1'
_cell_length_a   8.55904712
_cell_length_b   8.55903001
_cell_length_c   8.54123100
_cell_angle_alpha   60.06884140
_cell_angle_beta   60.06892856
_cell_angle_gamma   59.91940650
_symmetry_Int_Tables_number   1
_chemical_formula_structural   MgZr11(AlIr2)4
_chemical_formula_sum   'Mg1 Zr11 Al4 Ir8'
_cell_volume   442.63022796
_cell_formula_units_Z   1
loop_
 _symmetry_equiv_pos_site_id
 _symmetry_equiv_pos_as_xyz
  1  'x, y, z'
loop_
 _atom_site_type_symbol
 _atom_site_label
 _atom_site_symmetry_multiplicity
 _atom_site_fract_x
 _atom_site_fract_y
 _atom_site_fract_z
 _atom_site_occupancy
  Mg  Mg0  1  0.804983  0.804983  0.195017  1
  Zr  Zr1  1  0.194690  0.194691  0.805310  1
  Zr  Zr2  1  0.805258  0.192590  0.807778  1
  Zr  Zr3  1  0.192590  0.805257  0.194374  1
  Zr  Zr4  1  0.192591  0.805258  0.807778  1
  Zr  Zr5  1  0.805259  0.192590  0.194372  1
  Zr  Zr6  1  0.443861  0.443861  0.056139  1
  Zr  Zr7  1  0.056709  0.056711  0.443291  1
  Zr  Zr8  1  0.448780  0.052605  0.441749  1
  Zr  Zr9  1  0.052604  0.448780  0.056867  1
  Zr  Zr10  1  0.052605  0.448780  0.441748  1
  Zr  Zr11  1  0.448779  0.052606  0.056867  1
  Al  Al12  1  0.126385  0.623924  0.624846  1
  Al  Al13  1  0.623924  0.126383  0.624846  1
  Al  Al14  1  0.625937  0.625938  0.125924  1
  Al  Al15  1  0.625937  0.625938  0.622200  1
  Ir  Ir16  1  0.760452  0.410098  0.414725  1
  Ir  Ir17  1  0.410099  0.760450  0.414725  1
  Ir  Ir18  1  0.412603  0.412605  0.761565  1
  Ir  Ir19  1  0.412603  0.412604  0.413226  1
  Ir  Ir20  1  0.488829  0.837070  0.837050  1
  Ir  Ir21  1  0.837071  0.488827  0.837051  1
  Ir  Ir22  1  0.838725  0.838724  0.491970  1
  Ir  Ir23  1  0.838725  0.838725  0.830581  1
