# generated using pymatgen
data_Sm8SiPBr12
_symmetry_space_group_name_H-M   'P 1'
_cell_length_a   4.13089900
_cell_length_b   13.49345628
_cell_length_c   14.28048412
_cell_angle_alpha   89.98056404
_cell_angle_beta   90.00000000
_cell_angle_gamma   90.00000000
_symmetry_Int_Tables_number   1
_chemical_formula_structural   Sm8SiPBr12
_chemical_formula_sum   'Sm8 Si1 P1 Br12'
_cell_volume   795.99563950
_cell_formula_units_Z   1
loop_
 _symmetry_equiv_pos_site_id
 _symmetry_equiv_pos_as_xyz
  1  'x, y, z'
loop_
 _atom_site_type_symbol
 _atom_site_label
 _atom_site_symmetry_multiplicity
 _atom_site_fract_x
 _atom_site_fract_y
 _atom_site_fract_z
 _atom_site_occupancy
  Sm  Sm0  1  0.500000  0.116134  0.344111  1
  Sm  Sm1  1  0.500000  0.883866  0.655889  1
  Sm  Sm2  1  0.500000  0.619481  0.160190  1
  Sm  Sm3  1  0.500000  0.380519  0.839810  1
  Sm  Sm4  1  0.000000  0.114105  0.575593  1
  Sm  Sm5  1  0.000000  0.885895  0.424407  1
  Sm  Sm6  1  0.000000  0.619625  0.920546  1
  Sm  Sm7  1  0.000000  0.380375  0.079454  1
  Si  Si8  1  0.500000  0.500000  0.000000  1
  P  P9  1  0.500000  0.000000  0.500000  1
  Br  Br10  1  0.500000  0.242830  0.164178  1
  Br  Br11  1  0.500000  0.757170  0.835822  1
  Br  Br12  1  0.500000  0.746911  0.338502  1
  Br  Br13  1  0.500000  0.253089  0.661498  1
  Br  Br14  1  0.000000  0.253737  0.412792  1
  Br  Br15  1  0.000000  0.746263  0.587208  1
  Br  Br16  1  0.000000  0.755967  0.088490  1
  Br  Br17  1  0.000000  0.244033  0.911510  1
  Br  Br18  1  0.000000  0.000875  0.245451  1
  Br  Br19  1  0.000000  0.999125  0.754549  1
  Br  Br20  1  0.000000  0.501925  0.257210  1
  Br  Br21  1  0.000000  0.498075  0.742790  1
