# generated using pymatgen
data_Li2La6Ir13Rh3
_symmetry_space_group_name_H-M   'P 1'
_cell_length_a   5.39544300
_cell_length_b   5.39544214
_cell_length_c   17.56911000
_cell_angle_alpha   90.00000000
_cell_angle_beta   90.00000000
_cell_angle_gamma   119.99999913
_symmetry_Int_Tables_number   1
_chemical_formula_structural   Li2La6Ir13Rh3
_chemical_formula_sum   'Li2 La6 Ir13 Rh3'
_cell_volume   442.92943862
_cell_formula_units_Z   1
loop_
 _symmetry_equiv_pos_site_id
 _symmetry_equiv_pos_as_xyz
  1  'x, y, z'
loop_
 _atom_site_type_symbol
 _atom_site_label
 _atom_site_symmetry_multiplicity
 _atom_site_fract_x
 _atom_site_fract_y
 _atom_site_fract_z
 _atom_site_occupancy
  Li  Li0  1  0.000000  0.000000  0.249766  1
  Li  Li1  1  0.000000  0.000000  0.750234  1
  La  La2  1  0.333333  0.666667  0.538853  1
  La  La3  1  0.666667  0.333333  0.038631  1
  La  La4  1  0.666667  0.333333  0.461147  1
  La  La5  1  0.333333  0.666667  0.961369  1
  La  La6  1  0.333333  0.666667  0.750086  1
  La  La7  1  0.666667  0.333333  0.249914  1
  Ir  Ir8  1  0.166516  0.333031  0.127559  1
  Ir  Ir9  1  0.833744  0.667487  0.628225  1
  Ir  Ir10  1  0.666969  0.833484  0.127559  1
  Ir  Ir11  1  0.166516  0.833484  0.127559  1
  Ir  Ir12  1  0.833744  0.166256  0.628225  1
  Ir  Ir13  1  0.332513  0.166256  0.628225  1
  Ir  Ir14  1  0.833484  0.666969  0.872441  1
  Ir  Ir15  1  0.833484  0.166516  0.872441  1
  Ir  Ir16  1  0.333031  0.166516  0.872441  1
  Ir  Ir17  1  0.667487  0.833744  0.371775  1
  Ir  Ir18  1  0.166256  0.833744  0.371775  1
  Ir  Ir19  1  0.166256  0.332513  0.371775  1
  Ir  Ir20  1  0.000000  0.000000  0.000000  1
  Rh  Rh21  1  0.333333  0.666667  0.249949  1
  Rh  Rh22  1  0.666667  0.333333  0.750051  1
  Rh  Rh23  1  0.000000  0.000000  0.500000  1
