# generated using pymatgen
data_LuPa3OsPt3
_symmetry_space_group_name_H-M   'P 1'
_cell_length_a   4.34600600
_cell_length_b   5.63776914
_cell_length_c   7.14979620
_cell_angle_alpha   90.50740713
_cell_angle_beta   90.00000000
_cell_angle_gamma   90.00000000
_symmetry_Int_Tables_number   1
_chemical_formula_structural   LuPa3OsPt3
_chemical_formula_sum   'Lu1 Pa3 Os1 Pt3'
_cell_volume   175.17585344
_cell_formula_units_Z   1
loop_
 _symmetry_equiv_pos_site_id
 _symmetry_equiv_pos_as_xyz
  1  'x, y, z'
loop_
 _atom_site_type_symbol
 _atom_site_label
 _atom_site_symmetry_multiplicity
 _atom_site_fract_x
 _atom_site_fract_y
 _atom_site_fract_z
 _atom_site_occupancy
  Lu  Lu0  1  0.250000  0.849472  0.678250  1
  Pa  Pa1  1  0.250000  0.654666  0.176180  1
  Pa  Pa2  1  0.750000  0.339615  0.823312  1
  Pa  Pa3  1  0.750000  0.148989  0.315084  1
  Os  Os4  1  0.250000  0.184772  0.059351  1
  Pt  Pt5  1  0.750000  0.832549  0.944365  1
  Pt  Pt6  1  0.750000  0.659009  0.453094  1
  Pt  Pt7  1  0.250000  0.330927  0.550364  1
