# generated using pymatgen
data_Mn4Fe8Mo12CN3
_symmetry_space_group_name_H-M   'P 1'
_cell_length_a   7.81818394
_cell_length_b   7.81818440
_cell_length_c   7.81818332
_cell_angle_alpha   59.88101004
_cell_angle_beta   59.88100545
_cell_angle_gamma   59.88101265
_symmetry_Int_Tables_number   1
_chemical_formula_structural   Mn4Fe8Mo12CN3
_chemical_formula_sum   'Mn4 Fe8 Mo12 C1 N3'
_cell_volume   336.99894343
_cell_formula_units_Z   1
loop_
 _symmetry_equiv_pos_site_id
 _symmetry_equiv_pos_as_xyz
  1  'x, y, z'
loop_
 _atom_site_type_symbol
 _atom_site_label
 _atom_site_symmetry_multiplicity
 _atom_site_fract_x
 _atom_site_fract_y
 _atom_site_fract_z
 _atom_site_occupancy
  Mn  Mn0  1  0.125000  0.125000  0.625000  1
  Mn  Mn1  1  0.125000  0.625000  0.125000  1
  Mn  Mn2  1  0.625000  0.125000  0.125000  1
  Mn  Mn3  1  0.125000  0.125000  0.125000  1
  Fe  Fe4  1  0.231788  0.922693  0.922693  1
  Fe  Fe5  1  0.922693  0.231788  0.922693  1
  Fe  Fe6  1  0.327217  0.327217  0.327217  1
  Fe  Fe7  1  0.327307  0.018212  0.327307  1
  Fe  Fe8  1  0.327307  0.327307  0.018212  1
  Fe  Fe9  1  0.018212  0.327307  0.327307  1
  Fe  Fe10  1  0.922783  0.922783  0.922783  1
  Fe  Fe11  1  0.922693  0.922693  0.231788  1
  Mo  Mo12  1  0.547740  0.547740  0.952495  1
  Mo  Mo13  1  0.952207  0.952207  0.547193  1
  Mo  Mo14  1  0.702260  0.702260  0.297505  1
  Mo  Mo15  1  0.297505  0.702260  0.702260  1
  Mo  Mo16  1  0.702807  0.297793  0.297793  1
  Mo  Mo17  1  0.297793  0.297793  0.702807  1
  Mo  Mo18  1  0.547740  0.952495  0.547740  1
  Mo  Mo19  1  0.297793  0.702807  0.297793  1
  Mo  Mo20  1  0.952207  0.547193  0.952207  1
  Mo  Mo21  1  0.952495  0.547740  0.547740  1
  Mo  Mo22  1  0.702260  0.297505  0.702260  1
  Mo  Mo23  1  0.547193  0.952207  0.952207  1
  C  C24  1  0.625000  0.625000  0.625000  1
  N  N25  1  0.625000  0.625000  0.125000  1
  N  N26  1  0.125000  0.625000  0.625000  1
  N  N27  1  0.625000  0.125000  0.625000  1
