# generated using pymatgen
data_Li4La2YErSn4
_symmetry_space_group_name_H-M   'P 1'
_cell_length_a   9.50931600
_cell_length_b   9.50717860
_cell_length_c   7.65192907
_cell_angle_alpha   89.98661288
_cell_angle_beta   90.00000000
_cell_angle_gamma   120.00743726
_symmetry_Int_Tables_number   1
_chemical_formula_structural   Li4La2YErSn4
_chemical_formula_sum   'Li8 La4 Y2 Er2 Sn8'
_cell_volume   599.05946082
_cell_formula_units_Z   2
loop_
 _symmetry_equiv_pos_site_id
 _symmetry_equiv_pos_as_xyz
  1  'x, y, z'
loop_
 _atom_site_type_symbol
 _atom_site_label
 _atom_site_symmetry_multiplicity
 _atom_site_fract_x
 _atom_site_fract_y
 _atom_site_fract_z
 _atom_site_occupancy
  Li  Li0  1  0.166193  0.332387  0.238634  1
  Li  Li1  1  0.165955  0.833409  0.238456  1
  Li  Li2  1  0.667453  0.833409  0.238456  1
  Li  Li3  1  0.666671  0.333341  0.341486  1
  Li  Li4  1  0.832776  0.665553  0.686272  1
  Li  Li5  1  0.334879  0.167723  0.686058  1
  Li  Li6  1  0.832844  0.167723  0.686058  1
  Li  Li7  1  0.333399  0.666799  0.807290  1
  La  La8  1  0.999968  0.999937  0.999177  1
  La  La9  1  0.511042  0.022085  0.004062  1
  La  La10  1  0.511023  0.488923  0.004063  1
  La  La11  1  0.977900  0.488923  0.004063  1
  Y  Y12  1  0.999952  0.999904  0.500929  1
  Y  Y13  1  0.486926  0.973850  0.505448  1
  Er  Er14  1  0.026097  0.512959  0.505375  1
  Er  Er15  1  0.486863  0.512959  0.505375  1
  Sn  Sn16  1  0.333164  0.666329  0.244377  1
  Sn  Sn17  1  0.832707  0.665414  0.286268  1
  Sn  Sn18  1  0.333956  0.167475  0.286179  1
  Sn  Sn19  1  0.833518  0.167475  0.286179  1
  Sn  Sn20  1  0.666876  0.333751  0.725601  1
  Sn  Sn21  1  0.166610  0.333218  0.758658  1
  Sn  Sn22  1  0.166086  0.833227  0.759759  1
  Sn  Sn23  1  0.667143  0.833227  0.759759  1
