# generated using pymatgen
data_Rb12Na8Nd(TaAs4)3
_symmetry_space_group_name_H-M   'P 1'
_cell_length_a   10.99774120
_cell_length_b   10.99774368
_cell_length_c   16.08522244
_cell_angle_alpha   90.09608098
_cell_angle_beta   90.09608061
_cell_angle_gamma   142.81675995
_symmetry_Int_Tables_number   1
_chemical_formula_structural   Rb12Na8Nd(TaAs4)3
_chemical_formula_sum   'Rb12 Na8 Nd1 Ta3 As12'
_cell_volume   1175.78588505
_cell_formula_units_Z   1
loop_
 _symmetry_equiv_pos_site_id
 _symmetry_equiv_pos_as_xyz
  1  'x, y, z'
loop_
 _atom_site_type_symbol
 _atom_site_label
 _atom_site_symmetry_multiplicity
 _atom_site_fract_x
 _atom_site_fract_y
 _atom_site_fract_z
 _atom_site_occupancy
  Rb  Rb0  1  0.611350  0.934535  0.826926  1
  Rb  Rb1  1  0.280000  0.277527  0.316599  1
  Rb  Rb2  1  0.222872  0.223863  0.814848  1
  Rb  Rb3  1  0.722473  0.720000  0.683401  1
  Rb  Rb4  1  0.452073  0.104580  0.684592  1
  Rb  Rb5  1  0.895420  0.547927  0.315408  1
  Rb  Rb6  1  0.065465  0.388650  0.173074  1
  Rb  Rb7  1  0.388252  0.060927  0.170017  1
  Rb  Rb8  1  0.555434  0.900410  0.320568  1
  Rb  Rb9  1  0.099590  0.444566  0.679432  1
  Rb  Rb10  1  0.939073  0.611748  0.829983  1
  Rb  Rb11  1  0.776137  0.777128  0.185152  1
  Na  Na12  1  0.078075  0.921925  0.000000  1
  Na  Na13  1  0.581933  0.418067  0.500000  1
  Na  Na14  1  0.921207  0.078793  0.000000  1
  Na  Na15  1  0.753673  0.246327  0.000000  1
  Na  Na16  1  0.743860  0.256140  0.500000  1
  Na  Na17  1  0.246309  0.753691  0.000000  1
  Na  Na18  1  0.256136  0.743864  0.500000  1
  Na  Na19  1  0.417080  0.582920  0.500000  1
  Nd  Nd20  1  0.089143  0.910857  0.500000  1
  Ta  Ta21  1  0.419008  0.580992  0.000000  1
  Ta  Ta22  1  0.912763  0.087237  0.500000  1
  Ta  Ta23  1  0.580253  0.419747  0.000000  1
  As  As24  1  0.049833  0.358308  0.405710  1
  As  As25  1  0.859109  0.556900  0.091154  1
  As  As26  1  0.443100  0.140891  0.908846  1
  As  As27  1  0.641692  0.950167  0.594290  1
  As  As28  1  0.929654  0.602079  0.609003  1
  As  As29  1  0.140764  0.444109  0.908214  1
  As  As30  1  0.555891  0.859236  0.091786  1
  As  As31  1  0.397921  0.070346  0.390997  1
  As  As32  1  0.191179  0.215683  0.589410  1
  As  As33  1  0.696667  0.697701  0.912111  1
  As  As34  1  0.302299  0.303333  0.087889  1
  As  As35  1  0.784317  0.808821  0.410590  1
