# generated using pymatgen
data_Pr8Tm12Si15Pd
_symmetry_space_group_name_H-M   'P 1'
_cell_length_a   7.47717806
_cell_length_b   7.76531063
_cell_length_c   14.73387900
_cell_angle_alpha   90.00577731
_cell_angle_beta   89.91082083
_cell_angle_gamma   90.02233609
_symmetry_Int_Tables_number   1
_chemical_formula_structural   Pr8Tm12Si15Pd
_chemical_formula_sum   'Pr8 Tm12 Si15 Pd1'
_cell_volume   855.48636818
_cell_formula_units_Z   1
loop_
 _symmetry_equiv_pos_site_id
 _symmetry_equiv_pos_as_xyz
  1  'x, y, z'
loop_
 _atom_site_type_symbol
 _atom_site_label
 _atom_site_symmetry_multiplicity
 _atom_site_fract_x
 _atom_site_fract_y
 _atom_site_fract_z
 _atom_site_occupancy
  Pr  Pr0  1  0.018044  0.177727  0.401204  1
  Pr  Pr1  1  0.519850  0.322640  0.399760  1
  Pr  Pr2  1  0.478857  0.676737  0.902127  1
  Pr  Pr3  1  0.481237  0.675930  0.600041  1
  Pr  Pr4  1  0.981140  0.824583  0.598014  1
  Pr  Pr5  1  0.979387  0.823220  0.902342  1
  Pr  Pr6  1  0.519379  0.323627  0.097592  1
  Pr  Pr7  1  0.019909  0.177570  0.098816  1
  Tm  Tm8  1  0.326871  0.181086  0.621675  1
  Tm  Tm9  1  0.674001  0.822854  0.375553  1
  Tm  Tm10  1  0.657612  0.991786  0.749910  1
  Tm  Tm11  1  0.175380  0.670064  0.377812  1
  Tm  Tm12  1  0.824606  0.319902  0.877680  1
  Tm  Tm13  1  0.825999  0.326252  0.621966  1
  Tm  Tm14  1  0.844618  0.492996  0.251903  1
  Tm  Tm15  1  0.344260  0.004800  0.249452  1
  Tm  Tm16  1  0.322198  0.177916  0.876905  1
  Tm  Tm17  1  0.175541  0.678469  0.123282  1
  Tm  Tm18  1  0.678188  0.823978  0.124135  1
  Tm  Tm19  1  0.157526  0.506313  0.747089  1
  Si  Si20  1  0.275962  0.882012  0.750397  1
  Si  Si21  1  0.470334  0.616165  0.248340  1
  Si  Si22  1  0.030390  0.117219  0.750399  1
  Si  Si23  1  0.533056  0.383189  0.752364  1
  Si  Si24  1  0.972668  0.882215  0.251459  1
  Si  Si25  1  0.722545  0.121855  0.249062  1
  Si  Si26  1  0.850960  0.533922  0.039069  1
  Si  Si27  1  0.351799  0.967195  0.039551  1
  Si  Si28  1  0.146861  0.467304  0.961447  1
  Si  Si29  1  0.648703  0.032606  0.538887  1
  Si  Si30  1  0.351516  0.965872  0.460355  1
  Si  Si31  1  0.843803  0.535490  0.458627  1
  Si  Si32  1  0.776604  0.619530  0.752599  1
  Si  Si33  1  0.225068  0.377197  0.248591  1
  Si  Si34  1  0.647425  0.031703  0.960710  1
  Pd  Pd35  1  0.147705  0.468074  0.540885  1
