# generated using pymatgen
data_Sm3Pa3(Sb4Pt3)2
_symmetry_space_group_name_H-M   'P 1'
_cell_length_a   8.50387544
_cell_length_b   8.49542511
_cell_length_c   8.49542613
_cell_angle_alpha   109.49170135
_cell_angle_beta   109.29610916
_cell_angle_gamma   109.58575896
_symmetry_Int_Tables_number   1
_chemical_formula_structural   Sm3Pa3(Sb4Pt3)2
_chemical_formula_sum   'Sm3 Pa3 Sb8 Pt6'
_cell_volume   472.69152720
_cell_formula_units_Z   1
loop_
 _symmetry_equiv_pos_site_id
 _symmetry_equiv_pos_as_xyz
  1  'x, y, z'
loop_
 _atom_site_type_symbol
 _atom_site_label
 _atom_site_symmetry_multiplicity
 _atom_site_fract_x
 _atom_site_fract_y
 _atom_site_fract_z
 _atom_site_occupancy
  Sm  Sm0  1  0.874716  0.249541  0.125286  1
  Sm  Sm1  1  0.625284  0.750570  0.374826  1
  Sm  Sm2  1  0.250000  0.125553  0.875553  1
  Pa  Pa3  1  0.750000  0.374166  0.624166  1
  Pa  Pa4  1  0.123199  0.874371  0.249843  1
  Pa  Pa5  1  0.376801  0.626644  0.751172  1
  Sb  Sb6  1  0.671815  0.498138  0.001428  1
  Sb  Sb7  1  0.497789  0.997061  0.673237  1
  Sb  Sb8  1  0.002211  0.675448  0.499272  1
  Sb  Sb9  1  0.828185  0.829613  0.826323  1
  Sb  Sb10  1  0.497206  0.998931  0.169989  1
  Sb  Sb11  1  0.176019  0.499699  0.002483  1
  Sb  Sb12  1  0.002794  0.172782  0.501724  1
  Sb  Sb13  1  0.323981  0.326464  0.323680  1
  Pt  Pt14  1  0.384051  0.253924  0.619083  1
  Pt  Pt15  1  0.115949  0.735033  0.869874  1
  Pt  Pt16  1  0.250000  0.627813  0.377813  1
  Pt  Pt17  1  0.750000  0.871237  0.121237  1
  Pt  Pt18  1  0.633525  0.378571  0.267967  1
  Pt  Pt19  1  0.866475  0.134442  0.745045  1
