# generated using pymatgen
data_ErTm3(Lu4Bi3)4
_symmetry_space_group_name_H-M   'P 1'
_cell_length_a   8.14520858
_cell_length_b   9.39075100
_cell_length_c   11.82407400
_cell_angle_alpha   90.00000000
_cell_angle_beta   90.02154604
_cell_angle_gamma   90.00000000
_symmetry_Int_Tables_number   1
_chemical_formula_structural   ErTm3(Lu4Bi3)4
_chemical_formula_sum   'Er1 Tm3 Lu16 Bi12'
_cell_volume   904.41892914
_cell_formula_units_Z   1
loop_
 _symmetry_equiv_pos_site_id
 _symmetry_equiv_pos_as_xyz
  1  'x, y, z'
loop_
 _atom_site_type_symbol
 _atom_site_label
 _atom_site_symmetry_multiplicity
 _atom_site_fract_x
 _atom_site_fract_y
 _atom_site_fract_z
 _atom_site_occupancy
  Er  Er0  1  0.186375  0.750000  0.717404  1
  Tm  Tm1  1  0.313505  0.250000  0.217261  1
  Tm  Tm2  1  0.813573  0.250000  0.282806  1
  Tm  Tm3  1  0.686351  0.750000  0.782705  1
  Lu  Lu4  1  0.353314  0.750000  0.218122  1
  Lu  Lu5  1  0.853236  0.750000  0.281740  1
  Lu  Lu6  1  0.646680  0.250000  0.781858  1
  Lu  Lu7  1  0.146744  0.250000  0.718208  1
  Lu  Lu8  1  0.692409  0.567067  0.059909  1
  Lu  Lu9  1  0.192322  0.932909  0.440033  1
  Lu  Lu10  1  0.307654  0.067112  0.940165  1
  Lu  Lu11  1  0.807681  0.432900  0.559908  1
  Lu  Lu12  1  0.307654  0.432888  0.940165  1
  Lu  Lu13  1  0.807681  0.067100  0.559908  1
  Lu  Lu14  1  0.692409  0.932933  0.059909  1
  Lu  Lu15  1  0.192322  0.567091  0.440033  1
  Lu  Lu16  1  0.477245  0.250000  0.489167  1
  Lu  Lu17  1  0.977215  0.250000  0.010745  1
  Lu  Lu18  1  0.522898  0.750000  0.510636  1
  Lu  Lu19  1  0.022689  0.750000  0.989453  1
  Bi  Bi20  1  0.403441  0.750000  0.958450  1
  Bi  Bi21  1  0.902973  0.750000  0.541376  1
  Bi  Bi22  1  0.596754  0.250000  0.041662  1
  Bi  Bi23  1  0.096778  0.250000  0.458329  1
  Bi  Bi24  1  0.566353  0.995652  0.325635  1
  Bi  Bi25  1  0.066403  0.504381  0.174313  1
  Bi  Bi26  1  0.433927  0.495382  0.674285  1
  Bi  Bi27  1  0.933366  0.004575  0.825791  1
  Bi  Bi28  1  0.433927  0.004618  0.674285  1
  Bi  Bi29  1  0.933366  0.495425  0.825791  1
  Bi  Bi30  1  0.566353  0.504348  0.325635  1
  Bi  Bi31  1  0.066403  0.995619  0.174313  1
