# generated using pymatgen
data_Pr2Y3Rh2
_symmetry_space_group_name_H-M   'P 1'
_cell_length_a   6.52754965
_cell_length_b   7.22682884
_cell_length_c   8.93325971
_cell_angle_alpha   97.07739686
_cell_angle_beta   111.42918199
_cell_angle_gamma   89.99999649
_symmetry_Int_Tables_number   1
_chemical_formula_structural   Pr2Y3Rh2
_chemical_formula_sum   'Pr4 Y6 Rh4'
_cell_volume   388.82924295
_cell_formula_units_Z   2
loop_
 _symmetry_equiv_pos_site_id
 _symmetry_equiv_pos_as_xyz
  1  'x, y, z'
loop_
 _atom_site_type_symbol
 _atom_site_label
 _atom_site_symmetry_multiplicity
 _atom_site_fract_x
 _atom_site_fract_y
 _atom_site_fract_z
 _atom_site_occupancy
  Pr  Pr0  1  0.981415  0.919913  0.194773  1
  Pr  Pr1  1  0.786641  0.580087  0.805227  1
  Pr  Pr2  1  0.018585  0.080087  0.805227  1
  Pr  Pr3  1  0.213359  0.419913  0.194773  1
  Y  Y4  1  0.641590  0.813766  0.432106  1
  Y  Y5  1  0.209484  0.686234  0.567894  1
  Y  Y6  1  0.358410  0.186234  0.567894  1
  Y  Y7  1  0.790516  0.313766  0.432106  1
  Y  Y8  1  0.428661  0.750000  0.000000  1
  Y  Y9  1  0.571339  0.250000  0.000000  1
  Rh  Rh10  1  0.812061  0.572753  0.226067  1
  Rh  Rh11  1  0.585995  0.927247  0.773933  1
  Rh  Rh12  1  0.187939  0.427247  0.773933  1
  Rh  Rh13  1  0.414005  0.072753  0.226067  1
