# generated using pymatgen
data_Yb7ThNp4O24
_symmetry_space_group_name_H-M   'P 1'
_cell_length_a   5.44879300
_cell_length_b   7.81642728
_cell_length_c   11.82223100
_cell_angle_alpha   73.59190386
_cell_angle_beta   90.00000000
_cell_angle_gamma   90.00000000
_symmetry_Int_Tables_number   1
_chemical_formula_structural   Yb7ThNp4O24
_chemical_formula_sum   'Yb7 Th1 Np4 O24'
_cell_volume   483.00402162
_cell_formula_units_Z   1
loop_
 _symmetry_equiv_pos_site_id
 _symmetry_equiv_pos_as_xyz
  1  'x, y, z'
loop_
 _atom_site_type_symbol
 _atom_site_label
 _atom_site_symmetry_multiplicity
 _atom_site_fract_x
 _atom_site_fract_y
 _atom_site_fract_z
 _atom_site_occupancy
  Yb  Yb0  1  0.190632  0.194632  0.422137  1
  Yb  Yb1  1  0.190632  0.805368  0.077863  1
  Yb  Yb2  1  0.809280  0.802244  0.581544  1
  Yb  Yb3  1  0.809280  0.197756  0.918456  1
  Yb  Yb4  1  0.311193  0.500000  0.750000  1
  Yb  Yb5  1  0.742078  0.000000  0.250000  1
  Yb  Yb6  1  0.258679  0.000000  0.750000  1
  Th  Th7  1  0.687448  0.500000  0.250000  1
  Np  Np8  1  0.249193  0.274822  0.110711  1
  Np  Np9  1  0.249193  0.725178  0.389289  1
  Np  Np10  1  0.748900  0.724326  0.884232  1
  Np  Np11  1  0.748900  0.275674  0.615768  1
  O  O12  1  0.454734  0.215005  0.264968  1
  O  O13  1  0.454734  0.784995  0.235032  1
  O  O14  1  0.544210  0.790091  0.733562  1
  O  O15  1  0.544210  0.209909  0.766438  1
  O  O16  1  0.042946  0.064253  0.103691  1
  O  O17  1  0.042946  0.935747  0.396309  1
  O  O18  1  0.959481  0.933129  0.896105  1
  O  O19  1  0.959481  0.066871  0.603895  1
  O  O20  1  0.970394  0.287834  0.230519  1
  O  O21  1  0.970394  0.712166  0.269481  1
  O  O22  1  0.015569  0.707808  0.770876  1
  O  O23  1  0.015569  0.292192  0.729124  1
  O  O24  1  0.867739  0.371771  0.444169  1
  O  O25  1  0.867739  0.628229  0.055831  1
  O  O26  1  0.131812  0.627599  0.553029  1
  O  O27  1  0.131812  0.372401  0.946971  1
  O  O28  1  0.627663  0.514801  0.610737  1
  O  O29  1  0.627663  0.485199  0.889263  1
  O  O30  1  0.377550  0.480102  0.392435  1
  O  O31  1  0.377550  0.519898  0.107565  1
  O  O32  1  0.481933  0.144052  0.565641  1
  O  O33  1  0.481933  0.855948  0.934359  1
  O  O34  1  0.528264  0.853667  0.434247  1
  O  O35  1  0.528264  0.146333  0.065753  1
