# generated using pymatgen
data_MgPa6Co17P12
_symmetry_space_group_name_H-M   'P 1'
_cell_length_a   3.77836000
_cell_length_b   10.43833400
_cell_length_c   12.32066000
_cell_angle_alpha   90.00000000
_cell_angle_beta   90.00000000
_cell_angle_gamma   90.00000000
_symmetry_Int_Tables_number   1
_chemical_formula_structural   MgPa6Co17P12
_chemical_formula_sum   'Mg1 Pa6 Co17 P12'
_cell_volume   485.92416485
_cell_formula_units_Z   1
loop_
 _symmetry_equiv_pos_site_id
 _symmetry_equiv_pos_as_xyz
  1  'x, y, z'
loop_
 _atom_site_type_symbol
 _atom_site_label
 _atom_site_symmetry_multiplicity
 _atom_site_fract_x
 _atom_site_fract_y
 _atom_site_fract_z
 _atom_site_occupancy
  Mg  Mg0  1  0.500000  0.500000  0.148690  1
  Pa  Pa1  1  0.000000  0.500000  0.526747  1
  Pa  Pa2  1  0.500000  0.000000  0.477141  1
  Pa  Pa3  1  0.500000  0.818272  0.209818  1
  Pa  Pa4  1  0.500000  0.181728  0.209818  1
  Pa  Pa5  1  0.000000  0.684180  0.794053  1
  Pa  Pa6  1  0.000000  0.315820  0.794053  1
  Co  Co7  1  0.000000  0.500000  0.981347  1
  Co  Co8  1  0.500000  0.000000  0.021535  1
  Co  Co9  1  0.500000  0.302263  0.432137  1
  Co  Co10  1  0.500000  0.697737  0.432137  1
  Co  Co11  1  0.000000  0.197241  0.570774  1
  Co  Co12  1  0.000000  0.802759  0.570774  1
  Co  Co13  1  0.500000  0.878753  0.712838  1
  Co  Co14  1  0.500000  0.121247  0.712838  1
  Co  Co15  1  0.000000  0.626045  0.288544  1
  Co  Co16  1  0.000000  0.373955  0.288544  1
  Co  Co17  1  0.500000  0.327880  0.990875  1
  Co  Co18  1  0.500000  0.672120  0.990875  1
  Co  Co19  1  0.000000  0.162832  0.002751  1
  Co  Co20  1  0.000000  0.837168  0.002751  1
  Co  Co21  1  0.000000  0.000000  0.837689  1
  Co  Co22  1  0.500000  0.500000  0.700900  1
  Co  Co23  1  0.000000  0.000000  0.300492  1
  P  P24  1  0.500000  0.308111  0.614789  1
  P  P25  1  0.500000  0.691889  0.614789  1
  P  P26  1  0.000000  0.190870  0.388629  1
  P  P27  1  0.000000  0.809130  0.388629  1
  P  P28  1  0.500000  0.500000  0.881792  1
  P  P29  1  0.000000  0.000000  0.119202  1
  P  P30  1  0.500000  0.853733  0.894056  1
  P  P31  1  0.500000  0.146267  0.894056  1
  P  P32  1  0.000000  0.660237  0.099261  1
  P  P33  1  0.000000  0.339763  0.099261  1
  P  P34  1  0.500000  0.500000  0.349607  1
  P  P35  1  0.000000  0.000000  0.657810  1
