# generated using pymatgen
data_AcNd2Zn11
_symmetry_space_group_name_H-M   'P 1'
_cell_length_a   4.56483540
_cell_length_b   8.41411340
_cell_length_c   8.41411361
_cell_angle_alpha   63.34783790
_cell_angle_beta   74.26070983
_cell_angle_gamma   74.26070681
_symmetry_Int_Tables_number   1
_chemical_formula_structural   AcNd2Zn11
_chemical_formula_sum   'Ac1 Nd2 Zn11'
_cell_volume   273.77430564
_cell_formula_units_Z   1
loop_
 _symmetry_equiv_pos_site_id
 _symmetry_equiv_pos_as_xyz
  1  'x, y, z'
loop_
 _atom_site_type_symbol
 _atom_site_label
 _atom_site_symmetry_multiplicity
 _atom_site_fract_x
 _atom_site_fract_y
 _atom_site_fract_z
 _atom_site_occupancy
  Ac  Ac0  1  0.000000  0.000000  0.000000  1
  Nd  Nd1  1  0.703217  0.296783  0.296783  1
  Nd  Nd2  1  0.296783  0.703217  0.703217  1
  Zn  Zn3  1  0.660598  0.694915  0.983889  1
  Zn  Zn4  1  0.339402  0.305085  0.016111  1
  Zn  Zn5  1  0.660598  0.983889  0.694915  1
  Zn  Zn6  1  0.339402  0.016111  0.305085  1
  Zn  Zn7  1  0.500000  0.678074  0.321926  1
  Zn  Zn8  1  0.500000  0.321926  0.678074  1
  Zn  Zn9  1  0.857656  0.430461  0.854228  1
  Zn  Zn10  1  0.142344  0.569539  0.145772  1
  Zn  Zn11  1  0.857656  0.854228  0.430461  1
  Zn  Zn12  1  0.142344  0.145772  0.569539  1
  Zn  Zn13  1  0.000000  0.500000  0.500000  1
