# generated using pymatgen
data_Er20GaBi7Rh4
_symmetry_space_group_name_H-M   'P 1'
_cell_length_a   7.89829460
_cell_length_b   8.94283709
_cell_length_c   12.27666053
_cell_angle_alpha   90.11193344
_cell_angle_beta   90.05865365
_cell_angle_gamma   90.09195669
_symmetry_Int_Tables_number   1
_chemical_formula_structural   Er20GaBi7Rh4
_chemical_formula_sum   'Er20 Ga1 Bi7 Rh4'
_cell_volume   867.13612150
_cell_formula_units_Z   1
loop_
 _symmetry_equiv_pos_site_id
 _symmetry_equiv_pos_as_xyz
  1  'x, y, z'
loop_
 _atom_site_type_symbol
 _atom_site_label
 _atom_site_symmetry_multiplicity
 _atom_site_fract_x
 _atom_site_fract_y
 _atom_site_fract_z
 _atom_site_occupancy
  Er  Er0  1  0.671412  0.760710  0.710562  1
  Er  Er1  1  0.337603  0.249858  0.294114  1
  Er  Er2  1  0.154146  0.239521  0.786669  1
  Er  Er3  1  0.839239  0.748588  0.209397  1
  Er  Er4  1  0.116058  0.760846  0.801544  1
  Er  Er5  1  0.874923  0.250108  0.191987  1
  Er  Er6  1  0.639697  0.240980  0.692694  1
  Er  Er7  1  0.374623  0.750506  0.307118  1
  Er  Er8  1  0.549865  0.748628  0.998015  1
  Er  Er9  1  0.447752  0.251126  0.000501  1
  Er  Er10  1  0.042522  0.238762  0.509154  1
  Er  Er11  1  0.950037  0.761169  0.504486  1
  Er  Er12  1  0.822706  0.455430  0.932378  1
  Er  Er13  1  0.175850  0.545387  0.065626  1
  Er  Er14  1  0.324767  0.542525  0.567245  1
  Er  Er15  1  0.175596  0.956289  0.066545  1
  Er  Er16  1  0.678950  0.458208  0.434675  1
  Er  Er17  1  0.828183  0.042008  0.923885  1
  Er  Er18  1  0.675702  0.043149  0.436306  1
  Er  Er19  1  0.316932  0.957554  0.568559  1
  Ga  Ga20  1  0.936181  0.005147  0.670271  1
  Bi  Bi21  1  0.067261  0.991451  0.325784  1
  Bi  Bi22  1  0.431835  0.991362  0.828269  1
  Bi  Bi23  1  0.067838  0.508228  0.331251  1
  Bi  Bi24  1  0.567539  0.009080  0.172119  1
  Bi  Bi25  1  0.932969  0.492776  0.672083  1
  Bi  Bi26  1  0.567033  0.490554  0.173305  1
  Bi  Bi27  1  0.431570  0.508121  0.824435  1
  Rh  Rh28  1  0.923793  0.750739  0.989325  1
  Rh  Rh29  1  0.074711  0.250339  0.009067  1
  Rh  Rh30  1  0.429440  0.249690  0.511607  1
  Rh  Rh31  1  0.573267  0.751161  0.491026  1
