# generated using pymatgen
data_Tm3LuGa7Ag5
_symmetry_space_group_name_H-M   'P 1'
_cell_length_a   4.28472500
_cell_length_b   6.97142893
_cell_length_c   10.32120703
_cell_angle_alpha   89.95298742
_cell_angle_beta   90.00000000
_cell_angle_gamma   90.00000000
_symmetry_Int_Tables_number   1
_chemical_formula_structural   Tm3LuGa7Ag5
_chemical_formula_sum   'Tm3 Lu1 Ga7 Ag5'
_cell_volume   308.30111916
_cell_formula_units_Z   1
loop_
 _symmetry_equiv_pos_site_id
 _symmetry_equiv_pos_as_xyz
  1  'x, y, z'
loop_
 _atom_site_type_symbol
 _atom_site_label
 _atom_site_symmetry_multiplicity
 _atom_site_fract_x
 _atom_site_fract_y
 _atom_site_fract_z
 _atom_site_occupancy
  Tm  Tm0  1  0.500000  0.776372  0.176441  1
  Tm  Tm1  1  0.500000  0.269232  0.323798  1
  Tm  Tm2  1  0.000000  0.222337  0.826155  1
  Lu  Lu3  1  0.000000  0.731191  0.673116  1
  Ga  Ga4  1  0.500000  0.929560  0.844367  1
  Ga  Ga5  1  0.500000  0.432519  0.659496  1
  Ga  Ga6  1  0.000000  0.070253  0.153672  1
  Ga  Ga7  1  0.000000  0.567681  0.342333  1
  Ga  Ga8  1  0.500000  0.198881  0.033591  1
  Ga  Ga9  1  0.000000  0.304219  0.533630  1
  Ga  Ga10  1  0.000000  0.797414  0.965362  1
  Ag  Ag11  1  0.500000  0.545899  0.905915  1
  Ag  Ag12  1  0.500000  0.051497  0.598794  1
  Ag  Ag13  1  0.000000  0.452730  0.095916  1
  Ag  Ag14  1  0.000000  0.957410  0.401898  1
  Ag  Ag15  1  0.500000  0.692804  0.465514  1
