# generated using pymatgen
data_YbHoRu2O7
_symmetry_space_group_name_H-M   'P 1'
_cell_length_a   7.21894725
_cell_length_b   7.21894736
_cell_length_c   7.22308100
_cell_angle_alpha   59.98106102
_cell_angle_beta   59.98106049
_cell_angle_gamma   59.96197953
_symmetry_Int_Tables_number   1
_chemical_formula_structural   YbHoRu2O7
_chemical_formula_sum   'Yb2 Ho2 Ru4 O14'
_cell_volume   266.01490656
_cell_formula_units_Z   2
loop_
 _symmetry_equiv_pos_site_id
 _symmetry_equiv_pos_as_xyz
  1  'x, y, z'
loop_
 _atom_site_type_symbol
 _atom_site_label
 _atom_site_symmetry_multiplicity
 _atom_site_fract_x
 _atom_site_fract_y
 _atom_site_fract_z
 _atom_site_occupancy
  Yb  Yb0  1  0.625000  0.625000  0.125000  1
  Yb  Yb1  1  0.625000  0.625000  0.625000  1
  Ho  Ho2  1  0.625000  0.125000  0.625000  1
  Ho  Ho3  1  0.125000  0.625000  0.625000  1
  Ru  Ru4  1  0.125000  0.125000  0.625000  1
  Ru  Ru5  1  0.125000  0.625000  0.125000  1
  Ru  Ru6  1  0.625000  0.125000  0.125000  1
  Ru  Ru7  1  0.125000  0.125000  0.125000  1
  O  O8  1  0.452983  0.048612  0.454653  1
  O  O9  1  0.201388  0.797017  0.795347  1
  O  O10  1  0.797017  0.201388  0.206249  1
  O  O11  1  0.201388  0.797017  0.206249  1
  O  O12  1  0.802370  0.802370  0.197630  1
  O  O13  1  0.208014  0.208014  0.791986  1
  O  O14  1  0.447630  0.447630  0.052370  1
  O  O15  1  0.048612  0.452983  0.454653  1
  O  O16  1  0.452983  0.048612  0.043751  1
  O  O17  1  0.041986  0.041986  0.458014  1
  O  O18  1  0.797017  0.201388  0.795347  1
  O  O19  1  0.048612  0.452983  0.043751  1
  O  O20  1  0.494481  0.494481  0.505519  1
  O  O21  1  0.755519  0.755519  0.744481  1
