# generated using pymatgen
data_TbY2(ZnNi)3
_symmetry_space_group_name_H-M   'P 1'
_cell_length_a   7.04725000
_cell_length_b   7.03453283
_cell_length_c   3.79991900
_cell_angle_alpha   90.00000000
_cell_angle_beta   90.00000000
_cell_angle_gamma   120.05982965
_symmetry_Int_Tables_number   1
_chemical_formula_structural   TbY2(ZnNi)3
_chemical_formula_sum   'Tb1 Y2 Zn3 Ni3'
_cell_volume   163.04135103
_cell_formula_units_Z   1
loop_
 _symmetry_equiv_pos_site_id
 _symmetry_equiv_pos_as_xyz
  1  'x, y, z'
loop_
 _atom_site_type_symbol
 _atom_site_label
 _atom_site_symmetry_multiplicity
 _atom_site_fract_x
 _atom_site_fract_y
 _atom_site_fract_z
 _atom_site_occupancy
  Tb  Tb0  1  0.589632  0.000000  0.000000  1
  Y  Y1  1  0.000387  0.590490  0.000000  1
  Y  Y2  1  0.409897  0.409510  0.000000  1
  Zn  Zn3  1  0.242119  0.000000  0.500000  1
  Zn  Zn4  1  0.757838  0.757609  0.500000  1
  Zn  Zn5  1  0.000229  0.242391  0.500000  1
  Ni  Ni6  1  0.999563  0.000000  0.000000  1
  Ni  Ni7  1  0.666470  0.332605  0.500000  1
  Ni  Ni8  1  0.333864  0.667395  0.500000  1
