# generated using pymatgen
data_HoLu15(In3Rh)2
_symmetry_space_group_name_H-M   'P 1'
_cell_length_a   10.24515300
_cell_length_b   10.23810049
_cell_length_c   6.88851800
_cell_angle_alpha   89.99702065
_cell_angle_beta   90.00000000
_cell_angle_gamma   120.02279280
_symmetry_Int_Tables_number   1
_chemical_formula_structural   HoLu15(In3Rh)2
_chemical_formula_sum   'Ho1 Lu15 In6 Rh2'
_cell_volume   625.59673378
_cell_formula_units_Z   1
loop_
 _symmetry_equiv_pos_site_id
 _symmetry_equiv_pos_as_xyz
  1  'x, y, z'
loop_
 _atom_site_type_symbol
 _atom_site_label
 _atom_site_symmetry_multiplicity
 _atom_site_fract_x
 _atom_site_fract_y
 _atom_site_fract_z
 _atom_site_occupancy
  Ho  Ho0  1  0.531783  0.063565  0.524485  1
  Lu  Lu1  1  0.935845  0.467994  0.524785  1
  Lu  Lu2  1  0.532150  0.467994  0.524785  1
  Lu  Lu3  1  0.467646  0.935293  0.024534  1
  Lu  Lu4  1  0.064318  0.532158  0.024679  1
  Lu  Lu5  1  0.467840  0.532158  0.024679  1
  Lu  Lu6  1  0.177054  0.354106  0.729226  1
  Lu  Lu7  1  0.646204  0.822724  0.729599  1
  Lu  Lu8  1  0.176521  0.822724  0.729599  1
  Lu  Lu9  1  0.822904  0.645810  0.229168  1
  Lu  Lu10  1  0.353618  0.177089  0.228790  1
  Lu  Lu11  1  0.823470  0.177089  0.228790  1
  Lu  Lu12  1  0.666897  0.333794  0.903635  1
  Lu  Lu13  1  0.333125  0.666251  0.403267  1
  Lu  Lu14  1  0.999981  0.999963  0.507209  1
  Lu  Lu15  1  0.000015  0.000030  0.007415  1
  In  In16  1  0.837245  0.674490  0.769336  1
  In  In17  1  0.325072  0.162859  0.769616  1
  In  In18  1  0.837787  0.162859  0.769616  1
  In  In19  1  0.162702  0.325405  0.269364  1
  In  In20  1  0.674589  0.837221  0.269235  1
  In  In21  1  0.162632  0.837221  0.269235  1
  Rh  Rh22  1  0.667225  0.334449  0.296983  1
  Rh  Rh23  1  0.333376  0.666754  0.797649  1
