# generated using pymatgen
data_La4TlInPd4
_symmetry_space_group_name_H-M   'P 1'
_cell_length_a   3.96226300
_cell_length_b   7.95601800
_cell_length_c   7.95601800
_cell_angle_alpha   90.00000000
_cell_angle_beta   90.00000000
_cell_angle_gamma   90.00000000
_symmetry_Int_Tables_number   1
_chemical_formula_structural   La4TlInPd4
_chemical_formula_sum   'La4 Tl1 In1 Pd4'
_cell_volume   250.80420465
_cell_formula_units_Z   1
loop_
 _symmetry_equiv_pos_site_id
 _symmetry_equiv_pos_as_xyz
  1  'x, y, z'
loop_
 _atom_site_type_symbol
 _atom_site_label
 _atom_site_symmetry_multiplicity
 _atom_site_fract_x
 _atom_site_fract_y
 _atom_site_fract_z
 _atom_site_occupancy
  La  La0  1  0.500000  0.177059  0.674123  1
  La  La1  1  0.500000  0.822941  0.325877  1
  La  La2  1  0.500000  0.325877  0.177059  1
  La  La3  1  0.500000  0.674123  0.822941  1
  Tl  Tl4  1  0.000000  0.500000  0.500000  1
  In  In5  1  0.000000  0.000000  0.000000  1
  Pd  Pd6  1  0.000000  0.630997  0.121433  1
  Pd  Pd7  1  0.000000  0.369003  0.878567  1
  Pd  Pd8  1  0.000000  0.878567  0.630997  1
  Pd  Pd9  1  0.000000  0.121433  0.369003  1
