# generated using pymatgen
data_Th2Fe10P7Ru2
_symmetry_space_group_name_H-M   'P 1'
_cell_length_a   9.08835554
_cell_length_b   9.10033674
_cell_length_c   3.74734600
_cell_angle_alpha   90.00000000
_cell_angle_beta   90.00000000
_cell_angle_gamma   120.24426334
_symmetry_Int_Tables_number   1
_chemical_formula_structural   Th2Fe10P7Ru2
_chemical_formula_sum   'Th2 Fe10 P7 Ru2'
_cell_volume   267.74598778
_cell_formula_units_Z   1
loop_
 _symmetry_equiv_pos_site_id
 _symmetry_equiv_pos_as_xyz
  1  'x, y, z'
loop_
 _atom_site_type_symbol
 _atom_site_label
 _atom_site_symmetry_multiplicity
 _atom_site_fract_x
 _atom_site_fract_y
 _atom_site_fract_z
 _atom_site_occupancy
  Th  Th0  1  0.332325  0.666240  0.000000  1
  Th  Th1  1  0.999632  0.998131  0.500000  1
  Fe  Fe2  1  0.030884  0.271698  0.000000  1
  Fe  Fe3  1  0.727840  0.761623  0.000000  1
  Fe  Fe4  1  0.239576  0.967374  0.000000  1
  Fe  Fe5  1  0.548028  0.061486  0.000000  1
  Fe  Fe6  1  0.939987  0.482471  0.000000  1
  Fe  Fe7  1  0.514493  0.455718  0.000000  1
  Fe  Fe8  1  0.614339  0.899758  0.500000  1
  Fe  Fe9  1  0.104294  0.715246  0.500000  1
  Fe  Fe10  1  0.282820  0.387206  0.500000  1
  Fe  Fe11  1  0.783621  0.233511  0.500000  1
  P  P12  1  0.768875  0.028138  0.000000  1
  P  P13  1  0.974011  0.739438  0.000000  1
  P  P14  1  0.258216  0.233006  0.000000  1
  P  P15  1  0.375986  0.934391  0.500000  1
  P  P16  1  0.061190  0.436749  0.500000  1
  P  P17  1  0.559605  0.627495  0.500000  1
  P  P18  1  0.666999  0.332890  0.000000  1
  Ru  Ru19  1  0.765596  0.549765  0.500000  1
  Ru  Ru20  1  0.451685  0.217666  0.500000  1
