# generated using pymatgen
data_DyHo3(AlGa2)2
_symmetry_space_group_name_H-M   'P 1'
_cell_length_a   6.97749028
_cell_length_b   6.97749028
_cell_length_c   4.45658700
_cell_angle_alpha   90.00000000
_cell_angle_beta   90.00000000
_cell_angle_gamma   89.90740693
_symmetry_Int_Tables_number   1
_chemical_formula_structural   DyHo3(AlGa2)2
_chemical_formula_sum   'Dy1 Ho3 Al2 Ga4'
_cell_volume   216.97030628
_cell_formula_units_Z   1
loop_
 _symmetry_equiv_pos_site_id
 _symmetry_equiv_pos_as_xyz
  1  'x, y, z'
loop_
 _atom_site_type_symbol
 _atom_site_label
 _atom_site_symmetry_multiplicity
 _atom_site_fract_x
 _atom_site_fract_y
 _atom_site_fract_z
 _atom_site_occupancy
  Dy  Dy0  1  0.673459  0.173459  0.500000  1
  Ho  Ho1  1  0.326354  0.826354  0.500000  1
  Ho  Ho2  1  0.826624  0.673529  0.500000  1
  Ho  Ho3  1  0.173529  0.326624  0.500000  1
  Al  Al4  1  0.499933  0.500091  0.000000  1
  Al  Al5  1  0.000091  0.999933  0.000000  1
  Ga  Ga6  1  0.869379  0.369379  0.000000  1
  Ga  Ga7  1  0.368788  0.130853  0.000000  1
  Ga  Ga8  1  0.130990  0.630990  0.000000  1
  Ga  Ga9  1  0.630853  0.868788  0.000000  1
