# generated using pymatgen
data_CaHo17(BiO)10
_symmetry_space_group_name_H-M   'P 1'
_cell_length_a   9.98746100
_cell_length_b   9.98746100
_cell_length_c   8.91668600
_cell_angle_alpha   90.00000000
_cell_angle_beta   90.00000000
_cell_angle_gamma   90.00000000
_symmetry_Int_Tables_number   1
_chemical_formula_structural   CaHo17(BiO)10
_chemical_formula_sum   'Ca1 Ho17 Bi10 O10'
_cell_volume   889.43387542
_cell_formula_units_Z   1
loop_
 _symmetry_equiv_pos_site_id
 _symmetry_equiv_pos_as_xyz
  1  'x, y, z'
loop_
 _atom_site_type_symbol
 _atom_site_label
 _atom_site_symmetry_multiplicity
 _atom_site_fract_x
 _atom_site_fract_y
 _atom_site_fract_z
 _atom_site_occupancy
  Ca  Ca0  1  0.000000  0.500000  0.323294  1
  Ho  Ho1  1  0.206729  0.894107  0.334498  1
  Ho  Ho2  1  0.500000  0.000000  0.680522  1
  Ho  Ho3  1  0.292840  0.605656  0.665213  1
  Ho  Ho4  1  0.707160  0.394344  0.665213  1
  Ho  Ho5  1  0.725620  0.916076  0.002722  1
  Ho  Ho6  1  0.394107  0.293271  0.334498  1
  Ho  Ho7  1  0.105656  0.207160  0.665213  1
  Ho  Ho8  1  0.605893  0.706729  0.334498  1
  Ho  Ho9  1  0.894344  0.792840  0.665213  1
  Ho  Ho10  1  0.274380  0.083924  0.002722  1
  Ho  Ho11  1  0.776335  0.582920  0.998700  1
  Ho  Ho12  1  0.223665  0.417080  0.998700  1
  Ho  Ho13  1  0.793271  0.105893  0.334498  1
  Ho  Ho14  1  0.583924  0.225620  0.002722  1
  Ho  Ho15  1  0.917080  0.276335  0.998700  1
  Ho  Ho16  1  0.082920  0.723665  0.998700  1
  Ho  Ho17  1  0.416076  0.774380  0.002722  1
  Bi  Bi18  1  0.594524  0.693899  0.695978  1
  Bi  Bi19  1  0.904540  0.808305  0.303287  1
  Bi  Bi20  1  0.691695  0.404540  0.303287  1
  Bi  Bi21  1  0.000000  0.500000  0.681944  1
  Bi  Bi22  1  0.193899  0.905476  0.695978  1
  Bi  Bi23  1  0.806101  0.094524  0.695978  1
  Bi  Bi24  1  0.308305  0.595460  0.303287  1
  Bi  Bi25  1  0.405476  0.306101  0.695978  1
  Bi  Bi26  1  0.095460  0.191695  0.303287  1
  Bi  Bi27  1  0.500000  0.000000  0.320246  1
  O  O28  1  0.226834  0.879684  0.083136  1
  O  O29  1  0.726013  0.379864  0.916374  1
  O  O30  1  0.500000  0.000000  0.937301  1
  O  O31  1  0.620316  0.726834  0.083136  1
  O  O32  1  0.000000  0.500000  0.057060  1
  O  O33  1  0.879864  0.773987  0.916374  1
  O  O34  1  0.120136  0.226013  0.916374  1
  O  O35  1  0.379684  0.273166  0.083136  1
  O  O36  1  0.773166  0.120316  0.083136  1
  O  O37  1  0.273987  0.620136  0.916374  1
