# generated using pymatgen
data_Tm8VSi16W11
_symmetry_space_group_name_H-M   'P 1'
_cell_length_a   6.71787213
_cell_length_b   6.89547835
_cell_length_c   12.85040183
_cell_angle_alpha   89.95559850
_cell_angle_beta   90.02431200
_cell_angle_gamma   90.14982021
_symmetry_Int_Tables_number   1
_chemical_formula_structural   Tm8VSi16W11
_chemical_formula_sum   'Tm8 V1 Si16 W11'
_cell_volume   595.26614968
_cell_formula_units_Z   1
loop_
 _symmetry_equiv_pos_site_id
 _symmetry_equiv_pos_as_xyz
  1  'x, y, z'
loop_
 _atom_site_type_symbol
 _atom_site_label
 _atom_site_symmetry_multiplicity
 _atom_site_fract_x
 _atom_site_fract_y
 _atom_site_fract_z
 _atom_site_occupancy
  Tm  Tm0  1  0.996405  0.168638  0.092833  1
  Tm  Tm1  1  0.004103  0.831030  0.908249  1
  Tm  Tm2  1  0.505003  0.667703  0.907304  1
  Tm  Tm3  1  0.004422  0.831321  0.592807  1
  Tm  Tm4  1  0.496644  0.330794  0.093131  1
  Tm  Tm5  1  0.996968  0.169354  0.405563  1
  Tm  Tm6  1  0.495666  0.332498  0.405600  1
  Tm  Tm7  1  0.503658  0.667725  0.593296  1
  V  V8  1  0.168112  0.661401  0.126145  1
  Si  Si9  1  0.033636  0.126449  0.750231  1
  Si  Si10  1  0.968319  0.871332  0.248162  1
  Si  Si11  1  0.462485  0.629676  0.247324  1
  Si  Si12  1  0.532794  0.371905  0.750644  1
  Si  Si13  1  0.301546  0.863575  0.750592  1
  Si  Si14  1  0.699400  0.135772  0.249615  1
  Si  Si15  1  0.199168  0.368025  0.247701  1
  Si  Si16  1  0.801949  0.636493  0.750371  1
  Si  Si17  1  0.162908  0.456921  0.545374  1
  Si  Si18  1  0.836149  0.542462  0.454823  1
  Si  Si19  1  0.337300  0.959430  0.453503  1
  Si  Si20  1  0.839878  0.543472  0.046449  1
  Si  Si21  1  0.662802  0.040681  0.546166  1
  Si  Si22  1  0.164081  0.459702  0.956929  1
  Si  Si23  1  0.661168  0.041218  0.953725  1
  Si  Si24  1  0.335387  0.954008  0.047788  1
  W  W25  1  0.162839  0.498111  0.750788  1
  W  W26  1  0.838102  0.504266  0.249697  1
  W  W27  1  0.333772  0.000967  0.250276  1
  W  W28  1  0.666505  0.997842  0.749920  1
  W  W29  1  0.330703  0.163280  0.625413  1
  W  W30  1  0.668931  0.835819  0.374115  1
  W  W31  1  0.169364  0.661567  0.375572  1
  W  W32  1  0.670568  0.836977  0.124657  1
  W  W33  1  0.829121  0.338404  0.625068  1
  W  W34  1  0.329728  0.163150  0.875262  1
  W  W35  1  0.830414  0.338030  0.874907  1
