# generated using pymatgen
data_Ho7Er9Cd4PdRu3
_symmetry_space_group_name_H-M   'P 1'
_cell_length_a   9.54706159
_cell_length_b   9.59465902
_cell_length_c   9.62158200
_cell_angle_alpha   59.90713350
_cell_angle_beta   59.74145562
_cell_angle_gamma   59.62611404
_symmetry_Int_Tables_number   1
_chemical_formula_structural   Ho7Er9Cd4PdRu3
_chemical_formula_sum   'Ho7 Er9 Cd4 Pd1 Ru3'
_cell_volume   619.77594784
_cell_formula_units_Z   1
loop_
 _symmetry_equiv_pos_site_id
 _symmetry_equiv_pos_as_xyz
  1  'x, y, z'
loop_
 _atom_site_type_symbol
 _atom_site_label
 _atom_site_symmetry_multiplicity
 _atom_site_fract_x
 _atom_site_fract_y
 _atom_site_fract_z
 _atom_site_occupancy
  Ho  Ho0  1  0.815271  0.804035  0.190347  1
  Ho  Ho1  1  0.936957  0.560662  0.562802  1
  Ho  Ho2  1  0.556757  0.938394  0.938091  1
  Ho  Ho3  1  0.556757  0.938394  0.566758  1
  Ho  Ho4  1  0.936957  0.560662  0.939581  1
  Ho  Ho5  1  0.556174  0.566434  0.938696  1
  Ho  Ho6  1  0.936623  0.938517  0.562430  1
  Er  Er7  1  0.345650  0.351791  0.350805  1
  Er  Er8  1  0.345650  0.351791  0.951756  1
  Er  Er9  1  0.345405  0.955099  0.349748  1
  Er  Er10  1  0.964750  0.344926  0.345162  1
  Er  Er11  1  0.815493  0.189237  0.190484  1
  Er  Er12  1  0.185600  0.811457  0.812082  1
  Er  Er13  1  0.185600  0.811457  0.190862  1
  Er  Er14  1  0.815493  0.189237  0.804786  1
  Er  Er15  1  0.186907  0.188393  0.812350  1
  Cd  Cd16  1  0.580648  0.580077  0.580620  1
  Cd  Cd17  1  0.580648  0.580077  0.258654  1
  Cd  Cd18  1  0.580580  0.258206  0.580606  1
  Cd  Cd19  1  0.255735  0.581705  0.581279  1
  Pd  Pd20  1  0.575189  0.143843  0.140484  1
  Ru  Ru21  1  0.146452  0.139645  0.136635  1
  Ru  Ru22  1  0.146452  0.139645  0.577267  1
  Ru  Ru23  1  0.148257  0.576315  0.137714  1
