# generated using pymatgen
data_HoNp3(WN2)4
_symmetry_space_group_name_H-M   'P 1'
_cell_length_a   3.18029900
_cell_length_b   5.62727034
_cell_length_c   10.86866062
_cell_angle_alpha   89.86105499
_cell_angle_beta   90.00000000
_cell_angle_gamma   90.00000000
_symmetry_Int_Tables_number   1
_chemical_formula_structural   HoNp3(WN2)4
_chemical_formula_sum   'Ho1 Np3 W4 N8'
_cell_volume   194.50935002
_cell_formula_units_Z   1
loop_
 _symmetry_equiv_pos_site_id
 _symmetry_equiv_pos_as_xyz
  1  'x, y, z'
loop_
 _atom_site_type_symbol
 _atom_site_label
 _atom_site_symmetry_multiplicity
 _atom_site_fract_x
 _atom_site_fract_y
 _atom_site_fract_z
 _atom_site_occupancy
  Ho  Ho0  1  0.750000  0.925720  0.855092  1
  Np  Np1  1  0.250000  0.574874  0.356879  1
  Np  Np2  1  0.250000  0.070144  0.141564  1
  Np  Np3  1  0.750000  0.425617  0.643590  1
  W  W4  1  0.250000  0.931151  0.604338  1
  W  W5  1  0.250000  0.435317  0.901246  1
  W  W6  1  0.750000  0.068402  0.397600  1
  W  W7  1  0.750000  0.566489  0.101200  1
  N  N8  1  0.250000  0.664106  0.746380  1
  N  N9  1  0.250000  0.169801  0.755427  1
  N  N10  1  0.750000  0.332369  0.253901  1
  N  N11  1  0.750000  0.833133  0.245115  1
  N  N12  1  0.250000  0.253365  0.495405  1
  N  N13  1  0.250000  0.759485  0.002962  1
  N  N14  1  0.750000  0.745252  0.504933  1
  N  N15  1  0.750000  0.244775  0.994369  1
