# generated using pymatgen
data_Ca6YbNi4Sn13
_symmetry_space_group_name_H-M   'P 1'
_cell_length_a   11.26801200
_cell_length_b   11.26801200
_cell_length_c   4.61124100
_cell_angle_alpha   90.00000000
_cell_angle_beta   90.00000000
_cell_angle_gamma   90.00000000
_symmetry_Int_Tables_number   1
_chemical_formula_structural   Ca6YbNi4Sn13
_chemical_formula_sum   'Ca6 Yb1 Ni4 Sn13'
_cell_volume   585.48048274
_cell_formula_units_Z   1
loop_
 _symmetry_equiv_pos_site_id
 _symmetry_equiv_pos_as_xyz
  1  'x, y, z'
loop_
 _atom_site_type_symbol
 _atom_site_label
 _atom_site_symmetry_multiplicity
 _atom_site_fract_x
 _atom_site_fract_y
 _atom_site_fract_z
 _atom_site_occupancy
  Ca  Ca0  1  0.338407  0.670925  0.500000  1
  Ca  Ca1  1  0.661593  0.329075  0.500000  1
  Ca  Ca2  1  0.329075  0.338407  0.500000  1
  Ca  Ca3  1  0.670925  0.661593  0.500000  1
  Ca  Ca4  1  0.500000  0.000000  0.500000  1
  Ca  Ca5  1  0.000000  0.500000  0.500000  1
  Yb  Yb6  1  0.000000  0.000000  0.000000  1
  Ni  Ni7  1  0.119814  0.724270  0.000000  1
  Ni  Ni8  1  0.880186  0.275730  0.000000  1
  Ni  Ni9  1  0.275730  0.119814  0.000000  1
  Ni  Ni10  1  0.724270  0.880186  0.000000  1
  Sn  Sn11  1  0.283816  0.889430  0.000000  1
  Sn  Sn12  1  0.716184  0.110570  0.000000  1
  Sn  Sn13  1  0.110570  0.283816  0.000000  1
  Sn  Sn14  1  0.889430  0.716184  0.000000  1
  Sn  Sn15  1  0.076985  0.809739  0.500000  1
  Sn  Sn16  1  0.923015  0.190261  0.500000  1
  Sn  Sn17  1  0.190261  0.076985  0.500000  1
  Sn  Sn18  1  0.809739  0.923015  0.500000  1
  Sn  Sn19  1  0.518572  0.784595  0.000000  1
  Sn  Sn20  1  0.481428  0.215405  0.000000  1
  Sn  Sn21  1  0.215405  0.518572  0.000000  1
  Sn  Sn22  1  0.784595  0.481428  0.000000  1
  Sn  Sn23  1  0.500000  0.500000  0.000000  1
