# generated using pymatgen
data_Tb4Sc4OsPt3
_symmetry_space_group_name_H-M   'P 1'
_cell_length_a   4.48725700
_cell_length_b   7.05825784
_cell_length_c   8.56967405
_cell_angle_alpha   87.92072615
_cell_angle_beta   90.00000000
_cell_angle_gamma   90.00000000
_symmetry_Int_Tables_number   1
_chemical_formula_structural   Tb4Sc4OsPt3
_chemical_formula_sum   'Tb4 Sc4 Os1 Pt3'
_cell_volume   271.24186745
_cell_formula_units_Z   1
loop_
 _symmetry_equiv_pos_site_id
 _symmetry_equiv_pos_as_xyz
  1  'x, y, z'
loop_
 _atom_site_type_symbol
 _atom_site_label
 _atom_site_symmetry_multiplicity
 _atom_site_fract_x
 _atom_site_fract_y
 _atom_site_fract_z
 _atom_site_occupancy
  Tb  Tb0  1  0.250000  0.019368  0.671258  1
  Tb  Tb1  1  0.250000  0.521338  0.821229  1
  Tb  Tb2  1  0.750000  0.990688  0.329234  1
  Tb  Tb3  1  0.750000  0.469156  0.183840  1
  Sc  Sc4  1  0.250000  0.137048  0.070449  1
  Sc  Sc5  1  0.250000  0.643076  0.426185  1
  Sc  Sc6  1  0.750000  0.860260  0.932053  1
  Sc  Sc7  1  0.750000  0.356966  0.566356  1
  Os  Os8  1  0.250000  0.263374  0.392867  1
  Pt  Pt9  1  0.250000  0.754394  0.098160  1
  Pt  Pt10  1  0.750000  0.739998  0.609511  1
  Pt  Pt11  1  0.750000  0.244334  0.898860  1
