# generated using pymatgen
data_La8Pr3Nd(RhBr3)4
_symmetry_space_group_name_H-M   'P 1'
_cell_length_a   10.60497757
_cell_length_b   10.60995047
_cell_length_c   10.60961227
_cell_angle_alpha   108.81267946
_cell_angle_beta   108.78239496
_cell_angle_gamma   110.82226463
_symmetry_Int_Tables_number   1
_chemical_formula_structural   La8Pr3Nd(RhBr3)4
_chemical_formula_sum   'La8 Pr3 Nd1 Rh4 Br12'
_cell_volume   918.63849589
_cell_formula_units_Z   1
loop_
 _symmetry_equiv_pos_site_id
 _symmetry_equiv_pos_as_xyz
  1  'x, y, z'
loop_
 _atom_site_type_symbol
 _atom_site_label
 _atom_site_symmetry_multiplicity
 _atom_site_fract_x
 _atom_site_fract_y
 _atom_site_fract_z
 _atom_site_occupancy
  La  La0  1  0.468773  0.480609  0.237172  1
  La  La1  1  0.743717  0.231868  0.263160  1
  La  La2  1  0.755959  0.019151  0.487843  1
  La  La3  1  0.231768  0.468613  0.487657  1
  La  La4  1  0.268468  0.756438  0.237173  1
  La  La5  1  0.031177  0.268277  0.012007  1
  La  La6  1  0.019406  0.031459  0.263191  1
  La  La7  1  0.480806  0.743864  0.012127  1
  Pr  Pr8  1  0.015173  0.484760  0.749919  1
  Pr  Pr9  1  0.265420  0.015406  0.030805  1
  Pr  Pr10  1  0.234786  0.265107  0.749965  1
  Nd  Nd11  1  0.484361  0.234329  0.468653  1
  Rh  Rh12  1  0.249250  0.251484  0.250731  1
  Rh  Rh13  1  0.501536  0.999278  0.250770  1
  Rh  Rh14  1  0.998635  0.248633  0.497239  1
  Rh  Rh15  1  0.251348  0.501322  0.002765  1
  Br  Br16  1  0.248308  0.756624  0.745803  1
  Br  Br17  1  0.510738  0.501836  0.753530  1
  Br  Br18  1  0.989190  0.743398  0.991699  1
  Br  Br19  1  0.742771  0.251719  0.753570  1
  Br  Br20  1  0.997523  0.989140  0.745834  1
  Br  Br21  1  0.252555  0.998382  0.508328  1
  Br  Br22  1  0.755890  0.510050  0.508428  1
  Br  Br23  1  0.502526  0.248254  0.991701  1
  Br  Br24  1  0.754631  0.745370  0.250021  1
  Br  Br25  1  0.745300  0.995354  0.990682  1
  Br  Br26  1  0.995323  0.504641  0.249945  1
  Br  Br27  1  0.504663  0.754632  0.509278  1
