# generated using pymatgen
data_Y3ZnCu2Ru
_symmetry_space_group_name_H-M   'P 1'
_cell_length_a   5.60852700
_cell_length_b   5.60852634
_cell_length_c   13.01627500
_cell_angle_alpha   90.00000000
_cell_angle_beta   90.00000000
_cell_angle_gamma   135.93186048
_symmetry_Int_Tables_number   1
_chemical_formula_structural   Y3ZnCu2Ru
_chemical_formula_sum   'Y6 Zn2 Cu4 Ru2'
_cell_volume   284.76707284
_cell_formula_units_Z   2
loop_
 _symmetry_equiv_pos_site_id
 _symmetry_equiv_pos_as_xyz
  1  'x, y, z'
loop_
 _atom_site_type_symbol
 _atom_site_label
 _atom_site_symmetry_multiplicity
 _atom_site_fract_x
 _atom_site_fract_y
 _atom_site_fract_z
 _atom_site_occupancy
  Y  Y0  1  0.288486  0.711514  0.390893  1
  Y  Y1  1  0.711514  0.288486  0.609107  1
  Y  Y2  1  0.992210  0.007790  0.750000  1
  Y  Y3  1  0.007790  0.992210  0.250000  1
  Y  Y4  1  0.711514  0.288486  0.890893  1
  Y  Y5  1  0.288486  0.711514  0.109107  1
  Zn  Zn6  1  0.000000  0.000000  0.500000  1
  Zn  Zn7  1  0.000000  0.000000  0.000000  1
  Cu  Cu8  1  0.423460  0.576540  0.912276  1
  Cu  Cu9  1  0.576540  0.423460  0.087724  1
  Cu  Cu10  1  0.576540  0.423460  0.412276  1
  Cu  Cu11  1  0.423460  0.576540  0.587724  1
  Ru  Ru12  1  0.722268  0.277732  0.250000  1
  Ru  Ru13  1  0.277732  0.722268  0.750000  1
