# generated using pymatgen
data_Np4Ga11GePd
_symmetry_space_group_name_H-M   'P 1'
_cell_length_a   7.51209698
_cell_length_b   7.51209790
_cell_length_c   7.51209742
_cell_angle_alpha   108.01396537
_cell_angle_beta   110.20472103
_cell_angle_gamma   110.20472744
_symmetry_Int_Tables_number   1
_chemical_formula_structural   Np4Ga11GePd
_chemical_formula_sum   'Np4 Ga11 Ge1 Pd1'
_cell_volume   326.17574398
_cell_formula_units_Z   1
loop_
 _symmetry_equiv_pos_site_id
 _symmetry_equiv_pos_as_xyz
  1  'x, y, z'
loop_
 _atom_site_type_symbol
 _atom_site_label
 _atom_site_symmetry_multiplicity
 _atom_site_fract_x
 _atom_site_fract_y
 _atom_site_fract_z
 _atom_site_occupancy
  Np  Np0  1  0.500000  0.503934  0.496066  1
  Np  Np1  1  0.992131  0.996066  0.496066  1
  Np  Np2  1  0.007869  0.503934  0.003934  1
  Np  Np3  1  0.500000  0.996066  0.003934  1
  Ga  Ga4  1  0.500000  0.250000  0.750000  1
  Ga  Ga5  1  0.248522  0.496114  0.744635  1
  Ga  Ga6  1  0.751478  0.496114  0.247592  1
  Ga  Ga7  1  0.751478  0.255365  0.503886  1
  Ga  Ga8  1  0.248522  0.752408  0.503886  1
  Ga  Ga9  1  0.000000  0.293014  0.293014  1
  Ga  Ga10  1  0.000000  0.706986  0.706986  1
  Ga  Ga11  1  0.295494  0.006531  0.302025  1
  Ga  Ga12  1  0.704506  0.006531  0.711037  1
  Ga  Ga13  1  0.295494  0.288963  0.993469  1
  Ga  Ga14  1  0.704506  0.697975  0.993469  1
  Ge  Ge15  1  0.500000  0.750000  0.250000  1
  Pd  Pd16  1  0.000000  0.000000  0.000000  1
