# generated using pymatgen
data_HfNb3(PRu)4
_symmetry_space_group_name_H-M   'P 1'
_cell_length_a   3.77691000
_cell_length_b   6.39125694
_cell_length_c   7.24348778
_cell_angle_alpha   90.15650320
_cell_angle_beta   90.00000000
_cell_angle_gamma   90.00000000
_symmetry_Int_Tables_number   1
_chemical_formula_structural   HfNb3(PRu)4
_chemical_formula_sum   'Hf1 Nb3 P4 Ru4'
_cell_volume   174.85136420
_cell_formula_units_Z   1
loop_
 _symmetry_equiv_pos_site_id
 _symmetry_equiv_pos_as_xyz
  1  'x, y, z'
loop_
 _atom_site_type_symbol
 _atom_site_label
 _atom_site_symmetry_multiplicity
 _atom_site_fract_x
 _atom_site_fract_y
 _atom_site_fract_z
 _atom_site_occupancy
  Hf  Hf0  1  0.250000  0.024134  0.822987  1
  Nb  Nb1  1  0.250000  0.524229  0.672648  1
  Nb  Nb2  1  0.750000  0.975934  0.175608  1
  Nb  Nb3  1  0.750000  0.475617  0.326964  1
  P  P4  1  0.250000  0.271481  0.126076  1
  P  P5  1  0.250000  0.770702  0.375682  1
  P  P6  1  0.750000  0.727897  0.878810  1
  P  P7  1  0.750000  0.232893  0.621041  1
  Ru  Ru8  1  0.250000  0.146847  0.436913  1
  Ru  Ru9  1  0.250000  0.646624  0.061512  1
  Ru  Ru10  1  0.750000  0.851845  0.560930  1
  Ru  Ru11  1  0.750000  0.351798  0.940830  1
