# generated using pymatgen
data_LaSmGaSi4Pt3
_symmetry_space_group_name_H-M   'P 1'
_cell_length_a   8.37057844
_cell_length_b   8.35693754
_cell_length_c   8.34123735
_cell_angle_alpha   137.22125026
_cell_angle_beta   105.48944785
_cell_angle_gamma   90.03295853
_symmetry_Int_Tables_number   1
_chemical_formula_structural   LaSmGaSi4Pt3
_chemical_formula_sum   'La2 Sm2 Ga2 Si8 Pt6'
_cell_volume   364.25985531
_cell_formula_units_Z   2
loop_
 _symmetry_equiv_pos_site_id
 _symmetry_equiv_pos_as_xyz
  1  'x, y, z'
loop_
 _atom_site_type_symbol
 _atom_site_label
 _atom_site_symmetry_multiplicity
 _atom_site_fract_x
 _atom_site_fract_y
 _atom_site_fract_z
 _atom_site_occupancy
  La  La0  1  0.634408  0.370826  0.265778  1
  La  La1  1  0.365592  0.629174  0.734222  1
  Sm  Sm2  1  0.103601  0.868353  0.232680  1
  Sm  Sm3  1  0.896399  0.131647  0.767320  1
  Ga  Ga4  1  0.269007  0.521549  0.250446  1
  Ga  Ga5  1  0.730993  0.478451  0.749554  1
  Si  Si6  1  0.732398  0.981988  0.251617  1
  Si  Si7  1  0.267602  0.018012  0.748383  1
  Si  Si8  1  0.457404  0.108669  0.350841  1
  Si  Si9  1  0.542596  0.891331  0.649159  1
  Si  Si10  1  0.760970  0.611424  0.149591  1
  Si  Si11  1  0.239030  0.388576  0.850409  1
  Si  Si12  1  0.005042  0.256119  0.250301  1
  Si  Si13  1  0.994958  0.743881  0.749699  1
  Pt  Pt14  1  0.243242  0.121131  0.103538  1
  Pt  Pt15  1  0.756758  0.878869  0.896462  1
  Pt  Pt16  1  0.017271  0.643004  0.395417  1
  Pt  Pt17  1  0.982729  0.356996  0.604583  1
  Pt  Pt18  1  0.492851  0.243926  0.750276  1
  Pt  Pt19  1  0.507149  0.756074  0.249724  1
