# generated using pymatgen
data_U4Re(SiTc)6
_symmetry_space_group_name_H-M   'P 1'
_cell_length_a   7.12415734
_cell_length_b   7.12415810
_cell_length_c   7.12415748
_cell_angle_alpha   109.51313747
_cell_angle_beta   109.45026201
_cell_angle_gamma   109.45026935
_symmetry_Int_Tables_number   1
_chemical_formula_structural   U4Re(SiTc)6
_chemical_formula_sum   'U4 Re1 Si6 Tc6'
_cell_volume   278.34184614
_cell_formula_units_Z   1
loop_
 _symmetry_equiv_pos_site_id
 _symmetry_equiv_pos_as_xyz
  1  'x, y, z'
loop_
 _atom_site_type_symbol
 _atom_site_label
 _atom_site_symmetry_multiplicity
 _atom_site_fract_x
 _atom_site_fract_y
 _atom_site_fract_z
 _atom_site_occupancy
  U  U0  1  0.500000  0.499599  0.500401  1
  U  U1  1  0.999198  0.499599  0.999599  1
  U  U2  1  0.500000  0.000401  0.999599  1
  U  U3  1  0.000802  0.000401  0.500401  1
  Re  Re4  1  0.500000  0.750000  0.250000  1
  Si  Si5  1  0.690263  0.999922  0.690185  1
  Si  Si6  1  0.690263  0.690341  0.000078  1
  Si  Si7  1  0.309737  0.309815  0.000078  1
  Si  Si8  1  0.000000  0.690038  0.690038  1
  Si  Si9  1  0.000000  0.309962  0.309962  1
  Si  Si10  1  0.309737  0.999922  0.309659  1
  Tc  Tc11  1  0.750078  0.249997  0.499919  1
  Tc  Tc12  1  0.249922  0.749841  0.499919  1
  Tc  Tc13  1  0.249922  0.500081  0.750003  1
  Tc  Tc14  1  0.000000  0.000000  0.000000  1
  Tc  Tc15  1  0.500000  0.250000  0.750000  1
  Tc  Tc16  1  0.750078  0.500081  0.250159  1
