# generated using pymatgen
data_CaTb2Co9(SiB2)2
_symmetry_space_group_name_H-M   'P 1'
_cell_length_a   5.13165202
_cell_length_b   5.12821079
_cell_length_c   9.32668900
_cell_angle_alpha   89.99998905
_cell_angle_beta   89.99999049
_cell_angle_gamma   119.99603270
_symmetry_Int_Tables_number   1
_chemical_formula_structural   CaTb2Co9(SiB2)2
_chemical_formula_sum   'Ca1 Tb2 Co9 Si2 B4'
_cell_volume   212.56832703
_cell_formula_units_Z   1
loop_
 _symmetry_equiv_pos_site_id
 _symmetry_equiv_pos_as_xyz
  1  'x, y, z'
loop_
 _atom_site_type_symbol
 _atom_site_label
 _atom_site_symmetry_multiplicity
 _atom_site_fract_x
 _atom_site_fract_y
 _atom_site_fract_z
 _atom_site_occupancy
  Ca  Ca0  1  0.999990  0.000000  0.999959  1
  Tb  Tb1  1  0.999994  0.000000  0.336094  1
  Tb  Tb2  1  0.999998  0.999999  0.663925  1
  Co  Co3  1  0.499996  0.000000  0.500009  1
  Co  Co4  1  0.499996  0.500000  0.500005  1
  Co  Co5  1  0.999996  0.500000  0.500005  1
  Co  Co6  1  0.499993  0.000000  0.197288  1
  Co  Co7  1  0.499993  0.500000  0.197268  1
  Co  Co8  1  0.999993  0.500000  0.197300  1
  Co  Co9  1  0.499997  0.000000  0.802706  1
  Co  Co10  1  0.499996  0.500000  0.802727  1
  Co  Co11  1  0.999996  0.499999  0.802710  1
  Si  Si12  1  0.333383  0.666770  0.999972  1
  Si  Si13  1  0.666602  0.333230  0.999972  1
  B  B14  1  0.333387  0.666710  0.345845  1
  B  B15  1  0.666601  0.333290  0.345845  1
  B  B16  1  0.666619  0.333327  0.654187  1
  B  B17  1  0.333373  0.666673  0.654187  1
