# generated using pymatgen
data_NdVF7
_symmetry_space_group_name_H-M   'P 1'
_cell_length_a   5.63102500
_cell_length_b   9.07855561
_cell_length_c   12.13771234
_cell_angle_alpha   62.78943076
_cell_angle_beta   90.00000000
_cell_angle_gamma   90.00000000
_symmetry_Int_Tables_number   1
_chemical_formula_structural   NdVF7
_chemical_formula_sum   'Nd4 V4 F28'
_cell_volume   551.82960015
_cell_formula_units_Z   4
loop_
 _symmetry_equiv_pos_site_id
 _symmetry_equiv_pos_as_xyz
  1  'x, y, z'
loop_
 _atom_site_type_symbol
 _atom_site_label
 _atom_site_symmetry_multiplicity
 _atom_site_fract_x
 _atom_site_fract_y
 _atom_site_fract_z
 _atom_site_occupancy
  Nd  Nd0  1  0.757655  0.806004  0.769055  1
  Nd  Nd1  1  0.257655  0.193996  0.730945  1
  Nd  Nd2  1  0.242345  0.193996  0.230945  1
  Nd  Nd3  1  0.742345  0.806004  0.269055  1
  V  V4  1  0.754293  0.273309  0.956177  1
  V  V5  1  0.254293  0.726691  0.543823  1
  V  V6  1  0.245707  0.726691  0.043823  1
  V  V7  1  0.745707  0.273309  0.456177  1
  F  F8  1  0.440835  0.707338  0.923938  1
  F  F9  1  0.940835  0.292662  0.576062  1
  F  F10  1  0.559165  0.292662  0.076062  1
  F  F11  1  0.059165  0.707338  0.423938  1
  F  F12  1  0.465844  0.284510  0.541646  1
  F  F13  1  0.965844  0.715490  0.958354  1
  F  F14  1  0.534156  0.715490  0.458354  1
  F  F15  1  0.034156  0.284510  0.041646  1
  F  F16  1  0.766734  0.501202  0.865568  1
  F  F17  1  0.266734  0.498798  0.634432  1
  F  F18  1  0.233266  0.498798  0.134432  1
  F  F19  1  0.733266  0.501202  0.365568  1
  F  F20  1  0.759307  0.047295  0.045418  1
  F  F21  1  0.259307  0.952705  0.454582  1
  F  F22  1  0.240693  0.952705  0.954582  1
  F  F23  1  0.740693  0.047295  0.545418  1
  F  F24  1  0.981329  0.730403  0.634574  1
  F  F25  1  0.481329  0.269597  0.865426  1
  F  F26  1  0.018671  0.269597  0.365426  1
  F  F27  1  0.518671  0.730403  0.134574  1
  F  F28  1  0.051539  0.744558  0.166270  1
  F  F29  1  0.551539  0.255442  0.333730  1
  F  F30  1  0.948461  0.255442  0.833730  1
  F  F31  1  0.448461  0.744558  0.666270  1
  F  F32  1  0.411756  0.969209  0.228724  1
  F  F33  1  0.911756  0.030791  0.271276  1
  F  F34  1  0.588244  0.030791  0.771276  1
  F  F35  1  0.088244  0.969209  0.728724  1
