# generated using pymatgen
data_Hf9Ti(GaSn2)2
_symmetry_space_group_name_H-M   'P 1'
_cell_length_a   8.26412648
_cell_length_b   8.26412666
_cell_length_c   8.26412728
_cell_angle_alpha   96.30924023
_cell_angle_beta   96.30923165
_cell_angle_gamma   141.27989129
_symmetry_Int_Tables_number   1
_chemical_formula_structural   Hf9Ti(GaSn2)2
_chemical_formula_sum   'Hf9 Ti1 Ga2 Sn4'
_cell_volume   333.08144224
_cell_formula_units_Z   1
loop_
 _symmetry_equiv_pos_site_id
 _symmetry_equiv_pos_as_xyz
  1  'x, y, z'
loop_
 _atom_site_type_symbol
 _atom_site_label
 _atom_site_symmetry_multiplicity
 _atom_site_fract_x
 _atom_site_fract_y
 _atom_site_fract_z
 _atom_site_occupancy
  Hf  Hf0  1  0.750000  0.250000  0.500000  1
  Hf  Hf1  1  0.786933  0.925225  0.709201  1
  Hf  Hf2  1  0.922267  0.213067  0.138292  1
  Hf  Hf3  1  0.074775  0.783976  0.861708  1
  Hf  Hf4  1  0.216024  0.077733  0.290799  1
  Hf  Hf5  1  0.577733  0.716024  0.290799  1
  Hf  Hf6  1  0.425225  0.286933  0.709201  1
  Hf  Hf7  1  0.283976  0.574775  0.861708  1
  Hf  Hf8  1  0.713067  0.422267  0.138292  1
  Ti  Ti9  1  0.250000  0.750000  0.500000  1
  Ga  Ga10  1  0.750000  0.750000  0.000000  1
  Ga  Ga11  1  0.250000  0.250000  0.000000  1
  Sn  Sn12  1  0.329727  0.829727  0.175145  1
  Sn  Sn13  1  0.845417  0.670273  0.500000  1
  Sn  Sn14  1  0.170273  0.345417  0.500000  1
  Sn  Sn15  1  0.654583  0.154583  0.824855  1
