# generated using pymatgen
data_Dy8Lu10ScSi16Ag
_symmetry_space_group_name_H-M   'P 1'
_cell_length_a   7.17428323
_cell_length_b   7.58642919
_cell_length_c   14.33075600
_cell_angle_alpha   90.00000000
_cell_angle_beta   90.00000000
_cell_angle_gamma   89.94131982
_symmetry_Int_Tables_number   1
_chemical_formula_structural   Dy8Lu10ScSi16Ag
_chemical_formula_sum   'Dy8 Lu10 Sc1 Si16 Ag1'
_cell_volume   779.98239481
_cell_formula_units_Z   1
loop_
 _symmetry_equiv_pos_site_id
 _symmetry_equiv_pos_as_xyz
  1  'x, y, z'
loop_
 _atom_site_type_symbol
 _atom_site_label
 _atom_site_symmetry_multiplicity
 _atom_site_fract_x
 _atom_site_fract_y
 _atom_site_fract_z
 _atom_site_occupancy
  Dy  Dy0  1  0.016054  0.179532  0.095757  1
  Dy  Dy1  1  0.985338  0.809872  0.899697  1
  Dy  Dy2  1  0.479754  0.676255  0.900302  1
  Dy  Dy3  1  0.985338  0.809872  0.600303  1
  Dy  Dy4  1  0.514408  0.321506  0.094970  1
  Dy  Dy5  1  0.016054  0.179532  0.404243  1
  Dy  Dy6  1  0.514408  0.321506  0.405030  1
  Dy  Dy7  1  0.479754  0.676255  0.599698  1
  Lu  Lu8  1  0.840313  0.490966  0.250000  1
  Lu  Lu9  1  0.344102  0.010899  0.250000  1
  Lu  Lu10  1  0.320869  0.183462  0.628299  1
  Lu  Lu11  1  0.675452  0.823649  0.377047  1
  Lu  Lu12  1  0.174346  0.681354  0.375666  1
  Lu  Lu13  1  0.675452  0.823649  0.122953  1
  Lu  Lu14  1  0.835265  0.325466  0.627977  1
  Lu  Lu15  1  0.320869  0.183462  0.871701  1
  Lu  Lu16  1  0.835265  0.325466  0.872023  1
  Lu  Lu17  1  0.174346  0.681354  0.124334  1
  Sc  Sc18  1  0.652820  0.989282  0.750000  1
  Si  Si19  1  0.017780  0.081027  0.750000  1
  Si  Si20  1  0.972394  0.895640  0.250000  1
  Si  Si21  1  0.470223  0.611795  0.250000  1
  Si  Si22  1  0.531020  0.396072  0.750000  1
  Si  Si23  1  0.283307  0.875416  0.750000  1
  Si  Si24  1  0.721237  0.130201  0.250000  1
  Si  Si25  1  0.219840  0.371830  0.250000  1
  Si  Si26  1  0.768979  0.633336  0.750000  1
  Si  Si27  1  0.161032  0.462288  0.532011  1
  Si  Si28  1  0.845290  0.532162  0.462811  1
  Si  Si29  1  0.346731  0.969097  0.464609  1
  Si  Si30  1  0.845290  0.532162  0.037189  1
  Si  Si31  1  0.655259  0.030512  0.542796  1
  Si  Si32  1  0.161032  0.462288  0.967989  1
  Si  Si33  1  0.655259  0.030512  0.957204  1
  Si  Si34  1  0.346731  0.969097  0.035391  1
  Ag  Ag35  1  0.158385  0.523224  0.750000  1
