# generated using pymatgen
data_LuZr2PaPt12
_symmetry_space_group_name_H-M   'P 1'
_cell_length_a   5.75124800
_cell_length_b   5.75124761
_cell_length_c   9.39565800
_cell_angle_alpha   90.00000000
_cell_angle_beta   90.00000000
_cell_angle_gamma   119.99999073
_symmetry_Int_Tables_number   1
_chemical_formula_structural   LuZr2PaPt12
_chemical_formula_sum   'Lu1 Zr2 Pa1 Pt12'
_cell_volume   269.14234594
_cell_formula_units_Z   1
loop_
 _symmetry_equiv_pos_site_id
 _symmetry_equiv_pos_as_xyz
  1  'x, y, z'
loop_
 _atom_site_type_symbol
 _atom_site_label
 _atom_site_symmetry_multiplicity
 _atom_site_fract_x
 _atom_site_fract_y
 _atom_site_fract_z
 _atom_site_occupancy
  Lu  Lu0  1  0.333333  0.666667  0.247624  1
  Zr  Zr1  1  0.000000  0.000000  0.001461  1
  Zr  Zr2  1  0.666667  0.333333  0.753781  1
  Pa  Pa3  1  0.000000  0.000000  0.497646  1
  Pt  Pt4  1  0.500994  0.499006  0.502716  1
  Pt  Pt5  1  0.500994  0.001988  0.502716  1
  Pt  Pt6  1  0.998012  0.499006  0.502716  1
  Pt  Pt7  1  0.501075  0.498925  0.997437  1
  Pt  Pt8  1  0.501075  0.002150  0.997437  1
  Pt  Pt9  1  0.997850  0.498925  0.997437  1
  Pt  Pt10  1  0.829716  0.659432  0.247740  1
  Pt  Pt11  1  0.340568  0.170284  0.247740  1
  Pt  Pt12  1  0.829716  0.170284  0.247740  1
  Pt  Pt13  1  0.169636  0.339273  0.751937  1
  Pt  Pt14  1  0.660727  0.830364  0.751937  1
  Pt  Pt15  1  0.169636  0.830364  0.751937  1
