# generated using pymatgen
data_Sc12Al(PdI8)2
_symmetry_space_group_name_H-M   'P 1'
_cell_length_a   9.06371229
_cell_length_b   11.99292007
_cell_length_c   12.68924100
_cell_angle_alpha   117.12755764
_cell_angle_beta   101.04345979
_cell_angle_gamma   100.52236225
_symmetry_Int_Tables_number   1
_chemical_formula_structural   Sc12Al(PdI8)2
_chemical_formula_sum   'Sc12 Al1 Pd2 I16'
_cell_volume   1145.87395792
_cell_formula_units_Z   1
loop_
 _symmetry_equiv_pos_site_id
 _symmetry_equiv_pos_as_xyz
  1  'x, y, z'
loop_
 _atom_site_type_symbol
 _atom_site_label
 _atom_site_symmetry_multiplicity
 _atom_site_fract_x
 _atom_site_fract_y
 _atom_site_fract_z
 _atom_site_occupancy
  Sc  Sc0  1  0.089726  0.264242  0.355421  1
  Sc  Sc1  1  0.910274  0.735758  0.644579  1
  Sc  Sc2  1  0.776923  0.537206  0.326126  1
  Sc  Sc3  1  0.223077  0.462794  0.673874  1
  Sc  Sc4  1  0.280996  0.736013  0.643887  1
  Sc  Sc5  1  0.719004  0.263987  0.356113  1
  Sc  Sc6  1  0.147847  0.537264  0.325573  1
  Sc  Sc7  1  0.852153  0.462736  0.674427  1
  Sc  Sc8  1  0.407481  0.361814  0.278349  1
  Sc  Sc9  1  0.592519  0.638186  0.721651  1
  Sc  Sc10  1  0.459501  0.310799  0.520726  1
  Sc  Sc11  1  0.540499  0.689201  0.479274  1
  Al  Al12  1  0.000000  0.500000  0.500000  1
  Pd  Pd13  1  0.335048  0.500151  0.499758  1
  Pd  Pd14  1  0.664953  0.499849  0.500242  1
  I  I15  1  0.395535  0.738714  0.882720  1
  I  I16  1  0.604465  0.261286  0.117280  1
  I  I17  1  0.188399  0.966110  0.783222  1
  I  I18  1  0.811601  0.033890  0.216778  1
  I  I19  1  0.336167  0.095689  0.252141  1
  I  I20  1  0.663833  0.904311  0.747859  1
  I  I21  1  0.563428  0.436522  0.798857  1
  I  I22  1  0.436572  0.563478  0.201143  1
  I  I23  1  0.307834  0.828116  0.463170  1
  I  I24  1  0.692166  0.171884  0.536830  1
  I  I25  1  0.167827  0.172262  0.535863  1
  I  I26  1  0.832173  0.827738  0.464137  1
  I  I27  1  0.926074  0.577031  0.158803  1
  I  I28  1  0.073926  0.422969  0.841197  1
  I  I29  1  0.924035  0.738393  0.883280  1
  I  I30  1  0.075965  0.261607  0.116720  1
