# generated using pymatgen
data_YNiB2Ir
_symmetry_space_group_name_H-M   'P 1'
_cell_length_a   5.09765219
_cell_length_b   5.09765243
_cell_length_c   7.23767103
_cell_angle_alpha   58.81031314
_cell_angle_beta   58.81031453
_cell_angle_gamma   62.75872546
_symmetry_Int_Tables_number   1
_chemical_formula_structural   YNiB2Ir
_chemical_formula_sum   'Y2 Ni2 B4 Ir2'
_cell_volume   132.94034479
_cell_formula_units_Z   2
loop_
 _symmetry_equiv_pos_site_id
 _symmetry_equiv_pos_as_xyz
  1  'x, y, z'
loop_
 _atom_site_type_symbol
 _atom_site_label
 _atom_site_symmetry_multiplicity
 _atom_site_fract_x
 _atom_site_fract_y
 _atom_site_fract_z
 _atom_site_occupancy
  Y  Y0  1  0.111185  0.888815  0.250000  1
  Y  Y1  1  0.877091  0.122909  0.750000  1
  Ni  Ni2  1  0.529592  0.729964  0.792182  1
  Ni  Ni3  1  0.270036  0.470408  0.707818  1
  B  B4  1  0.165661  0.498085  0.007114  1
  B  B5  1  0.501915  0.834339  0.492886  1
  B  B6  1  0.842997  0.490535  0.969925  1
  B  B7  1  0.509465  0.157003  0.530075  1
  Ir  Ir8  1  0.463289  0.271231  0.197207  1
  Ir  Ir9  1  0.728769  0.536711  0.302793  1
