# generated using pymatgen
data_NpCd6BiO12
_symmetry_space_group_name_H-M   'P 1'
_cell_length_a   5.82501246
_cell_length_b   5.66601524
_cell_length_c   10.04146400
_cell_angle_alpha   55.84553068
_cell_angle_beta   90.25225908
_cell_angle_gamma   91.15052364
_symmetry_Int_Tables_number   1
_chemical_formula_structural   NpCd6BiO12
_chemical_formula_sum   'Np1 Cd6 Bi1 O12'
_cell_volume   274.18977506
_cell_formula_units_Z   1
loop_
 _symmetry_equiv_pos_site_id
 _symmetry_equiv_pos_as_xyz
  1  'x, y, z'
loop_
 _atom_site_type_symbol
 _atom_site_label
 _atom_site_symmetry_multiplicity
 _atom_site_fract_x
 _atom_site_fract_y
 _atom_site_fract_z
 _atom_site_occupancy
  Np  Np0  1  0.500000  0.000000  0.500000  1
  Cd  Cd1  1  0.951314  0.260523  0.231833  1
  Cd  Cd2  1  0.451485  0.760145  0.243847  1
  Cd  Cd3  1  0.048686  0.739477  0.768167  1
  Cd  Cd4  1  0.548515  0.239855  0.756153  1
  Cd  Cd5  1  0.000000  0.500000  0.500000  1
  Cd  Cd6  1  0.500000  0.500000  0.000000  1
  Bi  Bi7  1  0.000000  0.000000  0.000000  1
  O  O8  1  0.293963  0.906375  0.912563  1
  O  O9  1  0.798745  0.077136  0.572939  1
  O  O10  1  0.706037  0.093625  0.087437  1
  O  O11  1  0.201255  0.922864  0.427061  1
  O  O12  1  0.183399  0.253242  0.057930  1
  O  O13  1  0.663679  0.753335  0.444789  1
  O  O14  1  0.816601  0.746758  0.942070  1
  O  O15  1  0.336321  0.246665  0.555211  1
  O  O16  1  0.421697  0.648548  0.727960  1
  O  O17  1  0.915623  0.366807  0.759020  1
  O  O18  1  0.578303  0.351452  0.272040  1
  O  O19  1  0.084377  0.633193  0.240980  1
