# generated using pymatgen
data_Sm4Dy2RuI10
_symmetry_space_group_name_H-M   'P 1'
_cell_length_a   7.83703163
_cell_length_b   9.85966999
_cell_length_c   9.87250966
_cell_angle_alpha   106.97022760
_cell_angle_beta   96.37397018
_cell_angle_gamma   104.51045106
_symmetry_Int_Tables_number   1
_chemical_formula_structural   Sm4Dy2RuI10
_chemical_formula_sum   'Sm4 Dy2 Ru1 I10'
_cell_volume   692.25309502
_cell_formula_units_Z   1
loop_
 _symmetry_equiv_pos_site_id
 _symmetry_equiv_pos_as_xyz
  1  'x, y, z'
loop_
 _atom_site_type_symbol
 _atom_site_label
 _atom_site_symmetry_multiplicity
 _atom_site_fract_x
 _atom_site_fract_y
 _atom_site_fract_z
 _atom_site_occupancy
  Sm  Sm0  1  0.116212  0.042033  0.760736  1
  Sm  Sm1  1  0.883788  0.957967  0.239264  1
  Sm  Sm2  1  0.968916  0.280443  0.084358  1
  Sm  Sm3  1  0.031084  0.719557  0.915642  1
  Dy  Dy4  1  0.349295  0.122606  0.165890  1
  Dy  Dy5  1  0.650705  0.877394  0.834110  1
  Ru  Ru6  1  0.000000  0.000000  0.000000  1
  I  I7  1  0.545559  0.182171  0.909203  1
  I  I8  1  0.454441  0.817829  0.090797  1
  I  I9  1  0.353643  0.443733  0.270737  1
  I  I10  1  0.646357  0.556267  0.729263  1
  I  I11  1  0.259553  0.087075  0.456083  1
  I  I12  1  0.740447  0.912925  0.543917  1
  I  I13  1  0.773386  0.255496  0.345343  1
  I  I14  1  0.226614  0.744504  0.654657  1
  I  I15  1  0.088923  0.370149  0.820187  1
  I  I16  1  0.911077  0.629851  0.179813  1
