# generated using pymatgen
data_HoTa2Nb3(B2Ru5)2
_symmetry_space_group_name_H-M   'P 1'
_cell_length_a   9.52220503
_cell_length_b   9.52220460
_cell_length_c   3.04908100
_cell_angle_alpha   90.00000000
_cell_angle_beta   90.00000000
_cell_angle_gamma   90.23236190
_symmetry_Int_Tables_number   1
_chemical_formula_structural   HoTa2Nb3(B2Ru5)2
_chemical_formula_sum   'Ho1 Ta2 Nb3 B4 Ru10'
_cell_volume   276.46517140
_cell_formula_units_Z   1
loop_
 _symmetry_equiv_pos_site_id
 _symmetry_equiv_pos_as_xyz
  1  'x, y, z'
loop_
 _atom_site_type_symbol
 _atom_site_label
 _atom_site_symmetry_multiplicity
 _atom_site_fract_x
 _atom_site_fract_y
 _atom_site_fract_z
 _atom_site_occupancy
  Ho  Ho0  1  0.824658  0.675342  0.000000  1
  Ta  Ta1  1  0.500836  0.500535  0.000000  1
  Ta  Ta2  1  0.999465  0.999164  0.000000  1
  Nb  Nb3  1  0.178113  0.321887  0.000000  1
  Nb  Nb4  1  0.324282  0.823513  0.000000  1
  Nb  Nb5  1  0.676487  0.175718  0.000000  1
  B  B6  1  0.618906  0.881094  0.000000  1
  B  B7  1  0.377381  0.122619  0.000000  1
  B  B8  1  0.122870  0.619995  0.000000  1
  B  B9  1  0.880005  0.377130  0.000000  1
  Ru  Ru10  1  0.559540  0.723848  0.500000  1
  Ru  Ru11  1  0.427358  0.283032  0.500000  1
  Ru  Ru12  1  0.080886  0.782870  0.500000  1
  Ru  Ru13  1  0.930497  0.216245  0.500000  1
  Ru  Ru14  1  0.283755  0.569503  0.500000  1
  Ru  Ru15  1  0.717130  0.419114  0.500000  1
  Ru  Ru16  1  0.216968  0.072642  0.500000  1
  Ru  Ru17  1  0.776152  0.940460  0.500000  1
  Ru  Ru18  1  0.496528  0.003472  0.500000  1
  Ru  Ru19  1  0.008182  0.491818  0.500000  1
