# generated using pymatgen
data_Hf8TcPt3O2
_symmetry_space_group_name_H-M   'P 1'
_cell_length_a   8.78999477
_cell_length_b   8.78999524
_cell_length_c   8.75568600
_cell_angle_alpha   60.12904106
_cell_angle_beta   60.12903930
_cell_angle_gamma   60.30944851
_symmetry_Int_Tables_number   1
_chemical_formula_structural   Hf8TcPt3O2
_chemical_formula_sum   'Hf16 Tc2 Pt6 O4'
_cell_volume   480.40343489
_cell_formula_units_Z   2
loop_
 _symmetry_equiv_pos_site_id
 _symmetry_equiv_pos_as_xyz
  1  'x, y, z'
loop_
 _atom_site_type_symbol
 _atom_site_label
 _atom_site_symmetry_multiplicity
 _atom_site_fract_x
 _atom_site_fract_y
 _atom_site_fract_z
 _atom_site_occupancy
  Hf  Hf0  1  0.122433  0.624102  0.626733  1
  Hf  Hf1  1  0.624102  0.122433  0.626733  1
  Hf  Hf2  1  0.629385  0.629385  0.110376  1
  Hf  Hf3  1  0.629385  0.629385  0.630854  1
  Hf  Hf4  1  0.802514  0.802514  0.197486  1
  Hf  Hf5  1  0.184271  0.184271  0.815729  1
  Hf  Hf6  1  0.812145  0.187557  0.810093  1
  Hf  Hf7  1  0.187557  0.812145  0.190205  1
  Hf  Hf8  1  0.187557  0.812145  0.810093  1
  Hf  Hf9  1  0.812145  0.187557  0.190205  1
  Hf  Hf10  1  0.434713  0.434713  0.065287  1
  Hf  Hf11  1  0.065178  0.065178  0.434822  1
  Hf  Hf12  1  0.433181  0.059467  0.433401  1
  Hf  Hf13  1  0.059467  0.433181  0.073951  1
  Hf  Hf14  1  0.059467  0.433181  0.433401  1
  Hf  Hf15  1  0.433181  0.059467  0.073951  1
  Tc  Tc16  1  0.763266  0.420766  0.407984  1
  Tc  Tc17  1  0.420766  0.763266  0.407984  1
  Pt  Pt18  1  0.413719  0.413719  0.771146  1
  Pt  Pt19  1  0.413719  0.413719  0.401417  1
  Pt  Pt20  1  0.453906  0.853636  0.846229  1
  Pt  Pt21  1  0.853636  0.453906  0.846229  1
  Pt  Pt22  1  0.849291  0.849291  0.460250  1
  Pt  Pt23  1  0.849291  0.849291  0.841167  1
  O  O24  1  0.624025  0.129113  0.123431  1
  O  O25  1  0.129113  0.624025  0.123431  1
  O  O26  1  0.126295  0.126295  0.625043  1
  O  O27  1  0.126295  0.126295  0.122367  1
