# generated using pymatgen
data_K7RbBa4(ZrAs4)2
_symmetry_space_group_name_H-M   'P 1'
_cell_length_a   10.67507756
_cell_length_b   10.67405938
_cell_length_c   8.19272721
_cell_angle_alpha   88.61090493
_cell_angle_beta   88.89336250
_cell_angle_gamma   119.55655333
_symmetry_Int_Tables_number   1
_chemical_formula_structural   K7RbBa4(ZrAs4)2
_chemical_formula_sum   'K7 Rb1 Ba4 Zr2 As8'
_cell_volume   811.28694556
_cell_formula_units_Z   1
loop_
 _symmetry_equiv_pos_site_id
 _symmetry_equiv_pos_as_xyz
  1  'x, y, z'
loop_
 _atom_site_type_symbol
 _atom_site_label
 _atom_site_symmetry_multiplicity
 _atom_site_fract_x
 _atom_site_fract_y
 _atom_site_fract_z
 _atom_site_occupancy
  K  K0  1  0.060458  0.526768  0.615588  1
  K  K1  1  0.528909  0.060287  0.115222  1
  K  K2  1  0.278570  0.134387  0.818138  1
  K  K3  1  0.870193  0.728523  0.764820  1
  K  K4  1  0.861328  0.143108  0.793310  1
  K  K5  1  0.728220  0.870709  0.264158  1
  K  K6  1  0.134680  0.279336  0.319329  1
  Rb  Rb7  1  0.140638  0.865730  0.297868  1
  Ba  Ba8  1  0.466887  0.934092  0.604912  1
  Ba  Ba9  1  0.465674  0.524144  0.618973  1
  Ba  Ba10  1  0.934520  0.465220  0.106477  1
  Ba  Ba11  1  0.523844  0.464862  0.119946  1
  Zr  Zr12  1  0.668548  0.335263  0.512568  1
  Zr  Zr13  1  0.335483  0.667341  0.008918  1
  As  As14  1  0.670214  0.349995  0.835842  1
  As  As15  1  0.350704  0.668760  0.332197  1
  As  As16  1  0.600181  0.793424  0.880318  1
  As  As17  1  0.200934  0.394252  0.921616  1
  As  As18  1  0.196627  0.795163  0.898333  1
  As  As19  1  0.397221  0.205002  0.423773  1
  As  As20  1  0.789793  0.597962  0.381782  1
  As  As21  1  0.796372  0.195672  0.403405  1
