# generated using pymatgen
data_Lu12Fe2TcAgPb
_symmetry_space_group_name_H-M   'P 1'
_cell_length_a   8.16619049
_cell_length_b   8.16752851
_cell_length_c   8.16619100
_cell_angle_alpha   110.83704978
_cell_angle_beta   107.17368288
_cell_angle_gamma   110.42028606
_symmetry_Int_Tables_number   1
_chemical_formula_structural   Lu12Fe2TcAgPb
_chemical_formula_sum   'Lu12 Fe2 Tc1 Ag1 Pb1'
_cell_volume   418.81197297
_cell_formula_units_Z   1
loop_
 _symmetry_equiv_pos_site_id
 _symmetry_equiv_pos_as_xyz
  1  'x, y, z'
loop_
 _atom_site_type_symbol
 _atom_site_label
 _atom_site_symmetry_multiplicity
 _atom_site_fract_x
 _atom_site_fract_y
 _atom_site_fract_z
 _atom_site_occupancy
  Lu  Lu0  1  0.305918  0.310957  0.617081  1
  Lu  Lu1  1  0.694082  0.689043  0.382919  1
  Lu  Lu2  1  0.693877  0.310957  0.005039  1
  Lu  Lu3  1  0.306123  0.689043  0.994961  1
  Lu  Lu4  1  0.196481  0.448757  0.252276  1
  Lu  Lu5  1  0.803519  0.551243  0.747724  1
  Lu  Lu6  1  0.196696  0.944244  0.747549  1
  Lu  Lu7  1  0.965194  0.192949  0.772270  1
  Lu  Lu8  1  0.803304  0.055756  0.252451  1
  Lu  Lu9  1  0.034806  0.807051  0.227730  1
  Lu  Lu10  1  0.420678  0.192949  0.227754  1
  Lu  Lu11  1  0.579322  0.807051  0.772246  1
  Fe  Fe12  1  0.383257  0.383154  0.999897  1
  Fe  Fe13  1  0.616743  0.616846  0.000103  1
  Tc  Tc14  1  0.000000  0.000000  0.000000  1
  Ag  Ag15  1  0.000000  0.500000  0.500000  1
  Pb  Pb16  1  0.500000  0.000000  0.500000  1
