# generated using pymatgen
data_Dy4Ho4Os3RuC8
_symmetry_space_group_name_H-M   'P 1'
_cell_length_a   5.12245800
_cell_length_b   6.43824614
_cell_length_c   9.77191121
_cell_angle_alpha   89.89695401
_cell_angle_beta   90.00000000
_cell_angle_gamma   90.00000000
_symmetry_Int_Tables_number   1
_chemical_formula_structural   Dy4Ho4Os3RuC8
_chemical_formula_sum   'Dy4 Ho4 Os3 Ru1 C8'
_cell_volume   322.27364611
_cell_formula_units_Z   1
loop_
 _symmetry_equiv_pos_site_id
 _symmetry_equiv_pos_as_xyz
  1  'x, y, z'
loop_
 _atom_site_type_symbol
 _atom_site_label
 _atom_site_symmetry_multiplicity
 _atom_site_fract_x
 _atom_site_fract_y
 _atom_site_fract_z
 _atom_site_occupancy
  Dy  Dy0  1  0.250000  0.525956  0.218128  1
  Dy  Dy1  1  0.750000  0.474533  0.782004  1
  Dy  Dy2  1  0.750000  0.974902  0.718556  1
  Dy  Dy3  1  0.250000  0.025423  0.280552  1
  Ho  Ho4  1  0.250000  0.683563  0.553201  1
  Ho  Ho5  1  0.750000  0.316690  0.447389  1
  Ho  Ho6  1  0.750000  0.817767  0.053508  1
  Ho  Ho7  1  0.250000  0.180117  0.947384  1
  Os  Os8  1  0.750000  0.275725  0.134381  1
  Os  Os9  1  0.750000  0.774877  0.365820  1
  Os  Os10  1  0.250000  0.224323  0.634668  1
  Ru  Ru11  1  0.250000  0.723884  0.865831  1
  C  C12  1  0.250000  0.459458  0.756306  1
  C  C13  1  0.750000  0.539209  0.242383  1
  C  C14  1  0.750000  0.039615  0.258271  1
  C  C15  1  0.250000  0.961034  0.741068  1
  C  C16  1  0.250000  0.827792  0.053800  1
  C  C17  1  0.750000  0.174467  0.946772  1
  C  C18  1  0.750000  0.674785  0.553485  1
  C  C19  1  0.250000  0.325883  0.446494  1
