# generated using pymatgen
data_Hf5Zr(ScSb8)2
_symmetry_space_group_name_H-M   'P 1'
_cell_length_a   3.89085700
_cell_length_b   10.09959668
_cell_length_c   15.07422538
_cell_angle_alpha   90.06174889
_cell_angle_beta   90.00000000
_cell_angle_gamma   90.00000000
_symmetry_Int_Tables_number   1
_chemical_formula_structural   Hf5Zr(ScSb8)2
_chemical_formula_sum   'Hf5 Zr1 Sc2 Sb16'
_cell_volume   592.35771956
_cell_formula_units_Z   1
loop_
 _symmetry_equiv_pos_site_id
 _symmetry_equiv_pos_as_xyz
  1  'x, y, z'
loop_
 _atom_site_type_symbol
 _atom_site_label
 _atom_site_symmetry_multiplicity
 _atom_site_fract_x
 _atom_site_fract_y
 _atom_site_fract_z
 _atom_site_occupancy
  Hf  Hf0  1  0.000000  0.977712  0.751581  1
  Hf  Hf1  1  0.000000  0.834727  0.494992  1
  Hf  Hf2  1  0.000000  0.165510  0.504882  1
  Hf  Hf3  1  0.500000  0.334165  0.006125  1
  Hf  Hf4  1  0.500000  0.666219  0.993621  1
  Zr  Zr5  1  0.000000  0.022888  0.248967  1
  Sc  Sc6  1  0.500000  0.522402  0.250359  1
  Sc  Sc7  1  0.500000  0.477837  0.749518  1
  Sb  Sb8  1  0.000000  0.514123  0.104046  1
  Sb  Sb9  1  0.000000  0.485949  0.896035  1
  Sb  Sb10  1  0.500000  0.012358  0.396568  1
  Sb  Sb11  1  0.500000  0.987422  0.604812  1
  Sb  Sb12  1  0.000000  0.734528  0.301951  1
  Sb  Sb13  1  0.000000  0.264193  0.698124  1
  Sb  Sb14  1  0.500000  0.235795  0.199100  1
  Sb  Sb15  1  0.500000  0.765550  0.800440  1
  Sb  Sb16  1  0.000000  0.881333  0.943521  1
  Sb  Sb17  1  0.000000  0.119317  0.055989  1
  Sb  Sb18  1  0.500000  0.377808  0.555660  1
  Sb  Sb19  1  0.500000  0.622123  0.444219  1
  Sb  Sb20  1  0.000000  0.664551  0.654851  1
  Sb  Sb21  1  0.000000  0.335475  0.345142  1
  Sb  Sb22  1  0.500000  0.157891  0.844159  1
  Sb  Sb23  1  0.500000  0.840125  0.155339  1
