# generated using pymatgen
data_TiNbReB2
_symmetry_space_group_name_H-M   'P 1'
_cell_length_a   6.00675900
_cell_length_b   6.01130000
_cell_length_c   3.25333700
_cell_angle_alpha   90.00000000
_cell_angle_beta   90.00000000
_cell_angle_gamma   90.00000000
_symmetry_Int_Tables_number   1
_chemical_formula_structural   TiNbReB2
_chemical_formula_sum   'Ti2 Nb2 Re2 B4'
_cell_volume   117.47289256
_cell_formula_units_Z   2
loop_
 _symmetry_equiv_pos_site_id
 _symmetry_equiv_pos_as_xyz
  1  'x, y, z'
loop_
 _atom_site_type_symbol
 _atom_site_label
 _atom_site_symmetry_multiplicity
 _atom_site_fract_x
 _atom_site_fract_y
 _atom_site_fract_z
 _atom_site_occupancy
  Ti  Ti0  1  0.177835  0.320661  0.500000  1
  Ti  Ti1  1  0.677835  0.179339  0.500000  1
  Nb  Nb2  1  0.822302  0.676411  0.500000  1
  Nb  Nb3  1  0.322302  0.823589  0.500000  1
  Re  Re4  1  0.498617  0.493624  0.000000  1
  Re  Re5  1  0.998617  0.006376  0.000000  1
  B  B6  1  0.111423  0.604938  0.000000  1
  B  B7  1  0.611423  0.895062  0.000000  1
  B  B8  1  0.389824  0.115069  0.000000  1
  B  B9  1  0.889824  0.384931  0.000000  1
