# generated using pymatgen
data_YbEu4Si3
_symmetry_space_group_name_H-M   'P 1'
_cell_length_a   9.31335304
_cell_length_b   9.31335291
_cell_length_c   9.31335246
_cell_angle_alpha   130.64362702
_cell_angle_beta   130.64362459
_cell_angle_gamma   72.37989862
_symmetry_Int_Tables_number   1
_chemical_formula_structural   YbEu4Si3
_chemical_formula_sum   'Yb2 Eu8 Si6'
_cell_volume   454.61428417
_cell_formula_units_Z   2
loop_
 _symmetry_equiv_pos_site_id
 _symmetry_equiv_pos_as_xyz
  1  'x, y, z'
loop_
 _atom_site_type_symbol
 _atom_site_label
 _atom_site_symmetry_multiplicity
 _atom_site_fract_x
 _atom_site_fract_y
 _atom_site_fract_z
 _atom_site_occupancy
  Yb  Yb0  1  0.500000  0.500000  0.000000  1
  Yb  Yb1  1  0.000000  0.000000  0.000000  1
  Eu  Eu2  1  0.534031  0.034031  0.855827  1
  Eu  Eu3  1  0.178205  0.678205  0.144173  1
  Eu  Eu4  1  0.034031  0.178205  0.500000  1
  Eu  Eu5  1  0.678205  0.534031  0.500000  1
  Eu  Eu6  1  0.465969  0.965969  0.144173  1
  Eu  Eu7  1  0.821795  0.321795  0.855827  1
  Eu  Eu8  1  0.965969  0.821795  0.500000  1
  Eu  Eu9  1  0.321795  0.465969  0.500000  1
  Si  Si10  1  0.889113  0.389113  0.278226  1
  Si  Si11  1  0.110887  0.610887  0.721774  1
  Si  Si12  1  0.389113  0.110887  0.500000  1
  Si  Si13  1  0.610887  0.889113  0.500000  1
  Si  Si14  1  0.250000  0.250000  0.000000  1
  Si  Si15  1  0.750000  0.750000  0.000000  1
