# generated using pymatgen
data_YbEr(CuO2)4
_symmetry_space_group_name_H-M   'P 1'
_cell_length_a   6.22633672
_cell_length_b   6.22633640
_cell_length_c   6.22633757
_cell_angle_alpha   125.99125880
_cell_angle_beta   125.99125512
_cell_angle_gamma   79.90250956
_symmetry_Int_Tables_number   1
_chemical_formula_structural   YbEr(CuO2)4
_chemical_formula_sum   'Yb1 Er1 Cu4 O8'
_cell_volume   152.59670386
_cell_formula_units_Z   1
loop_
 _symmetry_equiv_pos_site_id
 _symmetry_equiv_pos_as_xyz
  1  'x, y, z'
loop_
 _atom_site_type_symbol
 _atom_site_label
 _atom_site_symmetry_multiplicity
 _atom_site_fract_x
 _atom_site_fract_y
 _atom_site_fract_z
 _atom_site_occupancy
  Yb  Yb0  1  0.500000  0.500000  0.000000  1
  Er  Er1  1  0.250000  0.750000  0.500000  1
  Cu  Cu2  1  0.374628  0.119761  0.245195  1
  Cu  Cu3  1  0.874566  0.129433  0.754805  1
  Cu  Cu4  1  0.870567  0.625372  0.745134  1
  Cu  Cu5  1  0.880239  0.125434  0.254866  1
  O  O6  1  0.912672  0.342197  0.150037  1
  O  O7  1  0.192160  0.762634  0.849963  1
  O  O8  1  0.853628  0.915018  0.368967  1
  O  O9  1  0.546052  0.484662  0.631033  1
  O  O10  1  0.515338  0.146372  0.061390  1
  O  O11  1  0.084982  0.453948  0.938610  1
  O  O12  1  0.657803  0.807840  0.570474  1
  O  O13  1  0.237366  0.087328  0.429526  1
