# generated using pymatgen
data_Tb3Co7NiMoP6
_symmetry_space_group_name_H-M   'P 1'
_cell_length_a   3.74644400
_cell_length_b   10.57011400
_cell_length_c   12.28388100
_cell_angle_alpha   90.00000000
_cell_angle_beta   90.00000000
_cell_angle_gamma   90.00000000
_symmetry_Int_Tables_number   1
_chemical_formula_structural   Tb3Co7NiMoP6
_chemical_formula_sum   'Tb6 Co14 Ni2 Mo2 P12'
_cell_volume   486.44586626
_cell_formula_units_Z   2
loop_
 _symmetry_equiv_pos_site_id
 _symmetry_equiv_pos_as_xyz
  1  'x, y, z'
loop_
 _atom_site_type_symbol
 _atom_site_label
 _atom_site_symmetry_multiplicity
 _atom_site_fract_x
 _atom_site_fract_y
 _atom_site_fract_z
 _atom_site_occupancy
  Tb  Tb0  1  0.000000  0.500000  0.522262  1
  Tb  Tb1  1  0.500000  0.000000  0.477738  1
  Tb  Tb2  1  0.500000  0.817577  0.204695  1
  Tb  Tb3  1  0.500000  0.182423  0.204695  1
  Tb  Tb4  1  0.000000  0.682423  0.795305  1
  Tb  Tb5  1  0.000000  0.317577  0.795305  1
  Co  Co6  1  0.000000  0.500000  0.986819  1
  Co  Co7  1  0.500000  0.000000  0.013181  1
  Co  Co8  1  0.500000  0.332356  0.990580  1
  Co  Co9  1  0.500000  0.667644  0.990580  1
  Co  Co10  1  0.000000  0.167644  0.009420  1
  Co  Co11  1  0.000000  0.832356  0.009420  1
  Co  Co12  1  0.500000  0.297137  0.431639  1
  Co  Co13  1  0.500000  0.702863  0.431639  1
  Co  Co14  1  0.000000  0.202863  0.568361  1
  Co  Co15  1  0.000000  0.797137  0.568361  1
  Co  Co16  1  0.500000  0.878702  0.708037  1
  Co  Co17  1  0.500000  0.121298  0.708037  1
  Co  Co18  1  0.000000  0.621298  0.291963  1
  Co  Co19  1  0.000000  0.378702  0.291963  1
  Ni  Ni20  1  0.500000  0.500000  0.701836  1
  Ni  Ni21  1  0.000000  0.000000  0.298164  1
  Mo  Mo22  1  0.500000  0.500000  0.155350  1
  Mo  Mo23  1  0.000000  0.000000  0.844650  1
  P  P24  1  0.500000  0.500000  0.882748  1
  P  P25  1  0.000000  0.000000  0.117252  1
  P  P26  1  0.500000  0.500000  0.348082  1
  P  P27  1  0.000000  0.000000  0.651918  1
  P  P28  1  0.500000  0.309651  0.615264  1
  P  P29  1  0.500000  0.690349  0.615264  1
  P  P30  1  0.000000  0.190349  0.384736  1
  P  P31  1  0.000000  0.809651  0.384736  1
  P  P32  1  0.500000  0.844912  0.893620  1
  P  P33  1  0.500000  0.155088  0.893620  1
  P  P34  1  0.000000  0.655088  0.106380  1
  P  P35  1  0.000000  0.344912  0.106380  1
