# generated using pymatgen
data_Sc12Os3Br16
_symmetry_space_group_name_H-M   'P 1'
_cell_length_a   9.07561138
_cell_length_b   11.14729422
_cell_length_c   11.79573306
_cell_angle_alpha   117.05998103
_cell_angle_beta   101.88801437
_cell_angle_gamma   101.37325483
_symmetry_Int_Tables_number   1
_chemical_formula_structural   Sc12Os3Br16
_chemical_formula_sum   'Sc12 Os3 Br16'
_cell_volume   980.26888043
_cell_formula_units_Z   1
loop_
 _symmetry_equiv_pos_site_id
 _symmetry_equiv_pos_as_xyz
  1  'x, y, z'
loop_
 _atom_site_type_symbol
 _atom_site_label
 _atom_site_symmetry_multiplicity
 _atom_site_fract_x
 _atom_site_fract_y
 _atom_site_fract_z
 _atom_site_occupancy
  Sc  Sc0  1  0.078527  0.257871  0.351195  1
  Sc  Sc1  1  0.921473  0.742129  0.648805  1
  Sc  Sc2  1  0.781799  0.537446  0.321462  1
  Sc  Sc3  1  0.218201  0.462554  0.678538  1
  Sc  Sc4  1  0.276864  0.742470  0.648850  1
  Sc  Sc5  1  0.723136  0.257530  0.351150  1
  Sc  Sc6  1  0.137086  0.536887  0.321537  1
  Sc  Sc7  1  0.862914  0.463113  0.678463  1
  Sc  Sc8  1  0.402807  0.353446  0.266460  1
  Sc  Sc9  1  0.597193  0.646554  0.733540  1
  Sc  Sc10  1  0.456923  0.301439  0.520971  1
  Sc  Sc11  1  0.543077  0.698561  0.479029  1
  Os  Os12  1  0.000000  0.500000  0.500000  1
  Os  Os13  1  0.336468  0.500001  0.499382  1
  Os  Os14  1  0.663533  0.499999  0.500618  1
  Br  Br15  1  0.400807  0.742020  0.884818  1
  Br  Br16  1  0.599193  0.257980  0.115182  1
  Br  Br17  1  0.190979  0.970802  0.786339  1
  Br  Br18  1  0.809021  0.029198  0.213661  1
  Br  Br19  1  0.338268  0.092351  0.249127  1
  Br  Br20  1  0.661732  0.907649  0.750873  1
  Br  Br21  1  0.555747  0.438280  0.800294  1
  Br  Br22  1  0.444253  0.561720  0.199706  1
  Br  Br23  1  0.312669  0.827418  0.462472  1
  Br  Br24  1  0.687331  0.172582  0.537528  1
  Br  Br25  1  0.170499  0.169696  0.532164  1
  Br  Br26  1  0.829501  0.830304  0.467836  1
  Br  Br27  1  0.924876  0.577351  0.157958  1
  Br  Br28  1  0.075124  0.422649  0.842042  1
  Br  Br29  1  0.919871  0.740501  0.884730  1
  Br  Br30  1  0.080129  0.259499  0.115270  1
