# generated using pymatgen
data_DyTh5(CdHg2)6
_symmetry_space_group_name_H-M   'P 1'
_cell_length_a   5.15491700
_cell_length_b   7.42009600
_cell_length_c   15.68326300
_cell_angle_alpha   90.00000000
_cell_angle_beta   90.00014449
_cell_angle_gamma   90.00000000
_symmetry_Int_Tables_number   1
_chemical_formula_structural   DyTh5(CdHg2)6
_chemical_formula_sum   'Dy1 Th5 Cd6 Hg12'
_cell_volume   599.88448059
_cell_formula_units_Z   1
loop_
 _symmetry_equiv_pos_site_id
 _symmetry_equiv_pos_as_xyz
  1  'x, y, z'
loop_
 _atom_site_type_symbol
 _atom_site_label
 _atom_site_symmetry_multiplicity
 _atom_site_fract_x
 _atom_site_fract_y
 _atom_site_fract_z
 _atom_site_occupancy
  Dy  Dy0  1  0.500073  0.500000  0.833365  1
  Th  Th1  1  0.000003  0.000000  0.998031  1
  Th  Th2  1  0.499924  0.500000  0.165056  1
  Th  Th3  1  0.999936  0.000000  0.333384  1
  Th  Th4  1  0.500003  0.500000  0.501584  1
  Th  Th5  1  0.000068  0.000000  0.668592  1
  Cd  Cd6  1  0.999991  0.500000  0.999168  1
  Cd  Cd7  1  0.499918  0.000000  0.165600  1
  Cd  Cd8  1  0.999933  0.500000  0.333306  1
  Cd  Cd9  1  0.499998  0.000000  0.501081  1
  Cd  Cd10  1  0.000065  0.500000  0.667521  1
  Cd  Cd11  1  0.500088  0.000000  0.833311  1
  Hg  Hg12  1  0.499999  0.258701  0.995851  1
  Hg  Hg13  1  0.499999  0.741298  0.995851  1
  Hg  Hg14  1  0.999915  0.243889  0.165933  1
  Hg  Hg15  1  0.999915  0.756112  0.165933  1
  Hg  Hg16  1  0.499940  0.256127  0.333326  1
  Hg  Hg17  1  0.499940  0.743874  0.333326  1
  Hg  Hg18  1  0.000001  0.243990  0.500759  1
  Hg  Hg19  1  0.000001  0.756011  0.500759  1
  Hg  Hg20  1  0.500074  0.258760  0.670816  1
  Hg  Hg21  1  0.500074  0.741241  0.670816  1
  Hg  Hg22  1  0.000070  0.254076  0.833317  1
  Hg  Hg23  1  0.000070  0.745925  0.833317  1
