# generated using pymatgen
data_Ac10Nd9SmSn16
_symmetry_space_group_name_H-M   'P 1'
_cell_length_a   8.53030303
_cell_length_b   8.67284315
_cell_length_c   16.53704627
_cell_angle_alpha   89.71070873
_cell_angle_beta   90.00306442
_cell_angle_gamma   89.99049528
_symmetry_Int_Tables_number   1
_chemical_formula_structural   Ac10Nd9SmSn16
_chemical_formula_sum   'Ac10 Nd9 Sm1 Sn16'
_cell_volume   1223.42781631
_cell_formula_units_Z   1
loop_
 _symmetry_equiv_pos_site_id
 _symmetry_equiv_pos_as_xyz
  1  'x, y, z'
loop_
 _atom_site_type_symbol
 _atom_site_label
 _atom_site_symmetry_multiplicity
 _atom_site_fract_x
 _atom_site_fract_y
 _atom_site_fract_z
 _atom_site_occupancy
  Ac  Ac0  1  0.487971  0.819777  0.904587  1
  Ac  Ac1  1  0.987863  0.680166  0.595426  1
  Ac  Ac2  1  0.513302  0.175933  0.400430  1
  Ac  Ac3  1  0.013631  0.323763  0.099548  1
  Ac  Ac4  1  0.512754  0.181888  0.099332  1
  Ac  Ac5  1  0.013025  0.317803  0.400701  1
  Ac  Ac6  1  0.484786  0.817225  0.595900  1
  Ac  Ac7  1  0.984742  0.682638  0.904066  1
  Ac  Ac8  1  0.640306  0.340904  0.884330  1
  Ac  Ac9  1  0.140275  0.159129  0.615629  1
  Nd  Nd10  1  0.360806  0.659103  0.373537  1
  Nd  Nd11  1  0.861119  0.841195  0.126431  1
  Nd  Nd12  1  0.355693  0.660259  0.122352  1
  Nd  Nd13  1  0.855957  0.840105  0.377712  1
  Nd  Nd14  1  0.644560  0.338315  0.622830  1
  Nd  Nd15  1  0.144414  0.161753  0.877203  1
  Nd  Nd16  1  0.306803  0.497508  0.751078  1
  Nd  Nd17  1  0.806787  0.002494  0.748892  1
  Nd  Nd18  1  0.694577  0.501393  0.250583  1
  Sm  Sm19  1  0.194926  0.998060  0.249524  1
  Sn  Sn20  1  0.193430  0.960748  0.043808  1
  Sn  Sn21  1  0.693307  0.539402  0.456522  1
  Sn  Sn22  1  0.789886  0.038814  0.541594  1
  Sn  Sn23  1  0.289827  0.461200  0.958365  1
  Sn  Sn24  1  0.817851  0.036172  0.960231  1
  Sn  Sn25  1  0.317779  0.463916  0.539842  1
  Sn  Sn26  1  0.195724  0.948716  0.448872  1
  Sn  Sn27  1  0.695683  0.551600  0.050658  1
  Sn  Sn28  1  0.683124  0.644396  0.748412  1
  Sn  Sn29  1  0.183025  0.855576  0.751659  1
  Sn  Sn30  1  0.317886  0.359687  0.249430  1
  Sn  Sn31  1  0.818302  0.139434  0.250559  1
  Sn  Sn32  1  0.442966  0.121646  0.751465  1
  Sn  Sn33  1  0.942949  0.378451  0.748546  1
  Sn  Sn34  1  0.556391  0.871934  0.248674  1
  Sn  Sn35  1  0.057573  0.628894  0.251273  1
