# generated using pymatgen
data_LaNdTcC2
_symmetry_space_group_name_H-M   'P 1'
_cell_length_a   5.41044000
_cell_length_b   6.75456500
_cell_length_c   10.28914100
_cell_angle_alpha   90.00000000
_cell_angle_beta   90.00000000
_cell_angle_gamma   90.00000000
_symmetry_Int_Tables_number   1
_chemical_formula_structural   LaNdTcC2
_chemical_formula_sum   'La4 Nd4 Tc4 C8'
_cell_volume   376.01839320
_cell_formula_units_Z   4
loop_
 _symmetry_equiv_pos_site_id
 _symmetry_equiv_pos_as_xyz
  1  'x, y, z'
loop_
 _atom_site_type_symbol
 _atom_site_label
 _atom_site_symmetry_multiplicity
 _atom_site_fract_x
 _atom_site_fract_y
 _atom_site_fract_z
 _atom_site_occupancy
  La  La0  1  0.250000  0.474041  0.788351  1
  La  La1  1  0.750000  0.025959  0.288351  1
  La  La2  1  0.250000  0.974041  0.711649  1
  La  La3  1  0.750000  0.525959  0.211649  1
  Nd  Nd4  1  0.250000  0.815345  0.052228  1
  Nd  Nd5  1  0.750000  0.684655  0.552228  1
  Nd  Nd6  1  0.250000  0.315345  0.447772  1
  Nd  Nd7  1  0.750000  0.184655  0.947772  1
  Tc  Tc8  1  0.250000  0.268888  0.143702  1
  Tc  Tc9  1  0.750000  0.231112  0.643702  1
  Tc  Tc10  1  0.250000  0.768888  0.356298  1
  Tc  Tc11  1  0.750000  0.731112  0.856298  1
  C  C12  1  0.250000  0.686018  0.534242  1
  C  C13  1  0.750000  0.813982  0.034242  1
  C  C14  1  0.250000  0.186018  0.965758  1
  C  C15  1  0.750000  0.313982  0.465758  1
  C  C16  1  0.250000  0.033465  0.257940  1
  C  C17  1  0.750000  0.466535  0.757940  1
  C  C18  1  0.250000  0.533465  0.242060  1
  C  C19  1  0.750000  0.966535  0.742060  1
