# generated using pymatgen
data_SrBeAsF
_symmetry_space_group_name_H-M   'P 1'
_cell_length_a   3.95022800
_cell_length_b   3.95022800
_cell_length_c   9.06935800
_cell_angle_alpha   90.00000000
_cell_angle_beta   90.00000000
_cell_angle_gamma   90.00000000
_symmetry_Int_Tables_number   1
_chemical_formula_structural   SrBeAsF
_chemical_formula_sum   'Sr2 Be2 As2 F2'
_cell_volume   141.52099439
_cell_formula_units_Z   2
loop_
 _symmetry_equiv_pos_site_id
 _symmetry_equiv_pos_as_xyz
  1  'x, y, z'
loop_
 _atom_site_type_symbol
 _atom_site_label
 _atom_site_symmetry_multiplicity
 _atom_site_fract_x
 _atom_site_fract_y
 _atom_site_fract_z
 _atom_site_occupancy
  Sr  Sr0  1  0.250001  0.250001  0.164010  1
  Sr  Sr1  1  0.750000  0.750000  0.835990  1
  Be  Be2  1  0.750000  0.250001  0.500000  1
  Be  Be3  1  0.250001  0.750000  0.500000  1
  As  As4  1  0.750000  0.750000  0.355508  1
  As  As5  1  0.250001  0.250001  0.644491  1
  F  F6  1  0.750000  0.250001  0.000000  1
  F  F7  1  0.250001  0.750000  0.000000  1
