# generated using pymatgen
data_V3B2PW2
_symmetry_space_group_name_H-M   'P 1'
_cell_length_a   6.81713643
_cell_length_b   6.84225558
_cell_length_c   6.82213980
_cell_angle_alpha   129.43408089
_cell_angle_beta   129.31647780
_cell_angle_gamma   74.78266076
_symmetry_Int_Tables_number   1
_chemical_formula_structural   V3B2PW2
_chemical_formula_sum   'V6 B4 P2 W4'
_cell_volume   184.85567006
_cell_formula_units_Z   2
loop_
 _symmetry_equiv_pos_site_id
 _symmetry_equiv_pos_as_xyz
  1  'x, y, z'
loop_
 _atom_site_type_symbol
 _atom_site_label
 _atom_site_symmetry_multiplicity
 _atom_site_fract_x
 _atom_site_fract_y
 _atom_site_fract_z
 _atom_site_occupancy
  V  V0  1  0.189543  0.030819  0.498035  1
  V  V1  1  0.472239  0.305833  0.500302  1
  V  V2  1  0.805986  0.972242  0.500237  1
  V  V3  1  0.306901  0.804425  0.837186  1
  V  V4  1  0.006896  0.003441  0.002424  1
  V  V5  1  0.501151  0.504252  0.997466  1
  B  B6  1  0.613933  0.118146  0.729669  1
  B  B7  1  0.127834  0.377207  0.503072  1
  B  B8  1  0.879752  0.628040  0.503254  1
  B  B9  1  0.384924  0.888780  0.268997  1
  P  P10  1  0.244720  0.232951  0.987485  1
  P  P11  1  0.744769  0.749771  0.004480  1
  W  W12  1  0.525534  0.690478  0.498419  1
  W  W13  1  0.029880  0.529921  0.838416  1
  W  W14  1  0.690092  0.189961  0.160534  1
  W  W15  1  0.975846  0.473733  0.170025  1
