# generated using pymatgen
data_CsNpNiS3
_symmetry_space_group_name_H-M   'P 1'
_cell_length_a   7.87420800
_cell_length_b   7.87420692
_cell_length_c   10.12245600
_cell_angle_alpha   90.00000000
_cell_angle_beta   90.00000000
_cell_angle_gamma   151.46245136
_symmetry_Int_Tables_number   1
_chemical_formula_structural   CsNpNiS3
_chemical_formula_sum   'Cs2 Np2 Ni2 S6'
_cell_volume   299.83773526
_cell_formula_units_Z   2
loop_
 _symmetry_equiv_pos_site_id
 _symmetry_equiv_pos_as_xyz
  1  'x, y, z'
loop_
 _atom_site_type_symbol
 _atom_site_label
 _atom_site_symmetry_multiplicity
 _atom_site_fract_x
 _atom_site_fract_y
 _atom_site_fract_z
 _atom_site_occupancy
  Cs  Cs0  1  0.741566  0.258434  0.250000  1
  Cs  Cs1  1  0.258434  0.741566  0.750000  1
  Np  Np2  1  0.000000  0.000000  0.500000  1
  Np  Np3  1  0.000000  0.000000  0.000000  1
  Ni  Ni4  1  0.530511  0.469489  0.750000  1
  Ni  Ni5  1  0.469489  0.530511  0.250000  1
  S  S6  1  0.611790  0.388210  0.563265  1
  S  S7  1  0.388210  0.611790  0.436735  1
  S  S8  1  0.050247  0.949753  0.250000  1
  S  S9  1  0.949753  0.050247  0.750000  1
  S  S10  1  0.611790  0.388210  0.936735  1
  S  S11  1  0.388210  0.611790  0.063265  1
