# generated using pymatgen
data_Tm3P2S
_symmetry_space_group_name_H-M   'P 1'
_cell_length_a   6.79306711
_cell_length_b   6.79306712
_cell_length_c   6.79306751
_cell_angle_alpha   146.49100449
_cell_angle_beta   132.05019863
_cell_angle_gamma   59.76282552
_symmetry_Int_Tables_number   1
_chemical_formula_structural   Tm3P2S
_chemical_formula_sum   'Tm3 P2 S1'
_cell_volume   127.34838603
_cell_formula_units_Z   1
loop_
 _symmetry_equiv_pos_site_id
 _symmetry_equiv_pos_as_xyz
  1  'x, y, z'
loop_
 _atom_site_type_symbol
 _atom_site_label
 _atom_site_symmetry_multiplicity
 _atom_site_fract_x
 _atom_site_fract_y
 _atom_site_fract_z
 _atom_site_occupancy
  Tm  Tm0  1  0.500000  0.000000  0.500000  1
  Tm  Tm1  1  0.171213  0.671213  0.500000  1
  Tm  Tm2  1  0.828787  0.328787  0.500000  1
  P  P3  1  0.665571  0.665571  0.000000  1
  P  P4  1  0.334429  0.334429  0.000000  1
  S  S5  1  0.000000  0.000000  0.000000  1
