# generated using pymatgen
data_MgU5Co12(SiB2)2
_symmetry_space_group_name_H-M   'P 1'
_cell_length_a   5.11758000
_cell_length_b   5.11758062
_cell_length_c   13.13469900
_cell_angle_alpha   90.00000000
_cell_angle_beta   90.00000000
_cell_angle_gamma   119.99999600
_symmetry_Int_Tables_number   1
_chemical_formula_structural   MgU5Co12(SiB2)2
_chemical_formula_sum   'Mg1 U5 Co12 Si2 B4'
_cell_volume   297.90658793
_cell_formula_units_Z   1
loop_
 _symmetry_equiv_pos_site_id
 _symmetry_equiv_pos_as_xyz
  1  'x, y, z'
loop_
 _atom_site_type_symbol
 _atom_site_label
 _atom_site_symmetry_multiplicity
 _atom_site_fract_x
 _atom_site_fract_y
 _atom_site_fract_z
 _atom_site_occupancy
  Mg  Mg0  1  0.333333  0.666667  0.033135  1
  U  U1  1  0.333333  0.666667  0.259561  1
  U  U2  1  0.666667  0.333333  0.751791  1
  U  U3  1  0.666667  0.333333  0.539011  1
  U  U4  1  0.666667  0.333333  0.962779  1
  U  U5  1  0.333333  0.666667  0.461889  1
  Co  Co6  1  0.833052  0.666104  0.139984  1
  Co  Co7  1  0.166569  0.833431  0.645499  1
  Co  Co8  1  0.666862  0.833431  0.645499  1
  Co  Co9  1  0.333896  0.166948  0.139984  1
  Co  Co10  1  0.833052  0.166948  0.139984  1
  Co  Co11  1  0.166344  0.332687  0.857154  1
  Co  Co12  1  0.166344  0.833656  0.857154  1
  Co  Co13  1  0.166569  0.333138  0.645499  1
  Co  Co14  1  0.667313  0.833656  0.857154  1
  Co  Co15  1  0.332861  0.166431  0.355099  1
  Co  Co16  1  0.833569  0.667139  0.355099  1
  Co  Co17  1  0.833569  0.166431  0.355099  1
  Si  Si18  1  0.000000  0.000000  0.000996  1
  Si  Si19  1  0.000000  0.000000  0.500765  1
  B  B20  1  0.000000  0.000000  0.245829  1
  B  B21  1  0.000000  0.000000  0.752552  1
  B  B22  1  0.333333  0.666667  0.751622  1
  B  B23  1  0.666667  0.333333  0.246862  1
