# generated using pymatgen
data_Tm12GaFe3Sb
_symmetry_space_group_name_H-M   'P 1'
_cell_length_a   8.18717729
_cell_length_b   8.18717673
_cell_length_c   8.18717607
_cell_angle_alpha   108.72198187
_cell_angle_beta   109.04723485
_cell_angle_gamma   110.65108755
_symmetry_Int_Tables_number   1
_chemical_formula_structural   Tm12GaFe3Sb
_chemical_formula_sum   'Tm12 Ga1 Fe3 Sb1'
_cell_volume   422.31712447
_cell_formula_units_Z   1
loop_
 _symmetry_equiv_pos_site_id
 _symmetry_equiv_pos_as_xyz
  1  'x, y, z'
loop_
 _atom_site_type_symbol
 _atom_site_label
 _atom_site_symmetry_multiplicity
 _atom_site_fract_x
 _atom_site_fract_y
 _atom_site_fract_z
 _atom_site_occupancy
  Tm  Tm0  1  0.190607  0.418507  0.227900  1
  Tm  Tm1  1  0.809393  0.581493  0.772100  1
  Tm  Tm2  1  0.190607  0.962708  0.772100  1
  Tm  Tm3  1  0.941246  0.190644  0.750601  1
  Tm  Tm4  1  0.809393  0.037292  0.227900  1
  Tm  Tm5  1  0.058754  0.809356  0.249399  1
  Tm  Tm6  1  0.440043  0.190644  0.249399  1
  Tm  Tm7  1  0.559957  0.809356  0.750601  1
  Tm  Tm8  1  0.312725  0.302758  0.615483  1
  Tm  Tm9  1  0.687275  0.697242  0.384517  1
  Tm  Tm10  1  0.687275  0.302758  0.990033  1
  Tm  Tm11  1  0.312725  0.697242  0.009967  1
  Ga  Ga12  1  0.500000  0.000000  0.500000  1
  Fe  Fe13  1  0.383930  0.383930  0.000000  1
  Fe  Fe14  1  0.616070  0.616070  0.000000  1
  Fe  Fe15  1  0.000000  0.000000  0.000000  1
  Sb  Sb16  1  0.000000  0.500000  0.500000  1
