# generated using pymatgen
data_Rb(EuB8)3
_symmetry_space_group_name_H-M   'P 1'
_cell_length_a   7.26968154
_cell_length_b   7.26968244
_cell_length_c   5.92082200
_cell_angle_alpha   90.00000000
_cell_angle_beta   90.00000000
_cell_angle_gamma   109.53272795
_symmetry_Int_Tables_number   1
_chemical_formula_structural   Rb(EuB8)3
_chemical_formula_sum   'Rb1 Eu3 B24'
_cell_volume   294.89774784
_cell_formula_units_Z   1
loop_
 _symmetry_equiv_pos_site_id
 _symmetry_equiv_pos_as_xyz
  1  'x, y, z'
loop_
 _atom_site_type_symbol
 _atom_site_label
 _atom_site_symmetry_multiplicity
 _atom_site_fract_x
 _atom_site_fract_y
 _atom_site_fract_z
 _atom_site_occupancy
  Rb  Rb0  1  0.000000  0.000000  0.000000  1
  Eu  Eu1  1  0.751702  0.248298  0.500000  1
  Eu  Eu2  1  0.500000  0.500000  0.000000  1
  Eu  Eu3  1  0.248298  0.751702  0.500000  1
  B  B4  1  0.177491  0.326047  0.649306  1
  B  B5  1  0.924695  0.573658  0.148881  1
  B  B6  1  0.673953  0.822509  0.649306  1
  B  B7  1  0.426342  0.075305  0.148881  1
  B  B8  1  0.177491  0.326047  0.350694  1
  B  B9  1  0.924695  0.573658  0.851119  1
  B  B10  1  0.673953  0.822509  0.350694  1
  B  B11  1  0.426342  0.075305  0.851119  1
  B  B12  1  0.399995  0.399995  0.500000  1
  B  B13  1  0.147921  0.649895  0.000000  1
  B  B14  1  0.897705  0.897705  0.500000  1
  B  B15  1  0.649895  0.147921  0.000000  1
  B  B16  1  0.326047  0.177491  0.649306  1
  B  B17  1  0.075305  0.426342  0.148881  1
  B  B18  1  0.822509  0.673953  0.649306  1
  B  B19  1  0.573658  0.924695  0.148881  1
  B  B20  1  0.102295  0.102295  0.500000  1
  B  B21  1  0.852079  0.350105  0.000000  1
  B  B22  1  0.600005  0.600005  0.500000  1
  B  B23  1  0.350105  0.852079  0.000000  1
  B  B24  1  0.326047  0.177491  0.350694  1
  B  B25  1  0.075305  0.426342  0.851119  1
  B  B26  1  0.822509  0.673953  0.350694  1
  B  B27  1  0.573658  0.924695  0.851119  1
