# generated using pymatgen
data_Zr2GeH
_symmetry_space_group_name_H-M   'P 1'
_cell_length_a   5.50176176
_cell_length_b   5.50176189
_cell_length_c   5.50176150
_cell_angle_alpha   105.09236790
_cell_angle_beta   105.09237679
_cell_angle_gamma   118.63630985
_symmetry_Int_Tables_number   1
_chemical_formula_structural   Zr2GeH
_chemical_formula_sum   'Zr4 Ge2 H2'
_cell_volume   125.70331885
_cell_formula_units_Z   2
loop_
 _symmetry_equiv_pos_site_id
 _symmetry_equiv_pos_as_xyz
  1  'x, y, z'
loop_
 _atom_site_type_symbol
 _atom_site_label
 _atom_site_symmetry_multiplicity
 _atom_site_fract_x
 _atom_site_fract_y
 _atom_site_fract_z
 _atom_site_occupancy
  Zr  Zr0  1  0.162339  0.662339  0.824679  1
  Zr  Zr1  1  0.837661  0.337661  0.175321  1
  Zr  Zr2  1  0.337661  0.162339  0.500000  1
  Zr  Zr3  1  0.662339  0.837661  0.500000  1
  Ge  Ge4  1  0.250000  0.250000  0.000000  1
  Ge  Ge5  1  0.750000  0.750000  0.000000  1
  H  H6  1  0.750000  0.250000  0.500000  1
  H  H7  1  0.250000  0.750000  0.500000  1
