# generated using pymatgen
data_Na4UBiS6
_symmetry_space_group_name_H-M   'P 1'
_cell_length_a   7.02178675
_cell_length_b   7.02178730
_cell_length_c   7.05684900
_cell_angle_alpha   80.34899790
_cell_angle_beta   80.34900229
_cell_angle_gamma   120.02784179
_symmetry_Int_Tables_number   1
_chemical_formula_structural   Na4UBiS6
_chemical_formula_sum   'Na4 U1 Bi1 S6'
_cell_volume   283.78873531
_cell_formula_units_Z   1
loop_
 _symmetry_equiv_pos_site_id
 _symmetry_equiv_pos_as_xyz
  1  'x, y, z'
loop_
 _atom_site_type_symbol
 _atom_site_label
 _atom_site_symmetry_multiplicity
 _atom_site_fract_x
 _atom_site_fract_y
 _atom_site_fract_z
 _atom_site_occupancy
  Na  Na0  1  0.999971  0.000029  0.000000  1
  Na  Na1  1  0.500675  0.499325  0.500000  1
  Na  Na2  1  0.838606  0.161394  0.500000  1
  Na  Na3  1  0.160488  0.839512  0.500000  1
  U  U4  1  0.332977  0.667023  0.000000  1
  Bi  Bi5  1  0.667898  0.332102  0.000000  1
  S  S6  1  0.267246  0.286024  0.230771  1
  S  S7  1  0.421728  0.058385  0.770111  1
  S  S8  1  0.095531  0.440710  0.772693  1
  S  S9  1  0.713976  0.732754  0.769229  1
  S  S10  1  0.559290  0.904469  0.227307  1
  S  S11  1  0.941615  0.578272  0.229889  1
