# generated using pymatgen
data_Gd6TiMn2NbC12
_symmetry_space_group_name_H-M   'P 1'
_cell_length_a   8.31267400
_cell_length_b   8.31267399
_cell_length_c   5.12089000
_cell_angle_alpha   90.00000000
_cell_angle_beta   90.00000000
_cell_angle_gamma   119.99999102
_symmetry_Int_Tables_number   1
_chemical_formula_structural   Gd6TiMn2NbC12
_chemical_formula_sum   'Gd6 Ti1 Mn2 Nb1 C12'
_cell_volume   306.44858156
_cell_formula_units_Z   1
loop_
 _symmetry_equiv_pos_site_id
 _symmetry_equiv_pos_as_xyz
  1  'x, y, z'
loop_
 _atom_site_type_symbol
 _atom_site_label
 _atom_site_symmetry_multiplicity
 _atom_site_fract_x
 _atom_site_fract_y
 _atom_site_fract_z
 _atom_site_occupancy
  Gd  Gd0  1  0.617006  0.677682  0.750810  1
  Gd  Gd1  1  0.939325  0.617006  0.249190  1
  Gd  Gd2  1  0.677682  0.060675  0.249190  1
  Gd  Gd3  1  0.322318  0.939325  0.750810  1
  Gd  Gd4  1  0.060675  0.382994  0.750810  1
  Gd  Gd5  1  0.382994  0.322318  0.249190  1
  Ti  Ti6  1  0.000000  0.000000  0.000000  1
  Mn  Mn7  1  0.666667  0.333333  0.750088  1
  Mn  Mn8  1  0.333333  0.666667  0.249912  1
  Nb  Nb9  1  0.000000  0.000000  0.500000  1
  C  C10  1  0.960966  0.758235  0.752700  1
  C  C11  1  0.202731  0.960966  0.247300  1
  C  C12  1  0.758235  0.797269  0.247300  1
  C  C13  1  0.241765  0.202731  0.752700  1
  C  C14  1  0.797269  0.039034  0.752700  1
  C  C15  1  0.039034  0.241765  0.247300  1
  C  C16  1  0.860508  0.568109  0.750122  1
  C  C17  1  0.292398  0.860508  0.249878  1
  C  C18  1  0.568109  0.707602  0.249878  1
  C  C19  1  0.431891  0.292398  0.750122  1
  C  C20  1  0.139492  0.431891  0.249878  1
  C  C21  1  0.707602  0.139492  0.750122  1
