# generated using pymatgen
data_SmDyCo3P7Ru9
_symmetry_space_group_name_H-M   'P 1'
_cell_length_a   9.33755400
_cell_length_b   9.33755366
_cell_length_c   3.83641900
_cell_angle_alpha   90.00000000
_cell_angle_beta   90.00000000
_cell_angle_gamma   120.00000830
_symmetry_Int_Tables_number   1
_chemical_formula_structural   SmDyCo3P7Ru9
_chemical_formula_sum   'Sm1 Dy1 Co3 P7 Ru9'
_cell_volume   289.68290392
_cell_formula_units_Z   1
loop_
 _symmetry_equiv_pos_site_id
 _symmetry_equiv_pos_as_xyz
  1  'x, y, z'
loop_
 _atom_site_type_symbol
 _atom_site_label
 _atom_site_symmetry_multiplicity
 _atom_site_fract_x
 _atom_site_fract_y
 _atom_site_fract_z
 _atom_site_occupancy
  Sm  Sm0  1  0.333333  0.666667  0.000000  1
  Dy  Dy1  1  0.666667  0.333333  0.500000  1
  Co  Co2  1  0.157985  0.889271  0.000000  1
  Co  Co3  1  0.110729  0.268714  0.000000  1
  Co  Co4  1  0.731286  0.842015  0.000000  1
  P  P5  1  0.411956  0.109552  0.000000  1
  P  P6  1  0.890448  0.302404  0.000000  1
  P  P7  1  0.697596  0.588044  0.000000  1
  P  P8  1  0.113966  0.715233  0.500000  1
  P  P9  1  0.284767  0.398734  0.500000  1
  P  P10  1  0.601266  0.886034  0.500000  1
  P  P11  1  0.000000  0.000000  0.000000  1
  Ru  Ru12  1  0.424563  0.362369  0.000000  1
  Ru  Ru13  1  0.637631  0.062194  0.000000  1
  Ru  Ru14  1  0.937806  0.575437  0.000000  1
  Ru  Ru15  1  0.383358  0.949490  0.500000  1
  Ru  Ru16  1  0.050510  0.433867  0.500000  1
  Ru  Ru17  1  0.566133  0.616642  0.500000  1
  Ru  Ru18  1  0.205227  0.119992  0.500000  1
  Ru  Ru19  1  0.880008  0.085234  0.500000  1
  Ru  Ru20  1  0.914766  0.794773  0.500000  1
