# generated using pymatgen
data_Tb5Dy7In2(CoOs)2
_symmetry_space_group_name_H-M   'P 1'
_cell_length_a   8.44943667
_cell_length_b   8.44943751
_cell_length_c   8.44938405
_cell_angle_alpha   112.95128242
_cell_angle_beta   110.04536323
_cell_angle_gamma   105.50320165
_symmetry_Int_Tables_number   1
_chemical_formula_structural   Tb5Dy7In2(CoOs)2
_chemical_formula_sum   'Tb5 Dy7 In2 Co2 Os2'
_cell_volume   462.38633152
_cell_formula_units_Z   1
loop_
 _symmetry_equiv_pos_site_id
 _symmetry_equiv_pos_as_xyz
  1  'x, y, z'
loop_
 _atom_site_type_symbol
 _atom_site_label
 _atom_site_symmetry_multiplicity
 _atom_site_fract_x
 _atom_site_fract_y
 _atom_site_fract_z
 _atom_site_occupancy
  Tb  Tb0  1  0.442432  0.241807  0.200599  1
  Tb  Tb1  1  0.557601  0.758224  0.799405  1
  Tb  Tb2  1  0.041180  0.241805  0.799405  1
  Tb  Tb3  1  0.958793  0.758166  0.200599  1
  Tb  Tb4  1  0.183543  0.284310  0.467854  1
  Dy  Dy5  1  0.816473  0.715713  0.532185  1
  Dy  Dy6  1  0.183534  0.715732  0.899266  1
  Dy  Dy7  1  0.816444  0.284276  0.100720  1
  Dy  Dy8  1  0.324744  0.641301  0.316535  1
  Dy  Dy9  1  0.675289  0.358716  0.683471  1
  Dy  Dy10  1  0.324755  0.008182  0.683471  1
  Dy  Dy11  1  0.675235  0.991791  0.316535  1
  In  In12  1  0.500003  0.500003  0.000007  1
  In  In13  1  0.999984  0.999969  0.999953  1
  Co  Co14  1  0.110784  0.610816  0.500010  1
  Co  Co15  1  0.889194  0.389227  0.500010  1
  Os  Os16  1  0.330768  0.999964  0.330732  1
  Os  Os17  1  0.669244  0.999997  0.669242  1
