# generated using pymatgen
data_La20Si15Sb
_symmetry_space_group_name_H-M   'P 1'
_cell_length_a   8.06105445
_cell_length_b   8.03049129
_cell_length_c   15.70529315
_cell_angle_alpha   90.12469949
_cell_angle_beta   89.77385134
_cell_angle_gamma   90.03874372
_symmetry_Int_Tables_number   1
_chemical_formula_structural   La20Si15Sb
_chemical_formula_sum   'La20 Si15 Sb1'
_cell_volume   1016.65946600
_cell_formula_units_Z   1
loop_
 _symmetry_equiv_pos_site_id
 _symmetry_equiv_pos_as_xyz
  1  'x, y, z'
loop_
 _atom_site_type_symbol
 _atom_site_label
 _atom_site_symmetry_multiplicity
 _atom_site_fract_x
 _atom_site_fract_y
 _atom_site_fract_z
 _atom_site_occupancy
  La  La0  1  0.379437  0.476050  0.373293  1
  La  La1  1  0.865360  0.030605  0.372098  1
  La  La2  1  0.978451  0.127084  0.123063  1
  La  La3  1  0.022686  0.873518  0.627016  1
  La  La4  1  0.626415  0.520128  0.873850  1
  La  La5  1  0.481438  0.370639  0.629137  1
  La  La6  1  0.519384  0.626063  0.125485  1
  La  La7  1  0.126495  0.979090  0.877127  1
  La  La8  1  0.989488  0.618383  0.052601  1
  La  La9  1  0.010701  0.374894  0.557035  1
  La  La10  1  0.618656  0.989731  0.945902  1
  La  La11  1  0.118878  0.511804  0.803564  1
  La  La12  1  0.871564  0.482872  0.296145  1
  La  La13  1  0.510732  0.117308  0.194219  1
  La  La14  1  0.491431  0.883098  0.698332  1
  La  La15  1  0.385216  0.011032  0.444851  1
  La  La16  1  0.679822  0.693717  0.502013  1
  La  La17  1  0.809160  0.191185  0.751716  1
  La  La18  1  0.195218  0.810489  0.241655  1
  La  La19  1  0.307576  0.310316  0.000921  1
  Si  Si20  1  0.918840  0.288970  0.940670  1
  Si  Si21  1  0.717217  0.080812  0.559849  1
  Si  Si22  1  0.210705  0.420446  0.191166  1
  Si  Si23  1  0.792807  0.579112  0.691128  1
  Si  Si24  1  0.418066  0.212251  0.811341  1
  Si  Si25  1  0.579395  0.787406  0.308937  1
  Si  Si26  1  0.289292  0.921484  0.057036  1
  Si  Si27  1  0.830519  0.804521  0.795590  1
  Si  Si28  1  0.170663  0.194742  0.295191  1
  Si  Si29  1  0.804577  0.829281  0.203549  1
  Si  Si30  1  0.317433  0.667769  0.555842  1
  Si  Si31  1  0.695683  0.331396  0.045118  1
  Si  Si32  1  0.671211  0.307176  0.457649  1
  Si  Si33  1  0.330802  0.695265  0.954293  1
  Si  Si34  1  0.194337  0.170452  0.707176  1
  Sb  Sb35  1  0.070344  0.710910  0.435441  1
