# generated using pymatgen
data_HoTh3(Sc3Ge4)2
_symmetry_space_group_name_H-M   'P 1'
_cell_length_a   7.42178065
_cell_length_b   7.53313929
_cell_length_c   14.19001800
_cell_angle_alpha   89.91902445
_cell_angle_beta   89.97077711
_cell_angle_gamma   89.59409775
_symmetry_Int_Tables_number   1
_chemical_formula_structural   HoTh3(Sc3Ge4)2
_chemical_formula_sum   'Ho2 Th6 Sc12 Ge16'
_cell_volume   793.33327802
_cell_formula_units_Z   2
loop_
 _symmetry_equiv_pos_site_id
 _symmetry_equiv_pos_as_xyz
  1  'x, y, z'
loop_
 _atom_site_type_symbol
 _atom_site_label
 _atom_site_symmetry_multiplicity
 _atom_site_fract_x
 _atom_site_fract_y
 _atom_site_fract_z
 _atom_site_occupancy
  Ho  Ho0  1  0.990097  0.175368  0.096123  1
  Ho  Ho1  1  0.009903  0.824632  0.903877  1
  Th  Th2  1  0.505944  0.677205  0.905648  1
  Th  Th3  1  0.007657  0.823884  0.595350  1
  Th  Th4  1  0.494056  0.322795  0.094352  1
  Th  Th5  1  0.992343  0.176116  0.404650  1
  Th  Th6  1  0.490623  0.323198  0.401934  1
  Th  Th7  1  0.509377  0.676802  0.598066  1
  Sc  Sc8  1  0.179231  0.498080  0.751251  1
  Sc  Sc9  1  0.820769  0.501920  0.248749  1
  Sc  Sc10  1  0.321134  0.998982  0.248882  1
  Sc  Sc11  1  0.678866  0.001018  0.751118  1
  Sc  Sc12  1  0.345583  0.162872  0.625188  1
  Sc  Sc13  1  0.654417  0.837128  0.374812  1
  Sc  Sc14  1  0.151443  0.662945  0.373227  1
  Sc  Sc15  1  0.652495  0.836266  0.122885  1
  Sc  Sc16  1  0.848557  0.337055  0.626773  1
  Sc  Sc17  1  0.347505  0.163734  0.877115  1
  Sc  Sc18  1  0.847631  0.333210  0.874833  1
  Sc  Sc19  1  0.152369  0.666790  0.125167  1
  Ge  Ge20  1  0.188360  0.455772  0.543077  1
  Ge  Ge21  1  0.811640  0.544228  0.456923  1
  Ge  Ge22  1  0.314840  0.952987  0.456095  1
  Ge  Ge23  1  0.819747  0.542230  0.042194  1
  Ge  Ge24  1  0.685160  0.047013  0.543905  1
  Ge  Ge25  1  0.180253  0.457770  0.957806  1
  Ge  Ge26  1  0.695901  0.040706  0.955624  1
  Ge  Ge27  1  0.304099  0.959294  0.044376  1
  Ge  Ge28  1  0.045269  0.128555  0.750624  1
  Ge  Ge29  1  0.954731  0.871445  0.249376  1
  Ge  Ge30  1  0.456881  0.632670  0.248979  1
  Ge  Ge31  1  0.543119  0.367330  0.751021  1
  Ge  Ge32  1  0.309801  0.866150  0.752200  1
  Ge  Ge33  1  0.690199  0.133850  0.247800  1
  Ge  Ge34  1  0.181332  0.361377  0.246617  1
  Ge  Ge35  1  0.818668  0.638623  0.753383  1
