# generated using pymatgen
data_NpU5(Fe3Sb4)2
_symmetry_space_group_name_H-M   'P 1'
_cell_length_a   8.03488430
_cell_length_b   8.03467791
_cell_length_c   8.03464100
_cell_angle_alpha   109.42988331
_cell_angle_beta   109.53349660
_cell_angle_gamma   109.44775463
_symmetry_Int_Tables_number   1
_chemical_formula_structural   NpU5(Fe3Sb4)2
_chemical_formula_sum   'Np1 U5 Fe6 Sb8'
_cell_volume   399.30608287
_cell_formula_units_Z   1
loop_
 _symmetry_equiv_pos_site_id
 _symmetry_equiv_pos_as_xyz
  1  'x, y, z'
loop_
 _atom_site_type_symbol
 _atom_site_label
 _atom_site_symmetry_multiplicity
 _atom_site_fract_x
 _atom_site_fract_y
 _atom_site_fract_z
 _atom_site_occupancy
  Np  Np0  1  0.875075  0.250074  0.125055  1
  U  U1  1  0.624887  0.749998  0.374968  1
  U  U2  1  0.248877  0.125291  0.874800  1
  U  U3  1  0.749456  0.374668  0.623507  1
  U  U4  1  0.125180  0.873953  0.250502  1
  U  U5  1  0.376436  0.625933  0.751029  1
  Fe  Fe6  1  0.374835  0.249958  0.625287  1
  Fe  Fe7  1  0.125208  0.750356  0.874997  1
  Fe  Fe8  1  0.254791  0.628573  0.377246  1
  Fe  Fe9  1  0.748595  0.871502  0.126167  1
  Fe  Fe10  1  0.622572  0.377325  0.250994  1
  Fe  Fe11  1  0.874119  0.122414  0.745477  1
  Sb  Sb12  1  0.664331  0.498064  0.998862  1
  Sb  Sb13  1  0.500873  0.001985  0.666477  1
  Sb  Sb14  1  0.000600  0.665657  0.500249  1
  Sb  Sb15  1  0.834678  0.834307  0.835076  1
  Sb  Sb16  1  0.499654  0.000410  0.165278  1
  Sb  Sb17  1  0.165057  0.499663  0.999218  1
  Sb  Sb18  1  0.001156  0.165533  0.499210  1
  Sb  Sb19  1  0.333620  0.334336  0.335599  1
