# generated using pymatgen
data_NdEr15Cd2(HgIr2)2
_symmetry_space_group_name_H-M   'P 1'
_cell_length_a   9.56508639
_cell_length_b   9.56508686
_cell_length_c   9.58130500
_cell_angle_alpha   59.94389905
_cell_angle_beta   59.94389743
_cell_angle_gamma   59.86337326
_symmetry_Int_Tables_number   1
_chemical_formula_structural   NdEr15Cd2(HgIr2)2
_chemical_formula_sum   'Nd1 Er15 Cd2 Hg2 Ir4'
_cell_volume   618.68417657
_cell_formula_units_Z   1
loop_
 _symmetry_equiv_pos_site_id
 _symmetry_equiv_pos_as_xyz
  1  'x, y, z'
loop_
 _atom_site_type_symbol
 _atom_site_label
 _atom_site_symmetry_multiplicity
 _atom_site_fract_x
 _atom_site_fract_y
 _atom_site_fract_z
 _atom_site_occupancy
  Nd  Nd0  1  0.934347  0.934347  0.565653  1
  Er  Er1  1  0.351282  0.351282  0.345268  1
  Er  Er2  1  0.351282  0.351282  0.952169  1
  Er  Er3  1  0.351148  0.949425  0.349713  1
  Er  Er4  1  0.949425  0.351148  0.349713  1
  Er  Er5  1  0.810044  0.188688  0.189318  1
  Er  Er6  1  0.188688  0.810044  0.811950  1
  Er  Er7  1  0.188688  0.810044  0.189318  1
  Er  Er8  1  0.810044  0.188688  0.811950  1
  Er  Er9  1  0.189758  0.189758  0.810242  1
  Er  Er10  1  0.808477  0.808477  0.191523  1
  Er  Er11  1  0.938847  0.556474  0.562302  1
  Er  Er12  1  0.556474  0.938847  0.942378  1
  Er  Er13  1  0.556474  0.938847  0.562302  1
  Er  Er14  1  0.938847  0.556474  0.942378  1
  Er  Er15  1  0.563427  0.563427  0.936573  1
  Cd  Cd16  1  0.577931  0.260116  0.580975  1
  Cd  Cd17  1  0.260116  0.577931  0.580975  1
  Hg  Hg18  1  0.584899  0.584899  0.587639  1
  Hg  Hg19  1  0.584899  0.584899  0.242562  1
  Ir  Ir20  1  0.144334  0.144334  0.137142  1
  Ir  Ir21  1  0.144334  0.144334  0.574188  1
  Ir  Ir22  1  0.141145  0.575088  0.141883  1
  Ir  Ir23  1  0.575088  0.141145  0.141883  1
