# generated using pymatgen
data_CePr3Er4(CdIr)2
_symmetry_space_group_name_H-M   'P 1'
_cell_length_a   9.73374002
_cell_length_b   9.73374077
_cell_length_c   9.77054700
_cell_angle_alpha   59.87484667
_cell_angle_beta   59.87484410
_cell_angle_gamma   59.89675015
_symmetry_Int_Tables_number   1
_chemical_formula_structural   CePr3Er4(CdIr)2
_chemical_formula_sum   'Ce2 Pr6 Er8 Cd4 Ir4'
_cell_volume   652.83059392
_cell_formula_units_Z   2
loop_
 _symmetry_equiv_pos_site_id
 _symmetry_equiv_pos_as_xyz
  1  'x, y, z'
loop_
 _atom_site_type_symbol
 _atom_site_label
 _atom_site_symmetry_multiplicity
 _atom_site_fract_x
 _atom_site_fract_y
 _atom_site_fract_z
 _atom_site_occupancy
  Ce  Ce0  1  0.344760  0.344760  0.348387  1
  Ce  Ce1  1  0.344760  0.344760  0.962091  1
  Pr  Pr2  1  0.943223  0.558690  0.558827  1
  Pr  Pr3  1  0.558690  0.943223  0.939261  1
  Pr  Pr4  1  0.558690  0.943223  0.558827  1
  Pr  Pr5  1  0.943223  0.558690  0.939261  1
  Pr  Pr6  1  0.559538  0.559538  0.940462  1
  Pr  Pr7  1  0.943204  0.943204  0.556796  1
  Er  Er8  1  0.349568  0.952780  0.348826  1
  Er  Er9  1  0.952780  0.349568  0.348826  1
  Er  Er10  1  0.814986  0.186048  0.186016  1
  Er  Er11  1  0.186048  0.814986  0.812951  1
  Er  Er12  1  0.186048  0.814986  0.186016  1
  Er  Er13  1  0.814986  0.186048  0.812951  1
  Er  Er14  1  0.184674  0.184674  0.815326  1
  Er  Er15  1  0.813835  0.813835  0.186165  1
  Cd  Cd16  1  0.578878  0.578878  0.578983  1
  Cd  Cd17  1  0.578878  0.578878  0.263260  1
  Cd  Cd18  1  0.578541  0.262310  0.579574  1
  Cd  Cd19  1  0.262310  0.578541  0.579574  1
  Ir  Ir20  1  0.142104  0.142104  0.141711  1
  Ir  Ir21  1  0.142104  0.142104  0.574082  1
  Ir  Ir22  1  0.143976  0.574196  0.140914  1
  Ir  Ir23  1  0.574196  0.143976  0.140914  1
