# generated using pymatgen
data_Tm11Zr(Si3Au)4
_symmetry_space_group_name_H-M   'P 1'
_cell_length_a   4.19067700
_cell_length_b   10.84697204
_cell_length_c   12.19751000
_cell_angle_alpha   90.00477510
_cell_angle_beta   90.00000000
_cell_angle_gamma   90.00000000
_symmetry_Int_Tables_number   1
_chemical_formula_structural   Tm11Zr(Si3Au)4
_chemical_formula_sum   'Tm11 Zr1 Si12 Au4'
_cell_volume   554.45191835
_cell_formula_units_Z   1
loop_
 _symmetry_equiv_pos_site_id
 _symmetry_equiv_pos_as_xyz
  1  'x, y, z'
loop_
 _atom_site_type_symbol
 _atom_site_label
 _atom_site_symmetry_multiplicity
 _atom_site_fract_x
 _atom_site_fract_y
 _atom_site_fract_z
 _atom_site_occupancy
  Tm  Tm0  1  0.250000  0.875962  0.019567  1
  Tm  Tm1  1  0.250000  0.624300  0.519499  1
  Tm  Tm2  1  0.750000  0.124520  0.975732  1
  Tm  Tm3  1  0.750000  0.373046  0.481635  1
  Tm  Tm4  1  0.250000  0.925218  0.601996  1
  Tm  Tm5  1  0.250000  0.577046  0.100819  1
  Tm  Tm6  1  0.750000  0.075968  0.404359  1
  Tm  Tm7  1  0.750000  0.423070  0.897201  1
  Tm  Tm8  1  0.250000  0.663968  0.802348  1
  Tm  Tm9  1  0.250000  0.837665  0.302787  1
  Tm  Tm10  1  0.750000  0.333997  0.198228  1
  Zr  Zr11  1  0.750000  0.166216  0.699057  1
  Si  Si12  1  0.250000  0.029406  0.824539  1
  Si  Si13  1  0.250000  0.471910  0.325942  1
  Si  Si14  1  0.750000  0.974503  0.173828  1
  Si  Si15  1  0.750000  0.527285  0.672825  1
  Si  Si16  1  0.250000  0.248452  0.843724  1
  Si  Si17  1  0.250000  0.250630  0.350685  1
  Si  Si18  1  0.750000  0.753053  0.152167  1
  Si  Si19  1  0.750000  0.747559  0.651776  1
  Si  Si20  1  0.250000  0.181172  0.543258  1
  Si  Si21  1  0.250000  0.316370  0.034770  1
  Si  Si22  1  0.750000  0.812737  0.463112  1
  Si  Si23  1  0.750000  0.682573  0.963466  1
  Au  Au24  1  0.250000  0.392262  0.681067  1
  Au  Au25  1  0.250000  0.110085  0.182072  1
  Au  Au26  1  0.750000  0.610490  0.318245  1
  Au  Au27  1  0.750000  0.890539  0.815294  1
