# generated using pymatgen
data_Ho12Tm8GaBi11
_symmetry_space_group_name_H-M   'P 1'
_cell_length_a   8.19509068
_cell_length_b   9.43037970
_cell_length_c   12.04663800
_cell_angle_alpha   90.02235235
_cell_angle_beta   90.40494966
_cell_angle_gamma   90.02601531
_symmetry_Int_Tables_number   1
_chemical_formula_structural   Ho12Tm8GaBi11
_chemical_formula_sum   'Ho12 Tm8 Ga1 Bi11'
_cell_volume   930.97469710
_cell_formula_units_Z   1
loop_
 _symmetry_equiv_pos_site_id
 _symmetry_equiv_pos_as_xyz
  1  'x, y, z'
loop_
 _atom_site_type_symbol
 _atom_site_label
 _atom_site_symmetry_multiplicity
 _atom_site_fract_x
 _atom_site_fract_y
 _atom_site_fract_z
 _atom_site_occupancy
  Ho  Ho0  1  0.527253  0.749724  0.511625  1
  Ho  Ho1  1  0.191204  0.749456  0.723312  1
  Ho  Ho2  1  0.673415  0.750033  0.789388  1
  Ho  Ho3  1  0.811406  0.249686  0.280626  1
  Ho  Ho4  1  0.313639  0.250227  0.219605  1
  Ho  Ho5  1  0.194440  0.936723  0.438701  1
  Ho  Ho6  1  0.308888  0.048856  0.940814  1
  Ho  Ho7  1  0.805716  0.436924  0.559758  1
  Ho  Ho8  1  0.355544  0.749284  0.205184  1
  Ho  Ho9  1  0.851674  0.749533  0.284581  1
  Ho  Ho10  1  0.648893  0.249549  0.785042  1
  Ho  Ho11  1  0.148704  0.249953  0.716565  1
  Tm  Tm12  1  0.035645  0.749462  0.990418  1
  Tm  Tm13  1  0.978697  0.250154  0.009481  1
  Tm  Tm14  1  0.474559  0.249815  0.489105  1
  Tm  Tm15  1  0.308575  0.450566  0.940741  1
  Tm  Tm16  1  0.805951  0.064943  0.559702  1
  Tm  Tm17  1  0.685627  0.928462  0.054818  1
  Tm  Tm18  1  0.194349  0.564997  0.438641  1
  Tm  Tm19  1  0.685444  0.571436  0.054748  1
  Ga  Ga20  1  0.409921  0.748510  0.961820  1
  Bi  Bi21  1  0.434944  0.004473  0.674077  1
  Bi  Bi22  1  0.935444  0.497750  0.826553  1
  Bi  Bi23  1  0.564618  0.503613  0.326057  1
  Bi  Bi24  1  0.063029  0.996918  0.173653  1
  Bi  Bi25  1  0.565012  0.995851  0.326105  1
  Bi  Bi26  1  0.063119  0.502772  0.173775  1
  Bi  Bi27  1  0.434636  0.495060  0.674272  1
  Bi  Bi28  1  0.934931  0.002023  0.826388  1
  Bi  Bi29  1  0.911193  0.751434  0.543993  1
  Bi  Bi30  1  0.592118  0.250407  0.042292  1
  Bi  Bi31  1  0.091416  0.251406  0.458166  1
