# generated using pymatgen
data_Y5Zr3Co10(NiP2)6
_symmetry_space_group_name_H-M   'P 1'
_cell_length_a   12.32528300
_cell_length_b   12.31196148
_cell_length_c   3.77431800
_cell_angle_alpha   90.00000000
_cell_angle_beta   90.00000000
_cell_angle_gamma   120.03481361
_symmetry_Int_Tables_number   1
_chemical_formula_structural   Y5Zr3Co10(NiP2)6
_chemical_formula_sum   'Y5 Zr3 Co10 Ni6 P12'
_cell_volume   495.83914319
_cell_formula_units_Z   1
loop_
 _symmetry_equiv_pos_site_id
 _symmetry_equiv_pos_as_xyz
  1  'x, y, z'
loop_
 _atom_site_type_symbol
 _atom_site_label
 _atom_site_symmetry_multiplicity
 _atom_site_fract_x
 _atom_site_fract_y
 _atom_site_fract_z
 _atom_site_occupancy
  Y  Y0  1  0.183084  0.183338  0.500000  1
  Y  Y1  1  0.816768  0.999411  0.500000  1
  Y  Y2  1  0.999988  0.817644  0.500000  1
  Y  Y3  1  0.333290  0.665905  0.000000  1
  Y  Y4  1  0.666977  0.333416  0.000000  1
  Zr  Zr5  1  0.560157  0.560080  0.000000  1
  Zr  Zr6  1  0.440925  0.001082  0.000000  1
  Zr  Zr7  1  0.000449  0.440905  0.000000  1
  Co  Co8  1  0.722615  0.723798  0.500000  1
  Co  Co9  1  0.276418  0.000473  0.500000  1
  Co  Co10  1  0.001658  0.277126  0.500000  1
  Co  Co11  1  0.179196  0.374232  0.000000  1
  Co  Co12  1  0.622675  0.805078  0.000000  1
  Co  Co13  1  0.194531  0.818118  0.000000  1
  Co  Co14  1  0.806703  0.623389  0.000000  1
  Co  Co15  1  0.818705  0.193870  0.000000  1
  Co  Co16  1  0.376192  0.184428  0.000000  1
  Co  Co17  1  0.355471  0.478758  0.500000  1
  Ni  Ni18  1  0.517916  0.874951  0.500000  1
  Ni  Ni19  1  0.125075  0.642508  0.500000  1
  Ni  Ni20  1  0.876866  0.518674  0.500000  1
  Ni  Ni21  1  0.643075  0.124288  0.500000  1
  Ni  Ni22  1  0.483154  0.358628  0.500000  1
  Ni  Ni23  1  0.999636  0.999392  0.000000  1
  P  P24  1  0.819142  0.819168  0.000000  1
  P  P25  1  0.180341  0.000259  0.000000  1
  P  P26  1  0.999333  0.179006  0.000000  1
  P  P27  1  0.171934  0.473535  0.500000  1
  P  P28  1  0.523011  0.692444  0.500000  1
  P  P29  1  0.304084  0.830681  0.500000  1
  P  P30  1  0.697553  0.527411  0.500000  1
  P  P31  1  0.830925  0.304064  0.500000  1
  P  P32  1  0.473027  0.170803  0.500000  1
  P  P33  1  0.349350  0.353402  0.000000  1
  P  P34  1  0.649159  0.999710  0.000000  1
  P  P35  1  0.000618  0.650027  0.000000  1
