# generated using pymatgen
data_Pr2Sm4PtBr10
_symmetry_space_group_name_H-M   'P 1'
_cell_length_a   7.57101981
_cell_length_b   9.50696781
_cell_length_c   9.62984690
_cell_angle_alpha   108.04628795
_cell_angle_beta   96.61275284
_cell_angle_gamma   106.00610669
_symmetry_Int_Tables_number   1
_chemical_formula_structural   Pr2Sm4PtBr10
_chemical_formula_sum   'Pr2 Sm4 Pt1 Br10'
_cell_volume   618.04097077
_cell_formula_units_Z   1
loop_
 _symmetry_equiv_pos_site_id
 _symmetry_equiv_pos_as_xyz
  1  'x, y, z'
loop_
 _atom_site_type_symbol
 _atom_site_label
 _atom_site_symmetry_multiplicity
 _atom_site_fract_x
 _atom_site_fract_y
 _atom_site_fract_z
 _atom_site_occupancy
  Pr  Pr0  1  0.631820  0.550608  0.250601  1
  Pr  Pr1  1  0.368180  0.449392  0.749399  1
  Sm  Sm2  1  0.530946  0.199774  0.405904  1
  Sm  Sm3  1  0.469054  0.800226  0.594096  1
  Sm  Sm4  1  0.136107  0.360900  0.319498  1
  Sm  Sm5  1  0.863893  0.639100  0.680502  1
  Pt  Pt6  1  0.500000  0.500000  0.500000  1
  Br  Br7  1  0.150446  0.047318  0.229541  1
  Br  Br8  1  0.849554  0.952682  0.770459  1
  Br  Br9  1  0.244844  0.415088  0.049804  1
  Br  Br10  1  0.755156  0.584912  0.950196  1
  Br  Br11  1  0.712531  0.242122  0.157050  1
  Br  Br12  1  0.287469  0.757878  0.842950  1
  Br  Br13  1  0.051641  0.674058  0.419796  1
  Br  Br14  1  0.948359  0.325942  0.580204  1
  Br  Br15  1  0.415665  0.127588  0.667925  1
  Br  Br16  1  0.584335  0.872412  0.332075  1
