# generated using pymatgen
data_Sr4CdPb11
_symmetry_space_group_name_H-M   'P 1'
_cell_length_a   10.04342000
_cell_length_b   7.08978381
_cell_length_c   7.13828854
_cell_angle_alpha   89.31592311
_cell_angle_beta   90.00000000
_cell_angle_gamma   90.00000000
_symmetry_Int_Tables_number   1
_chemical_formula_structural   Sr4CdPb11
_chemical_formula_sum   'Sr4 Cd1 Pb11'
_cell_volume   508.25043719
_cell_formula_units_Z   1
loop_
 _symmetry_equiv_pos_site_id
 _symmetry_equiv_pos_as_xyz
  1  'x, y, z'
loop_
 _atom_site_type_symbol
 _atom_site_label
 _atom_site_symmetry_multiplicity
 _atom_site_fract_x
 _atom_site_fract_y
 _atom_site_fract_z
 _atom_site_occupancy
  Sr  Sr0  1  0.250000  0.007659  0.001162  1
  Sr  Sr1  1  0.250000  0.497737  0.504858  1
  Sr  Sr2  1  0.750000  0.995849  0.000041  1
  Sr  Sr3  1  0.750000  0.505165  0.498750  1
  Cd  Cd4  1  0.750000  0.495569  0.998130  1
  Pb  Pb5  1  0.995712  0.247071  0.746261  1
  Pb  Pb6  1  0.504476  0.255312  0.246502  1
  Pb  Pb7  1  0.501512  0.747417  0.247796  1
  Pb  Pb8  1  0.996803  0.744897  0.755337  1
  Pb  Pb9  1  0.998488  0.747417  0.247796  1
  Pb  Pb10  1  0.503197  0.744897  0.755337  1
  Pb  Pb11  1  0.504288  0.247071  0.746261  1
  Pb  Pb12  1  0.995524  0.255312  0.246502  1
  Pb  Pb13  1  0.250000  0.997679  0.501334  1
  Pb  Pb14  1  0.250000  0.507467  0.004532  1
  Pb  Pb15  1  0.750000  0.003478  0.499401  1
