# generated using pymatgen
data_Er3TmB16MoW3
_symmetry_space_group_name_H-M   'P 1'
_cell_length_a   3.60657600
_cell_length_b   6.01085809
_cell_length_c   11.62014906
_cell_angle_alpha   90.01616646
_cell_angle_beta   90.00000000
_cell_angle_gamma   90.00000000
_symmetry_Int_Tables_number   1
_chemical_formula_structural   Er3TmB16MoW3
_chemical_formula_sum   'Er3 Tm1 B16 Mo1 W3'
_cell_volume   251.90874570
_cell_formula_units_Z   1
loop_
 _symmetry_equiv_pos_site_id
 _symmetry_equiv_pos_as_xyz
  1  'x, y, z'
loop_
 _atom_site_type_symbol
 _atom_site_label
 _atom_site_symmetry_multiplicity
 _atom_site_fract_x
 _atom_site_fract_y
 _atom_site_fract_z
 _atom_site_occupancy
  Er  Er0  1  0.000000  0.373138  0.649633  1
  Er  Er1  1  0.000000  0.127050  0.149439  1
  Er  Er2  1  0.000000  0.872891  0.850242  1
  Tm  Tm3  1  0.000000  0.627305  0.350612  1
  B  B4  1  0.500000  0.787394  0.186870  1
  B  B5  1  0.500000  0.212406  0.813114  1
  B  B6  1  0.500000  0.287823  0.313163  1
  B  B7  1  0.500000  0.713099  0.686482  1
  B  B8  1  0.500000  0.867109  0.032037  1
  B  B9  1  0.500000  0.132806  0.967979  1
  B  B10  1  0.500000  0.367765  0.468100  1
  B  B11  1  0.500000  0.632959  0.532081  1
  B  B12  1  0.500000  0.884851  0.452397  1
  B  B13  1  0.500000  0.114281  0.547812  1
  B  B14  1  0.500000  0.385563  0.047614  1
  B  B15  1  0.500000  0.614484  0.952400  1
  B  B16  1  0.500000  0.975530  0.306180  1
  B  B17  1  0.500000  0.023532  0.693708  1
  B  B18  1  0.500000  0.476269  0.193847  1
  B  B19  1  0.500000  0.524146  0.806228  1
  Mo  Mo20  1  0.000000  0.869023  0.584354  1
  W  W21  1  0.000000  0.631274  0.085057  1
  W  W22  1  0.000000  0.368663  0.915149  1
  W  W23  1  0.000000  0.130644  0.415502  1
