# generated using pymatgen
data_La3NdY4(SiO5)4
_symmetry_space_group_name_H-M   'P 1'
_cell_length_a   8.17324872
_cell_length_b   8.15732345
_cell_length_c   10.89267202
_cell_angle_alpha   61.16987768
_cell_angle_beta   61.16961527
_cell_angle_gamma   50.35380728
_symmetry_Int_Tables_number   1
_chemical_formula_structural   La3NdY4(SiO5)4
_chemical_formula_sum   'La3 Nd1 Y4 Si4 O20'
_cell_volume   473.20508001
_cell_formula_units_Z   1
loop_
 _symmetry_equiv_pos_site_id
 _symmetry_equiv_pos_as_xyz
  1  'x, y, z'
loop_
 _atom_site_type_symbol
 _atom_site_label
 _atom_site_symmetry_multiplicity
 _atom_site_fract_x
 _atom_site_fract_y
 _atom_site_fract_z
 _atom_site_occupancy
  La  La0  1  0.708018  0.215587  0.465669  1
  La  La1  1  0.216571  0.708499  0.965918  1
  La  La2  1  0.291945  0.784204  0.534344  1
  Nd  Nd3  1  0.781745  0.293522  0.033759  1
  Y  Y4  1  0.237080  0.476215  0.337224  1
  Y  Y5  1  0.524237  0.762471  0.162067  1
  Y  Y6  1  0.763493  0.522806  0.663593  1
  Y  Y7  1  0.477215  0.236267  0.837707  1
  Si  Si8  1  0.728598  0.903785  0.306134  1
  Si  Si9  1  0.096898  0.271706  0.191956  1
  Si  Si10  1  0.270410  0.098319  0.693759  1
  Si  Si11  1  0.902860  0.726825  0.808163  1
  O  O12  1  0.424291  0.608149  0.109562  1
  O  O13  1  0.389130  0.578722  0.389640  1
  O  O14  1  0.580310  0.387133  0.890971  1
  O  O15  1  0.611104  0.421391  0.610598  1
  O  O16  1  0.866667  0.724024  0.431510  1
  O  O17  1  0.277892  0.132370  0.067486  1
  O  O18  1  0.133218  0.276785  0.567866  1
  O  O19  1  0.723392  0.866702  0.932516  1
  O  O20  1  0.569655  0.840245  0.314603  1
  O  O21  1  0.157300  0.432713  0.184737  1
  O  O22  1  0.431150  0.159759  0.685008  1
  O  O23  1  0.840547  0.565625  0.818277  1
  O  O24  1  0.156867  0.584970  0.824978  1
  O  O25  1  0.414107  0.843648  0.676311  1
  O  O26  1  0.844327  0.412499  0.172712  1
  O  O27  1  0.585086  0.158370  0.323388  1
  O  O28  1  0.907904  0.904586  0.648117  1
  O  O29  1  0.091787  0.094292  0.853238  1
  O  O30  1  0.091214  0.094549  0.352162  1
  O  O31  1  0.904984  0.913266  0.146026  1
