# generated using pymatgen
data_Y2Ho4P13Rh20
_symmetry_space_group_name_H-M   'P 1'
_cell_length_a   13.33137300
_cell_length_b   13.32979052
_cell_length_c   3.92073600
_cell_angle_alpha   89.99866678
_cell_angle_beta   90.00064385
_cell_angle_gamma   120.00663789
_symmetry_Int_Tables_number   1
_chemical_formula_structural   Y2Ho4P13Rh20
_chemical_formula_sum   'Y2 Ho4 P13 Rh20'
_cell_volume   603.34731366
_cell_formula_units_Z   1
loop_
 _symmetry_equiv_pos_site_id
 _symmetry_equiv_pos_as_xyz
  1  'x, y, z'
loop_
 _atom_site_type_symbol
 _atom_site_label
 _atom_site_symmetry_multiplicity
 _atom_site_fract_x
 _atom_site_fract_y
 _atom_site_fract_z
 _atom_site_occupancy
  Y  Y0  1  0.529231  0.717478  0.248587  1
  Y  Y1  1  0.282514  0.811742  0.248580  1
  Ho  Ho2  1  0.188259  0.470713  0.248589  1
  Ho  Ho3  1  0.470741  0.282472  0.751422  1
  Ho  Ho4  1  0.717548  0.188276  0.751411  1
  Ho  Ho5  1  0.811738  0.529294  0.751415  1
  P  P6  1  0.526318  0.139388  0.250218  1
  P  P7  1  0.860592  0.386917  0.250218  1
  P  P8  1  0.613067  0.473681  0.250222  1
  P  P9  1  0.944747  0.714457  0.254397  1
  P  P10  1  0.285551  0.230249  0.254399  1
  P  P11  1  0.769722  0.055265  0.254393  1
  P  P12  1  0.386689  0.526063  0.749777  1
  P  P13  1  0.473843  0.860739  0.749798  1
  P  P14  1  0.139252  0.612860  0.749782  1
  P  P15  1  0.714773  0.769870  0.745627  1
  P  P16  1  0.230132  0.944895  0.745626  1
  P  P17  1  0.055306  0.285565  0.745595  1
  P  P18  1  0.999998  0.000000  0.000046  1
  Rh  Rh19  1  0.332996  0.666206  0.751769  1
  Rh  Rh20  1  0.921154  0.250463  0.253634  1
  Rh  Rh21  1  0.749642  0.670674  0.253631  1
  Rh  Rh22  1  0.329324  0.078966  0.253624  1
  Rh  Rh23  1  0.438592  0.022573  0.751336  1
  Rh  Rh24  1  0.977721  0.416093  0.751359  1
  Rh  Rh25  1  0.583959  0.561396  0.751319  1
  Rh  Rh26  1  0.666665  0.333333  0.248192  1
  Rh  Rh27  1  0.094482  0.187064  0.247548  1
  Rh  Rh28  1  0.813061  0.907478  0.247562  1
  Rh  Rh29  1  0.092533  0.905579  0.247560  1
  Rh  Rh30  1  0.022102  0.583750  0.248642  1
  Rh  Rh31  1  0.416035  0.438196  0.248647  1
  Rh  Rh32  1  0.561808  0.977992  0.248641  1
  Rh  Rh33  1  0.670999  0.921592  0.746386  1
  Rh  Rh34  1  0.078414  0.749354  0.746371  1
  Rh  Rh35  1  0.250444  0.329274  0.746371  1
  Rh  Rh36  1  0.905565  0.812970  0.752435  1
  Rh  Rh37  1  0.187041  0.092633  0.752430  1
  Rh  Rh38  1  0.907442  0.094489  0.752441  1
