# generated using pymatgen
data_PrNd3Re5TcB12
_symmetry_space_group_name_H-M   'P 1'
_cell_length_a   6.31771665
_cell_length_b   6.31557381
_cell_length_c   7.63235202
_cell_angle_alpha   90.64128468
_cell_angle_beta   90.54392273
_cell_angle_gamma   114.57885578
_symmetry_Int_Tables_number   1
_chemical_formula_structural   PrNd3Re5TcB12
_chemical_formula_sum   'Pr1 Nd3 Re5 Tc1 B12'
_cell_volume   276.88637790
_cell_formula_units_Z   1
loop_
 _symmetry_equiv_pos_site_id
 _symmetry_equiv_pos_as_xyz
  1  'x, y, z'
loop_
 _atom_site_type_symbol
 _atom_site_label
 _atom_site_symmetry_multiplicity
 _atom_site_fract_x
 _atom_site_fract_y
 _atom_site_fract_z
 _atom_site_occupancy
  Pr  Pr0  1  0.093772  0.441668  0.326159  1
  Nd  Nd1  1  0.558125  0.905177  0.174492  1
  Nd  Nd2  1  0.905795  0.558619  0.673983  1
  Nd  Nd3  1  0.441561  0.094223  0.826196  1
  Re  Re4  1  0.415836  0.584340  0.750006  1
  Re  Re5  1  0.989356  0.805716  0.087977  1
  Re  Re6  1  0.194914  0.010378  0.412043  1
  Re  Re7  1  0.010291  0.195025  0.911800  1
  Re  Re8  1  0.804874  0.989560  0.588252  1
  Tc  Tc9  1  0.584113  0.415464  0.249744  1
  B  B10  1  0.242823  0.152980  0.132025  1
  B  B11  1  0.846714  0.757979  0.367664  1
  B  B12  1  0.756321  0.847015  0.868141  1
  B  B13  1  0.153050  0.243085  0.632377  1
  B  B14  1  0.583302  0.156277  0.482289  1
  B  B15  1  0.843340  0.416741  0.017287  1
  B  B16  1  0.415089  0.841202  0.520161  1
  B  B17  1  0.159203  0.585414  0.979573  1
  B  B18  1  0.441377  0.349635  0.533057  1
  B  B19  1  0.650328  0.558810  0.966992  1
  B  B20  1  0.559869  0.650300  0.466669  1
  B  B21  1  0.349947  0.440392  0.033112  1
