# generated using pymatgen
data_DyHo18LuSn16
_symmetry_space_group_name_H-M   'P 1'
_cell_length_a   8.00805706
_cell_length_b   8.14155178
_cell_length_c   15.41076508
_cell_angle_alpha   90.00263395
_cell_angle_beta   89.98832423
_cell_angle_gamma   89.94850452
_symmetry_Int_Tables_number   1
_chemical_formula_structural   DyHo18LuSn16
_chemical_formula_sum   'Dy1 Ho18 Lu1 Sn16'
_cell_volume   1004.75080687
_cell_formula_units_Z   1
loop_
 _symmetry_equiv_pos_site_id
 _symmetry_equiv_pos_as_xyz
  1  'x, y, z'
loop_
 _atom_site_type_symbol
 _atom_site_label
 _atom_site_symmetry_multiplicity
 _atom_site_fract_x
 _atom_site_fract_y
 _atom_site_fract_z
 _atom_site_occupancy
  Dy  Dy0  1  0.021267  0.179571  0.902445  1
  Ho  Ho1  1  0.367677  0.836907  0.877527  1
  Ho  Ho2  1  0.868138  0.662647  0.622381  1
  Ho  Ho3  1  0.632051  0.162991  0.377828  1
  Ho  Ho4  1  0.132124  0.337113  0.121702  1
  Ho  Ho5  1  0.632064  0.162974  0.122180  1
  Ho  Ho6  1  0.132093  0.337083  0.378331  1
  Ho  Ho7  1  0.367662  0.836935  0.622479  1
  Ho  Ho8  1  0.868123  0.662670  0.877613  1
  Ho  Ho9  1  0.520870  0.321094  0.902469  1
  Ho  Ho10  1  0.021310  0.179566  0.597613  1
  Ho  Ho11  1  0.479195  0.679327  0.402931  1
  Ho  Ho12  1  0.979131  0.820643  0.097399  1
  Ho  Ho13  1  0.479211  0.679330  0.097063  1
  Ho  Ho14  1  0.979119  0.820661  0.402612  1
  Ho  Ho15  1  0.520873  0.321094  0.597522  1
  Ho  Ho16  1  0.698627  0.997189  0.749968  1
  Ho  Ho17  1  0.800964  0.496743  0.250010  1
  Ho  Ho18  1  0.300967  0.003066  0.249993  1
  Lu  Lu19  1  0.199008  0.503545  0.749963  1
  Sn  Sn20  1  0.292562  0.036040  0.041509  1
  Sn  Sn21  1  0.792253  0.463563  0.458483  1
  Sn  Sn22  1  0.707775  0.963854  0.541859  1
  Sn  Sn23  1  0.207825  0.535998  0.957289  1
  Sn  Sn24  1  0.707615  0.963736  0.958172  1
  Sn  Sn25  1  0.207765  0.535903  0.542719  1
  Sn  Sn26  1  0.292437  0.036112  0.458549  1
  Sn  Sn27  1  0.792249  0.463577  0.041517  1
  Sn  Sn28  1  0.563841  0.617816  0.749999  1
  Sn  Sn29  1  0.065654  0.880359  0.749991  1
  Sn  Sn30  1  0.433972  0.381051  0.249995  1
  Sn  Sn31  1  0.934553  0.119105  0.250006  1
  Sn  Sn32  1  0.330034  0.149975  0.749968  1
  Sn  Sn33  1  0.831099  0.352537  0.749910  1
  Sn  Sn34  1  0.669788  0.851759  0.249999  1
  Sn  Sn35  1  0.170102  0.647471  0.250004  1
