# generated using pymatgen
data_Nd4Dy4Re3TcB24
_symmetry_space_group_name_H-M   'P 1'
_cell_length_a   3.73710600
_cell_length_b   9.26180675
_cell_length_c   11.71476104
_cell_angle_alpha   90.01857836
_cell_angle_beta   90.00000000
_cell_angle_gamma   90.00000000
_symmetry_Int_Tables_number   1
_chemical_formula_structural   Nd4Dy4Re3TcB24
_chemical_formula_sum   'Nd4 Dy4 Re3 Tc1 B24'
_cell_volume   405.47542967
_cell_formula_units_Z   1
loop_
 _symmetry_equiv_pos_site_id
 _symmetry_equiv_pos_as_xyz
  1  'x, y, z'
loop_
 _atom_site_type_symbol
 _atom_site_label
 _atom_site_symmetry_multiplicity
 _atom_site_fract_x
 _atom_site_fract_y
 _atom_site_fract_z
 _atom_site_occupancy
  Nd  Nd0  1  0.000000  0.323155  0.413912  1
  Nd  Nd1  1  0.000000  0.677108  0.585734  1
  Nd  Nd2  1  0.000000  0.822960  0.086010  1
  Nd  Nd3  1  0.000000  0.177320  0.914075  1
  Dy  Dy4  1  0.000000  0.941655  0.368981  1
  Dy  Dy5  1  0.000000  0.057281  0.630428  1
  Dy  Dy6  1  0.000000  0.443169  0.131369  1
  Dy  Dy7  1  0.000000  0.557314  0.869547  1
  Re  Re8  1  0.000000  0.360984  0.680331  1
  Re  Re9  1  0.000000  0.138943  0.180367  1
  Re  Re10  1  0.000000  0.861115  0.819665  1
  Tc  Tc11  1  0.000000  0.639181  0.319554  1
  B  B12  1  0.500000  0.554869  0.430592  1
  B  B13  1  0.500000  0.445282  0.569208  1
  B  B14  1  0.500000  0.054889  0.069226  1
  B  B15  1  0.500000  0.945360  0.930720  1
  B  B16  1  0.500000  0.748844  0.416049  1
  B  B17  1  0.500000  0.250801  0.583702  1
  B  B18  1  0.500000  0.249489  0.083917  1
  B  B19  1  0.500000  0.750862  0.916210  1
  B  B20  1  0.500000  0.790507  0.266403  1
  B  B21  1  0.500000  0.209079  0.733478  1
  B  B22  1  0.500000  0.290782  0.233704  1
  B  B23  1  0.500000  0.709101  0.766463  1
  B  B24  1  0.500000  0.629800  0.187043  1
  B  B25  1  0.500000  0.370365  0.813103  1
  B  B26  1  0.500000  0.129536  0.313199  1
  B  B27  1  0.500000  0.870231  0.686780  1
  B  B28  1  0.500000  0.983879  0.212822  1
  B  B29  1  0.500000  0.016161  0.786994  1
  B  B30  1  0.500000  0.484160  0.287251  1
  B  B31  1  0.500000  0.516171  0.712962  1
  B  B32  1  0.500000  0.596932  0.027119  1
  B  B33  1  0.500000  0.403301  0.973354  1
  B  B34  1  0.500000  0.096399  0.472831  1
  B  B35  1  0.500000  0.903017  0.526895  1
