# generated using pymatgen
data_HoErCo2Sn
_symmetry_space_group_name_H-M   'P 1'
_cell_length_a   7.10709177
_cell_length_b   7.10709348
_cell_length_c   3.87607100
_cell_angle_alpha   90.00000000
_cell_angle_beta   90.00000000
_cell_angle_gamma   149.00407588
_symmetry_Int_Tables_number   1
_chemical_formula_structural   HoErCo2Sn
_chemical_formula_sum   'Ho1 Er1 Co2 Sn1'
_cell_volume   100.82392242
_cell_formula_units_Z   1
loop_
 _symmetry_equiv_pos_site_id
 _symmetry_equiv_pos_as_xyz
  1  'x, y, z'
loop_
 _atom_site_type_symbol
 _atom_site_label
 _atom_site_symmetry_multiplicity
 _atom_site_fract_x
 _atom_site_fract_y
 _atom_site_fract_z
 _atom_site_occupancy
  Ho  Ho0  1  0.637457  0.362543  0.500000  1
  Er  Er1  1  0.362251  0.637749  0.500000  1
  Co  Co2  1  0.795585  0.204415  0.000000  1
  Co  Co3  1  0.205024  0.794976  0.000000  1
  Sn  Sn4  1  0.999683  0.000317  0.000000  1
