# generated using pymatgen
data_Th2Si7Ir12
_symmetry_space_group_name_H-M   'P 1'
_cell_length_a   9.82659200
_cell_length_b   9.82659174
_cell_length_c   3.92131400
_cell_angle_alpha   90.00000000
_cell_angle_beta   90.00000000
_cell_angle_gamma   120.00000089
_symmetry_Int_Tables_number   1
_chemical_formula_structural   Th2Si7Ir12
_chemical_formula_sum   'Th2 Si7 Ir12'
_cell_volume   327.92013576
_cell_formula_units_Z   1
loop_
 _symmetry_equiv_pos_site_id
 _symmetry_equiv_pos_as_xyz
  1  'x, y, z'
loop_
 _atom_site_type_symbol
 _atom_site_label
 _atom_site_symmetry_multiplicity
 _atom_site_fract_x
 _atom_site_fract_y
 _atom_site_fract_z
 _atom_site_occupancy
  Th  Th0  1  0.333333  0.666667  0.747400  1
  Th  Th1  1  0.666667  0.333333  0.252600  1
  Si  Si2  1  0.000000  0.000000  0.500000  1
  Si  Si3  1  0.290352  0.890082  0.247759  1
  Si  Si4  1  0.599731  0.709648  0.247759  1
  Si  Si5  1  0.109918  0.400269  0.247759  1
  Si  Si6  1  0.709648  0.109918  0.752241  1
  Si  Si7  1  0.400269  0.290352  0.752241  1
  Si  Si8  1  0.890082  0.599731  0.752241  1
  Ir  Ir9  1  0.263435  0.119324  0.253868  1
  Ir  Ir10  1  0.855889  0.736565  0.253868  1
  Ir  Ir11  1  0.880676  0.144111  0.253868  1
  Ir  Ir12  1  0.736565  0.880676  0.746132  1
  Ir  Ir13  1  0.144111  0.263435  0.746132  1
  Ir  Ir14  1  0.119324  0.855889  0.746132  1
  Ir  Ir15  1  0.065131  0.620203  0.248421  1
  Ir  Ir16  1  0.555073  0.934869  0.248421  1
  Ir  Ir17  1  0.379797  0.444927  0.248421  1
  Ir  Ir18  1  0.934869  0.379797  0.751579  1
  Ir  Ir19  1  0.444927  0.065131  0.751579  1
  Ir  Ir20  1  0.620203  0.555073  0.751579  1
