# generated using pymatgen
data_SrLa3(SeO)4
_symmetry_space_group_name_H-M   'P 1'
_cell_length_a   7.84623804
_cell_length_b   7.84623918
_cell_length_c   6.01395297
_cell_angle_alpha   90.12368831
_cell_angle_beta   90.12368697
_cell_angle_gamma   134.90789196
_symmetry_Int_Tables_number   1
_chemical_formula_structural   SrLa3(SeO)4
_chemical_formula_sum   'Sr1 La3 Se4 O4'
_cell_volume   262.21541214
_cell_formula_units_Z   1
loop_
 _symmetry_equiv_pos_site_id
 _symmetry_equiv_pos_as_xyz
  1  'x, y, z'
loop_
 _atom_site_type_symbol
 _atom_site_label
 _atom_site_symmetry_multiplicity
 _atom_site_fract_x
 _atom_site_fract_y
 _atom_site_fract_z
 _atom_site_occupancy
  Sr  Sr0  1  0.332764  0.667236  0.000000  1
  La  La1  1  0.173933  0.826067  0.500000  1
  La  La2  1  0.825833  0.174167  0.500000  1
  La  La3  1  0.673721  0.326279  0.000000  1
  Se  Se4  1  0.858522  0.855438  0.857292  1
  Se  Se5  1  0.353431  0.351529  0.635260  1
  Se  Se6  1  0.144562  0.141478  0.142708  1
  Se  Se7  1  0.648471  0.646569  0.364740  1
  O  O8  1  0.501407  0.006343  0.743587  1
  O  O9  1  0.993657  0.498593  0.256413  1
  O  O10  1  0.507045  0.013346  0.256700  1
  O  O11  1  0.986654  0.492955  0.743300  1
