# generated using pymatgen
data_Er2FeCoI2
_symmetry_space_group_name_H-M   'P 1'
_cell_length_a   3.95595600
_cell_length_b   3.95595616
_cell_length_c   12.43440600
_cell_angle_alpha   90.00000000
_cell_angle_beta   90.00000000
_cell_angle_gamma   120.00001538
_symmetry_Int_Tables_number   1
_chemical_formula_structural   Er2FeCoI2
_chemical_formula_sum   'Er2 Fe1 Co1 I2'
_cell_volume   168.52274734
_cell_formula_units_Z   1
loop_
 _symmetry_equiv_pos_site_id
 _symmetry_equiv_pos_as_xyz
  1  'x, y, z'
loop_
 _atom_site_type_symbol
 _atom_site_label
 _atom_site_symmetry_multiplicity
 _atom_site_fract_x
 _atom_site_fract_y
 _atom_site_fract_z
 _atom_site_occupancy
  Er  Er0  1  0.000000  0.000000  0.149929  1
  Er  Er1  1  0.000000  0.000000  0.850787  1
  Fe  Fe2  1  0.666667  0.333334  0.003598  1
  Co  Co3  1  0.333333  0.666666  0.995227  1
  I  I4  1  0.333333  0.666666  0.322255  1
  I  I5  1  0.666667  0.333334  0.678203  1
