# generated using pymatgen
data_Rb8Li4DyTm3As8
_symmetry_space_group_name_H-M   'P 1'
_cell_length_a   10.58352891
_cell_length_b   10.58352976
_cell_length_c   6.82724450
_cell_angle_alpha   90.03331022
_cell_angle_beta   89.96668468
_cell_angle_gamma   99.85623619
_symmetry_Int_Tables_number   1
_chemical_formula_structural   Rb8Li4DyTm3As8
_chemical_formula_sum   'Rb8 Li4 Dy1 Tm3 As8'
_cell_volume   753.43980703
_cell_formula_units_Z   1
loop_
 _symmetry_equiv_pos_site_id
 _symmetry_equiv_pos_as_xyz
  1  'x, y, z'
loop_
 _atom_site_type_symbol
 _atom_site_label
 _atom_site_symmetry_multiplicity
 _atom_site_fract_x
 _atom_site_fract_y
 _atom_site_fract_z
 _atom_site_occupancy
  Rb  Rb0  1  0.567861  0.932215  0.750146  1
  Rb  Rb1  1  0.932215  0.567861  0.249854  1
  Rb  Rb2  1  0.432251  0.067376  0.249824  1
  Rb  Rb3  1  0.067376  0.432251  0.750176  1
  Rb  Rb4  1  0.678533  0.321826  0.790199  1
  Rb  Rb5  1  0.821832  0.178111  0.290011  1
  Rb  Rb6  1  0.321826  0.678533  0.209801  1
  Rb  Rb7  1  0.178111  0.821832  0.709989  1
  Li  Li8  1  0.618440  0.618440  0.000000  1
  Li  Li9  1  0.881786  0.881786  0.500000  1
  Li  Li10  1  0.381814  0.381814  0.000000  1
  Li  Li11  1  0.117653  0.117653  0.500000  1
  Dy  Dy12  1  0.367897  0.367897  0.500000  1
  Tm  Tm13  1  0.868382  0.868382  0.000000  1
  Tm  Tm14  1  0.632403  0.632403  0.500000  1
  Tm  Tm15  1  0.131096  0.131096  0.000000  1
  As  As16  1  0.342281  0.155498  0.752763  1
  As  As17  1  0.155498  0.342281  0.247237  1
  As  As18  1  0.657935  0.842204  0.250069  1
  As  As19  1  0.842204  0.657935  0.749931  1
  As  As20  1  0.910760  0.089021  0.766792  1
  As  As21  1  0.591218  0.411608  0.265140  1
  As  As22  1  0.089021  0.910760  0.233208  1
  As  As23  1  0.411608  0.591218  0.734860  1
