# generated using pymatgen
data_Hf6Zr2Co11Si16Pt
_symmetry_space_group_name_H-M   'P 1'
_cell_length_a   5.24009226
_cell_length_b   6.78193914
_cell_length_c   13.77135006
_cell_angle_alpha   89.98149640
_cell_angle_beta   89.92129472
_cell_angle_gamma   89.90063785
_symmetry_Int_Tables_number   1
_chemical_formula_structural   Hf6Zr2Co11Si16Pt
_chemical_formula_sum   'Hf6 Zr2 Co11 Si16 Pt1'
_cell_volume   489.40483372
_cell_formula_units_Z   1
loop_
 _symmetry_equiv_pos_site_id
 _symmetry_equiv_pos_as_xyz
  1  'x, y, z'
loop_
 _atom_site_type_symbol
 _atom_site_label
 _atom_site_symmetry_multiplicity
 _atom_site_fract_x
 _atom_site_fract_y
 _atom_site_fract_z
 _atom_site_occupancy
  Hf  Hf0  1  0.269271  0.099544  0.643939  1
  Hf  Hf1  1  0.765490  0.401137  0.643851  1
  Hf  Hf2  1  0.231402  0.601114  0.355634  1
  Hf  Hf3  1  0.732719  0.898313  0.355363  1
  Hf  Hf4  1  0.264954  0.900376  0.851460  1
  Hf  Hf5  1  0.770956  0.601812  0.849339  1
  Zr  Zr6  1  0.235988  0.399061  0.151548  1
  Zr  Zr7  1  0.730907  0.100824  0.149938  1
  Co  Co8  1  0.506531  0.225731  0.481746  1
  Co  Co9  1  0.773490  0.998413  0.748857  1
  Co  Co10  1  0.490973  0.220918  0.979225  1
  Co  Co11  1  0.725159  0.503037  0.253229  1
  Co  Co12  1  0.494578  0.774154  0.518444  1
  Co  Co13  1  0.006194  0.274443  0.481714  1
  Co  Co14  1  0.004938  0.729143  0.018731  1
  Co  Co15  1  0.225179  0.996681  0.253768  1
  Co  Co16  1  0.277476  0.503016  0.749608  1
  Co  Co17  1  0.504957  0.772777  0.019468  1
  Co  Co18  1  0.994520  0.725414  0.518505  1
  Si  Si19  1  0.228633  0.010730  0.074507  1
  Si  Si20  1  0.719259  0.519308  0.432478  1
  Si  Si21  1  0.782256  0.019075  0.567513  1
  Si  Si22  1  0.481852  0.754621  0.190140  1
  Si  Si23  1  0.019061  0.254190  0.801528  1
  Si  Si24  1  0.516981  0.245736  0.809757  1
  Si  Si25  1  0.218847  0.980989  0.432865  1
  Si  Si26  1  0.294547  0.529491  0.930669  1
  Si  Si27  1  0.981230  0.745666  0.188999  1
  Si  Si28  1  0.710709  0.489461  0.072624  1
  Si  Si29  1  0.280877  0.480827  0.567730  1
  Si  Si30  1  0.481860  0.245872  0.314514  1
  Si  Si31  1  0.019678  0.746475  0.686121  1
  Si  Si32  1  0.767827  0.968857  0.928045  1
  Si  Si33  1  0.518685  0.754727  0.686595  1
  Si  Si34  1  0.981181  0.253972  0.314185  1
  Pt  Pt35  1  0.990832  0.274099  0.977360  1
