# generated using pymatgen
data_PdRh3Pb16
_symmetry_space_group_name_H-M   'P 1'
_cell_length_a   13.39680582
_cell_length_b   13.39680599
_cell_length_c   13.40156574
_cell_angle_alpha   151.26051667
_cell_angle_beta   151.26051881
_cell_angle_gamma   41.03984616
_symmetry_Int_Tables_number   1
_chemical_formula_structural   PdRh3Pb16
_chemical_formula_sum   'Pd1 Rh3 Pb16'
_cell_volume   554.97742803
_cell_formula_units_Z   1
loop_
 _symmetry_equiv_pos_site_id
 _symmetry_equiv_pos_as_xyz
  1  'x, y, z'
loop_
 _atom_site_type_symbol
 _atom_site_label
 _atom_site_symmetry_multiplicity
 _atom_site_fract_x
 _atom_site_fract_y
 _atom_site_fract_z
 _atom_site_occupancy
  Pd  Pd0  1  0.750000  0.750000  0.000000  1
  Rh  Rh1  1  0.250000  0.250000  0.000000  1
  Rh  Rh2  1  0.000000  0.500000  0.500000  1
  Rh  Rh3  1  0.500000  0.000000  0.500000  1
  Pb  Pb4  1  0.141201  0.632282  0.148486  1
  Pb  Pb5  1  0.634834  0.486907  0.496848  1
  Pb  Pb6  1  0.883564  0.886608  0.647639  1
  Pb  Pb7  1  0.383481  0.736025  0.996814  1
  Pb  Pb8  1  0.613392  0.616436  0.352361  1
  Pb  Pb9  1  0.113331  0.760787  0.996814  1
  Pb  Pb10  1  0.867718  0.358799  0.851514  1
  Pb  Pb11  1  0.362014  0.509942  0.496848  1
  Pb  Pb12  1  0.990058  0.137986  0.503152  1
  Pb  Pb13  1  0.483795  0.992715  0.851514  1
  Pb  Pb14  1  0.739213  0.386669  0.003186  1
  Pb  Pb15  1  0.238971  0.235925  0.352361  1
  Pb  Pb16  1  0.763975  0.116519  0.003186  1
  Pb  Pb17  1  0.264075  0.261029  0.647639  1
  Pb  Pb18  1  0.013093  0.865166  0.503152  1
  Pb  Pb19  1  0.507285  0.016205  0.148486  1
