# generated using pymatgen
data_Tb2Er2Tm4Ga3Co
_symmetry_space_group_name_H-M   'P 1'
_cell_length_a   9.91450000
_cell_length_b   9.90920434
_cell_length_c   6.94336900
_cell_angle_alpha   89.99837019
_cell_angle_beta   90.00000000
_cell_angle_gamma   120.01767330
_symmetry_Int_Tables_number   1
_chemical_formula_structural   Tb2Er2Tm4Ga3Co
_chemical_formula_sum   'Tb4 Er4 Tm8 Ga6 Co2'
_cell_volume   590.65394494
_cell_formula_units_Z   2
loop_
 _symmetry_equiv_pos_site_id
 _symmetry_equiv_pos_as_xyz
  1  'x, y, z'
loop_
 _atom_site_type_symbol
 _atom_site_label
 _atom_site_symmetry_multiplicity
 _atom_site_fract_x
 _atom_site_fract_y
 _atom_site_fract_z
 _atom_site_occupancy
  Tb  Tb0  1  0.072274  0.536389  0.291653  1
  Tb  Tb1  1  0.464113  0.536389  0.291653  1
  Tb  Tb2  1  0.000104  0.000208  0.768853  1
  Tb  Tb3  1  0.999991  0.999981  0.268890  1
  Er  Er4  1  0.536959  0.073916  0.791923  1
  Er  Er5  1  0.925658  0.462880  0.791725  1
  Er  Er6  1  0.537224  0.462880  0.791725  1
  Er  Er7  1  0.463431  0.926864  0.292417  1
  Tm  Tm8  1  0.826271  0.652541  0.488464  1
  Tm  Tm9  1  0.347720  0.173315  0.487967  1
  Tm  Tm10  1  0.825596  0.173315  0.487967  1
  Tm  Tm11  1  0.173447  0.346893  0.986386  1
  Tm  Tm12  1  0.652495  0.826599  0.986920  1
  Tm  Tm13  1  0.174105  0.826599  0.986920  1
  Tm  Tm14  1  0.666385  0.332769  0.172327  1
  Tm  Tm15  1  0.333660  0.667322  0.673480  1
  Ga  Ga16  1  0.835914  0.671829  0.042405  1
  Ga  Ga17  1  0.328196  0.164029  0.042791  1
  Ga  Ga18  1  0.835833  0.164029  0.042791  1
  Ga  Ga19  1  0.163673  0.327346  0.543997  1
  Ga  Ga20  1  0.672176  0.836445  0.543400  1
  Ga  Ga21  1  0.164268  0.836445  0.543400  1
  Co  Co22  1  0.666630  0.333260  0.554702  1
  Co  Co23  1  0.333877  0.667756  0.053324  1
