# generated using pymatgen
data_Ho20Bi5Ir4Pb3
_symmetry_space_group_name_H-M   'P 1'
_cell_length_a   7.94200452
_cell_length_b   9.01302522
_cell_length_c   12.44524018
_cell_angle_alpha   90.14280637
_cell_angle_beta   90.03038644
_cell_angle_gamma   90.02834421
_symmetry_Int_Tables_number   1
_chemical_formula_structural   Ho20Bi5Ir4Pb3
_chemical_formula_sum   'Ho20 Bi5 Ir4 Pb3'
_cell_volume   890.84579692
_cell_formula_units_Z   1
loop_
 _symmetry_equiv_pos_site_id
 _symmetry_equiv_pos_as_xyz
  1  'x, y, z'
loop_
 _atom_site_type_symbol
 _atom_site_label
 _atom_site_symmetry_multiplicity
 _atom_site_fract_x
 _atom_site_fract_y
 _atom_site_fract_z
 _atom_site_occupancy
  Ho  Ho0  1  0.838922  0.746369  0.791727  1
  Ho  Ho1  1  0.162592  0.251910  0.207516  1
  Ho  Ho2  1  0.339155  0.253371  0.708600  1
  Ho  Ho3  1  0.658819  0.747889  0.292107  1
  Ho  Ho4  1  0.374317  0.746955  0.692723  1
  Ho  Ho5  1  0.623133  0.251940  0.306856  1
  Ho  Ho6  1  0.874446  0.253067  0.807039  1
  Ho  Ho7  1  0.127658  0.748395  0.192157  1
  Ho  Ho8  1  0.948466  0.748383  0.503516  1
  Ho  Ho9  1  0.053182  0.251298  0.498974  1
  Ho  Ho10  1  0.448044  0.253379  0.997583  1
  Ho  Ho11  1  0.552643  0.746513  0.002387  1
  Ho  Ho12  1  0.675754  0.042806  0.566507  1
  Ho  Ho13  1  0.323438  0.957356  0.433769  1
  Ho  Ho14  1  0.176021  0.957818  0.933345  1
  Ho  Ho15  1  0.324642  0.541323  0.432027  1
  Ho  Ho16  1  0.824281  0.042361  0.066391  1
  Ho  Ho17  1  0.676689  0.459661  0.569160  1
  Ho  Ho18  1  0.821559  0.459155  0.066044  1
  Ho  Ho19  1  0.177273  0.540439  0.932046  1
  Bi  Bi20  1  0.432926  0.992115  0.172520  1
  Bi  Bi21  1  0.932558  0.491559  0.327053  1
  Bi  Bi22  1  0.566803  0.007717  0.827451  1
  Bi  Bi23  1  0.933052  0.008029  0.327220  1
  Bi  Bi24  1  0.066344  0.992255  0.673013  1
  Ir  Ir25  1  0.572200  0.750744  0.508927  1
  Ir  Ir26  1  0.427499  0.249638  0.490885  1
  Ir  Ir27  1  0.071600  0.249323  0.991140  1
  Ir  Ir28  1  0.928275  0.750786  0.009215  1
  Pb  Pb29  1  0.567554  0.492380  0.827178  1
  Pb  Pb30  1  0.432731  0.507675  0.173013  1
  Pb  Pb31  1  0.067425  0.507392  0.671912  1
