# generated using pymatgen
data_Tm4SnPt11
_symmetry_space_group_name_H-M   'P 1'
_cell_length_a   4.15924900
_cell_length_b   5.86780117
_cell_length_c   11.58181534
_cell_angle_alpha   87.44735720
_cell_angle_beta   90.00000000
_cell_angle_gamma   90.00000000
_symmetry_Int_Tables_number   1
_chemical_formula_structural   Tm4SnPt11
_chemical_formula_sum   'Tm4 Sn1 Pt11'
_cell_volume   282.38120825
_cell_formula_units_Z   1
loop_
 _symmetry_equiv_pos_site_id
 _symmetry_equiv_pos_as_xyz
  1  'x, y, z'
loop_
 _atom_site_type_symbol
 _atom_site_label
 _atom_site_symmetry_multiplicity
 _atom_site_fract_x
 _atom_site_fract_y
 _atom_site_fract_z
 _atom_site_occupancy
  Tm  Tm0  1  0.500000  0.754625  0.376362  1
  Tm  Tm1  1  0.500000  0.716744  0.860736  1
  Tm  Tm2  1  0.500000  0.283256  0.139264  1
  Tm  Tm3  1  0.500000  0.245375  0.623638  1
  Sn  Sn4  1  0.000000  0.000000  0.000000  1
  Pt  Pt5  1  0.000000  0.015512  0.249744  1
  Pt  Pt6  1  0.000000  0.984488  0.750256  1
  Pt  Pt7  1  0.000000  0.500000  0.000000  1
  Pt  Pt8  1  0.000000  0.500000  0.500000  1
  Pt  Pt9  1  0.000000  0.515789  0.249901  1
  Pt  Pt10  1  0.000000  0.484211  0.750099  1
  Pt  Pt11  1  0.500000  0.254262  0.377806  1
  Pt  Pt12  1  0.500000  0.228154  0.881971  1
  Pt  Pt13  1  0.500000  0.771846  0.118029  1
  Pt  Pt14  1  0.500000  0.745738  0.622194  1
  Pt  Pt15  1  0.000000  0.000000  0.500000  1
