# generated using pymatgen
data_Dy3In4CoRu
_symmetry_space_group_name_H-M   'P 1'
_cell_length_a   7.95828500
_cell_length_b   7.95828527
_cell_length_c   3.66265200
_cell_angle_alpha   90.00000000
_cell_angle_beta   90.00000000
_cell_angle_gamma   120.00000305
_symmetry_Int_Tables_number   1
_chemical_formula_structural   Dy3In4CoRu
_chemical_formula_sum   'Dy3 In4 Co1 Ru1'
_cell_volume   200.89321346
_cell_formula_units_Z   1
loop_
 _symmetry_equiv_pos_site_id
 _symmetry_equiv_pos_as_xyz
  1  'x, y, z'
loop_
 _atom_site_type_symbol
 _atom_site_label
 _atom_site_symmetry_multiplicity
 _atom_site_fract_x
 _atom_site_fract_y
 _atom_site_fract_z
 _atom_site_occupancy
  Dy  Dy0  1  0.044860  0.294790  0.500000  1
  Dy  Dy1  1  0.705210  0.750069  0.500000  1
  Dy  Dy2  1  0.249931  0.955140  0.500000  1
  In  In3  1  0.664235  0.078914  0.000000  1
  In  In4  1  0.921086  0.585322  0.000000  1
  In  In5  1  0.414678  0.335765  0.000000  1
  In  In6  1  0.333333  0.666667  0.000000  1
  Co  Co7  1  0.666667  0.333333  0.500000  1
  Ru  Ru8  1  0.000000  0.000000  0.000000  1
