# generated using pymatgen
data_Dy2Lu4Si2Os
_symmetry_space_group_name_H-M   'P 1'
_cell_length_a   7.60383326
_cell_length_b   7.60383290
_cell_length_c   4.30530200
_cell_angle_alpha   90.00000000
_cell_angle_beta   90.00000000
_cell_angle_gamma   120.02978236
_symmetry_Int_Tables_number   1
_chemical_formula_structural   Dy2Lu4Si2Os
_chemical_formula_sum   'Dy2 Lu4 Si2 Os1'
_cell_volume   215.51077508
_cell_formula_units_Z   1
loop_
 _symmetry_equiv_pos_site_id
 _symmetry_equiv_pos_as_xyz
  1  'x, y, z'
loop_
 _atom_site_type_symbol
 _atom_site_label
 _atom_site_symmetry_multiplicity
 _atom_site_fract_x
 _atom_site_fract_y
 _atom_site_fract_z
 _atom_site_occupancy
  Dy  Dy0  1  0.402896  0.000274  0.000000  1
  Dy  Dy1  1  0.000274  0.402896  0.000000  1
  Lu  Lu2  1  0.599040  0.599040  0.000000  1
  Lu  Lu3  1  0.748412  0.998557  0.499999  1
  Lu  Lu4  1  0.251897  0.251897  0.499999  1
  Lu  Lu5  1  0.998557  0.748412  0.499999  1
  Si  Si6  1  0.665816  0.334597  0.499999  1
  Si  Si7  1  0.334597  0.665816  0.499999  1
  Os  Os8  1  0.998510  0.998510  0.000000  1
