# generated using pymatgen
data_Nd3Ag2Hg3Pt
_symmetry_space_group_name_H-M   'P 1'
_cell_length_a   8.14707200
_cell_length_b   8.14706986
_cell_length_c   3.82889600
_cell_angle_alpha   90.00000000
_cell_angle_beta   90.00000000
_cell_angle_gamma   119.99999246
_symmetry_Int_Tables_number   1
_chemical_formula_structural   Nd3Ag2Hg3Pt
_chemical_formula_sum   'Nd3 Ag2 Hg3 Pt1'
_cell_volume   220.09350652
_cell_formula_units_Z   1
loop_
 _symmetry_equiv_pos_site_id
 _symmetry_equiv_pos_as_xyz
  1  'x, y, z'
loop_
 _atom_site_type_symbol
 _atom_site_label
 _atom_site_symmetry_multiplicity
 _atom_site_fract_x
 _atom_site_fract_y
 _atom_site_fract_z
 _atom_site_occupancy
  Nd  Nd0  1  0.023918  0.609856  0.500000  1
  Nd  Nd1  1  0.585939  0.976082  0.500000  1
  Nd  Nd2  1  0.390144  0.414061  0.500000  1
  Ag  Ag3  1  0.000000  0.000000  0.500000  1
  Ag  Ag4  1  0.666667  0.333333  0.000000  1
  Hg  Hg5  1  0.988958  0.268502  0.000000  1
  Hg  Hg6  1  0.279543  0.011042  0.000000  1
  Hg  Hg7  1  0.731498  0.720457  0.000000  1
  Pt  Pt8  1  0.333333  0.666667  0.000000  1
