# generated using pymatgen
data_Dy3HoZn4Ir3Rh
_symmetry_space_group_name_H-M   'P 1'
_cell_length_a   4.03572900
_cell_length_b   7.00102912
_cell_length_c   8.11528419
_cell_angle_alpha   90.04158491
_cell_angle_beta   90.00000000
_cell_angle_gamma   90.00000000
_symmetry_Int_Tables_number   1
_chemical_formula_structural   Dy3HoZn4Ir3Rh
_chemical_formula_sum   'Dy3 Ho1 Zn4 Ir3 Rh1'
_cell_volume   229.29125876
_cell_formula_units_Z   1
loop_
 _symmetry_equiv_pos_site_id
 _symmetry_equiv_pos_as_xyz
  1  'x, y, z'
loop_
 _atom_site_type_symbol
 _atom_site_label
 _atom_site_symmetry_multiplicity
 _atom_site_fract_x
 _atom_site_fract_y
 _atom_site_fract_z
 _atom_site_occupancy
  Dy  Dy0  1  0.250000  0.537554  0.183616  1
  Dy  Dy1  1  0.750000  0.459408  0.817079  1
  Dy  Dy2  1  0.750000  0.963235  0.681757  1
  Ho  Ho3  1  0.250000  0.038973  0.317546  1
  Zn  Zn4  1  0.250000  0.135874  0.935577  1
  Zn  Zn5  1  0.750000  0.864070  0.064420  1
  Zn  Zn6  1  0.250000  0.636693  0.564027  1
  Zn  Zn7  1  0.750000  0.363468  0.434952  1
  Ir  Ir8  1  0.750000  0.744704  0.376501  1
  Ir  Ir9  1  0.250000  0.257267  0.624578  1
  Ir  Ir10  1  0.750000  0.243251  0.123042  1
  Rh  Rh11  1  0.250000  0.755504  0.876901  1
