# generated using pymatgen
data_NdHo5Al24Os7Au
_symmetry_space_group_name_H-M   'P 1'
_cell_length_a   8.84871138
_cell_length_b   8.83753269
_cell_length_c   9.60466903
_cell_angle_alpha   90.04241370
_cell_angle_beta   89.92974034
_cell_angle_gamma   119.64616929
_symmetry_Int_Tables_number   1
_chemical_formula_structural   NdHo5Al24Os7Au
_chemical_formula_sum   'Nd1 Ho5 Al24 Os7 Au1'
_cell_volume   652.77152151
_cell_formula_units_Z   1
loop_
 _symmetry_equiv_pos_site_id
 _symmetry_equiv_pos_as_xyz
  1  'x, y, z'
loop_
 _atom_site_type_symbol
 _atom_site_label
 _atom_site_symmetry_multiplicity
 _atom_site_fract_x
 _atom_site_fract_y
 _atom_site_fract_z
 _atom_site_occupancy
  Nd  Nd0  1  0.188110  0.381402  0.249404  1
  Ho  Ho1  1  0.810563  0.612706  0.749067  1
  Ho  Ho2  1  0.611465  0.810070  0.250986  1
  Ho  Ho3  1  0.387970  0.190528  0.749241  1
  Ho  Ho4  1  0.194783  0.806399  0.253255  1
  Ho  Ho5  1  0.806269  0.194493  0.746656  1
  Al  Al6  1  0.328413  0.672462  0.023149  1
  Al  Al7  1  0.671457  0.329016  0.973426  1
  Al  Al8  1  0.667142  0.333328  0.523549  1
  Al  Al9  1  0.333326  0.667313  0.479413  1
  Al  Al10  1  0.164244  0.327694  0.576663  1
  Al  Al11  1  0.836521  0.672916  0.426673  1
  Al  Al12  1  0.672854  0.836163  0.574762  1
  Al  Al13  1  0.848462  0.677626  0.078424  1
  Al  Al14  1  0.328775  0.163231  0.427472  1
  Al  Al15  1  0.150913  0.322730  0.918158  1
  Al  Al16  1  0.163795  0.836418  0.576140  1
  Al  Al17  1  0.323255  0.150642  0.077872  1
  Al  Al18  1  0.834494  0.163243  0.425387  1
  Al  Al19  1  0.677469  0.848666  0.920364  1
  Al  Al20  1  0.833742  0.163802  0.073826  1
  Al  Al21  1  0.164128  0.836066  0.924222  1
  Al  Al22  1  0.560392  0.122861  0.249471  1
  Al  Al23  1  0.440253  0.877970  0.750671  1
  Al  Al24  1  0.875957  0.440425  0.249353  1
  Al  Al25  1  0.122803  0.560967  0.750515  1
  Al  Al26  1  0.566211  0.436763  0.256247  1
  Al  Al27  1  0.436890  0.564637  0.744901  1
  Al  Al28  1  0.994638  0.995165  0.250293  1
  Al  Al29  1  0.002021  0.998538  0.749736  1
  Os  Os30  1  0.500235  0.000725  0.999556  1
  Os  Os31  1  0.998890  0.501017  0.998643  1
  Os  Os32  1  0.500230  0.000230  0.500569  1
  Os  Os33  1  0.999248  0.500827  0.501261  1
  Os  Os34  1  0.501728  0.500714  0.501588  1
  Os  Os35  1  0.999824  0.000273  0.999697  1
  Os  Os36  1  0.000219  0.000467  0.500524  1
  Au  Au37  1  0.502310  0.501503  0.998867  1
