# generated using pymatgen
data_Rb4HfPtI12
_symmetry_space_group_name_H-M   'P 1'
_cell_length_a   8.10462700
_cell_length_b   8.10462700
_cell_length_c   12.09012900
_cell_angle_alpha   90.00000000
_cell_angle_beta   90.00000000
_cell_angle_gamma   90.00000000
_symmetry_Int_Tables_number   1
_chemical_formula_structural   Rb4HfPtI12
_chemical_formula_sum   'Rb4 Hf1 Pt1 I12'
_cell_volume   794.13986716
_cell_formula_units_Z   1
loop_
 _symmetry_equiv_pos_site_id
 _symmetry_equiv_pos_as_xyz
  1  'x, y, z'
loop_
 _atom_site_type_symbol
 _atom_site_label
 _atom_site_symmetry_multiplicity
 _atom_site_fract_x
 _atom_site_fract_y
 _atom_site_fract_z
 _atom_site_occupancy
  Rb  Rb0  1  0.500000  0.000000  0.756000  1
  Rb  Rb1  1  0.000000  0.500000  0.756000  1
  Rb  Rb2  1  0.500000  0.000000  0.244000  1
  Rb  Rb3  1  0.000000  0.500000  0.244000  1
  Hf  Hf4  1  0.500000  0.500000  0.500000  1
  Pt  Pt5  1  0.000000  0.000000  0.000000  1
  I  I6  1  0.727767  0.195416  0.000000  1
  I  I7  1  0.691816  0.204709  0.500000  1
  I  I8  1  0.308184  0.795291  0.500000  1
  I  I9  1  0.272233  0.804584  0.000000  1
  I  I10  1  0.795291  0.691816  0.500000  1
  I  I11  1  0.204709  0.308184  0.500000  1
  I  I12  1  0.000000  0.000000  0.224747  1
  I  I13  1  0.500000  0.500000  0.262240  1
  I  I14  1  0.000000  0.000000  0.775253  1
  I  I15  1  0.500000  0.500000  0.737760  1
  I  I16  1  0.804584  0.727767  0.000000  1
  I  I17  1  0.195416  0.272233  0.000000  1
