# generated using pymatgen
data_La2Nd6Cd2CoPt
_symmetry_space_group_name_H-M   'P 1'
_cell_length_a   9.96172621
_cell_length_b   9.96172552
_cell_length_c   9.95961700
_cell_angle_alpha   60.00699816
_cell_angle_beta   60.00700046
_cell_angle_gamma   60.21486765
_symmetry_Int_Tables_number   1
_chemical_formula_structural   La2Nd6Cd2CoPt
_chemical_formula_sum   'La4 Nd12 Cd4 Co2 Pt2'
_cell_volume   700.07275329
_cell_formula_units_Z   2
loop_
 _symmetry_equiv_pos_site_id
 _symmetry_equiv_pos_as_xyz
  1  'x, y, z'
loop_
 _atom_site_type_symbol
 _atom_site_label
 _atom_site_symmetry_multiplicity
 _atom_site_fract_x
 _atom_site_fract_y
 _atom_site_fract_z
 _atom_site_occupancy
  La  La0  1  0.344149  0.344149  0.358889  1
  La  La1  1  0.344149  0.344149  0.952813  1
  La  La2  1  0.339273  0.958864  0.350931  1
  La  La3  1  0.958864  0.339273  0.350931  1
  Nd  Nd4  1  0.819817  0.189519  0.188289  1
  Nd  Nd5  1  0.189519  0.819817  0.802375  1
  Nd  Nd6  1  0.189519  0.819817  0.188289  1
  Nd  Nd7  1  0.819817  0.189519  0.802375  1
  Nd  Nd8  1  0.187834  0.187834  0.812166  1
  Nd  Nd9  1  0.809160  0.809160  0.190840  1
  Nd  Nd10  1  0.935826  0.562753  0.564450  1
  Nd  Nd11  1  0.562753  0.935826  0.936972  1
  Nd  Nd12  1  0.562753  0.935826  0.564450  1
  Nd  Nd13  1  0.935826  0.562753  0.936972  1
  Nd  Nd14  1  0.561218  0.561218  0.938782  1
  Nd  Nd15  1  0.934503  0.934503  0.565497  1
  Cd  Cd16  1  0.579997  0.579997  0.579291  1
  Cd  Cd17  1  0.579997  0.579997  0.260718  1
  Cd  Cd18  1  0.581569  0.258204  0.580114  1
  Cd  Cd19  1  0.258204  0.581569  0.580114  1
  Co  Co20  1  0.143092  0.143092  0.141210  1
  Co  Co21  1  0.143092  0.143092  0.572606  1
  Pt  Pt22  1  0.144573  0.574500  0.140463  1
  Pt  Pt23  1  0.574500  0.144573  0.140463  1
