# generated using pymatgen
data_Dy8Sc12Si15Os
_symmetry_space_group_name_H-M   'P 1'
_cell_length_a   7.08788234
_cell_length_b   7.44014130
_cell_length_c   13.96265700
_cell_angle_alpha   90.00000000
_cell_angle_beta   90.00000000
_cell_angle_gamma   90.19319758
_symmetry_Int_Tables_number   1
_chemical_formula_structural   Dy8Sc12Si15Os
_chemical_formula_sum   'Dy8 Sc12 Si15 Os1'
_cell_volume   736.31438230
_cell_formula_units_Z   1
loop_
 _symmetry_equiv_pos_site_id
 _symmetry_equiv_pos_as_xyz
  1  'x, y, z'
loop_
 _atom_site_type_symbol
 _atom_site_label
 _atom_site_symmetry_multiplicity
 _atom_site_fract_x
 _atom_site_fract_y
 _atom_site_fract_z
 _atom_site_occupancy
  Dy  Dy0  1  0.011336  0.178456  0.096254  1
  Dy  Dy1  1  0.990999  0.827904  0.903410  1
  Dy  Dy2  1  0.488337  0.676522  0.904027  1
  Dy  Dy3  1  0.990999  0.827904  0.596590  1
  Dy  Dy4  1  0.510985  0.323128  0.096333  1
  Dy  Dy5  1  0.011336  0.178456  0.403746  1
  Dy  Dy6  1  0.510985  0.323128  0.403667  1
  Dy  Dy7  1  0.488337  0.676522  0.595973  1
  Sc  Sc8  1  0.155313  0.496403  0.750000  1
  Sc  Sc9  1  0.838340  0.495444  0.250000  1
  Sc  Sc10  1  0.339033  0.005054  0.250000  1
  Sc  Sc11  1  0.669074  0.998943  0.750000  1
  Sc  Sc12  1  0.318500  0.172286  0.627352  1
  Sc  Sc13  1  0.671794  0.825296  0.373854  1
  Sc  Sc14  1  0.171151  0.677979  0.374127  1
  Sc  Sc15  1  0.671794  0.825296  0.126146  1
  Sc  Sc16  1  0.837126  0.319037  0.627512  1
  Sc  Sc17  1  0.318500  0.172286  0.872648  1
  Sc  Sc18  1  0.837126  0.319037  0.872488  1
  Sc  Sc19  1  0.171151  0.677979  0.125873  1
  Si  Si20  1  0.968251  0.884185  0.250000  1
  Si  Si21  1  0.468749  0.614393  0.250000  1
  Si  Si22  1  0.529532  0.389402  0.750000  1
  Si  Si23  1  0.286478  0.868017  0.750000  1
  Si  Si24  1  0.713426  0.129311  0.250000  1
  Si  Si25  1  0.213557  0.371131  0.250000  1
  Si  Si26  1  0.778825  0.626857  0.750000  1
  Si  Si27  1  0.159575  0.468866  0.536905  1
  Si  Si28  1  0.844401  0.535825  0.461459  1
  Si  Si29  1  0.345108  0.965659  0.460073  1
  Si  Si30  1  0.844401  0.535825  0.038541  1
  Si  Si31  1  0.655445  0.034083  0.538230  1
  Si  Si32  1  0.159575  0.468866  0.963095  1
  Si  Si33  1  0.655445  0.034083  0.961770  1
  Si  Si34  1  0.345108  0.965659  0.039927  1
  Os  Os35  1  0.029906  0.110781  0.750000  1
