# generated using pymatgen
data_V10Si5Ge
_symmetry_space_group_name_H-M   'P 1'
_cell_length_a   4.76383688
_cell_length_b   7.07994487
_cell_length_c   7.07994618
_cell_angle_alpha   96.49902359
_cell_angle_beta   109.65962900
_cell_angle_gamma   70.34038237
_symmetry_Int_Tables_number   1
_chemical_formula_structural   V10Si5Ge
_chemical_formula_sum   'V10 Si5 Ge1'
_cell_volume   211.76252627
_cell_formula_units_Z   1
loop_
 _symmetry_equiv_pos_site_id
 _symmetry_equiv_pos_as_xyz
  1  'x, y, z'
loop_
 _atom_site_type_symbol
 _atom_site_label
 _atom_site_symmetry_multiplicity
 _atom_site_fract_x
 _atom_site_fract_y
 _atom_site_fract_z
 _atom_site_occupancy
  V  V0  1  0.421502  0.847354  0.697230  1
  V  V1  1  0.571626  0.152646  0.302770  1
  V  V2  1  0.928374  0.302770  0.152646  1
  V  V3  1  0.078498  0.697230  0.847354  1
  V  V4  1  0.724272  0.697230  0.152646  1
  V  V5  1  0.268856  0.302770  0.847354  1
  V  V6  1  0.775728  0.152646  0.697230  1
  V  V7  1  0.231144  0.847354  0.302770  1
  V  V8  1  0.250000  0.500000  0.500000  1
  V  V9  1  0.750000  0.500000  0.500000  1
  Si  Si10  1  0.333979  0.500000  0.167960  1
  Si  Si11  1  0.666021  0.500000  0.832040  1
  Si  Si12  1  0.833979  0.832040  0.500000  1
  Si  Si13  1  0.166021  0.167960  0.500000  1
  Si  Si14  1  0.250000  0.000000  0.000000  1
  Ge  Ge15  1  0.750000  0.000000  0.000000  1
