# generated using pymatgen
data_Ho3Lu2Sc5(Si5Ir2)4
_symmetry_space_group_name_H-M   'P 1'
_cell_length_a   12.48628362
_cell_length_b   12.48628338
_cell_length_c   4.15735600
_cell_angle_alpha   90.00000000
_cell_angle_beta   90.00000000
_cell_angle_gamma   90.09545870
_symmetry_Int_Tables_number   1
_chemical_formula_structural   Ho3Lu2Sc5(Si5Ir2)4
_chemical_formula_sum   'Ho3 Lu2 Sc5 Si20 Ir8'
_cell_volume   648.16114832
_cell_formula_units_Z   1
loop_
 _symmetry_equiv_pos_site_id
 _symmetry_equiv_pos_as_xyz
  1  'x, y, z'
loop_
 _atom_site_type_symbol
 _atom_site_label
 _atom_site_symmetry_multiplicity
 _atom_site_fract_x
 _atom_site_fract_y
 _atom_site_fract_z
 _atom_site_occupancy
  Ho  Ho0  1  0.115751  0.617149  0.500000  1
  Ho  Ho1  1  0.882851  0.384249  0.500000  1
  Ho  Ho2  1  0.616063  0.883937  0.500000  1
  Lu  Lu3  1  0.385068  0.114932  0.500000  1
  Lu  Lu4  1  0.174388  0.325612  0.500000  1
  Sc  Sc5  1  0.673660  0.173611  0.500000  1
  Sc  Sc6  1  0.326389  0.826340  0.500000  1
  Sc  Sc7  1  0.825916  0.674084  0.500000  1
  Sc  Sc8  1  0.000504  0.999539  0.000000  1
  Sc  Sc9  1  0.500461  0.499496  0.000000  1
  Si  Si10  1  0.567483  0.066931  0.000000  1
  Si  Si11  1  0.433069  0.932517  0.000000  1
  Si  Si12  1  0.065579  0.434421  0.000000  1
  Si  Si13  1  0.931635  0.568365  0.000000  1
  Si  Si14  1  0.200737  0.164059  0.000000  1
  Si  Si15  1  0.800575  0.834055  0.000000  1
  Si  Si16  1  0.166052  0.800822  0.000000  1
  Si  Si17  1  0.699178  0.333948  0.000000  1
  Si  Si18  1  0.833382  0.199139  0.000000  1
  Si  Si19  1  0.300861  0.666618  0.000000  1
  Si  Si20  1  0.665945  0.699425  0.000000  1
  Si  Si21  1  0.335941  0.299263  0.000000  1
  Si  Si22  1  0.004550  0.150022  0.500000  1
  Si  Si23  1  0.991638  0.849215  0.500000  1
  Si  Si24  1  0.151892  0.992678  0.500000  1
  Si  Si25  1  0.507322  0.348108  0.500000  1
  Si  Si26  1  0.849023  0.008136  0.500000  1
  Si  Si27  1  0.491864  0.650977  0.500000  1
  Si  Si28  1  0.650785  0.508362  0.500000  1
  Si  Si29  1  0.349978  0.495450  0.500000  1
  Ir  Ir30  1  0.019145  0.243596  0.000000  1
  Ir  Ir31  1  0.979961  0.755875  0.000000  1
  Ir  Ir32  1  0.245824  0.979846  0.000000  1
  Ir  Ir33  1  0.520154  0.254176  0.000000  1
  Ir  Ir34  1  0.755296  0.019452  0.000000  1
  Ir  Ir35  1  0.480548  0.744704  0.000000  1
  Ir  Ir36  1  0.744125  0.520039  0.000000  1
  Ir  Ir37  1  0.256404  0.480855  0.000000  1
