# generated using pymatgen
data_AcLu4(Sn3Os)6
_symmetry_space_group_name_H-M   'P 1'
_cell_length_a   9.88296546
_cell_length_b   9.88296589
_cell_length_c   9.88296600
_cell_angle_alpha   59.99999962
_cell_angle_beta   59.99999820
_cell_angle_gamma   60.00000215
_symmetry_Int_Tables_number   1
_chemical_formula_structural   AcLu4(Sn3Os)6
_chemical_formula_sum   'Ac1 Lu4 Sn18 Os6'
_cell_volume   682.56949838
_cell_formula_units_Z   1
loop_
 _symmetry_equiv_pos_site_id
 _symmetry_equiv_pos_as_xyz
  1  'x, y, z'
loop_
 _atom_site_type_symbol
 _atom_site_label
 _atom_site_symmetry_multiplicity
 _atom_site_fract_x
 _atom_site_fract_y
 _atom_site_fract_z
 _atom_site_occupancy
  Ac  Ac0  1  0.000000  0.000000  0.000000  1
  Lu  Lu1  1  0.373208  0.373209  0.880375  1
  Lu  Lu2  1  0.373209  0.880374  0.373208  1
  Lu  Lu3  1  0.880374  0.373209  0.373208  1
  Lu  Lu4  1  0.373209  0.373208  0.373208  1
  Sn  Sn5  1  0.593378  0.593378  0.219869  1
  Sn  Sn6  1  0.593378  0.219869  0.593378  1
  Sn  Sn7  1  0.219869  0.593378  0.593378  1
  Sn  Sn8  1  0.593378  0.593378  0.593378  1
  Sn  Sn9  1  0.750000  0.750000  0.750000  1
  Sn  Sn10  1  0.998280  0.354415  0.649027  1
  Sn  Sn11  1  0.998280  0.998280  0.649027  1
  Sn  Sn12  1  0.354415  0.998280  0.649027  1
  Sn  Sn13  1  0.998280  0.649027  0.354415  1
  Sn  Sn14  1  0.354415  0.649027  0.998280  1
  Sn  Sn15  1  0.998280  0.649027  0.998280  1
  Sn  Sn16  1  0.649027  0.998280  0.998280  1
  Sn  Sn17  1  0.649027  0.354415  0.998280  1
  Sn  Sn18  1  0.649027  0.998280  0.354415  1
  Sn  Sn19  1  0.354415  0.998280  0.998280  1
  Sn  Sn20  1  0.998280  0.998280  0.354415  1
  Sn  Sn21  1  0.998280  0.354415  0.998280  1
  Sn  Sn22  1  0.250000  0.250000  0.250000  1
  Os  Os23  1  0.257693  0.257693  0.742307  1
  Os  Os24  1  0.742307  0.257693  0.742307  1
  Os  Os25  1  0.257693  0.742307  0.742307  1
  Os  Os26  1  0.742307  0.742307  0.257693  1
  Os  Os27  1  0.257693  0.742307  0.257693  1
  Os  Os28  1  0.742307  0.257693  0.257693  1
