# generated using pymatgen
data_Y3GaSn3Rh2
_symmetry_space_group_name_H-M   'P 1'
_cell_length_a   7.45138500
_cell_length_b   7.45138414
_cell_length_c   4.09676600
_cell_angle_alpha   90.00000000
_cell_angle_beta   90.00000000
_cell_angle_gamma   119.99999937
_symmetry_Int_Tables_number   1
_chemical_formula_structural   Y3GaSn3Rh2
_chemical_formula_sum   'Y3 Ga1 Sn3 Rh2'
_cell_volume   196.99071173
_cell_formula_units_Z   1
loop_
 _symmetry_equiv_pos_site_id
 _symmetry_equiv_pos_as_xyz
  1  'x, y, z'
loop_
 _atom_site_type_symbol
 _atom_site_label
 _atom_site_symmetry_multiplicity
 _atom_site_fract_x
 _atom_site_fract_y
 _atom_site_fract_z
 _atom_site_occupancy
  Y  Y0  1  0.408898  0.010453  0.500000  1
  Y  Y1  1  0.989547  0.398446  0.500000  1
  Y  Y2  1  0.601554  0.591102  0.500000  1
  Ga  Ga3  1  0.333333  0.666667  0.000000  1
  Sn  Sn4  1  0.748192  0.006269  0.000000  1
  Sn  Sn5  1  0.993731  0.741923  0.000000  1
  Sn  Sn6  1  0.258077  0.251808  0.000000  1
  Rh  Rh7  1  0.666667  0.333333  0.000000  1
  Rh  Rh8  1  0.000000  0.000000  0.500000  1
