# generated using pymatgen
data_Ce4Al18RePd5
_symmetry_space_group_name_H-M   'P 1'
_cell_length_a   7.68558073
_cell_length_b   7.68558108
_cell_length_c   9.57044100
_cell_angle_alpha   89.77036393
_cell_angle_beta   89.77036392
_cell_angle_gamma   119.16183647
_symmetry_Int_Tables_number   1
_chemical_formula_structural   Ce4Al18RePd5
_chemical_formula_sum   'Ce4 Al18 Re1 Pd5'
_cell_volume   493.63820214
_cell_formula_units_Z   1
loop_
 _symmetry_equiv_pos_site_id
 _symmetry_equiv_pos_as_xyz
  1  'x, y, z'
loop_
 _atom_site_type_symbol
 _atom_site_label
 _atom_site_symmetry_multiplicity
 _atom_site_fract_x
 _atom_site_fract_y
 _atom_site_fract_z
 _atom_site_occupancy
  Ce  Ce0  1  0.995133  0.674261  0.247525  1
  Ce  Ce1  1  0.004867  0.325739  0.752475  1
  Ce  Ce2  1  0.674261  0.995133  0.247525  1
  Ce  Ce3  1  0.325739  0.004867  0.752475  1
  Al  Al4  1  0.133883  0.133883  0.247806  1
  Al  Al5  1  0.866117  0.866117  0.752194  1
  Al  Al6  1  0.002212  0.332887  0.075722  1
  Al  Al7  1  0.997788  0.667113  0.924278  1
  Al  Al8  1  0.996255  0.662600  0.577521  1
  Al  Al9  1  0.337400  0.003745  0.422479  1
  Al  Al10  1  0.003745  0.337400  0.422479  1
  Al  Al11  1  0.662600  0.996255  0.577521  1
  Al  Al12  1  0.667113  0.997788  0.924278  1
  Al  Al13  1  0.332887  0.002212  0.075722  1
  Al  Al14  1  0.334938  0.334938  0.554224  1
  Al  Al15  1  0.665062  0.665062  0.445776  1
  Al  Al16  1  0.668969  0.668969  0.047660  1
  Al  Al17  1  0.331031  0.331031  0.952340  1
  Al  Al18  1  0.343991  0.548971  0.250012  1
  Al  Al19  1  0.656009  0.451029  0.749988  1
  Al  Al20  1  0.548971  0.343991  0.250012  1
  Al  Al21  1  0.451029  0.656009  0.749988  1
  Re  Re22  1  0.000000  0.000000  0.000000  1
  Pd  Pd23  1  0.671231  0.328769  0.000000  1
  Pd  Pd24  1  0.328769  0.671231  0.000000  1
  Pd  Pd25  1  0.328207  0.671793  0.500000  1
  Pd  Pd26  1  0.671793  0.328207  0.500000  1
  Pd  Pd27  1  0.000000  0.000000  0.500000  1
