# generated using pymatgen
data_Er18Lu2(Bi3Sb)3
_symmetry_space_group_name_H-M   'P 1'
_cell_length_a   8.13637718
_cell_length_b   9.40305701
_cell_length_c   11.90110530
_cell_angle_alpha   89.99501022
_cell_angle_beta   90.02396471
_cell_angle_gamma   90.00390052
_symmetry_Int_Tables_number   1
_chemical_formula_structural   Er18Lu2(Bi3Sb)3
_chemical_formula_sum   'Er18 Lu2 Bi9 Sb3'
_cell_volume   910.51561763
_cell_formula_units_Z   1
loop_
 _symmetry_equiv_pos_site_id
 _symmetry_equiv_pos_as_xyz
  1  'x, y, z'
loop_
 _atom_site_type_symbol
 _atom_site_label
 _atom_site_symmetry_multiplicity
 _atom_site_fract_x
 _atom_site_fract_y
 _atom_site_fract_z
 _atom_site_occupancy
  Er  Er0  1  0.352966  0.749993  0.213618  1
  Er  Er1  1  0.852771  0.749959  0.286241  1
  Er  Er2  1  0.646844  0.249815  0.786386  1
  Er  Er3  1  0.147511  0.250203  0.717092  1
  Er  Er4  1  0.312599  0.064043  0.942683  1
  Er  Er5  1  0.809860  0.438141  0.558700  1
  Er  Er6  1  0.311972  0.436507  0.942422  1
  Er  Er7  1  0.809129  0.061376  0.559011  1
  Er  Er8  1  0.687935  0.936231  0.057492  1
  Er  Er9  1  0.189060  0.567445  0.442314  1
  Er  Er10  1  0.476710  0.249789  0.488354  1
  Er  Er11  1  0.972804  0.250268  0.011766  1
  Er  Er12  1  0.527185  0.750237  0.511767  1
  Er  Er13  1  0.026486  0.749725  0.988367  1
  Er  Er14  1  0.317448  0.250033  0.215034  1
  Er  Er15  1  0.811366  0.250035  0.280578  1
  Er  Er16  1  0.684013  0.749739  0.783484  1
  Er  Er17  1  0.183901  0.750209  0.716532  1
  Lu  Lu18  1  0.687860  0.566162  0.057789  1
  Lu  Lu19  1  0.189002  0.930087  0.441999  1
  Bi  Bi20  1  0.095635  0.247667  0.456267  1
  Bi  Bi21  1  0.565241  0.995612  0.325088  1
  Bi  Bi22  1  0.065445  0.503940  0.174927  1
  Bi  Bi23  1  0.434364  0.495846  0.674955  1
  Bi  Bi24  1  0.934539  0.003864  0.825170  1
  Bi  Bi25  1  0.434468  0.004187  0.674879  1
  Bi  Bi26  1  0.934648  0.496095  0.825222  1
  Bi  Bi27  1  0.565589  0.504489  0.325181  1
  Bi  Bi28  1  0.065777  0.995940  0.174819  1
  Sb  Sb29  1  0.405509  0.749657  0.958297  1
  Sb  Sb30  1  0.905792  0.750375  0.541591  1
  Sb  Sb31  1  0.595574  0.252330  0.041974  1
