# generated using pymatgen
data_Er3Lu2Ga2Te
_symmetry_space_group_name_H-M   'P 1'
_cell_length_a   8.56441100
_cell_length_b   8.58647675
_cell_length_c   6.41941800
_cell_angle_alpha   90.00000000
_cell_angle_beta   90.00000000
_cell_angle_gamma   120.08527506
_symmetry_Int_Tables_number   1
_chemical_formula_structural   Er3Lu2Ga2Te
_chemical_formula_sum   'Er6 Lu4 Ga4 Te2'
_cell_volume   408.47450985
_cell_formula_units_Z   2
loop_
 _symmetry_equiv_pos_site_id
 _symmetry_equiv_pos_as_xyz
  1  'x, y, z'
loop_
 _atom_site_type_symbol
 _atom_site_label
 _atom_site_symmetry_multiplicity
 _atom_site_fract_x
 _atom_site_fract_y
 _atom_site_fract_z
 _atom_site_occupancy
  Er  Er0  1  0.985763  0.750156  0.750000  1
  Er  Er1  1  0.985763  0.235607  0.250000  1
  Er  Er2  1  0.767174  0.765979  0.250000  1
  Er  Er3  1  0.767174  0.001197  0.750000  1
  Er  Er4  1  0.234434  0.250203  0.750000  1
  Er  Er5  1  0.234434  0.984231  0.250000  1
  Lu  Lu6  1  0.329788  0.664895  0.500000  1
  Lu  Lu7  1  0.685638  0.342819  0.000000  1
  Lu  Lu8  1  0.685638  0.342819  0.500000  1
  Lu  Lu9  1  0.329788  0.664895  0.000000  1
  Ga  Ga10  1  0.003741  0.602634  0.250000  1
  Ga  Ga11  1  0.003741  0.401106  0.750000  1
  Ga  Ga12  1  0.599137  0.602785  0.750000  1
  Ga  Ga13  1  0.599137  0.996351  0.250000  1
  Te  Te14  1  0.394324  0.004304  0.750000  1
  Te  Te15  1  0.394324  0.390020  0.250000  1
