# generated using pymatgen
data_Yb7DyRe13B12
_symmetry_space_group_name_H-M   'P 1'
_cell_length_a   7.76323353
_cell_length_b   7.76323354
_cell_length_c   7.76323284
_cell_angle_alpha   86.04983845
_cell_angle_beta   86.04983659
_cell_angle_gamma   86.04983748
_symmetry_Int_Tables_number   1
_chemical_formula_structural   Yb7DyRe13B12
_chemical_formula_sum   'Yb7 Dy1 Re13 B12'
_cell_volume   464.68447171
_cell_formula_units_Z   1
loop_
 _symmetry_equiv_pos_site_id
 _symmetry_equiv_pos_as_xyz
  1  'x, y, z'
loop_
 _atom_site_type_symbol
 _atom_site_label
 _atom_site_symmetry_multiplicity
 _atom_site_fract_x
 _atom_site_fract_y
 _atom_site_fract_z
 _atom_site_occupancy
  Yb  Yb0  1  0.643016  0.643016  0.643016  1
  Yb  Yb1  1  0.187714  0.187714  0.690716  1
  Yb  Yb2  1  0.690716  0.187714  0.187714  1
  Yb  Yb3  1  0.187714  0.690716  0.187714  1
  Yb  Yb4  1  0.810329  0.810329  0.313617  1
  Yb  Yb5  1  0.313617  0.810329  0.810329  1
  Yb  Yb6  1  0.810329  0.313617  0.810329  1
  Dy  Dy7  1  0.358199  0.358199  0.358199  1
  Re  Re8  1  0.000832  0.000832  0.000832  1
  Re  Re9  1  0.596056  0.064014  0.596056  1
  Re  Re10  1  0.596056  0.596056  0.064014  1
  Re  Re11  1  0.064014  0.596056  0.596056  1
  Re  Re12  1  0.403895  0.936763  0.403895  1
  Re  Re13  1  0.403895  0.403895  0.936763  1
  Re  Re14  1  0.936763  0.403895  0.403895  1
  Re  Re15  1  0.924922  0.924922  0.670483  1
  Re  Re16  1  0.670483  0.924922  0.924922  1
  Re  Re17  1  0.924922  0.670483  0.924922  1
  Re  Re18  1  0.074798  0.074798  0.330451  1
  Re  Re19  1  0.330451  0.074798  0.074798  1
  Re  Re20  1  0.074798  0.330451  0.074798  1
  B  B21  1  0.151995  0.847500  0.499802  1
  B  B22  1  0.499802  0.151995  0.847500  1
  B  B23  1  0.847500  0.499802  0.151995  1
  B  B24  1  0.499802  0.847500  0.151995  1
  B  B25  1  0.151995  0.499802  0.847500  1
  B  B26  1  0.847500  0.151995  0.499802  1
  B  B27  1  0.671454  0.499018  0.328470  1
  B  B28  1  0.328470  0.671454  0.499018  1
  B  B29  1  0.499018  0.328470  0.671454  1
  B  B30  1  0.328470  0.499018  0.671454  1
  B  B31  1  0.671454  0.328470  0.499018  1
  B  B32  1  0.499018  0.671454  0.328470  1
