# generated using pymatgen
data_CeNd2Mg3Ir2Pd
_symmetry_space_group_name_H-M   'P 1'
_cell_length_a   7.45603631
_cell_length_b   7.45603608
_cell_length_c   4.03752300
_cell_angle_alpha   90.00000000
_cell_angle_beta   90.00000000
_cell_angle_gamma   118.09218960
_symmetry_Int_Tables_number   1
_chemical_formula_structural   CeNd2Mg3Ir2Pd
_chemical_formula_sum   'Ce1 Nd2 Mg3 Ir2 Pd1'
_cell_volume   198.01298912
_cell_formula_units_Z   1
loop_
 _symmetry_equiv_pos_site_id
 _symmetry_equiv_pos_as_xyz
  1  'x, y, z'
loop_
 _atom_site_type_symbol
 _atom_site_label
 _atom_site_symmetry_multiplicity
 _atom_site_fract_x
 _atom_site_fract_y
 _atom_site_fract_z
 _atom_site_occupancy
  Ce  Ce0  1  0.428006  0.428006  0.500000  1
  Nd  Nd1  1  0.000840  0.582950  0.500000  1
  Nd  Nd2  1  0.582950  0.000840  0.500000  1
  Mg  Mg3  1  0.760194  0.760194  0.000000  1
  Mg  Mg4  1  0.245605  0.001068  0.000000  1
  Mg  Mg5  1  0.001068  0.245605  0.000000  1
  Ir  Ir6  1  0.646251  0.334548  0.000000  1
  Ir  Ir7  1  0.334548  0.646251  0.000000  1
  Pd  Pd8  1  0.000539  0.000539  0.500000  1
