# generated using pymatgen
data_Er3TmGa7Ag5
_symmetry_space_group_name_H-M   'P 1'
_cell_length_a   4.33965900
_cell_length_b   6.99629569
_cell_length_c   10.29920903
_cell_angle_alpha   89.96448553
_cell_angle_beta   90.00000000
_cell_angle_gamma   90.00000000
_symmetry_Int_Tables_number   1
_chemical_formula_structural   Er3TmGa7Ag5
_chemical_formula_sum   'Er3 Tm1 Ga7 Ag5'
_cell_volume   312.69976155
_cell_formula_units_Z   1
loop_
 _symmetry_equiv_pos_site_id
 _symmetry_equiv_pos_as_xyz
  1  'x, y, z'
loop_
 _atom_site_type_symbol
 _atom_site_label
 _atom_site_symmetry_multiplicity
 _atom_site_fract_x
 _atom_site_fract_y
 _atom_site_fract_z
 _atom_site_occupancy
  Er  Er0  1  0.500000  0.781176  0.173173  1
  Er  Er1  1  0.500000  0.277601  0.327753  1
  Er  Er2  1  0.000000  0.216353  0.829248  1
  Tm  Tm3  1  0.000000  0.722834  0.670272  1
  Ga  Ga4  1  0.500000  0.924162  0.845681  1
  Ga  Ga5  1  0.500000  0.426738  0.655715  1
  Ga  Ga6  1  0.000000  0.076665  0.153948  1
  Ga  Ga7  1  0.000000  0.574053  0.343920  1
  Ga  Ga8  1  0.500000  0.202240  0.035808  1
  Ga  Ga9  1  0.000000  0.299538  0.535482  1
  Ga  Ga10  1  0.000000  0.796021  0.963940  1
  Ag  Ag11  1  0.500000  0.541213  0.903577  1
  Ag  Ag12  1  0.500000  0.046569  0.600756  1
  Ag  Ag13  1  0.000000  0.457418  0.096965  1
  Ag  Ag14  1  0.000000  0.961145  0.401341  1
  Ag  Ag15  1  0.500000  0.696277  0.462419  1
