# generated using pymatgen
data_Pr8Zn8AgIr4Rh3
_symmetry_space_group_name_H-M   'P 1'
_cell_length_a   4.06203800
_cell_length_b   7.41414954
_cell_length_c   16.83931650
_cell_angle_alpha   90.07223337
_cell_angle_beta   90.00000000
_cell_angle_gamma   90.00000000
_symmetry_Int_Tables_number   1
_chemical_formula_structural   Pr8Zn8AgIr4Rh3
_chemical_formula_sum   'Pr8 Zn8 Ag1 Ir4 Rh3'
_cell_volume   507.14183527
_cell_formula_units_Z   1
loop_
 _symmetry_equiv_pos_site_id
 _symmetry_equiv_pos_as_xyz
  1  'x, y, z'
loop_
 _atom_site_type_symbol
 _atom_site_label
 _atom_site_symmetry_multiplicity
 _atom_site_fract_x
 _atom_site_fract_y
 _atom_site_fract_z
 _atom_site_occupancy
  Pr  Pr0  1  0.750000  0.451664  0.213122  1
  Pr  Pr1  1  0.750000  0.949166  0.282126  1
  Pr  Pr2  1  0.750000  0.831838  0.060382  1
  Pr  Pr3  1  0.250000  0.038296  0.724810  1
  Pr  Pr4  1  0.250000  0.170223  0.940952  1
  Pr  Pr5  1  0.250000  0.550531  0.787581  1
  Pr  Pr6  1  0.750000  0.334387  0.428961  1
  Pr  Pr7  1  0.250000  0.676051  0.559897  1
  Zn  Zn8  1  0.250000  0.991296  0.432720  1
  Zn  Zn9  1  0.750000  0.501080  0.940551  1
  Zn  Zn10  1  0.750000  0.993119  0.560331  1
  Zn  Zn11  1  0.250000  0.623720  0.346805  1
  Zn  Zn12  1  0.750000  0.386324  0.660235  1
  Zn  Zn13  1  0.750000  0.875222  0.853443  1
  Zn  Zn14  1  0.250000  0.498670  0.059333  1
  Zn  Zn15  1  0.250000  0.123528  0.149640  1
  Ag  Ag16  1  0.250000  0.243817  0.567270  1
  Ir  Ir17  1  0.750000  0.258209  0.065504  1
  Ir  Ir18  1  0.250000  0.244198  0.313139  1
  Ir  Ir19  1  0.750000  0.253500  0.812757  1
  Ir  Ir20  1  0.750000  0.754352  0.684388  1
  Rh  Rh21  1  0.250000  0.743004  0.936476  1
  Rh  Rh22  1  0.750000  0.757666  0.434136  1
  Rh  Rh23  1  0.250000  0.750138  0.185442  1
