# generated using pymatgen
data_TmLu2Nb3(B2Ru5)2
_symmetry_space_group_name_H-M   'P 1'
_cell_length_a   9.56607901
_cell_length_b   9.56615754
_cell_length_c   3.11204300
_cell_angle_alpha   90.00000000
_cell_angle_beta   90.00000000
_cell_angle_gamma   89.77471320
_symmetry_Int_Tables_number   1
_chemical_formula_structural   TmLu2Nb3(B2Ru5)2
_chemical_formula_sum   'Tm1 Lu2 Nb3 B4 Ru10'
_cell_volume   284.78277925
_cell_formula_units_Z   1
loop_
 _symmetry_equiv_pos_site_id
 _symmetry_equiv_pos_as_xyz
  1  'x, y, z'
loop_
 _atom_site_type_symbol
 _atom_site_label
 _atom_site_symmetry_multiplicity
 _atom_site_fract_x
 _atom_site_fract_y
 _atom_site_fract_z
 _atom_site_occupancy
  Tm  Tm0  1  0.325186  0.324403  0.000000  1
  Lu  Lu1  1  0.174358  0.825628  0.000000  1
  Lu  Lu2  1  0.675680  0.674922  0.000000  1
  Nb  Nb3  1  0.496377  0.998021  0.000000  1
  Nb  Nb4  1  0.001619  0.503764  0.000000  1
  Nb  Nb5  1  0.824856  0.175142  0.000000  1
  B  B6  1  0.623179  0.376934  0.000000  1
  B  B7  1  0.381062  0.619074  0.000000  1
  B  B8  1  0.119452  0.123274  0.000000  1
  B  B9  1  0.876528  0.880348  0.000000  1
  Ru  Ru10  1  0.504093  0.496919  0.500000  1
  Ru  Ru11  1  0.992092  0.007813  0.500000  1
  Ru  Ru12  1  0.582878  0.213543  0.500000  1
  Ru  Ru13  1  0.430374  0.780398  0.500000  1
  Ru  Ru14  1  0.060430  0.280913  0.500000  1
  Ru  Ru15  1  0.928637  0.721495  0.500000  1
  Ru  Ru16  1  0.278357  0.070797  0.500000  1
  Ru  Ru17  1  0.719010  0.939134  0.500000  1
  Ru  Ru18  1  0.219490  0.570066  0.500000  1
  Ru  Ru19  1  0.786343  0.417411  0.500000  1
