# generated using pymatgen
data_TbScP7Ru12
_symmetry_space_group_name_H-M   'P 1'
_cell_length_a   9.39377100
_cell_length_b   9.39376997
_cell_length_c   3.93537200
_cell_angle_alpha   90.00000000
_cell_angle_beta   90.00000000
_cell_angle_gamma   119.99999916
_symmetry_Int_Tables_number   1
_chemical_formula_structural   TbScP7Ru12
_chemical_formula_sum   'Tb1 Sc1 P7 Ru12'
_cell_volume   300.74354640
_cell_formula_units_Z   1
loop_
 _symmetry_equiv_pos_site_id
 _symmetry_equiv_pos_as_xyz
  1  'x, y, z'
loop_
 _atom_site_type_symbol
 _atom_site_label
 _atom_site_symmetry_multiplicity
 _atom_site_fract_x
 _atom_site_fract_y
 _atom_site_fract_z
 _atom_site_occupancy
  Tb  Tb0  1  0.333333  0.666667  0.000000  1
  Sc  Sc1  1  0.666667  0.333333  0.500000  1
  P  P2  1  0.600774  0.718596  0.500000  1
  P  P3  1  0.000000  0.000000  0.000000  1
  P  P4  1  0.281404  0.882179  0.500000  1
  P  P5  1  0.117821  0.399226  0.500000  1
  P  P6  1  0.883157  0.571523  0.000000  1
  P  P7  1  0.428477  0.311634  0.000000  1
  P  P8  1  0.688366  0.116843  0.000000  1
  Ru  Ru9  1  0.557484  0.952681  0.500000  1
  Ru  Ru10  1  0.395198  0.442516  0.500000  1
  Ru  Ru11  1  0.914341  0.121305  0.500000  1
  Ru  Ru12  1  0.206964  0.085659  0.500000  1
  Ru  Ru13  1  0.878695  0.793036  0.500000  1
  Ru  Ru14  1  0.727146  0.891816  0.000000  1
  Ru  Ru15  1  0.108184  0.835329  0.000000  1
  Ru  Ru16  1  0.164671  0.272854  0.000000  1
  Ru  Ru17  1  0.425744  0.069815  0.000000  1
  Ru  Ru18  1  0.930185  0.355930  0.000000  1
  Ru  Ru19  1  0.644070  0.574256  0.000000  1
  Ru  Ru20  1  0.047319  0.604802  0.500000  1
