# generated using pymatgen
data_Y2Co9Mo3P7
_symmetry_space_group_name_H-M   'P 1'
_cell_length_a   3.72535400
_cell_length_b   9.08999560
_cell_length_c   9.08999600
_cell_angle_alpha   120.00000144
_cell_angle_beta   90.00000000
_cell_angle_gamma   90.00000000
_symmetry_Int_Tables_number   1
_chemical_formula_structural   Y2Co9Mo3P7
_chemical_formula_sum   'Y2 Co9 Mo3 P7'
_cell_volume   266.57875689
_cell_formula_units_Z   1
loop_
 _symmetry_equiv_pos_site_id
 _symmetry_equiv_pos_as_xyz
  1  'x, y, z'
loop_
 _atom_site_type_symbol
 _atom_site_label
 _atom_site_symmetry_multiplicity
 _atom_site_fract_x
 _atom_site_fract_y
 _atom_site_fract_z
 _atom_site_occupancy
  Y  Y0  1  0.000000  0.666667  0.333333  1
  Y  Y1  1  0.500000  0.333333  0.666667  1
  Co  Co2  1  0.000000  0.567270  0.938757  1
  Co  Co3  1  0.000000  0.371486  0.432730  1
  Co  Co4  1  0.000000  0.061243  0.628514  1
  Co  Co5  1  0.000000  0.878064  0.159064  1
  Co  Co6  1  0.000000  0.281000  0.121936  1
  Co  Co7  1  0.000000  0.840936  0.719000  1
  Co  Co8  1  0.500000  0.947832  0.385080  1
  Co  Co9  1  0.500000  0.437247  0.052168  1
  Co  Co10  1  0.500000  0.614920  0.562753  1
  Mo  Mo11  1  0.500000  0.779389  0.902300  1
  Mo  Mo12  1  0.500000  0.122911  0.220611  1
  Mo  Mo13  1  0.500000  0.097700  0.877089  1
  P  P14  1  0.000000  0.000000  0.000000  1
  P  P15  1  0.500000  0.708517  0.118348  1
  P  P16  1  0.500000  0.409831  0.291483  1
  P  P17  1  0.500000  0.881652  0.590169  1
  P  P18  1  0.000000  0.587302  0.698223  1
  P  P19  1  0.000000  0.110922  0.412698  1
  P  P20  1  0.000000  0.301777  0.889078  1
