# generated using pymatgen
data_La8Cd2TcPt
_symmetry_space_group_name_H-M   'P 1'
_cell_length_a   10.13918417
_cell_length_b   10.13918376
_cell_length_c   10.24511900
_cell_angle_alpha   59.65377672
_cell_angle_beta   59.65377809
_cell_angle_gamma   59.38272064
_symmetry_Int_Tables_number   1
_chemical_formula_structural   La8Cd2TcPt
_chemical_formula_sum   'La16 Cd4 Tc2 Pt2'
_cell_volume   737.34294856
_cell_formula_units_Z   2
loop_
 _symmetry_equiv_pos_site_id
 _symmetry_equiv_pos_as_xyz
  1  'x, y, z'
loop_
 _atom_site_type_symbol
 _atom_site_label
 _atom_site_symmetry_multiplicity
 _atom_site_fract_x
 _atom_site_fract_y
 _atom_site_fract_z
 _atom_site_occupancy
  La  La0  1  0.596149  0.596149  0.603836  1
  La  La1  1  0.596149  0.596149  0.203868  1
  La  La2  1  0.593419  0.208647  0.598967  1
  La  La3  1  0.208647  0.593419  0.598967  1
  La  La4  1  0.068212  0.440587  0.438259  1
  La  La5  1  0.440587  0.068212  0.052942  1
  La  La6  1  0.440587  0.068212  0.438259  1
  La  La7  1  0.068212  0.440587  0.052942  1
  La  La8  1  0.438281  0.438281  0.061719  1
  La  La9  1  0.056681  0.056681  0.443319  1
  La  La10  1  0.189161  0.806667  0.813492  1
  La  La11  1  0.806667  0.189161  0.190680  1
  La  La12  1  0.806667  0.189161  0.813492  1
  La  La13  1  0.189161  0.806667  0.190680  1
  La  La14  1  0.811445  0.811445  0.188555  1
  La  La15  1  0.191070  0.191070  0.808930  1
  Cd  Cd16  1  0.829812  0.829812  0.830410  1
  Cd  Cd17  1  0.829812  0.829812  0.509966  1
  Cd  Cd18  1  0.829314  0.510105  0.830291  1
  Cd  Cd19  1  0.510105  0.829314  0.830291  1
  Tc  Tc20  1  0.389088  0.389088  0.385274  1
  Tc  Tc21  1  0.389088  0.389088  0.836549  1
  Pt  Pt22  1  0.394261  0.827427  0.389156  1
  Pt  Pt23  1  0.827427  0.394261  0.389156  1
