# generated using pymatgen
data_Ho16In4Ir2OsRh
_symmetry_space_group_name_H-M   'P 1'
_cell_length_a   9.61973756
_cell_length_b   9.63324241
_cell_length_c   9.58993751
_cell_angle_alpha   59.92804570
_cell_angle_beta   59.90186326
_cell_angle_gamma   60.04838529
_symmetry_Int_Tables_number   1
_chemical_formula_structural   Ho16In4Ir2OsRh
_chemical_formula_sum   'Ho16 In4 Ir2 Os1 Rh1'
_cell_volume   627.81997222
_cell_formula_units_Z   1
loop_
 _symmetry_equiv_pos_site_id
 _symmetry_equiv_pos_as_xyz
  1  'x, y, z'
loop_
 _atom_site_type_symbol
 _atom_site_label
 _atom_site_symmetry_multiplicity
 _atom_site_fract_x
 _atom_site_fract_y
 _atom_site_fract_z
 _atom_site_occupancy
  Ho  Ho0  1  0.188333  0.189482  0.810052  1
  Ho  Ho1  1  0.598344  0.599657  0.203652  1
  Ho  Ho2  1  0.442885  0.056999  0.439525  1
  Ho  Ho3  1  0.442146  0.440200  0.058458  1
  Ho  Ho4  1  0.812126  0.189488  0.810049  1
  Ho  Ho5  1  0.191794  0.811346  0.191536  1
  Ho  Ho6  1  0.441207  0.056887  0.060701  1
  Ho  Ho7  1  0.189934  0.814016  0.806121  1
  Ho  Ho8  1  0.059192  0.440201  0.058460  1
  Ho  Ho9  1  0.805322  0.811345  0.191536  1
  Ho  Ho10  1  0.203899  0.599369  0.599079  1
  Ho  Ho11  1  0.059251  0.441602  0.439892  1
  Ho  Ho12  1  0.060589  0.057000  0.439524  1
  Ho  Ho13  1  0.809819  0.190777  0.189583  1
  Ho  Ho14  1  0.599149  0.201365  0.600337  1
  Ho  Ho15  1  0.597636  0.599370  0.599084  1
  In  In16  1  0.832799  0.833581  0.832335  1
  In  In17  1  0.832618  0.833655  0.501143  1
  In  In18  1  0.501267  0.833617  0.832320  1
  In  In19  1  0.832286  0.502628  0.832802  1
  Ir  Ir20  1  0.391193  0.389922  0.391959  1
  Ir  Ir21  1  0.826928  0.389923  0.391966  1
  Os  Os22  1  0.390593  0.826620  0.392192  1
  Rh  Rh23  1  0.390691  0.390955  0.827695  1
