# generated using pymatgen
data_Tb6Al24Os5Pd3
_symmetry_space_group_name_H-M   'P 1'
_cell_length_a   8.86269112
_cell_length_b   8.88682712
_cell_length_c   9.57911820
_cell_angle_alpha   90.23947830
_cell_angle_beta   89.82725170
_cell_angle_gamma   119.96536632
_symmetry_Int_Tables_number   1
_chemical_formula_structural   Tb6Al24Os5Pd3
_chemical_formula_sum   'Tb6 Al24 Os5 Pd3'
_cell_volume   653.60584326
_cell_formula_units_Z   1
loop_
 _symmetry_equiv_pos_site_id
 _symmetry_equiv_pos_as_xyz
  1  'x, y, z'
loop_
 _atom_site_type_symbol
 _atom_site_label
 _atom_site_symmetry_multiplicity
 _atom_site_fract_x
 _atom_site_fract_y
 _atom_site_fract_z
 _atom_site_occupancy
  Tb  Tb0  1  0.198755  0.385081  0.252156  1
  Tb  Tb1  1  0.801245  0.614919  0.747844  1
  Tb  Tb2  1  0.613280  0.804182  0.251021  1
  Tb  Tb3  1  0.386720  0.195818  0.748979  1
  Tb  Tb4  1  0.194649  0.811787  0.251477  1
  Tb  Tb5  1  0.805351  0.188213  0.748523  1
  Al  Al6  1  0.334639  0.664401  0.026556  1
  Al  Al7  1  0.665361  0.335599  0.973444  1
  Al  Al8  1  0.662386  0.330866  0.524146  1
  Al  Al9  1  0.337614  0.669134  0.475854  1
  Al  Al10  1  0.167711  0.325547  0.577563  1
  Al  Al11  1  0.832289  0.674453  0.422437  1
  Al  Al12  1  0.670893  0.835590  0.575263  1
  Al  Al13  1  0.832235  0.674724  0.077387  1
  Al  Al14  1  0.329107  0.164410  0.424737  1
  Al  Al15  1  0.167765  0.325276  0.922613  1
  Al  Al16  1  0.167359  0.843212  0.578127  1
  Al  Al17  1  0.326590  0.168953  0.078485  1
  Al  Al18  1  0.832641  0.156788  0.421873  1
  Al  Al19  1  0.673410  0.831047  0.921515  1
  Al  Al20  1  0.839723  0.162798  0.081093  1
  Al  Al21  1  0.160277  0.837202  0.918907  1
  Al  Al22  1  0.563147  0.125334  0.252146  1
  Al  Al23  1  0.436853  0.874666  0.747854  1
  Al  Al24  1  0.876467  0.438228  0.249797  1
  Al  Al25  1  0.123533  0.561772  0.750203  1
  Al  Al26  1  0.562775  0.438793  0.249573  1
  Al  Al27  1  0.437225  0.561207  0.750427  1
  Al  Al28  1  0.002599  0.001215  0.250256  1
  Al  Al29  1  0.997401  0.998785  0.749744  1
  Os  Os30  1  0.500000  0.000000  0.500000  1
  Os  Os31  1  0.500000  0.500000  0.000000  1
  Os  Os32  1  0.500000  0.500000  0.500000  1
  Os  Os33  1  0.000000  0.000000  0.000000  1
  Os  Os34  1  0.000000  0.000000  0.500000  1
  Pd  Pd35  1  0.500000  0.000000  0.000000  1
  Pd  Pd36  1  0.000000  0.500000  0.000000  1
  Pd  Pd37  1  0.000000  0.500000  0.500000  1
