# generated using pymatgen
data_Tb3YCl6
_symmetry_space_group_name_H-M   'P 1'
_cell_length_a   8.16347660
_cell_length_b   8.16347619
_cell_length_c   10.39815182
_cell_angle_alpha   61.09863146
_cell_angle_beta   61.09863211
_cell_angle_gamma   27.43515911
_symmetry_Int_Tables_number   1
_chemical_formula_structural   Tb3YCl6
_chemical_formula_sum   'Tb3 Y1 Cl6'
_cell_volume   276.96180672
_cell_formula_units_Z   1
loop_
 _symmetry_equiv_pos_site_id
 _symmetry_equiv_pos_as_xyz
  1  'x, y, z'
loop_
 _atom_site_type_symbol
 _atom_site_label
 _atom_site_symmetry_multiplicity
 _atom_site_fract_x
 _atom_site_fract_y
 _atom_site_fract_z
 _atom_site_occupancy
  Tb  Tb0  1  0.861978  0.861978  0.290429  1
  Tb  Tb1  1  0.137901  0.137901  0.709530  1
  Tb  Tb2  1  0.585092  0.585092  0.048478  1
  Y  Y3  1  0.415302  0.415302  0.951667  1
  Cl  Cl4  1  0.042688  0.042688  0.261478  1
  Cl  Cl5  1  0.957070  0.957070  0.738748  1
  Cl  Cl6  1  0.223911  0.223911  0.882094  1
  Cl  Cl7  1  0.776096  0.776096  0.117592  1
  Cl  Cl8  1  0.661764  0.661764  0.493285  1
  Cl  Cl9  1  0.338198  0.338198  0.506700  1
