# generated using pymatgen
data_NdDyLu2(WO6)2
_symmetry_space_group_name_H-M   'P 1'
_cell_length_a   5.41787800
_cell_length_b   7.71670932
_cell_length_c   11.40541949
_cell_angle_alpha   75.72731292
_cell_angle_beta   90.00000000
_cell_angle_gamma   90.00000000
_symmetry_Int_Tables_number   1
_chemical_formula_structural   NdDyLu2(WO6)2
_chemical_formula_sum   'Nd2 Dy2 Lu4 W4 O24'
_cell_volume   462.12149751
_cell_formula_units_Z   2
loop_
 _symmetry_equiv_pos_site_id
 _symmetry_equiv_pos_as_xyz
  1  'x, y, z'
loop_
 _atom_site_type_symbol
 _atom_site_label
 _atom_site_symmetry_multiplicity
 _atom_site_fract_x
 _atom_site_fract_y
 _atom_site_fract_z
 _atom_site_occupancy
  Nd  Nd0  1  0.314781  0.500000  0.750000  1
  Nd  Nd1  1  0.685219  0.500000  0.250000  1
  Dy  Dy2  1  0.253715  0.000000  0.750000  1
  Dy  Dy3  1  0.746285  0.000000  0.250000  1
  Lu  Lu4  1  0.182159  0.794189  0.078663  1
  Lu  Lu5  1  0.182159  0.205811  0.421337  1
  Lu  Lu6  1  0.817841  0.205811  0.921337  1
  Lu  Lu7  1  0.817841  0.794189  0.578663  1
  W  W8  1  0.743756  0.728494  0.884733  1
  W  W9  1  0.256244  0.728494  0.384733  1
  W  W10  1  0.743756  0.271506  0.615267  1
  W  W11  1  0.256244  0.271506  0.115267  1
  O  O12  1  0.545055  0.161620  0.067365  1
  O  O13  1  0.050964  0.056270  0.102170  1
  O  O14  1  0.015040  0.721349  0.768562  1
  O  O15  1  0.454945  0.161620  0.567365  1
  O  O16  1  0.344442  0.491377  0.386583  1
  O  O17  1  0.949036  0.056270  0.602170  1
  O  O18  1  0.547765  0.797066  0.724388  1
  O  O19  1  0.452235  0.797066  0.224388  1
  O  O20  1  0.143483  0.641345  0.547209  1
  O  O21  1  0.050964  0.943730  0.397830  1
  O  O22  1  0.454945  0.838380  0.932635  1
  O  O23  1  0.452235  0.202934  0.275612  1
  O  O24  1  0.856517  0.358655  0.452791  1
  O  O25  1  0.655558  0.491377  0.886583  1
  O  O26  1  0.344442  0.508623  0.113417  1
  O  O27  1  0.949036  0.943730  0.897830  1
  O  O28  1  0.545055  0.838380  0.432635  1
  O  O29  1  0.984960  0.278651  0.231438  1
  O  O30  1  0.547765  0.202934  0.775612  1
  O  O31  1  0.856517  0.641345  0.047209  1
  O  O32  1  0.015040  0.278651  0.731438  1
  O  O33  1  0.143483  0.358655  0.952791  1
  O  O34  1  0.984960  0.721349  0.268562  1
  O  O35  1  0.655558  0.508623  0.613417  1
