# generated using pymatgen
data_Yb6Al24Os7Pd
_symmetry_space_group_name_H-M   'P 1'
_cell_length_a   8.84529439
_cell_length_b   8.84529494
_cell_length_c   9.63705421
_cell_angle_alpha   89.85127998
_cell_angle_beta   90.14871668
_cell_angle_gamma   119.79180264
_symmetry_Int_Tables_number   1
_chemical_formula_structural   Yb6Al24Os7Pd
_chemical_formula_sum   'Yb6 Al24 Os7 Pd1'
_cell_volume   654.34214531
_cell_formula_units_Z   1
loop_
 _symmetry_equiv_pos_site_id
 _symmetry_equiv_pos_as_xyz
  1  'x, y, z'
loop_
 _atom_site_type_symbol
 _atom_site_label
 _atom_site_symmetry_multiplicity
 _atom_site_fract_x
 _atom_site_fract_y
 _atom_site_fract_z
 _atom_site_occupancy
  Yb  Yb0  1  0.191871  0.388821  0.251980  1
  Yb  Yb1  1  0.808129  0.611179  0.748020  1
  Yb  Yb2  1  0.611179  0.808129  0.251980  1
  Yb  Yb3  1  0.388821  0.191871  0.748020  1
  Yb  Yb4  1  0.196220  0.803780  0.252387  1
  Yb  Yb5  1  0.803780  0.196220  0.747613  1
  Al  Al6  1  0.330383  0.669617  0.000379  1
  Al  Al7  1  0.669617  0.330383  0.999621  1
  Al  Al8  1  0.666571  0.333429  0.503975  1
  Al  Al9  1  0.333429  0.666571  0.496025  1
  Al  Al10  1  0.163431  0.323553  0.574630  1
  Al  Al11  1  0.836569  0.676447  0.425370  1
  Al  Al12  1  0.676447  0.836569  0.574630  1
  Al  Al13  1  0.844892  0.678501  0.077522  1
  Al  Al14  1  0.323553  0.163431  0.425370  1
  Al  Al15  1  0.155108  0.321499  0.922478  1
  Al  Al16  1  0.162789  0.837211  0.571979  1
  Al  Al17  1  0.321499  0.155108  0.077522  1
  Al  Al18  1  0.837211  0.162789  0.428021  1
  Al  Al19  1  0.678501  0.844892  0.922478  1
  Al  Al20  1  0.838458  0.161542  0.073441  1
  Al  Al21  1  0.161542  0.838458  0.926559  1
  Al  Al22  1  0.560105  0.123240  0.250102  1
  Al  Al23  1  0.439895  0.876760  0.749898  1
  Al  Al24  1  0.876760  0.439895  0.250102  1
  Al  Al25  1  0.123240  0.560105  0.749898  1
  Al  Al26  1  0.562674  0.437326  0.252656  1
  Al  Al27  1  0.437326  0.562674  0.747344  1
  Al  Al28  1  0.000515  0.999485  0.250272  1
  Al  Al29  1  0.999485  0.000515  0.749728  1
  Os  Os30  1  0.500000  0.000000  0.000000  1
  Os  Os31  1  0.000000  0.500000  0.000000  1
  Os  Os32  1  0.500000  0.000000  0.500000  1
  Os  Os33  1  0.000000  0.500000  0.500000  1
  Os  Os34  1  0.500000  0.500000  0.500000  1
  Os  Os35  1  0.000000  0.000000  0.000000  1
  Os  Os36  1  0.000000  0.000000  0.500000  1
  Pd  Pd37  1  0.500000  0.500000  0.000000  1
