# generated using pymatgen
data_Er8Ti9Nb3(Si3Ge)4
_symmetry_space_group_name_H-M   'P 1'
_cell_length_a   7.06540155
_cell_length_b   7.06222276
_cell_length_c   12.96481062
_cell_angle_alpha   89.96475964
_cell_angle_beta   90.03876268
_cell_angle_gamma   90.04614414
_symmetry_Int_Tables_number   1
_chemical_formula_structural   Er8Ti9Nb3(Si3Ge)4
_chemical_formula_sum   'Er8 Ti9 Nb3 Si12 Ge4'
_cell_volume   646.91037579
_cell_formula_units_Z   1
loop_
 _symmetry_equiv_pos_site_id
 _symmetry_equiv_pos_as_xyz
  1  'x, y, z'
loop_
 _atom_site_type_symbol
 _atom_site_label
 _atom_site_symmetry_multiplicity
 _atom_site_fract_x
 _atom_site_fract_y
 _atom_site_fract_z
 _atom_site_occupancy
  Er  Er0  1  0.340252  0.998577  0.465825  1
  Er  Er1  1  0.501031  0.839557  0.716907  1
  Er  Er2  1  0.498210  0.157323  0.217727  1
  Er  Er3  1  0.842758  0.502006  0.282699  1
  Er  Er4  1  0.158019  0.499280  0.781936  1
  Er  Er5  1  0.660877  0.000173  0.967138  1
  Er  Er6  1  0.999165  0.341579  0.532710  1
  Er  Er7  1  0.000872  0.660222  0.033496  1
  Ti  Ti8  1  0.673221  0.676062  0.500579  1
  Ti  Ti9  1  0.152216  0.009853  0.875513  1
  Ti  Ti10  1  0.487595  0.656278  0.127766  1
  Ti  Ti11  1  0.511687  0.346922  0.627494  1
  Ti  Ti12  1  0.656526  0.487771  0.872661  1
  Ti  Ti13  1  0.342890  0.512584  0.372894  1
  Ti  Ti14  1  0.848682  0.991161  0.374427  1
  Ti  Ti15  1  0.009789  0.152192  0.125618  1
  Ti  Ti16  1  0.990459  0.844246  0.625050  1
  Nb  Nb17  1  0.323692  0.323726  0.000219  1
  Nb  Nb18  1  0.172782  0.827212  0.250303  1
  Nb  Nb19  1  0.824185  0.173259  0.750360  1
  Si  Si20  1  0.297755  0.628923  0.566531  1
  Si  Si21  1  0.795116  0.870934  0.183338  1
  Si  Si22  1  0.128916  0.204799  0.317558  1
  Si  Si23  1  0.870918  0.795454  0.816932  1
  Si  Si24  1  0.292691  0.956602  0.064887  1
  Si  Si25  1  0.548247  0.792213  0.315314  1
  Si  Si26  1  0.455646  0.206367  0.815694  1
  Si  Si27  1  0.792876  0.547007  0.684840  1
  Si  Si28  1  0.206831  0.452862  0.186131  1
  Si  Si29  1  0.707601  0.042158  0.564614  1
  Si  Si30  1  0.956927  0.292975  0.935254  1
  Si  Si31  1  0.044794  0.707544  0.436966  1
  Ge  Ge32  1  0.203786  0.127993  0.679803  1
  Ge  Ge33  1  0.372592  0.702635  0.930074  1
  Ge  Ge34  1  0.627723  0.299372  0.430437  1
  Ge  Ge35  1  0.702669  0.372185  0.070303  1
