# generated using pymatgen
data_La5P12Ru16Rh3
_symmetry_space_group_name_H-M   'P 1'
_cell_length_a   12.71222200
_cell_length_b   12.71222270
_cell_length_c   4.04756200
_cell_angle_alpha   90.00000000
_cell_angle_beta   90.00000000
_cell_angle_gamma   119.99999818
_symmetry_Int_Tables_number   1
_chemical_formula_structural   La5P12Ru16Rh3
_chemical_formula_sum   'La5 P12 Ru16 Rh3'
_cell_volume   566.45721227
_cell_formula_units_Z   1
loop_
 _symmetry_equiv_pos_site_id
 _symmetry_equiv_pos_as_xyz
  1  'x, y, z'
loop_
 _atom_site_type_symbol
 _atom_site_label
 _atom_site_symmetry_multiplicity
 _atom_site_fract_x
 _atom_site_fract_y
 _atom_site_fract_z
 _atom_site_occupancy
  La  La0  1  0.182949  0.182949  0.500000  1
  La  La1  1  0.817051  0.000000  0.500000  1
  La  La2  1  0.000000  0.817051  0.500000  1
  La  La3  1  0.333333  0.666667  0.000000  1
  La  La4  1  0.666667  0.333333  0.000000  1
  P  P5  1  0.809980  0.809980  0.000000  1
  P  P6  1  0.190020  0.000000  0.000000  1
  P  P7  1  0.000000  0.190020  0.000000  1
  P  P8  1  0.175023  0.475813  0.500000  1
  P  P9  1  0.524187  0.699209  0.500000  1
  P  P10  1  0.300791  0.824977  0.500000  1
  P  P11  1  0.699209  0.524187  0.500000  1
  P  P12  1  0.824977  0.300791  0.500000  1
  P  P13  1  0.475813  0.175023  0.500000  1
  P  P14  1  0.373753  0.373753  0.000000  1
  P  P15  1  0.626247  0.000000  0.000000  1
  P  P16  1  0.000000  0.626247  0.000000  1
  Ru  Ru17  1  0.711757  0.711757  0.500000  1
  Ru  Ru18  1  0.288243  0.000000  0.500000  1
  Ru  Ru19  1  0.000000  0.288243  0.500000  1
  Ru  Ru20  1  0.185439  0.379435  0.000000  1
  Ru  Ru21  1  0.620565  0.806004  0.000000  1
  Ru  Ru22  1  0.193996  0.814561  0.000000  1
  Ru  Ru23  1  0.806004  0.620565  0.000000  1
  Ru  Ru24  1  0.814561  0.193996  0.000000  1
  Ru  Ru25  1  0.379435  0.185439  0.000000  1
  Ru  Ru26  1  0.368854  0.492031  0.500000  1
  Ru  Ru27  1  0.507969  0.876824  0.500000  1
  Ru  Ru28  1  0.123176  0.631146  0.500000  1
  Ru  Ru29  1  0.876824  0.507969  0.500000  1
  Ru  Ru30  1  0.631146  0.123176  0.500000  1
  Ru  Ru31  1  0.492031  0.368854  0.500000  1
  Ru  Ru32  1  0.000000  0.000000  0.000000  1
  Rh  Rh33  1  0.553297  0.553297  0.000000  1
  Rh  Rh34  1  0.446703  0.000000  0.000000  1
  Rh  Rh35  1  0.000000  0.446703  0.000000  1
