# generated using pymatgen
data_Zr4TiAl2Re5
_symmetry_space_group_name_H-M   'P 1'
_cell_length_a   5.27616097
_cell_length_b   5.27616175
_cell_length_c   8.76672500
_cell_angle_alpha   90.00000000
_cell_angle_beta   90.00000000
_cell_angle_gamma   120.23342421
_symmetry_Int_Tables_number   1
_chemical_formula_structural   Zr4TiAl2Re5
_chemical_formula_sum   'Zr4 Ti1 Al2 Re5'
_cell_volume   210.85204595
_cell_formula_units_Z   1
loop_
 _symmetry_equiv_pos_site_id
 _symmetry_equiv_pos_as_xyz
  1  'x, y, z'
loop_
 _atom_site_type_symbol
 _atom_site_label
 _atom_site_symmetry_multiplicity
 _atom_site_fract_x
 _atom_site_fract_y
 _atom_site_fract_z
 _atom_site_occupancy
  Zr  Zr0  1  0.332285  0.667715  0.440461  1
  Zr  Zr1  1  0.665457  0.334543  0.567723  1
  Zr  Zr2  1  0.665457  0.334543  0.932277  1
  Zr  Zr3  1  0.332285  0.667715  0.059539  1
  Ti  Ti4  1  0.829716  0.170284  0.250000  1
  Al  Al5  1  0.001346  0.998654  0.499886  1
  Al  Al6  1  0.001346  0.998654  0.000114  1
  Re  Re7  1  0.828840  0.659695  0.250000  1
  Re  Re8  1  0.340305  0.171160  0.250000  1
  Re  Re9  1  0.170999  0.829001  0.750000  1
  Re  Re10  1  0.170141  0.338177  0.750000  1
  Re  Re11  1  0.661823  0.829859  0.750000  1
