# generated using pymatgen
data_InBi2(PbO4)3
_symmetry_space_group_name_H-M   'P 1'
_cell_length_a   5.06621648
_cell_length_b   5.06621648
_cell_length_c   10.33866800
_cell_angle_alpha   90.00000000
_cell_angle_beta   90.00000000
_cell_angle_gamma   89.69046183
_symmetry_Int_Tables_number   1
_chemical_formula_structural   InBi2(PbO4)3
_chemical_formula_sum   'In1 Bi2 Pb3 O12'
_cell_volume   265.35406108
_cell_formula_units_Z   1
loop_
 _symmetry_equiv_pos_site_id
 _symmetry_equiv_pos_as_xyz
  1  'x, y, z'
loop_
 _atom_site_type_symbol
 _atom_site_label
 _atom_site_symmetry_multiplicity
 _atom_site_fract_x
 _atom_site_fract_y
 _atom_site_fract_z
 _atom_site_occupancy
  In  In0  1  0.000000  0.000000  0.333748  1
  Bi  Bi1  1  0.000000  0.000000  0.003921  1
  Bi  Bi2  1  0.500000  0.500000  0.496391  1
  Pb  Pb3  1  0.000000  0.000000  0.662920  1
  Pb  Pb4  1  0.500000  0.500000  0.833287  1
  Pb  Pb5  1  0.500000  0.500000  0.169717  1
  O  O6  1  0.305606  0.305606  0.000146  1
  O  O7  1  0.694394  0.694394  0.000146  1
  O  O8  1  0.195529  0.804471  0.498638  1
  O  O9  1  0.804471  0.195529  0.498638  1
  O  O10  1  0.306268  0.306268  0.336342  1
  O  O11  1  0.690070  0.690070  0.663404  1
  O  O12  1  0.693732  0.693732  0.336342  1
  O  O13  1  0.190147  0.809853  0.835137  1
  O  O14  1  0.191392  0.808608  0.166341  1
  O  O15  1  0.309930  0.309930  0.663404  1
  O  O16  1  0.808608  0.191392  0.166341  1
  O  O17  1  0.809853  0.190147  0.835137  1
