# generated using pymatgen
data_Sc22FeRu6Rh
_symmetry_space_group_name_H-M   'P 1'
_cell_length_a   9.44913382
_cell_length_b   9.37998790
_cell_length_c   9.44917136
_cell_angle_alpha   60.24218799
_cell_angle_beta   60.34769269
_cell_angle_gamma   60.24187263
_symmetry_Int_Tables_number   1
_chemical_formula_structural   Sc22FeRu6Rh
_chemical_formula_sum   'Sc22 Fe1 Ru6 Rh1'
_cell_volume   595.92096621
_cell_formula_units_Z   1
loop_
 _symmetry_equiv_pos_site_id
 _symmetry_equiv_pos_as_xyz
  1  'x, y, z'
loop_
 _atom_site_type_symbol
 _atom_site_label
 _atom_site_symmetry_multiplicity
 _atom_site_fract_x
 _atom_site_fract_y
 _atom_site_fract_z
 _atom_site_occupancy
  Sc  Sc0  1  0.802585  0.801262  0.197419  1
  Sc  Sc1  1  0.198193  0.801800  0.198201  1
  Sc  Sc2  1  0.802585  0.198736  0.197416  1
  Sc  Sc3  1  0.197415  0.198738  0.802581  1
  Sc  Sc4  1  0.801807  0.198200  0.801799  1
  Sc  Sc5  1  0.197415  0.801264  0.802584  1
  Sc  Sc6  1  0.613601  0.614918  0.156565  1
  Sc  Sc7  1  0.615119  0.155344  0.615118  1
  Sc  Sc8  1  0.156562  0.614919  0.613606  1
  Sc  Sc9  1  0.615120  0.614416  0.615125  1
  Sc  Sc10  1  0.386399  0.385082  0.843435  1
  Sc  Sc11  1  0.384881  0.844656  0.384882  1
  Sc  Sc12  1  0.843438  0.385081  0.386394  1
  Sc  Sc13  1  0.384880  0.385584  0.384875  1
  Sc  Sc14  1  0.846364  0.841767  0.470102  1
  Sc  Sc15  1  0.843075  0.472758  0.843076  1
  Sc  Sc16  1  0.470099  0.841764  0.846367  1
  Sc  Sc17  1  0.843074  0.841094  0.843076  1
  Sc  Sc18  1  0.153636  0.158233  0.529898  1
  Sc  Sc19  1  0.156925  0.527242  0.156924  1
  Sc  Sc20  1  0.529901  0.158236  0.153633  1
  Sc  Sc21  1  0.156926  0.158906  0.156924  1
  Fe  Fe22  1  0.500000  0.500000  0.500000  1
  Ru  Ru23  1  0.000000  0.000000  0.000000  1
  Ru  Ru24  1  0.000000  0.000000  0.500000  1
  Ru  Ru25  1  0.000000  0.500000  0.500000  1
  Ru  Ru26  1  0.500000  0.500000  0.000000  1
  Ru  Ru27  1  0.000000  0.500000  0.000000  1
  Ru  Ru28  1  0.500000  0.000000  0.000000  1
  Rh  Rh29  1  0.500000  0.000000  0.500000  1
