# generated using pymatgen
data_Li5Pb4Au
_symmetry_space_group_name_H-M   'P 1'
_cell_length_a   3.55449800
_cell_length_b   3.55449800
_cell_length_c   16.70885100
_cell_angle_alpha   90.00000000
_cell_angle_beta   90.00000000
_cell_angle_gamma   90.00000000
_symmetry_Int_Tables_number   1
_chemical_formula_structural   Li5Pb4Au
_chemical_formula_sum   'Li5 Pb4 Au1'
_cell_volume   211.10724330
_cell_formula_units_Z   1
loop_
 _symmetry_equiv_pos_site_id
 _symmetry_equiv_pos_as_xyz
  1  'x, y, z'
loop_
 _atom_site_type_symbol
 _atom_site_label
 _atom_site_symmetry_multiplicity
 _atom_site_fract_x
 _atom_site_fract_y
 _atom_site_fract_z
 _atom_site_occupancy
  Li  Li0  1  0.500000  0.500000  0.080087  1
  Li  Li1  1  0.500000  0.500000  0.289204  1
  Li  Li2  1  0.500000  0.500000  0.500000  1
  Li  Li3  1  0.500000  0.500000  0.710796  1
  Li  Li4  1  0.500000  0.500000  0.919913  1
  Pb  Pb5  1  0.000000  0.000000  0.182460  1
  Pb  Pb6  1  0.000000  0.000000  0.394775  1
  Pb  Pb7  1  0.000000  0.000000  0.605225  1
  Pb  Pb8  1  0.000000  0.000000  0.817540  1
  Au  Au9  1  0.000000  0.000000  0.000000  1
