# generated using pymatgen
data_ScCo4MoP3
_symmetry_space_group_name_H-M   'P 1'
_cell_length_a   3.65725300
_cell_length_b   10.31265200
_cell_length_c   11.78051300
_cell_angle_alpha   90.00000000
_cell_angle_beta   90.00000000
_cell_angle_gamma   90.00000000
_symmetry_Int_Tables_number   1
_chemical_formula_structural   ScCo4MoP3
_chemical_formula_sum   'Sc4 Co16 Mo4 P12'
_cell_volume   444.31356283
_cell_formula_units_Z   4
loop_
 _symmetry_equiv_pos_site_id
 _symmetry_equiv_pos_as_xyz
  1  'x, y, z'
loop_
 _atom_site_type_symbol
 _atom_site_label
 _atom_site_symmetry_multiplicity
 _atom_site_fract_x
 _atom_site_fract_y
 _atom_site_fract_z
 _atom_site_occupancy
  Sc  Sc0  1  0.250000  0.582782  0.705000  1
  Sc  Sc1  1  0.250000  0.917218  0.205000  1
  Sc  Sc2  1  0.750000  0.417218  0.295000  1
  Sc  Sc3  1  0.750000  0.082782  0.795000  1
  Co  Co4  1  0.250000  0.407464  0.486638  1
  Co  Co5  1  0.250000  0.092536  0.986638  1
  Co  Co6  1  0.750000  0.592536  0.513362  1
  Co  Co7  1  0.750000  0.907464  0.013362  1
  Co  Co8  1  0.250000  0.221829  0.178343  1
  Co  Co9  1  0.250000  0.278172  0.678343  1
  Co  Co10  1  0.750000  0.778172  0.821657  1
  Co  Co11  1  0.750000  0.721828  0.321657  1
  Co  Co12  1  0.250000  0.887799  0.701898  1
  Co  Co13  1  0.250000  0.612201  0.201898  1
  Co  Co14  1  0.750000  0.112201  0.298102  1
  Co  Co15  1  0.750000  0.387799  0.798102  1
  Co  Co16  1  0.250000  0.465310  0.931890  1
  Co  Co17  1  0.250000  0.034690  0.431890  1
  Co  Co18  1  0.750000  0.534690  0.068110  1
  Co  Co19  1  0.750000  0.965310  0.568110  1
  Mo  Mo20  1  0.250000  0.710667  0.988048  1
  Mo  Mo21  1  0.250000  0.789333  0.488048  1
  Mo  Mo22  1  0.750000  0.289333  0.011952  1
  Mo  Mo23  1  0.750000  0.210667  0.511952  1
  P  P24  1  0.250000  0.420705  0.117794  1
  P  P25  1  0.250000  0.079295  0.617794  1
  P  P26  1  0.750000  0.579295  0.882206  1
  P  P27  1  0.750000  0.920705  0.382206  1
  P  P28  1  0.250000  0.264223  0.863790  1
  P  P29  1  0.250000  0.235777  0.363790  1
  P  P30  1  0.750000  0.735777  0.136210  1
  P  P31  1  0.750000  0.764223  0.636210  1
  P  P32  1  0.250000  0.592346  0.389049  1
  P  P33  1  0.250000  0.907654  0.889049  1
  P  P34  1  0.750000  0.407654  0.610951  1
  P  P35  1  0.750000  0.092346  0.110951  1
