# generated using pymatgen
data_Be2Fe4B4IrRh9
_symmetry_space_group_name_H-M   'P 1'
_cell_length_a   9.12054800
_cell_length_b   9.13192600
_cell_length_c   2.84200300
_cell_angle_alpha   90.00000000
_cell_angle_beta   90.00000000
_cell_angle_gamma   90.00182065
_symmetry_Int_Tables_number   1
_chemical_formula_structural   Be2Fe4B4IrRh9
_chemical_formula_sum   'Be2 Fe4 B4 Ir1 Rh9'
_cell_volume   236.70522728
_cell_formula_units_Z   1
loop_
 _symmetry_equiv_pos_site_id
 _symmetry_equiv_pos_as_xyz
  1  'x, y, z'
loop_
 _atom_site_type_symbol
 _atom_site_label
 _atom_site_symmetry_multiplicity
 _atom_site_fract_x
 _atom_site_fract_y
 _atom_site_fract_z
 _atom_site_occupancy
  Be  Be0  1  0.499829  0.499838  0.000000  1
  Be  Be1  1  0.999998  0.999981  0.000000  1
  Fe  Fe2  1  0.822450  0.322150  0.000000  1
  Fe  Fe3  1  0.177085  0.678119  0.000000  1
  Fe  Fe4  1  0.322424  0.177857  0.000000  1
  Fe  Fe5  1  0.677555  0.822986  0.000000  1
  B  B6  1  0.630810  0.131716  0.000000  1
  B  B7  1  0.369079  0.868407  0.000000  1
  B  B8  1  0.131782  0.368153  0.000000  1
  B  B9  1  0.868787  0.631169  0.000000  1
  Ir  Ir10  1  0.932464  0.794358  0.500000  1
  Rh  Rh11  1  0.499663  0.000091  0.500000  1
  Rh  Rh12  1  0.999915  0.499031  0.500000  1
  Rh  Rh13  1  0.705924  0.567015  0.500000  1
  Rh  Rh14  1  0.293909  0.432233  0.500000  1
  Rh  Rh15  1  0.206698  0.932199  0.500000  1
  Rh  Rh16  1  0.793162  0.068394  0.500000  1
  Rh  Rh17  1  0.432178  0.706428  0.500000  1
  Rh  Rh18  1  0.567951  0.293445  0.500000  1
  Rh  Rh19  1  0.068334  0.206431  0.500000  1
