# generated using pymatgen
data_La5PrIrBr10
_symmetry_space_group_name_H-M   'P 1'
_cell_length_a   7.83388190
_cell_length_b   9.78186058
_cell_length_c   9.65986652
_cell_angle_alpha   108.58177182
_cell_angle_beta   96.47477046
_cell_angle_gamma   107.27553938
_symmetry_Int_Tables_number   1
_chemical_formula_structural   La5PrIrBr10
_chemical_formula_sum   'La5 Pr1 Ir1 Br10'
_cell_volume   652.16734033
_cell_formula_units_Z   1
loop_
 _symmetry_equiv_pos_site_id
 _symmetry_equiv_pos_as_xyz
  1  'x, y, z'
loop_
 _atom_site_type_symbol
 _atom_site_label
 _atom_site_symmetry_multiplicity
 _atom_site_fract_x
 _atom_site_fract_y
 _atom_site_fract_z
 _atom_site_occupancy
  La  La0  1  0.131247  0.051076  0.760694  1
  La  La1  1  0.630723  0.855067  0.810659  1
  La  La2  1  0.869561  0.948493  0.239511  1
  La  La3  1  0.027809  0.692133  0.900929  1
  La  La4  1  0.369555  0.146899  0.189798  1
  Pr  Pr5  1  0.971643  0.303954  0.098409  1
  Ir  Ir6  1  0.000080  0.998988  0.999734  1
  Br  Br7  1  0.206981  0.746171  0.650682  1
  Br  Br8  1  0.641952  0.539633  0.725870  1
  Br  Br9  1  0.246370  0.081031  0.454744  1
  Br  Br10  1  0.794695  0.255447  0.347638  1
  Br  Br11  1  0.552851  0.173713  0.921000  1
  Br  Br12  1  0.754596  0.919449  0.545403  1
  Br  Br13  1  0.910132  0.629489  0.169685  1
  Br  Br14  1  0.353336  0.460864  0.272612  1
  Br  Br15  1  0.089145  0.368893  0.832656  1
  Br  Br16  1  0.449323  0.828701  0.079974  1
