# generated using pymatgen
data_PaZnCu3Pd
_symmetry_space_group_name_H-M   'P 1'
_cell_length_a   5.04405166
_cell_length_b   5.04405188
_cell_length_c   5.04405176
_cell_angle_alpha   60.33573674
_cell_angle_beta   60.33573255
_cell_angle_gamma   60.33574402
_symmetry_Int_Tables_number   1
_chemical_formula_structural   PaZnCu3Pd
_chemical_formula_sum   'Pa1 Zn1 Cu3 Pd1'
_cell_volume   91.43446491
_cell_formula_units_Z   1
loop_
 _symmetry_equiv_pos_site_id
 _symmetry_equiv_pos_as_xyz
  1  'x, y, z'
loop_
 _atom_site_type_symbol
 _atom_site_label
 _atom_site_symmetry_multiplicity
 _atom_site_fract_x
 _atom_site_fract_y
 _atom_site_fract_z
 _atom_site_occupancy
  Pa  Pa0  1  0.247683  0.247683  0.247683  1
  Zn  Zn1  1  0.629115  0.629115  0.629115  1
  Cu  Cu2  1  0.625781  0.625781  0.123637  1
  Cu  Cu3  1  0.625781  0.123637  0.625781  1
  Cu  Cu4  1  0.123637  0.625781  0.625781  1
  Pd  Pd5  1  0.998003  0.998003  0.998003  1
