# generated using pymatgen
data_Pr4OsBr4
_symmetry_space_group_name_H-M   'P 1'
_cell_length_a   9.47518242
_cell_length_b   9.47518329
_cell_length_c   6.72945257
_cell_angle_alpha   90.23195007
_cell_angle_beta   90.23195193
_cell_angle_gamma   89.57477489
_symmetry_Int_Tables_number   1
_chemical_formula_structural   Pr4OsBr4
_chemical_formula_sum   'Pr8 Os2 Br8'
_cell_volume   604.13766201
_cell_formula_units_Z   2
loop_
 _symmetry_equiv_pos_site_id
 _symmetry_equiv_pos_as_xyz
  1  'x, y, z'
loop_
 _atom_site_type_symbol
 _atom_site_label
 _atom_site_symmetry_multiplicity
 _atom_site_fract_x
 _atom_site_fract_y
 _atom_site_fract_z
 _atom_site_occupancy
  Pr  Pr0  1  0.750162  0.097124  0.989220  1
  Pr  Pr1  1  0.097124  0.750162  0.489220  1
  Pr  Pr2  1  0.095997  0.249147  0.001484  1
  Pr  Pr3  1  0.249147  0.095997  0.501484  1
  Pr  Pr4  1  0.904003  0.750853  0.998516  1
  Pr  Pr5  1  0.902876  0.249838  0.510780  1
  Pr  Pr6  1  0.249838  0.902876  0.010780  1
  Pr  Pr7  1  0.750853  0.904003  0.498516  1
  Os  Os8  1  0.998105  0.001895  0.250000  1
  Os  Os9  1  0.001895  0.998105  0.750000  1
  Br  Br10  1  0.590116  0.182071  0.565299  1
  Br  Br11  1  0.816902  0.592527  0.429927  1
  Br  Br12  1  0.407473  0.183098  0.070073  1
  Br  Br13  1  0.183098  0.407473  0.570073  1
  Br  Br14  1  0.592527  0.816902  0.929927  1
  Br  Br15  1  0.409884  0.817929  0.434701  1
  Br  Br16  1  0.182071  0.590116  0.065299  1
  Br  Br17  1  0.817929  0.409884  0.934701  1
