# generated using pymatgen
data_Dy3Er3TaCo17P12
_symmetry_space_group_name_H-M   'P 1'
_cell_length_a   3.69135000
_cell_length_b   10.55357000
_cell_length_c   12.23647400
_cell_angle_alpha   90.00161355
_cell_angle_beta   90.00000000
_cell_angle_gamma   90.00000000
_symmetry_Int_Tables_number   1
_chemical_formula_structural   Dy3Er3TaCo17P12
_chemical_formula_sum   'Dy3 Er3 Ta1 Co17 P12'
_cell_volume   476.69534619
_cell_formula_units_Z   1
loop_
 _symmetry_equiv_pos_site_id
 _symmetry_equiv_pos_as_xyz
  1  'x, y, z'
loop_
 _atom_site_type_symbol
 _atom_site_label
 _atom_site_symmetry_multiplicity
 _atom_site_fract_x
 _atom_site_fract_y
 _atom_site_fract_z
 _atom_site_occupancy
  Dy  Dy0  1  0.000000  0.499969  0.526838  1
  Dy  Dy1  1  0.500000  0.999992  0.477503  1
  Dy  Dy2  1  0.000000  0.317314  0.796161  1
  Er  Er3  1  0.500000  0.820067  0.207135  1
  Er  Er4  1  0.500000  0.179960  0.207012  1
  Er  Er5  1  0.000000  0.682769  0.796077  1
  Ta  Ta6  1  0.500000  0.500082  0.154213  1
  Co  Co7  1  0.000000  0.999934  0.838708  1
  Co  Co8  1  0.500000  0.500580  0.702292  1
  Co  Co9  1  0.000000  0.999938  0.296116  1
  Co  Co10  1  0.000000  0.500314  0.985312  1
  Co  Co11  1  0.500000  0.999721  0.014706  1
  Co  Co12  1  0.500000  0.330166  0.990324  1
  Co  Co13  1  0.500000  0.670108  0.989944  1
  Co  Co14  1  0.000000  0.163634  0.004428  1
  Co  Co15  1  0.000000  0.836092  0.004131  1
  Co  Co16  1  0.500000  0.295224  0.432183  1
  Co  Co17  1  0.500000  0.704822  0.432456  1
  Co  Co18  1  0.000000  0.202418  0.569471  1
  Co  Co19  1  0.000000  0.797500  0.569902  1
  Co  Co20  1  0.500000  0.879235  0.708653  1
  Co  Co21  1  0.500000  0.120166  0.708296  1
  Co  Co22  1  0.000000  0.622841  0.292912  1
  Co  Co23  1  0.000000  0.377187  0.292804  1
  P  P24  1  0.500000  0.500586  0.880618  1
  P  P25  1  0.000000  0.999875  0.117599  1
  P  P26  1  0.500000  0.500020  0.356095  1
  P  P27  1  0.000000  0.000038  0.655743  1
  P  P28  1  0.500000  0.309796  0.616986  1
  P  P29  1  0.500000  0.690237  0.617677  1
  P  P30  1  0.000000  0.188219  0.385001  1
  P  P31  1  0.000000  0.811713  0.385189  1
  P  P32  1  0.500000  0.850862  0.889891  1
  P  P33  1  0.500000  0.148513  0.890259  1
  P  P34  1  0.000000  0.661669  0.103753  1
  P  P35  1  0.000000  0.338440  0.103616  1
