# generated using pymatgen
data_Dy5YTa2(Co4P3)4
_symmetry_space_group_name_H-M   'P 1'
_cell_length_a   3.70705700
_cell_length_b   10.63902500
_cell_length_c   12.33454500
_cell_angle_alpha   90.00000000
_cell_angle_beta   90.00000000
_cell_angle_gamma   90.00000000
_symmetry_Int_Tables_number   1
_chemical_formula_structural   Dy5YTa2(Co4P3)4
_chemical_formula_sum   'Dy5 Y1 Ta2 Co16 P12'
_cell_volume   486.46794339
_cell_formula_units_Z   1
loop_
 _symmetry_equiv_pos_site_id
 _symmetry_equiv_pos_as_xyz
  1  'x, y, z'
loop_
 _atom_site_type_symbol
 _atom_site_label
 _atom_site_symmetry_multiplicity
 _atom_site_fract_x
 _atom_site_fract_y
 _atom_site_fract_z
 _atom_site_occupancy
  Dy  Dy0  1  0.000000  0.500000  0.526200  1
  Dy  Dy1  1  0.500000  0.820422  0.205057  1
  Dy  Dy2  1  0.500000  0.179578  0.205057  1
  Dy  Dy3  1  0.000000  0.679562  0.794949  1
  Dy  Dy4  1  0.000000  0.320438  0.794949  1
  Y  Y5  1  0.500000  0.000000  0.473858  1
  Ta  Ta6  1  0.500000  0.500000  0.156284  1
  Ta  Ta7  1  0.000000  0.000000  0.843769  1
  Co  Co8  1  0.500000  0.500000  0.701933  1
  Co  Co9  1  0.000000  0.000000  0.297818  1
  Co  Co10  1  0.000000  0.500000  0.986759  1
  Co  Co11  1  0.500000  0.000000  0.013238  1
  Co  Co12  1  0.500000  0.332753  0.992163  1
  Co  Co13  1  0.500000  0.667247  0.992163  1
  Co  Co14  1  0.000000  0.167243  0.007840  1
  Co  Co15  1  0.000000  0.832757  0.007840  1
  Co  Co16  1  0.500000  0.295435  0.432169  1
  Co  Co17  1  0.500000  0.704565  0.432169  1
  Co  Co18  1  0.000000  0.204724  0.567856  1
  Co  Co19  1  0.000000  0.795276  0.567856  1
  Co  Co20  1  0.500000  0.877865  0.705773  1
  Co  Co21  1  0.500000  0.122135  0.705773  1
  Co  Co22  1  0.000000  0.622081  0.294283  1
  Co  Co23  1  0.000000  0.377919  0.294283  1
  P  P24  1  0.500000  0.500000  0.881799  1
  P  P25  1  0.000000  0.000000  0.118187  1
  P  P26  1  0.500000  0.500000  0.355953  1
  P  P27  1  0.000000  0.000000  0.644233  1
  P  P28  1  0.500000  0.310834  0.615538  1
  P  P29  1  0.500000  0.689166  0.615538  1
  P  P30  1  0.000000  0.189301  0.384375  1
  P  P31  1  0.000000  0.810699  0.384375  1
  P  P32  1  0.500000  0.841145  0.893282  1
  P  P33  1  0.500000  0.158855  0.893282  1
  P  P34  1  0.000000  0.658868  0.106700  1
  P  P35  1  0.000000  0.341132  0.106700  1
