# generated using pymatgen
data_Ho4B12IrW
_symmetry_space_group_name_H-M   'P 1'
_cell_length_a   3.64259100
_cell_length_b   9.19424135
_cell_length_c   11.60003975
_cell_angle_alpha   90.33946431
_cell_angle_beta   90.00000000
_cell_angle_gamma   90.00000000
_symmetry_Int_Tables_number   1
_chemical_formula_structural   Ho4B12IrW
_chemical_formula_sum   'Ho8 B24 Ir2 W2'
_cell_volume   388.48849784
_cell_formula_units_Z   2
loop_
 _symmetry_equiv_pos_site_id
 _symmetry_equiv_pos_as_xyz
  1  'x, y, z'
loop_
 _atom_site_type_symbol
 _atom_site_label
 _atom_site_symmetry_multiplicity
 _atom_site_fract_x
 _atom_site_fract_y
 _atom_site_fract_z
 _atom_site_occupancy
  Ho  Ho0  1  0.000000  0.317632  0.411123  1
  Ho  Ho1  1  0.000000  0.682368  0.588877  1
  Ho  Ho2  1  0.000000  0.825138  0.083311  1
  Ho  Ho3  1  0.000000  0.174862  0.916689  1
  Ho  Ho4  1  0.000000  0.944855  0.372787  1
  Ho  Ho5  1  0.000000  0.055145  0.627213  1
  Ho  Ho6  1  0.000000  0.443305  0.126026  1
  Ho  Ho7  1  0.000000  0.556695  0.873974  1
  B  B8  1  0.500000  0.553694  0.434290  1
  B  B9  1  0.500000  0.446306  0.565710  1
  B  B10  1  0.500000  0.051188  0.065752  1
  B  B11  1  0.500000  0.948812  0.934248  1
  B  B12  1  0.500000  0.748842  0.420959  1
  B  B13  1  0.500000  0.251158  0.579041  1
  B  B14  1  0.500000  0.249991  0.079087  1
  B  B15  1  0.500000  0.750009  0.920913  1
  B  B16  1  0.500000  0.790508  0.266467  1
  B  B17  1  0.500000  0.209492  0.733533  1
  B  B18  1  0.500000  0.295483  0.236214  1
  B  B19  1  0.500000  0.704517  0.763786  1
  B  B20  1  0.500000  0.631773  0.184911  1
  B  B21  1  0.500000  0.368227  0.815089  1
  B  B22  1  0.500000  0.132413  0.317170  1
  B  B23  1  0.500000  0.867587  0.682830  1
  B  B24  1  0.500000  0.979043  0.213807  1
  B  B25  1  0.500000  0.020957  0.786193  1
  B  B26  1  0.500000  0.482764  0.288063  1
  B  B27  1  0.500000  0.517236  0.711937  1
  B  B28  1  0.500000  0.606168  0.030294  1
  B  B29  1  0.500000  0.393832  0.969706  1
  B  B30  1  0.500000  0.108228  0.471208  1
  B  B31  1  0.500000  0.891772  0.528792  1
  Ir  Ir32  1  0.000000  0.637091  0.322323  1
  Ir  Ir33  1  0.000000  0.362909  0.677677  1
  W  W34  1  0.000000  0.138509  0.180369  1
  W  W35  1  0.000000  0.861491  0.819631  1
