# generated using pymatgen
data_NbHg2SbO7
_symmetry_space_group_name_H-M   'P 1'
_cell_length_a   7.44084903
_cell_length_b   7.49771895
_cell_length_c   7.49771957
_cell_angle_alpha   60.40925502
_cell_angle_beta   60.25059188
_cell_angle_gamma   60.25059376
_symmetry_Int_Tables_number   1
_chemical_formula_structural   NbHg2SbO7
_chemical_formula_sum   'Nb2 Hg4 Sb2 O14'
_cell_volume   297.80769001
_cell_formula_units_Z   2
loop_
 _symmetry_equiv_pos_site_id
 _symmetry_equiv_pos_as_xyz
  1  'x, y, z'
loop_
 _atom_site_type_symbol
 _atom_site_label
 _atom_site_symmetry_multiplicity
 _atom_site_fract_x
 _atom_site_fract_y
 _atom_site_fract_z
 _atom_site_occupancy
  Nb  Nb0  1  0.625000  0.625000  0.125000  1
  Nb  Nb1  1  0.625000  0.125000  0.625000  1
  Hg  Hg2  1  0.125000  0.125000  0.625000  1
  Hg  Hg3  1  0.125000  0.625000  0.125000  1
  Hg  Hg4  1  0.625000  0.125000  0.125000  1
  Hg  Hg5  1  0.125000  0.125000  0.125000  1
  Sb  Sb6  1  0.125000  0.625000  0.625000  1
  Sb  Sb7  1  0.625000  0.625000  0.625000  1
  O  O8  1  0.253350  0.246650  0.246650  1
  O  O9  1  0.996650  0.003350  0.003350  1
  O  O10  1  0.557565  0.939640  0.559676  1
  O  O11  1  0.306881  0.690324  0.310360  1
  O  O12  1  0.557565  0.559676  0.939640  1
  O  O13  1  0.948563  0.551437  0.551437  1
  O  O14  1  0.562803  0.937197  0.937197  1
  O  O15  1  0.943119  0.939640  0.559676  1
  O  O16  1  0.943119  0.559676  0.939640  1
  O  O17  1  0.687197  0.312803  0.312803  1
  O  O18  1  0.301437  0.698563  0.698563  1
  O  O19  1  0.692435  0.310360  0.690324  1
  O  O20  1  0.306881  0.310360  0.690324  1
  O  O21  1  0.692435  0.690324  0.310360  1
