# generated using pymatgen
data_Eu10CdAgPt4
_symmetry_space_group_name_H-M   'P 1'
_cell_length_a   9.38297602
_cell_length_b   9.38297544
_cell_length_c   9.38297500
_cell_angle_alpha   129.00983997
_cell_angle_beta   129.00983709
_cell_angle_gamma   74.99473724
_symmetry_Int_Tables_number   1
_chemical_formula_structural   Eu10CdAgPt4
_chemical_formula_sum   'Eu10 Cd1 Ag1 Pt4'
_cell_volume   485.70886339
_cell_formula_units_Z   1
loop_
 _symmetry_equiv_pos_site_id
 _symmetry_equiv_pos_as_xyz
  1  'x, y, z'
loop_
 _atom_site_type_symbol
 _atom_site_label
 _atom_site_symmetry_multiplicity
 _atom_site_fract_x
 _atom_site_fract_y
 _atom_site_fract_z
 _atom_site_occupancy
  Eu  Eu0  1  0.501247  0.501247  0.000000  1
  Eu  Eu1  1  0.998753  0.998753  0.000000  1
  Eu  Eu2  1  0.528835  0.033218  0.828987  1
  Eu  Eu3  1  0.204231  0.699848  0.171013  1
  Eu  Eu4  1  0.033218  0.204231  0.504383  1
  Eu  Eu5  1  0.699848  0.528835  0.495617  1
  Eu  Eu6  1  0.466782  0.971165  0.171013  1
  Eu  Eu7  1  0.800152  0.295769  0.828987  1
  Eu  Eu8  1  0.971165  0.800152  0.504383  1
  Eu  Eu9  1  0.295769  0.466782  0.495617  1
  Cd  Cd10  1  0.750000  0.750000  0.000000  1
  Ag  Ag11  1  0.250000  0.250000  0.000000  1
  Pt  Pt12  1  0.134272  0.634272  0.768544  1
  Pt  Pt13  1  0.865728  0.365728  0.231456  1
  Pt  Pt14  1  0.634272  0.865728  0.500000  1
  Pt  Pt15  1  0.365728  0.134272  0.500000  1
