# generated using pymatgen
data_Nd4Al18Pd3Ru2Rh
_symmetry_space_group_name_H-M   'P 1'
_cell_length_a   7.66693678
_cell_length_b   7.66681405
_cell_length_c   9.61370312
_cell_angle_alpha   89.99436562
_cell_angle_beta   89.99326267
_cell_angle_gamma   119.35287962
_symmetry_Int_Tables_number   1
_chemical_formula_structural   Nd4Al18Pd3Ru2Rh
_chemical_formula_sum   'Nd4 Al18 Pd3 Ru2 Rh1'
_cell_volume   492.55339862
_cell_formula_units_Z   1
loop_
 _symmetry_equiv_pos_site_id
 _symmetry_equiv_pos_as_xyz
  1  'x, y, z'
loop_
 _atom_site_type_symbol
 _atom_site_label
 _atom_site_symmetry_multiplicity
 _atom_site_fract_x
 _atom_site_fract_y
 _atom_site_fract_z
 _atom_site_occupancy
  Nd  Nd0  1  0.994984  0.671501  0.749906  1
  Nd  Nd1  1  0.002893  0.326837  0.250264  1
  Nd  Nd2  1  0.673186  0.997136  0.749741  1
  Nd  Nd3  1  0.328504  0.005019  0.250094  1
  Al  Al4  1  0.135821  0.132914  0.750600  1
  Al  Al5  1  0.867078  0.864169  0.249400  1
  Al  Al6  1  0.009994  0.341099  0.575346  1
  Al  Al7  1  0.001163  0.664292  0.424741  1
  Al  Al8  1  0.998846  0.660270  0.073299  1
  Al  Al9  1  0.339731  0.001154  0.926710  1
  Al  Al10  1  0.004804  0.341115  0.926619  1
  Al  Al11  1  0.658884  0.995200  0.073393  1
  Al  Al12  1  0.658898  0.990000  0.424651  1
  Al  Al13  1  0.335703  0.998827  0.575253  1
  Al  Al14  1  0.336967  0.339764  0.046519  1
  Al  Al15  1  0.660237  0.663033  0.953502  1
  Al  Al16  1  0.658879  0.664338  0.550449  1
  Al  Al17  1  0.335660  0.341120  0.449538  1
  Al  Al18  1  0.339768  0.550812  0.750793  1
  Al  Al19  1  0.662895  0.454390  0.246172  1
  Al  Al20  1  0.545613  0.337101  0.753828  1
  Al  Al21  1  0.449186  0.660223  0.249203  1
  Pd  Pd22  1  0.671934  0.328062  0.499996  1
  Pd  Pd23  1  0.000147  0.999856  0.499999  1
  Pd  Pd24  1  0.000312  0.999692  0.000002  1
  Ru  Ru25  1  0.328165  0.671856  0.500032  1
  Ru  Ru26  1  0.328203  0.671748  0.999980  1
  Rh  Rh27  1  0.671546  0.328471  0.999969  1
