# generated using pymatgen
data_La2CuSiPd13
_symmetry_space_group_name_H-M   'P 1'
_cell_length_a   8.99236646
_cell_length_b   8.99769700
_cell_length_c   7.13310580
_cell_angle_alpha   90.00000000
_cell_angle_beta   90.47437013
_cell_angle_gamma   90.00000000
_symmetry_Int_Tables_number   1
_chemical_formula_structural   La2CuSiPd13
_chemical_formula_sum   'La4 Cu2 Si2 Pd26'
_cell_volume   577.12400859
_cell_formula_units_Z   2
loop_
 _symmetry_equiv_pos_site_id
 _symmetry_equiv_pos_as_xyz
  1  'x, y, z'
loop_
 _atom_site_type_symbol
 _atom_site_label
 _atom_site_symmetry_multiplicity
 _atom_site_fract_x
 _atom_site_fract_y
 _atom_site_fract_z
 _atom_site_occupancy
  La  La0  1  0.505618  0.000000  0.936544  1
  La  La1  1  0.994382  0.500000  0.063456  1
  La  La2  1  0.001319  0.000000  0.499610  1
  La  La3  1  0.498681  0.500000  0.500390  1
  Cu  Cu4  1  0.250000  0.750000  0.000000  1
  Cu  Cu5  1  0.250000  0.250000  0.000000  1
  Si  Si6  1  0.499778  0.000000  0.446951  1
  Si  Si7  1  0.000222  0.500000  0.553049  1
  Pd  Pd8  1  0.333769  0.835091  0.615692  1
  Pd  Pd9  1  0.333769  0.164909  0.615692  1
  Pd  Pd10  1  0.665034  0.833700  0.615555  1
  Pd  Pd11  1  0.665034  0.166300  0.615555  1
  Pd  Pd12  1  0.166231  0.664909  0.384308  1
  Pd  Pd13  1  0.166231  0.335091  0.384308  1
  Pd  Pd14  1  0.834966  0.666300  0.384445  1
  Pd  Pd15  1  0.834966  0.333700  0.384445  1
  Pd  Pd16  1  0.496090  0.769021  0.255161  1
  Pd  Pd17  1  0.496090  0.230979  0.255161  1
  Pd  Pd18  1  0.270311  0.000000  0.254086  1
  Pd  Pd19  1  0.731422  0.000000  0.256856  1
  Pd  Pd20  1  0.003910  0.730979  0.744839  1
  Pd  Pd21  1  0.003910  0.269021  0.744839  1
  Pd  Pd22  1  0.229689  0.500000  0.745914  1
  Pd  Pd23  1  0.768578  0.500000  0.743144  1
  Pd  Pd24  1  0.491796  0.345211  0.861715  1
  Pd  Pd25  1  0.491796  0.654789  0.861715  1
  Pd  Pd26  1  0.853972  0.000000  0.854357  1
  Pd  Pd27  1  0.163057  0.000000  0.866593  1
  Pd  Pd28  1  0.008204  0.154789  0.138285  1
  Pd  Pd29  1  0.008204  0.845211  0.138285  1
  Pd  Pd30  1  0.646028  0.500000  0.145643  1
  Pd  Pd31  1  0.336943  0.500000  0.133407  1
  Pd  Pd32  1  0.750000  0.750000  0.000000  1
  Pd  Pd33  1  0.750000  0.250000  0.000000  1
