# generated using pymatgen
data_Tb8SiBBr12
_symmetry_space_group_name_H-M   'P 1'
_cell_length_a   4.02798700
_cell_length_b   13.15606744
_cell_length_c   13.92039927
_cell_angle_alpha   90.13823797
_cell_angle_beta   90.00000000
_cell_angle_gamma   90.00000000
_symmetry_Int_Tables_number   1
_chemical_formula_structural   Tb8SiBBr12
_chemical_formula_sum   'Tb8 Si1 B1 Br12'
_cell_volume   737.67417446
_cell_formula_units_Z   1
loop_
 _symmetry_equiv_pos_site_id
 _symmetry_equiv_pos_as_xyz
  1  'x, y, z'
loop_
 _atom_site_type_symbol
 _atom_site_label
 _atom_site_symmetry_multiplicity
 _atom_site_fract_x
 _atom_site_fract_y
 _atom_site_fract_z
 _atom_site_occupancy
  Tb  Tb0  1  0.500000  0.110986  0.350467  1
  Tb  Tb1  1  0.500000  0.889014  0.649533  1
  Tb  Tb2  1  0.500000  0.620325  0.162132  1
  Tb  Tb3  1  0.500000  0.379675  0.837868  1
  Tb  Tb4  1  0.000000  0.108357  0.571880  1
  Tb  Tb5  1  0.000000  0.891643  0.428120  1
  Tb  Tb6  1  0.000000  0.620710  0.919808  1
  Tb  Tb7  1  0.000000  0.379290  0.080192  1
  Si  Si8  1  0.500000  0.500000  0.000000  1
  B  B9  1  0.500000  0.000000  0.500000  1
  Br  Br10  1  0.500000  0.241982  0.165719  1
  Br  Br11  1  0.500000  0.758018  0.834281  1
  Br  Br12  1  0.500000  0.749892  0.339255  1
  Br  Br13  1  0.500000  0.250108  0.660745  1
  Br  Br14  1  0.000000  0.255311  0.413699  1
  Br  Br15  1  0.000000  0.744689  0.586301  1
  Br  Br16  1  0.000000  0.758979  0.088475  1
  Br  Br17  1  0.000000  0.241021  0.911525  1
  Br  Br18  1  0.000000  0.999521  0.243780  1
  Br  Br19  1  0.000000  0.000479  0.756220  1
  Br  Br20  1  0.000000  0.500614  0.260929  1
  Br  Br21  1  0.000000  0.499386  0.739071  1
