# generated using pymatgen
data_CdS23
_symmetry_space_group_name_H-M   'P 1'
_cell_length_a   5.47256303
_cell_length_b   9.73577981
_cell_length_c   15.92074400
_cell_angle_alpha   91.37251274
_cell_angle_beta   85.84132521
_cell_angle_gamma   90.50203042
_symmetry_Int_Tables_number   1
_chemical_formula_structural   CdS23
_chemical_formula_sum   'Cd1 S23'
_cell_volume   845.75483454
_cell_formula_units_Z   1
loop_
 _symmetry_equiv_pos_site_id
 _symmetry_equiv_pos_as_xyz
  1  'x, y, z'
loop_
 _atom_site_type_symbol
 _atom_site_label
 _atom_site_symmetry_multiplicity
 _atom_site_fract_x
 _atom_site_fract_y
 _atom_site_fract_z
 _atom_site_occupancy
  Cd  Cd0  1  0.500950  0.261931  0.413794  1
  S  S1  1  0.493543  0.799123  0.396081  1
  S  S2  1  0.998770  0.299863  0.110123  1
  S  S3  1  0.763009  0.187323  0.517183  1
  S  S4  1  0.293319  0.757612  0.507484  1
  S  S5  1  0.197370  0.253397  0.998102  1
  S  S6  1  0.795372  0.744201  0.002891  1
  S  S7  1  0.236424  0.382253  0.328417  1
  S  S8  1  0.681241  0.621102  0.355974  1
  S  S9  1  0.793637  0.129210  0.146822  1
  S  S10  1  0.203202  0.873546  0.130677  1
  S  S11  1  0.713037  0.630345  0.628137  1
  S  S12  1  0.320430  0.365022  0.634678  1
  S  S13  1  0.206196  0.874162  0.859876  1
  S  S14  1  0.791080  0.124444  0.869893  1
  S  S15  1  0.996808  0.701432  0.103821  1
  S  S16  1  0.506715  0.801093  0.606833  1
  S  S17  1  0.500126  0.181992  0.618694  1
  S  S18  1  0.003776  0.700791  0.892128  1
  S  S19  1  0.993214  0.297385  0.897953  1
  S  S20  1  0.496853  0.511237  0.269087  1
  S  S21  1  0.002457  0.001303  0.214366  1
  S  S22  1  0.510165  0.503260  0.708622  1
  S  S23  1  0.002306  0.997975  0.788363  1
