# generated using pymatgen
data_Dy5YSc2(Co4P3)4
_symmetry_space_group_name_H-M   'P 1'
_cell_length_a   3.72147900
_cell_length_b   10.65749600
_cell_length_c   12.35529700
_cell_angle_alpha   90.00000000
_cell_angle_beta   90.00000000
_cell_angle_gamma   90.00000000
_symmetry_Int_Tables_number   1
_chemical_formula_structural   Dy5YSc2(Co4P3)4
_chemical_formula_sum   'Dy5 Y1 Sc2 Co16 P12'
_cell_volume   490.03143507
_cell_formula_units_Z   1
loop_
 _symmetry_equiv_pos_site_id
 _symmetry_equiv_pos_as_xyz
  1  'x, y, z'
loop_
 _atom_site_type_symbol
 _atom_site_label
 _atom_site_symmetry_multiplicity
 _atom_site_fract_x
 _atom_site_fract_y
 _atom_site_fract_z
 _atom_site_occupancy
  Dy  Dy0  1  0.500000  0.000000  0.472546  1
  Dy  Dy1  1  0.500000  0.822335  0.205793  1
  Dy  Dy2  1  0.500000  0.177665  0.205793  1
  Dy  Dy3  1  0.000000  0.677700  0.794205  1
  Dy  Dy4  1  0.000000  0.322300  0.794205  1
  Y  Y5  1  0.000000  0.500000  0.527337  1
  Sc  Sc6  1  0.500000  0.500000  0.156967  1
  Sc  Sc7  1  0.000000  0.000000  0.842940  1
  Co  Co8  1  0.500000  0.500000  0.705431  1
  Co  Co9  1  0.000000  0.000000  0.294937  1
  Co  Co10  1  0.000000  0.500000  0.987527  1
  Co  Co11  1  0.500000  0.000000  0.012504  1
  Co  Co12  1  0.500000  0.331293  0.994607  1
  Co  Co13  1  0.500000  0.668707  0.994607  1
  Co  Co14  1  0.000000  0.168620  0.005437  1
  Co  Co15  1  0.000000  0.831380  0.005437  1
  Co  Co16  1  0.500000  0.295329  0.432874  1
  Co  Co17  1  0.500000  0.704671  0.432874  1
  Co  Co18  1  0.000000  0.204338  0.567059  1
  Co  Co19  1  0.000000  0.795662  0.567059  1
  Co  Co20  1  0.500000  0.878026  0.702752  1
  Co  Co21  1  0.500000  0.121974  0.702752  1
  Co  Co22  1  0.000000  0.622098  0.297164  1
  Co  Co23  1  0.000000  0.377902  0.297164  1
  P  P24  1  0.500000  0.500000  0.885604  1
  P  P25  1  0.000000  0.000000  0.114447  1
  P  P26  1  0.500000  0.500000  0.359539  1
  P  P27  1  0.000000  0.000000  0.640149  1
  P  P28  1  0.500000  0.309339  0.615584  1
  P  P29  1  0.500000  0.690661  0.615584  1
  P  P30  1  0.000000  0.190453  0.384543  1
  P  P31  1  0.000000  0.809547  0.384543  1
  P  P32  1  0.500000  0.839539  0.892915  1
  P  P33  1  0.500000  0.160461  0.892915  1
  P  P34  1  0.000000  0.660503  0.107104  1
  P  P35  1  0.000000  0.339497  0.107104  1
