# generated using pymatgen
data_TmLuScB2Ir5
_symmetry_space_group_name_H-M   'P 1'
_cell_length_a   3.15163100
_cell_length_b   9.71730155
_cell_length_c   9.71730155
_cell_angle_alpha   89.93534156
_cell_angle_beta   90.00000000
_cell_angle_gamma   90.00000000
_symmetry_Int_Tables_number   1
_chemical_formula_structural   TmLuScB2Ir5
_chemical_formula_sum   'Tm2 Lu2 Sc2 B4 Ir10'
_cell_volume   297.59555969
_cell_formula_units_Z   2
loop_
 _symmetry_equiv_pos_site_id
 _symmetry_equiv_pos_as_xyz
  1  'x, y, z'
loop_
 _atom_site_type_symbol
 _atom_site_label
 _atom_site_symmetry_multiplicity
 _atom_site_fract_x
 _atom_site_fract_y
 _atom_site_fract_z
 _atom_site_occupancy
  Tm  Tm0  1  0.000000  0.176719  0.676719  1
  Tm  Tm1  1  0.000000  0.823281  0.323281  1
  Lu  Lu2  1  0.000000  0.323273  0.176727  1
  Lu  Lu3  1  0.000000  0.676727  0.823273  1
  Sc  Sc4  1  0.000000  0.000000  0.000000  1
  Sc  Sc5  1  0.000000  0.500000  0.500000  1
  B  B6  1  0.000000  0.620757  0.120757  1
  B  B7  1  0.000000  0.379243  0.879243  1
  B  B8  1  0.000000  0.879095  0.620905  1
  B  B9  1  0.000000  0.120905  0.379095  1
  Ir  Ir10  1  0.500000  0.069838  0.224247  1
  Ir  Ir11  1  0.500000  0.930162  0.775753  1
  Ir  Ir12  1  0.500000  0.775436  0.068981  1
  Ir  Ir13  1  0.500000  0.431019  0.724564  1
  Ir  Ir14  1  0.500000  0.224564  0.931019  1
  Ir  Ir15  1  0.500000  0.568981  0.275436  1
  Ir  Ir16  1  0.500000  0.724247  0.569838  1
  Ir  Ir17  1  0.500000  0.275753  0.430162  1
  Ir  Ir18  1  0.500000  0.000000  0.500000  1
  Ir  Ir19  1  0.500000  0.500000  0.000000  1
