# generated using pymatgen
data_Ho3Mg3InAgIr
_symmetry_space_group_name_H-M   'P 1'
_cell_length_a   7.99558200
_cell_length_b   7.99558225
_cell_length_c   3.81366200
_cell_angle_alpha   90.00000000
_cell_angle_beta   90.00000000
_cell_angle_gamma   119.99999068
_symmetry_Int_Tables_number   1
_chemical_formula_structural   Ho3Mg3InAgIr
_chemical_formula_sum   'Ho3 Mg3 In1 Ag1 Ir1'
_cell_volume   211.14123084
_cell_formula_units_Z   1
loop_
 _symmetry_equiv_pos_site_id
 _symmetry_equiv_pos_as_xyz
  1  'x, y, z'
loop_
 _atom_site_type_symbol
 _atom_site_label
 _atom_site_symmetry_multiplicity
 _atom_site_fract_x
 _atom_site_fract_y
 _atom_site_fract_z
 _atom_site_occupancy
  Ho  Ho0  1  0.566379  0.958049  0.000000  1
  Ho  Ho1  1  0.041951  0.608330  0.000000  1
  Ho  Ho2  1  0.391670  0.433621  0.000000  1
  Mg  Mg3  1  0.253112  0.998415  0.500000  1
  Mg  Mg4  1  0.001585  0.254696  0.500000  1
  Mg  Mg5  1  0.745304  0.746888  0.500000  1
  In  In6  1  0.666667  0.333333  0.500000  1
  Ag  Ag7  1  0.000000  0.000000  0.000000  1
  Ir  Ir8  1  0.333333  0.666667  0.500000  1
