# generated using pymatgen
data_Y2ThMg3Ir2Rh
_symmetry_space_group_name_H-M   'P 1'
_cell_length_a   7.51479000
_cell_length_b   7.33625970
_cell_length_c   4.05105500
_cell_angle_alpha   90.00000000
_cell_angle_beta   90.00000000
_cell_angle_gamma   120.80832498
_symmetry_Int_Tables_number   1
_chemical_formula_structural   Y2ThMg3Ir2Rh
_chemical_formula_sum   'Y2 Th1 Mg3 Ir2 Rh1'
_cell_volume   191.82046983
_cell_formula_units_Z   1
loop_
 _symmetry_equiv_pos_site_id
 _symmetry_equiv_pos_as_xyz
  1  'x, y, z'
loop_
 _atom_site_type_symbol
 _atom_site_label
 _atom_site_symmetry_multiplicity
 _atom_site_fract_x
 _atom_site_fract_y
 _atom_site_fract_z
 _atom_site_occupancy
  Y  Y0  1  0.999663  0.409948  0.500000  1
  Y  Y1  1  0.589715  0.590052  0.500000  1
  Th  Th2  1  0.418830  0.000000  0.500000  1
  Mg  Mg3  1  0.766837  0.000000  0.000000  1
  Mg  Mg4  1  0.992382  0.748325  0.000000  1
  Mg  Mg5  1  0.244056  0.251675  0.000000  1
  Ir  Ir6  1  0.330769  0.678738  0.000000  1
  Ir  Ir7  1  0.652031  0.321262  0.000000  1
  Rh  Rh8  1  0.005717  0.000000  0.500000  1
