# generated using pymatgen
data_Dy3MnCo9GeB4
_symmetry_space_group_name_H-M   'P 1'
_cell_length_a   5.10601513
_cell_length_b   5.10601552
_cell_length_c   9.55085200
_cell_angle_alpha   90.00000000
_cell_angle_beta   90.00000000
_cell_angle_gamma   120.02625844
_symmetry_Int_Tables_number   1
_chemical_formula_structural   Dy3MnCo9GeB4
_chemical_formula_sum   'Dy3 Mn1 Co9 Ge1 B4'
_cell_volume   215.58671794
_cell_formula_units_Z   1
loop_
 _symmetry_equiv_pos_site_id
 _symmetry_equiv_pos_as_xyz
  1  'x, y, z'
loop_
 _atom_site_type_symbol
 _atom_site_label
 _atom_site_symmetry_multiplicity
 _atom_site_fract_x
 _atom_site_fract_y
 _atom_site_fract_z
 _atom_site_occupancy
  Dy  Dy0  1  0.000002  0.999998  0.659937  1
  Dy  Dy1  1  0.000002  0.999998  0.340063  1
  Dy  Dy2  1  0.999989  0.000011  0.000000  1
  Mn  Mn3  1  0.333313  0.666687  0.000000  1
  Co  Co4  1  0.499758  0.500242  0.500000  1
  Co  Co5  1  0.000562  0.500273  0.500000  1
  Co  Co6  1  0.499978  0.000006  0.205737  1
  Co  Co7  1  0.500019  0.499981  0.205740  1
  Co  Co8  1  0.999994  0.500022  0.205737  1
  Co  Co9  1  0.499978  0.000006  0.794263  1
  Co  Co10  1  0.500019  0.499981  0.794260  1
  Co  Co11  1  0.999994  0.500022  0.794263  1
  Co  Co12  1  0.499727  0.999438  0.500000  1
  Ge  Ge13  1  0.666696  0.333304  0.000000  1
  B  B14  1  0.333357  0.666643  0.651652  1
  B  B15  1  0.666628  0.333372  0.650161  1
  B  B16  1  0.666628  0.333372  0.349839  1
  B  B17  1  0.333357  0.666643  0.348348  1
