# generated using pymatgen
data_Ba8Si16Ni
_symmetry_space_group_name_H-M   'P 1'
_cell_length_a   6.73682200
_cell_length_b   9.26132219
_cell_length_c   11.56495672
_cell_angle_alpha   89.73838069
_cell_angle_beta   90.00000000
_cell_angle_gamma   90.00000000
_symmetry_Int_Tables_number   1
_chemical_formula_structural   Ba8Si16Ni
_chemical_formula_sum   'Ba8 Si16 Ni1'
_cell_volume   721.55185966
_cell_formula_units_Z   1
loop_
 _symmetry_equiv_pos_site_id
 _symmetry_equiv_pos_as_xyz
  1  'x, y, z'
loop_
 _atom_site_type_symbol
 _atom_site_label
 _atom_site_symmetry_multiplicity
 _atom_site_fract_x
 _atom_site_fract_y
 _atom_site_fract_z
 _atom_site_occupancy
  Ba  Ba0  1  0.500000  0.016544  0.690018  1
  Ba  Ba1  1  0.000000  0.486687  0.190108  1
  Ba  Ba2  1  0.000000  0.987306  0.309423  1
  Ba  Ba3  1  0.500000  0.512854  0.811047  1
  Ba  Ba4  1  0.500000  0.837477  0.089405  1
  Ba  Ba5  1  0.000000  0.651062  0.595918  1
  Ba  Ba6  1  0.000000  0.150299  0.905182  1
  Ba  Ba7  1  0.500000  0.357193  0.414096  1
  Si  Si8  1  0.500000  0.411870  0.091014  1
  Si  Si9  1  0.000000  0.092448  0.591023  1
  Si  Si10  1  0.000000  0.590706  0.908824  1
  Si  Si11  1  0.500000  0.902555  0.403427  1
  Si  Si12  1  0.500000  0.197561  0.965564  1
  Si  Si13  1  0.000000  0.304831  0.467503  1
  Si  Si14  1  0.000000  0.803090  0.032477  1
  Si  Si15  1  0.500000  0.703385  0.536076  1
  Si  Si16  1  0.313243  0.198157  0.143545  1
  Si  Si17  1  0.178562  0.307575  0.648656  1
  Si  Si18  1  0.821344  0.806555  0.851620  1
  Si  Si19  1  0.679880  0.686567  0.354823  1
  Si  Si20  1  0.178656  0.806555  0.851620  1
  Si  Si21  1  0.320120  0.686567  0.354823  1
  Si  Si22  1  0.686757  0.198157  0.143545  1
  Si  Si23  1  0.821438  0.307575  0.648656  1
  Ni  Ni24  1  0.500000  0.080522  0.276505  1
