# generated using pymatgen
data_Ho16NiHg4Ru3
_symmetry_space_group_name_H-M   'P 1'
_cell_length_a   9.51453807
_cell_length_b   9.51453871
_cell_length_c   9.51454019
_cell_angle_alpha   60.08606556
_cell_angle_beta   60.08606433
_cell_angle_gamma   60.08605971
_symmetry_Int_Tables_number   1
_chemical_formula_structural   Ho16NiHg4Ru3
_chemical_formula_sum   'Ho16 Ni1 Hg4 Ru3'
_cell_volume   610.23117650
_cell_formula_units_Z   1
loop_
 _symmetry_equiv_pos_site_id
 _symmetry_equiv_pos_as_xyz
  1  'x, y, z'
loop_
 _atom_site_type_symbol
 _atom_site_label
 _atom_site_symmetry_multiplicity
 _atom_site_fract_x
 _atom_site_fract_y
 _atom_site_fract_z
 _atom_site_occupancy
  Ho  Ho0  1  0.600781  0.600781  0.600781  1
  Ho  Ho1  1  0.598406  0.598406  0.201424  1
  Ho  Ho2  1  0.598406  0.201424  0.598406  1
  Ho  Ho3  1  0.201424  0.598406  0.598406  1
  Ho  Ho4  1  0.059992  0.439743  0.439743  1
  Ho  Ho5  1  0.438092  0.060085  0.060085  1
  Ho  Ho6  1  0.439743  0.059992  0.439743  1
  Ho  Ho7  1  0.060085  0.438092  0.060085  1
  Ho  Ho8  1  0.439743  0.439743  0.059992  1
  Ho  Ho9  1  0.060085  0.060085  0.438092  1
  Ho  Ho10  1  0.189545  0.810522  0.810522  1
  Ho  Ho11  1  0.815309  0.187177  0.187177  1
  Ho  Ho12  1  0.810522  0.189545  0.810522  1
  Ho  Ho13  1  0.187177  0.815309  0.187177  1
  Ho  Ho14  1  0.810522  0.810522  0.189545  1
  Ho  Ho15  1  0.187177  0.187177  0.815309  1
  Ni  Ni16  1  0.391309  0.391309  0.391309  1
  Hg  Hg17  1  0.833790  0.833790  0.833790  1
  Hg  Hg18  1  0.834932  0.834932  0.497224  1
  Hg  Hg19  1  0.834932  0.497224  0.834932  1
  Hg  Hg20  1  0.497224  0.834932  0.834932  1
  Ru  Ru21  1  0.392318  0.392318  0.826168  1
  Ru  Ru22  1  0.392318  0.826168  0.392318  1
  Ru  Ru23  1  0.826168  0.392318  0.392318  1
