# generated using pymatgen
data_Nd3Th(SbS)4
_symmetry_space_group_name_H-M   'P 1'
_cell_length_a   4.15003700
_cell_length_b   4.15359537
_cell_length_c   17.63827100
_cell_angle_alpha   90.20418309
_cell_angle_beta   90.00000000
_cell_angle_gamma   90.00000000
_symmetry_Int_Tables_number   1
_chemical_formula_structural   Nd3Th(SbS)4
_chemical_formula_sum   'Nd3 Th1 Sb4 S4'
_cell_volume   304.03907959
_cell_formula_units_Z   1
loop_
 _symmetry_equiv_pos_site_id
 _symmetry_equiv_pos_as_xyz
  1  'x, y, z'
loop_
 _atom_site_type_symbol
 _atom_site_label
 _atom_site_symmetry_multiplicity
 _atom_site_fract_x
 _atom_site_fract_y
 _atom_site_fract_z
 _atom_site_occupancy
  Nd  Nd0  1  0.750000  0.261969  0.346500  1
  Nd  Nd1  1  0.250000  0.760860  0.153129  1
  Nd  Nd2  1  0.250000  0.738809  0.650624  1
  Th  Th3  1  0.750000  0.239442  0.846825  1
  Sb  Sb4  1  0.250000  0.248421  0.500781  1
  Sb  Sb5  1  0.250000  0.250121  0.998855  1
  Sb  Sb6  1  0.750000  0.750697  0.500615  1
  Sb  Sb7  1  0.750000  0.748132  0.998760  1
  S  S8  1  0.750000  0.237263  0.688276  1
  S  S9  1  0.750000  0.262458  0.184256  1
  S  S10  1  0.250000  0.763152  0.314483  1
  S  S11  1  0.250000  0.738677  0.816896  1
