# generated using pymatgen
data_MnB2MoW
_symmetry_space_group_name_H-M   'P 1'
_cell_length_a   5.81610348
_cell_length_b   5.81610327
_cell_length_c   3.17259600
_cell_angle_alpha   90.00000000
_cell_angle_beta   90.00000000
_cell_angle_gamma   90.00598955
_symmetry_Int_Tables_number   1
_chemical_formula_structural   MnB2MoW
_chemical_formula_sum   'Mn2 B4 Mo2 W2'
_cell_volume   107.31958984
_cell_formula_units_Z   2
loop_
 _symmetry_equiv_pos_site_id
 _symmetry_equiv_pos_as_xyz
  1  'x, y, z'
loop_
 _atom_site_type_symbol
 _atom_site_label
 _atom_site_symmetry_multiplicity
 _atom_site_fract_x
 _atom_site_fract_y
 _atom_site_fract_z
 _atom_site_occupancy
  Mn  Mn0  1  0.000000  0.000000  0.000000  1
  Mn  Mn1  1  0.500000  0.500000  0.000000  1
  B  B2  1  0.113746  0.613746  0.000000  1
  B  B3  1  0.886254  0.386254  0.000000  1
  B  B4  1  0.613546  0.886454  0.000000  1
  B  B5  1  0.386454  0.113546  0.000000  1
  Mo  Mo6  1  0.177793  0.322207  0.500000  1
  Mo  Mo7  1  0.822207  0.677793  0.500000  1
  W  W8  1  0.678304  0.178304  0.500000  1
  W  W9  1  0.321696  0.821696  0.500000  1
