# generated using pymatgen
data_CaUSbO2
_symmetry_space_group_name_H-M   'P 1'
_cell_length_a   7.08319252
_cell_length_b   7.08319345
_cell_length_c   7.08319300
_cell_angle_alpha   148.25785738
_cell_angle_beta   148.25787012
_cell_angle_gamma   45.50486099
_symmetry_Int_Tables_number   1
_chemical_formula_structural   CaUSbO2
_chemical_formula_sum   'Ca1 U1 Sb1 O2'
_cell_volume   98.03828600
_cell_formula_units_Z   1
loop_
 _symmetry_equiv_pos_site_id
 _symmetry_equiv_pos_as_xyz
  1  'x, y, z'
loop_
 _atom_site_type_symbol
 _atom_site_label
 _atom_site_symmetry_multiplicity
 _atom_site_fract_x
 _atom_site_fract_y
 _atom_site_fract_z
 _atom_site_occupancy
  Ca  Ca0  1  0.345960  0.345960  0.000000  1
  U  U1  1  0.664193  0.664193  0.000000  1
  Sb  Sb2  1  0.006256  0.006256  0.000000  1
  O  O3  1  0.741795  0.241795  0.500000  1
  O  O4  1  0.241795  0.741795  0.500000  1
