# generated using pymatgen
data_Dy5Er11(In3Ni)2
_symmetry_space_group_name_H-M   'P 1'
_cell_length_a   10.37576915
_cell_length_b   10.37530656
_cell_length_c   6.93789703
_cell_angle_alpha   89.99203966
_cell_angle_beta   90.00552846
_cell_angle_gamma   120.01855934
_symmetry_Int_Tables_number   1
_chemical_formula_structural   Dy5Er11(In3Ni)2
_chemical_formula_sum   'Dy5 Er11 In6 Ni2'
_cell_volume   646.69345412
_cell_formula_units_Z   1
loop_
 _symmetry_equiv_pos_site_id
 _symmetry_equiv_pos_as_xyz
  1  'x, y, z'
loop_
 _atom_site_type_symbol
 _atom_site_label
 _atom_site_symmetry_multiplicity
 _atom_site_fract_x
 _atom_site_fract_y
 _atom_site_fract_z
 _atom_site_occupancy
  Dy  Dy0  1  0.533164  0.066638  0.793355  1
  Dy  Dy1  1  0.933358  0.466828  0.793345  1
  Dy  Dy2  1  0.533178  0.466794  0.793871  1
  Dy  Dy3  1  0.466804  0.933279  0.293345  1
  Dy  Dy4  1  0.066725  0.533224  0.293320  1
  Er  Er5  1  0.466479  0.533562  0.293950  1
  Er  Er6  1  0.822385  0.645447  0.498724  1
  Er  Er7  1  0.354595  0.177646  0.498675  1
  Er  Er8  1  0.822950  0.177070  0.498953  1
  Er  Er9  1  0.177426  0.354501  0.999420  1
  Er  Er10  1  0.645449  0.822555  0.999391  1
  Er  Er11  1  0.177114  0.822893  0.999056  1
  Er  Er12  1  0.666406  0.333581  0.181087  1
  Er  Er13  1  0.333533  0.666464  0.680722  1
  Er  Er14  1  0.000022  0.999965  0.778322  1
  Er  Er15  1  0.999995  0.999993  0.278536  1
  In  In16  1  0.837348  0.674729  0.038358  1
  In  In17  1  0.325275  0.162595  0.038281  1
  In  In18  1  0.837301  0.162634  0.038261  1
  In  In19  1  0.162964  0.325536  0.538061  1
  In  In20  1  0.674491  0.837072  0.538096  1
  In  In21  1  0.162633  0.837388  0.538295  1
  Ni  Ni22  1  0.666737  0.333264  0.565976  1
  Ni  Ni23  1  0.333668  0.666344  0.066504  1
