# generated using pymatgen
data_Sm2Mn3Fe9P7
_symmetry_space_group_name_H-M   'P 1'
_cell_length_a   9.09642007
_cell_length_b   9.09982864
_cell_length_c   3.66432700
_cell_angle_alpha   90.00000000
_cell_angle_beta   90.00000000
_cell_angle_gamma   119.93856009
_symmetry_Int_Tables_number   1
_chemical_formula_structural   Sm2Mn3Fe9P7
_chemical_formula_sum   'Sm2 Mn3 Fe9 P7'
_cell_volume   262.84342571
_cell_formula_units_Z   1
loop_
 _symmetry_equiv_pos_site_id
 _symmetry_equiv_pos_as_xyz
  1  'x, y, z'
loop_
 _atom_site_type_symbol
 _atom_site_label
 _atom_site_symmetry_multiplicity
 _atom_site_fract_x
 _atom_site_fract_y
 _atom_site_fract_z
 _atom_site_occupancy
  Sm  Sm0  1  0.666815  0.334069  0.499999  1
  Sm  Sm1  1  0.332765  0.666160  0.000000  1
  Mn  Mn2  1  0.216170  0.102686  0.499999  1
  Mn  Mn3  1  0.897585  0.113355  0.499999  1
  Mn  Mn4  1  0.886544  0.783926  0.499999  1
  Fe  Fe5  1  0.424149  0.054940  0.000000  1
  Fe  Fe6  1  0.945052  0.368664  0.000000  1
  Fe  Fe7  1  0.631732  0.576686  0.000000  1
  Fe  Fe8  1  0.153656  0.273817  0.000000  1
  Fe  Fe9  1  0.725356  0.879805  0.000000  1
  Fe  Fe10  1  0.120584  0.846530  0.000000  1
  Fe  Fe11  1  0.383782  0.432335  0.499999  1
  Fe  Fe12  1  0.567349  0.951515  0.499999  1
  Fe  Fe13  1  0.048658  0.615897  0.499999  1
  P  P14  1  0.113932  0.403711  0.499999  1
  P  P15  1  0.595614  0.708978  0.499999  1
  P  P16  1  0.288955  0.885305  0.499999  1
  P  P17  1  0.999866  0.999913  0.000000  1
  P  P18  1  0.411220  0.303373  0.000000  1
  P  P19  1  0.697831  0.109282  0.000000  1
  P  P20  1  0.892379  0.589048  0.000000  1
