# generated using pymatgen
data_Dy4B4SbIr9
_symmetry_space_group_name_H-M   'P 1'
_cell_length_a   10.90122857
_cell_length_b   10.90122855
_cell_length_c   10.90122893
_cell_angle_alpha   29.52571907
_cell_angle_beta   29.52571693
_cell_angle_gamma   29.52572175
_symmetry_Int_Tables_number   1
_chemical_formula_structural   Dy4B4SbIr9
_chemical_formula_sum   'Dy4 B4 Sb1 Ir9'
_cell_volume   278.49444039
_cell_formula_units_Z   1
loop_
 _symmetry_equiv_pos_site_id
 _symmetry_equiv_pos_as_xyz
  1  'x, y, z'
loop_
 _atom_site_type_symbol
 _atom_site_label
 _atom_site_symmetry_multiplicity
 _atom_site_fract_x
 _atom_site_fract_y
 _atom_site_fract_z
 _atom_site_occupancy
  Dy  Dy0  1  0.148224  0.148224  0.148224  1
  Dy  Dy1  1  0.950910  0.950910  0.950910  1
  Dy  Dy2  1  0.851776  0.851776  0.851776  1
  Dy  Dy3  1  0.049090  0.049090  0.049090  1
  B  B4  1  0.616462  0.616462  0.616462  1
  B  B5  1  0.716909  0.716909  0.716909  1
  B  B6  1  0.383538  0.383538  0.383538  1
  B  B7  1  0.283091  0.283091  0.283091  1
  Sb  Sb8  1  0.500000  0.500000  0.500000  1
  Ir  Ir9  1  0.403138  0.906130  0.403138  1
  Ir  Ir10  1  0.906130  0.403138  0.403138  1
  Ir  Ir11  1  0.500000  0.500000  0.000000  1
  Ir  Ir12  1  0.500000  0.000000  0.500000  1
  Ir  Ir13  1  0.000000  0.500000  0.500000  1
  Ir  Ir14  1  0.596862  0.093870  0.596862  1
  Ir  Ir15  1  0.596862  0.596862  0.093870  1
  Ir  Ir16  1  0.093870  0.596862  0.596862  1
  Ir  Ir17  1  0.403138  0.403138  0.906130  1
