# generated using pymatgen
data_Lu20CoBi8As3
_symmetry_space_group_name_H-M   'P 1'
_cell_length_a   7.87679659
_cell_length_b   9.01684100
_cell_length_c   11.85851711
_cell_angle_alpha   90.00000000
_cell_angle_beta   90.60855616
_cell_angle_gamma   90.00000000
_symmetry_Int_Tables_number   1
_chemical_formula_structural   Lu20CoBi8As3
_chemical_formula_sum   'Lu20 Co1 Bi8 As3'
_cell_volume   842.18970700
_cell_formula_units_Z   1
loop_
 _symmetry_equiv_pos_site_id
 _symmetry_equiv_pos_as_xyz
  1  'x, y, z'
loop_
 _atom_site_type_symbol
 _atom_site_label
 _atom_site_symmetry_multiplicity
 _atom_site_fract_x
 _atom_site_fract_y
 _atom_site_fract_z
 _atom_site_occupancy
  Lu  Lu0  1  0.356340  0.750000  0.692637  1
  Lu  Lu1  1  0.660075  0.250000  0.288828  1
  Lu  Lu2  1  0.840958  0.250000  0.788060  1
  Lu  Lu3  1  0.166527  0.750000  0.220883  1
  Lu  Lu4  1  0.868087  0.750000  0.797583  1
  Lu  Lu5  1  0.133757  0.250000  0.206982  1
  Lu  Lu6  1  0.365248  0.250000  0.707769  1
  Lu  Lu7  1  0.611654  0.750000  0.302901  1
  Lu  Lu8  1  0.676534  0.565209  0.559897  1
  Lu  Lu9  1  0.322409  0.465431  0.438115  1
  Lu  Lu10  1  0.181930  0.442540  0.934664  1
  Lu  Lu11  1  0.322409  0.034569  0.438115  1
  Lu  Lu12  1  0.813187  0.556818  0.065601  1
  Lu  Lu13  1  0.676534  0.934791  0.559897  1
  Lu  Lu14  1  0.813187  0.943182  0.065601  1
  Lu  Lu15  1  0.181930  0.057460  0.934664  1
  Lu  Lu16  1  0.055851  0.750000  0.499338  1
  Lu  Lu17  1  0.972486  0.250000  0.497185  1
  Lu  Lu18  1  0.534263  0.250000  0.995463  1
  Lu  Lu19  1  0.458432  0.750000  0.999748  1
  Co  Co20  1  0.416136  0.750000  0.481208  1
  Bi  Bi21  1  0.574271  0.510678  0.826229  1
  Bi  Bi22  1  0.424932  0.485792  0.169164  1
  Bi  Bi23  1  0.068908  0.490479  0.675751  1
  Bi  Bi24  1  0.424932  0.014208  0.169164  1
  Bi  Bi25  1  0.922546  0.510643  0.325097  1
  Bi  Bi26  1  0.574271  0.989322  0.826229  1
  Bi  Bi27  1  0.922546  0.989357  0.325097  1
  Bi  Bi28  1  0.068908  0.009521  0.675751  1
  As  As29  1  0.084493  0.750000  0.987835  1
  As  As30  1  0.911558  0.250000  0.020848  1
  As  As31  1  0.594701  0.250000  0.523692  1
