# generated using pymatgen
data_TbErZn2(Co3B)2
_symmetry_space_group_name_H-M   'P 1'
_cell_length_a   5.10874300
_cell_length_b   5.10673278
_cell_length_c   6.81873400
_cell_angle_alpha   90.00000000
_cell_angle_beta   90.00000000
_cell_angle_gamma   120.01304183
_symmetry_Int_Tables_number   1
_chemical_formula_structural   TbErZn2(Co3B)2
_chemical_formula_sum   'Tb1 Er1 Zn2 Co6 B2'
_cell_volume   154.04034417
_cell_formula_units_Z   1
loop_
 _symmetry_equiv_pos_site_id
 _symmetry_equiv_pos_as_xyz
  1  'x, y, z'
loop_
 _atom_site_type_symbol
 _atom_site_label
 _atom_site_symmetry_multiplicity
 _atom_site_fract_x
 _atom_site_fract_y
 _atom_site_fract_z
 _atom_site_occupancy
  Tb  Tb0  1  0.999973  0.000000  0.000000  1
  Er  Er1  1  0.000004  0.000000  0.500000  1
  Zn  Zn2  1  0.333377  0.666799  0.000000  1
  Zn  Zn3  1  0.666578  0.333201  0.000000  1
  Co  Co4  1  0.499988  0.000000  0.297507  1
  Co  Co5  1  0.499985  0.500002  0.297525  1
  Co  Co6  1  0.999981  0.499998  0.297525  1
  Co  Co7  1  0.499988  0.000000  0.702493  1
  Co  Co8  1  0.499985  0.500002  0.702475  1
  Co  Co9  1  0.999981  0.499998  0.702475  1
  B  B10  1  0.333310  0.666660  0.500000  1
  B  B11  1  0.666649  0.333340  0.500000  1
