# generated using pymatgen
data_Sc8TiV11Si15As
_symmetry_space_group_name_H-M   'P 1'
_cell_length_a   6.65530667
_cell_length_b   6.65775308
_cell_length_c   12.31331017
_cell_angle_alpha   89.90878901
_cell_angle_beta   90.04706106
_cell_angle_gamma   90.04574193
_symmetry_Int_Tables_number   1
_chemical_formula_structural   Sc8TiV11Si15As
_chemical_formula_sum   'Sc8 Ti1 V11 Si15 As1'
_cell_volume   545.59419534
_cell_formula_units_Z   1
loop_
 _symmetry_equiv_pos_site_id
 _symmetry_equiv_pos_as_xyz
  1  'x, y, z'
loop_
 _atom_site_type_symbol
 _atom_site_label
 _atom_site_symmetry_multiplicity
 _atom_site_fract_x
 _atom_site_fract_y
 _atom_site_fract_z
 _atom_site_occupancy
  Sc  Sc0  1  0.002311  0.662845  0.029603  1
  Sc  Sc1  1  0.837422  0.502481  0.281284  1
  Sc  Sc2  1  0.160431  0.497531  0.778435  1
  Sc  Sc3  1  0.502130  0.837688  0.718830  1
  Sc  Sc4  1  0.500578  0.163954  0.222478  1
  Sc  Sc5  1  0.998118  0.337825  0.530338  1
  Sc  Sc6  1  0.662982  0.000834  0.969535  1
  Sc  Sc7  1  0.337983  0.997929  0.469782  1
  Ti  Ti8  1  0.332289  0.334541  0.999907  1
  V  V9  1  0.166901  0.831913  0.252241  1
  V  V10  1  0.832252  0.167174  0.748876  1
  V  V11  1  0.668139  0.668510  0.500124  1
  V  V12  1  0.002829  0.158700  0.128891  1
  V  V13  1  0.342750  0.507944  0.377623  1
  V  V14  1  0.658947  0.491476  0.875522  1
  V  V15  1  0.507589  0.342665  0.622404  1
  V  V16  1  0.493209  0.656090  0.123676  1
  V  V17  1  0.992337  0.842888  0.626617  1
  V  V18  1  0.156011  0.005497  0.871723  1
  V  V19  1  0.843114  0.992320  0.373546  1
  Si  Si20  1  0.540266  0.793659  0.315128  1
  Si  Si21  1  0.461994  0.204840  0.811790  1
  Si  Si22  1  0.793386  0.540105  0.684833  1
  Si  Si23  1  0.204320  0.462245  0.188281  1
  Si  Si24  1  0.706138  0.039937  0.564182  1
  Si  Si25  1  0.957555  0.293788  0.934485  1
  Si  Si26  1  0.039823  0.706082  0.436293  1
  Si  Si27  1  0.706733  0.370688  0.070766  1
  Si  Si28  1  0.129152  0.204836  0.321332  1
  Si  Si29  1  0.869597  0.796043  0.819439  1
  Si  Si30  1  0.203813  0.129126  0.679271  1
  Si  Si31  1  0.796152  0.868886  0.180579  1
  Si  Si32  1  0.296544  0.629875  0.570182  1
  Si  Si33  1  0.371848  0.700406  0.925181  1
  Si  Si34  1  0.630049  0.296926  0.430275  1
  As  As35  1  0.294305  0.961750  0.066549  1
