# generated using pymatgen
data_Y4Er4Re(B8Ir)3
_symmetry_space_group_name_H-M   'P 1'
_cell_length_a   3.65311100
_cell_length_b   9.16420058
_cell_length_c   11.50963301
_cell_angle_alpha   90.12476415
_cell_angle_beta   90.00000000
_cell_angle_gamma   90.00000000
_symmetry_Int_Tables_number   1
_chemical_formula_structural   Y4Er4Re(B8Ir)3
_chemical_formula_sum   'Y4 Er4 Re1 B24 Ir3'
_cell_volume   385.31676129
_cell_formula_units_Z   1
loop_
 _symmetry_equiv_pos_site_id
 _symmetry_equiv_pos_as_xyz
  1  'x, y, z'
loop_
 _atom_site_type_symbol
 _atom_site_label
 _atom_site_symmetry_multiplicity
 _atom_site_fract_x
 _atom_site_fract_y
 _atom_site_fract_z
 _atom_site_occupancy
  Y  Y0  1  0.000000  0.320632  0.413609  1
  Y  Y1  1  0.000000  0.683068  0.590438  1
  Y  Y2  1  0.000000  0.820615  0.082973  1
  Y  Y3  1  0.000000  0.176066  0.912123  1
  Er  Er4  1  0.000000  0.943751  0.373175  1
  Er  Er5  1  0.000000  0.053751  0.626295  1
  Er  Er6  1  0.000000  0.443511  0.126125  1
  Er  Er7  1  0.000000  0.557316  0.874963  1
  Re  Re8  1  0.000000  0.862389  0.821096  1
  B  B9  1  0.500000  0.553712  0.433897  1
  B  B10  1  0.500000  0.447482  0.566938  1
  B  B11  1  0.500000  0.053560  0.066658  1
  B  B12  1  0.500000  0.946615  0.932953  1
  B  B13  1  0.500000  0.750658  0.420155  1
  B  B14  1  0.500000  0.250217  0.579456  1
  B  B15  1  0.500000  0.249286  0.079415  1
  B  B16  1  0.500000  0.751660  0.919613  1
  B  B17  1  0.500000  0.792070  0.265522  1
  B  B18  1  0.500000  0.207886  0.732974  1
  B  B19  1  0.500000  0.292814  0.234529  1
  B  B20  1  0.500000  0.708131  0.766459  1
  B  B21  1  0.500000  0.630771  0.184610  1
  B  B22  1  0.500000  0.368603  0.815575  1
  B  B23  1  0.500000  0.131743  0.315393  1
  B  B24  1  0.500000  0.869155  0.685555  1
  B  B25  1  0.500000  0.981872  0.213254  1
  B  B26  1  0.500000  0.017166  0.786179  1
  B  B27  1  0.500000  0.481430  0.287068  1
  B  B28  1  0.500000  0.517922  0.714598  1
  B  B29  1  0.500000  0.607670  0.031009  1
  B  B30  1  0.500000  0.389811  0.970351  1
  B  B31  1  0.500000  0.108848  0.469419  1
  B  B32  1  0.500000  0.892138  0.528516  1
  Ir  Ir33  1  0.000000  0.637419  0.322157  1
  Ir  Ir34  1  0.000000  0.362598  0.678304  1
  Ir  Ir35  1  0.000000  0.137660  0.178647  1
