# generated using pymatgen
data_MnNb12Zn2Ga8MoN4
_symmetry_space_group_name_H-M   'P 1'
_cell_length_a   8.35707855
_cell_length_b   8.35707847
_cell_length_c   8.35708000
_cell_angle_alpha   59.43582115
_cell_angle_beta   59.43582149
_cell_angle_gamma   59.43583184
_symmetry_Int_Tables_number   1
_chemical_formula_structural   MnNb12Zn2Ga8MoN4
_chemical_formula_sum   'Mn1 Nb12 Zn2 Ga8 Mo1 N4'
_cell_volume   407.41583496
_cell_formula_units_Z   1
loop_
 _symmetry_equiv_pos_site_id
 _symmetry_equiv_pos_as_xyz
  1  'x, y, z'
loop_
 _atom_site_type_symbol
 _atom_site_label
 _atom_site_symmetry_multiplicity
 _atom_site_fract_x
 _atom_site_fract_y
 _atom_site_fract_z
 _atom_site_occupancy
  Mn  Mn0  1  0.125000  0.625000  0.625000  1
  Nb  Nb1  1  0.444434  0.442871  0.055196  1
  Nb  Nb2  1  0.057048  0.442250  0.058401  1
  Nb  Nb3  1  0.445698  0.055291  0.055291  1
  Nb  Nb4  1  0.057048  0.058401  0.442250  1
  Nb  Nb5  1  0.444434  0.055196  0.442871  1
  Nb  Nb6  1  0.056732  0.440892  0.440892  1
  Nb  Nb7  1  0.805566  0.807129  0.194804  1
  Nb  Nb8  1  0.192952  0.807750  0.191599  1
  Nb  Nb9  1  0.804302  0.194709  0.194709  1
  Nb  Nb10  1  0.192952  0.191599  0.807750  1
  Nb  Nb11  1  0.805566  0.194804  0.807129  1
  Nb  Nb12  1  0.193268  0.809108  0.809108  1
  Zn  Zn13  1  0.625000  0.625000  0.125000  1
  Zn  Zn14  1  0.625000  0.125000  0.625000  1
  Ga  Ga15  1  0.843986  0.835672  0.487541  1
  Ga  Ga16  1  0.843986  0.487541  0.835672  1
  Ga  Ga17  1  0.487023  0.839154  0.839154  1
  Ga  Ga18  1  0.844572  0.835283  0.835283  1
  Ga  Ga19  1  0.406014  0.414328  0.762459  1
  Ga  Ga20  1  0.406014  0.762459  0.414328  1
  Ga  Ga21  1  0.762977  0.410846  0.410846  1
  Ga  Ga22  1  0.405428  0.414717  0.414717  1
  Mo  Mo23  1  0.625000  0.625000  0.625000  1
  N  N24  1  0.125000  0.125000  0.625000  1
  N  N25  1  0.125000  0.625000  0.125000  1
  N  N26  1  0.625000  0.125000  0.125000  1
  N  N27  1  0.125000  0.125000  0.125000  1
