# generated using pymatgen
data_Zr2Ta(TiGe2)2
_symmetry_space_group_name_H-M   'P 1'
_cell_length_a   6.84368900
_cell_length_b   6.96980600
_cell_length_c   13.16632200
_cell_angle_alpha   90.00000000
_cell_angle_beta   90.00000000
_cell_angle_gamma   90.00000000
_symmetry_Int_Tables_number   1
_chemical_formula_structural   Zr2Ta(TiGe2)2
_chemical_formula_sum   'Zr8 Ta4 Ti8 Ge16'
_cell_volume   628.02282430
_cell_formula_units_Z   4
loop_
 _symmetry_equiv_pos_site_id
 _symmetry_equiv_pos_as_xyz
  1  'x, y, z'
loop_
 _atom_site_type_symbol
 _atom_site_label
 _atom_site_symmetry_multiplicity
 _atom_site_fract_x
 _atom_site_fract_y
 _atom_site_fract_z
 _atom_site_occupancy
  Zr  Zr0  1  0.491463  0.674120  0.094306  1
  Zr  Zr1  1  0.991463  0.825880  0.405694  1
  Zr  Zr2  1  0.508537  0.325880  0.594306  1
  Zr  Zr3  1  0.008537  0.174120  0.905694  1
  Zr  Zr4  1  0.508537  0.325880  0.905694  1
  Zr  Zr5  1  0.008537  0.174120  0.594306  1
  Zr  Zr6  1  0.491463  0.674120  0.405694  1
  Zr  Zr7  1  0.991463  0.825880  0.094306  1
  Ta  Ta8  1  0.332783  0.006220  0.250000  1
  Ta  Ta9  1  0.832783  0.493780  0.250000  1
  Ta  Ta10  1  0.667217  0.993780  0.750000  1
  Ta  Ta11  1  0.167217  0.506220  0.750000  1
  Ti  Ti12  1  0.660356  0.165827  0.124949  1
  Ti  Ti13  1  0.160356  0.334173  0.375051  1
  Ti  Ti14  1  0.339644  0.834173  0.624949  1
  Ti  Ti15  1  0.839644  0.665827  0.875051  1
  Ti  Ti16  1  0.339644  0.834173  0.875051  1
  Ti  Ti17  1  0.839644  0.665827  0.624949  1
  Ti  Ti18  1  0.660356  0.165827  0.375051  1
  Ti  Ti19  1  0.160356  0.334173  0.124949  1
  Ge  Ge20  1  0.694602  0.857988  0.250000  1
  Ge  Ge21  1  0.194602  0.642012  0.250000  1
  Ge  Ge22  1  0.305398  0.142012  0.750000  1
  Ge  Ge23  1  0.805398  0.357988  0.750000  1
  Ge  Ge24  1  0.680872  0.958149  0.959881  1
  Ge  Ge25  1  0.180872  0.541851  0.540119  1
  Ge  Ge26  1  0.319128  0.041851  0.459881  1
  Ge  Ge27  1  0.819128  0.458149  0.040119  1
  Ge  Ge28  1  0.319128  0.041851  0.040119  1
  Ge  Ge29  1  0.819128  0.458149  0.459881  1
  Ge  Ge30  1  0.680872  0.958149  0.540119  1
  Ge  Ge31  1  0.180872  0.541851  0.959881  1
  Ge  Ge32  1  0.461091  0.377917  0.250000  1
  Ge  Ge33  1  0.961091  0.122083  0.250000  1
  Ge  Ge34  1  0.538909  0.622083  0.750000  1
  Ge  Ge35  1  0.038909  0.877917  0.750000  1
