# generated using pymatgen
data_PrCuPtO4
_symmetry_space_group_name_H-M   'P 1'
_cell_length_a   6.61440156
_cell_length_b   6.61440116
_cell_length_c   6.48359138
_cell_angle_alpha   127.50043403
_cell_angle_beta   125.04106785
_cell_angle_gamma   80.81999646
_symmetry_Int_Tables_number   1
_chemical_formula_structural   PrCuPtO4
_chemical_formula_sum   'Pr2 Cu2 Pt2 O8'
_cell_volume   176.19156993
_cell_formula_units_Z   2
loop_
 _symmetry_equiv_pos_site_id
 _symmetry_equiv_pos_as_xyz
  1  'x, y, z'
loop_
 _atom_site_type_symbol
 _atom_site_label
 _atom_site_symmetry_multiplicity
 _atom_site_fract_x
 _atom_site_fract_y
 _atom_site_fract_z
 _atom_site_occupancy
  Pr  Pr0  1  0.999967  0.999967  0.000000  1
  Pr  Pr1  1  0.750033  0.250033  0.500000  1
  Cu  Cu2  1  0.875000  0.625000  0.250000  1
  Cu  Cu3  1  0.375000  0.625000  0.750000  1
  Pt  Pt4  1  0.375000  0.125000  0.750000  1
  Pt  Pt5  1  0.375000  0.625000  0.250000  1
  O  O6  1  0.344022  0.974949  0.927787  1
  O  O7  1  0.702838  0.833765  0.427787  1
  O  O8  1  0.751945  0.306786  0.151055  1
  O  O9  1  0.594269  0.649110  0.651055  1
  O  O10  1  0.155731  0.600890  0.848945  1
  O  O11  1  0.998055  0.943214  0.348945  1
  O  O12  1  0.047162  0.416235  0.072213  1
  O  O13  1  0.405978  0.275051  0.572213  1
