# generated using pymatgen
data_SmTh7(AlRu)8
_symmetry_space_group_name_H-M   'P 1'
_cell_length_a   4.14872500
_cell_length_b   7.27981067
_cell_length_c   16.15285706
_cell_angle_alpha   89.58151719
_cell_angle_beta   90.00000000
_cell_angle_gamma   90.00000000
_symmetry_Int_Tables_number   1
_chemical_formula_structural   SmTh7(AlRu)8
_chemical_formula_sum   'Sm1 Th7 Al8 Ru8'
_cell_volume   487.83448628
_cell_formula_units_Z   1
loop_
 _symmetry_equiv_pos_site_id
 _symmetry_equiv_pos_as_xyz
  1  'x, y, z'
loop_
 _atom_site_type_symbol
 _atom_site_label
 _atom_site_symmetry_multiplicity
 _atom_site_fract_x
 _atom_site_fract_y
 _atom_site_fract_z
 _atom_site_occupancy
  Sm  Sm0  1  0.250000  0.540873  0.717085  1
  Th  Th1  1  0.750000  0.958804  0.217939  1
  Th  Th2  1  0.250000  0.166241  0.562825  1
  Th  Th3  1  0.750000  0.833596  0.439386  1
  Th  Th4  1  0.750000  0.458900  0.282277  1
  Th  Th5  1  0.750000  0.334016  0.061019  1
  Th  Th6  1  0.250000  0.666285  0.936764  1
  Th  Th7  1  0.250000  0.039574  0.781203  1
  Al  Al8  1  0.750000  0.503166  0.564886  1
  Al  Al9  1  0.750000  0.367555  0.847187  1
  Al  Al10  1  0.750000  0.005241  0.937886  1
  Al  Al11  1  0.750000  0.860115  0.649756  1
  Al  Al12  1  0.250000  0.497164  0.438987  1
  Al  Al13  1  0.250000  0.996425  0.061162  1
  Al  Al14  1  0.250000  0.635801  0.148921  1
  Al  Al15  1  0.250000  0.136503  0.351662  1
  Ru  Ru16  1  0.750000  0.752082  0.820070  1
  Ru  Ru17  1  0.250000  0.240985  0.934821  1
  Ru  Ru18  1  0.750000  0.261644  0.436291  1
  Ru  Ru19  1  0.250000  0.755975  0.315473  1
  Ru  Ru20  1  0.750000  0.761150  0.064527  1
  Ru  Ru21  1  0.750000  0.232258  0.684247  1
  Ru  Ru22  1  0.250000  0.253134  0.183662  1
  Ru  Ru23  1  0.250000  0.742513  0.561963  1
