# generated using pymatgen
data_Ca2TiPt3
_symmetry_space_group_name_H-M   'P 1'
_cell_length_a   5.28428525
_cell_length_b   5.28427624
_cell_length_c   5.28425682
_cell_angle_alpha   65.22544214
_cell_angle_beta   65.22541950
_cell_angle_gamma   65.22596169
_symmetry_Int_Tables_number   1
_chemical_formula_structural   Ca2TiPt3
_chemical_formula_sum   'Ca2 Ti1 Pt3'
_cell_volume   116.22000446
_cell_formula_units_Z   1
loop_
 _symmetry_equiv_pos_site_id
 _symmetry_equiv_pos_as_xyz
  1  'x, y, z'
loop_
 _atom_site_type_symbol
 _atom_site_label
 _atom_site_symmetry_multiplicity
 _atom_site_fract_x
 _atom_site_fract_y
 _atom_site_fract_z
 _atom_site_occupancy
  Ca  Ca0  1  0.375333  0.375333  0.375335  1
  Ca  Ca1  1  0.624667  0.624667  0.624665  1
  Ti  Ti2  1  0.000000  0.000000  0.000000  1
  Pt  Pt3  1  0.500000  0.000000  0.000000  1
  Pt  Pt4  1  0.000000  0.500000  0.000000  1
  Pt  Pt5  1  0.000000  0.000000  0.500000  1
