# generated using pymatgen
data_Ho8Si12AgRh3
_symmetry_space_group_name_H-M   'P 1'
_cell_length_a   8.20140500
_cell_length_b   8.20140632
_cell_length_c   7.86225200
_cell_angle_alpha   90.00013256
_cell_angle_beta   89.99990009
_cell_angle_gamma   120.00006592
_symmetry_Int_Tables_number   1
_chemical_formula_structural   Ho8Si12AgRh3
_chemical_formula_sum   'Ho8 Si12 Ag1 Rh3'
_cell_volume   457.98777962
_cell_formula_units_Z   1
loop_
 _symmetry_equiv_pos_site_id
 _symmetry_equiv_pos_as_xyz
  1  'x, y, z'
loop_
 _atom_site_type_symbol
 _atom_site_label
 _atom_site_symmetry_multiplicity
 _atom_site_fract_x
 _atom_site_fract_y
 _atom_site_fract_z
 _atom_site_occupancy
  Ho  Ho0  1  0.000001  0.000001  0.249430  1
  Ho  Ho1  1  0.000000  0.000000  0.753078  1
  Ho  Ho2  1  0.512111  0.487887  0.244866  1
  Ho  Ho3  1  0.512112  0.024224  0.244866  1
  Ho  Ho4  1  0.975776  0.487887  0.244866  1
  Ho  Ho5  1  0.493689  0.506311  0.753858  1
  Ho  Ho6  1  0.493690  0.987380  0.753858  1
  Ho  Ho7  1  0.012621  0.506311  0.753858  1
  Si  Si8  1  0.160527  0.839473  0.501923  1
  Si  Si9  1  0.160527  0.321055  0.501924  1
  Si  Si10  1  0.678945  0.839472  0.501923  1
  Si  Si11  1  0.831308  0.168691  0.500138  1
  Si  Si12  1  0.831308  0.662617  0.500138  1
  Si  Si13  1  0.337384  0.168692  0.500138  1
  Si  Si14  1  0.833943  0.166057  0.998946  1
  Si  Si15  1  0.833943  0.667887  0.998946  1
  Si  Si16  1  0.332114  0.166057  0.998946  1
  Si  Si17  1  0.167140  0.832860  0.002002  1
  Si  Si18  1  0.167140  0.334280  0.002002  1
  Si  Si19  1  0.665720  0.832860  0.002002  1
  Ag  Ag20  1  0.333332  0.666666  0.462256  1
  Rh  Rh21  1  0.666667  0.333333  0.536638  1
  Rh  Rh22  1  0.666667  0.333334  0.964999  1
  Rh  Rh23  1  0.333333  0.666667  0.028400  1
