# generated using pymatgen
data_Y3Zr(Ga3Rh)6
_symmetry_space_group_name_H-M   'P 1'
_cell_length_a   7.56398009
_cell_length_b   7.54830467
_cell_length_c   9.48063100
_cell_angle_alpha   90.00000000
_cell_angle_beta   90.00000000
_cell_angle_gamma   119.85236664
_symmetry_Int_Tables_number   1
_chemical_formula_structural   Y3Zr(Ga3Rh)6
_chemical_formula_sum   'Y3 Zr1 Ga18 Rh6'
_cell_volume   469.47430956
_cell_formula_units_Z   1
loop_
 _symmetry_equiv_pos_site_id
 _symmetry_equiv_pos_as_xyz
  1  'x, y, z'
loop_
 _atom_site_type_symbol
 _atom_site_label
 _atom_site_symmetry_multiplicity
 _atom_site_fract_x
 _atom_site_fract_y
 _atom_site_fract_z
 _atom_site_occupancy
  Y  Y0  1  0.004125  0.330926  0.750000  1
  Y  Y1  1  0.669370  0.997470  0.250000  1
  Y  Y2  1  0.331393  0.003686  0.750000  1
  Zr  Zr3  1  0.996498  0.667994  0.250000  1
  Ga  Ga4  1  0.123785  0.122255  0.250000  1
  Ga  Ga5  1  0.873428  0.873294  0.750000  1
  Ga  Ga6  1  0.999441  0.337233  0.082257  1
  Ga  Ga7  1  0.000663  0.665605  0.922533  1
  Ga  Ga8  1  0.000663  0.665605  0.577467  1
  Ga  Ga9  1  0.331268  0.997127  0.417640  1
  Ga  Ga10  1  0.999441  0.337233  0.417743  1
  Ga  Ga11  1  0.665716  0.999945  0.579427  1
  Ga  Ga12  1  0.665716  0.999945  0.920573  1
  Ga  Ga13  1  0.331268  0.997127  0.082360  1
  Ga  Ga14  1  0.333004  0.332910  0.564682  1
  Ga  Ga15  1  0.669579  0.667469  0.432172  1
  Ga  Ga16  1  0.669579  0.667469  0.067828  1
  Ga  Ga17  1  0.333004  0.332910  0.935318  1
  Ga  Ga18  1  0.336533  0.548454  0.250000  1
  Ga  Ga19  1  0.661895  0.453374  0.750000  1
  Ga  Ga20  1  0.551693  0.340867  0.250000  1
  Ga  Ga21  1  0.452092  0.660850  0.750000  1
  Rh  Rh22  1  0.672381  0.329090  0.000799  1
  Rh  Rh23  1  0.327721  0.671903  0.001448  1
  Rh  Rh24  1  0.327721  0.671903  0.498552  1
  Rh  Rh25  1  0.672381  0.329090  0.499201  1
  Rh  Rh26  1  0.999818  0.999132  0.000877  1
  Rh  Rh27  1  0.999818  0.999132  0.499123  1
