# generated using pymatgen
data_CaNd2(As3Pd10)2
_symmetry_space_group_name_H-M   'P 1'
_cell_length_a   8.93924812
_cell_length_b   8.93924776
_cell_length_c   8.93924800
_cell_angle_alpha   59.99999911
_cell_angle_beta   60.00000045
_cell_angle_gamma   59.99999683
_symmetry_Int_Tables_number   1
_chemical_formula_structural   CaNd2(As3Pd10)2
_chemical_formula_sum   'Ca1 Nd2 As6 Pd20'
_cell_volume   505.11229822
_cell_formula_units_Z   1
loop_
 _symmetry_equiv_pos_site_id
 _symmetry_equiv_pos_as_xyz
  1  'x, y, z'
loop_
 _atom_site_type_symbol
 _atom_site_label
 _atom_site_symmetry_multiplicity
 _atom_site_fract_x
 _atom_site_fract_y
 _atom_site_fract_z
 _atom_site_occupancy
  Ca  Ca0  1  0.000000  0.000000  0.000000  1
  Nd  Nd1  1  0.250000  0.250000  0.250000  1
  Nd  Nd2  1  0.750000  0.750000  0.750000  1
  As  As3  1  0.737630  0.262370  0.262370  1
  As  As4  1  0.262370  0.737630  0.737630  1
  As  As5  1  0.262370  0.737630  0.262370  1
  As  As6  1  0.737630  0.262370  0.737630  1
  As  As7  1  0.262370  0.262370  0.737630  1
  As  As8  1  0.737630  0.737630  0.262370  1
  Pd  Pd9  1  0.384362  0.384362  0.384362  1
  Pd  Pd10  1  0.615638  0.615638  0.615638  1
  Pd  Pd11  1  0.384362  0.384362  0.846916  1
  Pd  Pd12  1  0.384362  0.846916  0.384362  1
  Pd  Pd13  1  0.615638  0.615638  0.153084  1
  Pd  Pd14  1  0.615638  0.153084  0.615638  1
  Pd  Pd15  1  0.846916  0.384362  0.384362  1
  Pd  Pd16  1  0.153084  0.615638  0.615638  1
  Pd  Pd17  1  0.350024  0.000000  0.000000  1
  Pd  Pd18  1  0.649976  0.000000  0.000000  1
  Pd  Pd19  1  0.000000  0.350024  0.649976  1
  Pd  Pd20  1  0.000000  0.649976  0.350024  1
  Pd  Pd21  1  0.000000  0.350024  0.000000  1
  Pd  Pd22  1  0.649976  0.000000  0.350024  1
  Pd  Pd23  1  0.000000  0.649976  0.000000  1
  Pd  Pd24  1  0.350024  0.000000  0.649976  1
  Pd  Pd25  1  0.000000  0.000000  0.350024  1
  Pd  Pd26  1  0.000000  0.000000  0.649976  1
  Pd  Pd27  1  0.649976  0.350024  0.000000  1
  Pd  Pd28  1  0.350024  0.649976  0.000000  1
