# generated using pymatgen
data_Ho15TmInAg3Rh4
_symmetry_space_group_name_H-M   'P 1'
_cell_length_a   9.52985767
_cell_length_b   9.52985911
_cell_length_c   9.50256822
_cell_angle_alpha   59.84470565
_cell_angle_beta   59.84470221
_cell_angle_gamma   59.95605543
_symmetry_Int_Tables_number   1
_chemical_formula_structural   Ho15TmInAg3Rh4
_chemical_formula_sum   'Ho15 Tm1 In1 Ag3 Rh4'
_cell_volume   608.59967307
_cell_formula_units_Z   1
loop_
 _symmetry_equiv_pos_site_id
 _symmetry_equiv_pos_as_xyz
  1  'x, y, z'
loop_
 _atom_site_type_symbol
 _atom_site_label
 _atom_site_symmetry_multiplicity
 _atom_site_fract_x
 _atom_site_fract_y
 _atom_site_fract_z
 _atom_site_occupancy
  Ho  Ho0  1  0.063152  0.063152  0.437639  1
  Ho  Ho1  1  0.435913  0.061903  0.438590  1
  Ho  Ho2  1  0.061847  0.435257  0.068280  1
  Ho  Ho3  1  0.053455  0.647873  0.649155  1
  Ho  Ho4  1  0.435419  0.435419  0.067760  1
  Ho  Ho5  1  0.647873  0.053455  0.649155  1
  Ho  Ho6  1  0.188786  0.813494  0.187675  1
  Ho  Ho7  1  0.190183  0.190183  0.811085  1
  Ho  Ho8  1  0.812183  0.812183  0.188706  1
  Ho  Ho9  1  0.435257  0.061847  0.068280  1
  Ho  Ho10  1  0.813494  0.188786  0.187675  1
  Ho  Ho11  1  0.061903  0.435913  0.438590  1
  Ho  Ho12  1  0.808972  0.190772  0.811764  1
  Ho  Ho13  1  0.190772  0.808972  0.811764  1
  Ho  Ho14  1  0.647764  0.647764  0.054393  1
  Tm  Tm15  1  0.648971  0.648971  0.649274  1
  In  In16  1  0.420992  0.420992  0.737809  1
  Ag  Ag17  1  0.417825  0.417825  0.415337  1
  Ag  Ag18  1  0.749141  0.417765  0.415451  1
  Ag  Ag19  1  0.417765  0.749141  0.415451  1
  Rh  Rh20  1  0.855694  0.855694  0.429518  1
  Rh  Rh21  1  0.857829  0.857829  0.857171  1
  Rh  Rh22  1  0.429026  0.855784  0.854739  1
  Rh  Rh23  1  0.855784  0.429026  0.854739  1
