# generated using pymatgen
data_Er4AlZn2In
_symmetry_space_group_name_H-M   'P 1'
_cell_length_a   3.50076700
_cell_length_b   3.50076700
_cell_length_c   15.21016000
_cell_angle_alpha   90.00000000
_cell_angle_beta   90.00000000
_cell_angle_gamma   90.00000000
_symmetry_Int_Tables_number   1
_chemical_formula_structural   Er4AlZn2In
_chemical_formula_sum   'Er4 Al1 Zn2 In1'
_cell_volume   186.40613230
_cell_formula_units_Z   1
loop_
 _symmetry_equiv_pos_site_id
 _symmetry_equiv_pos_as_xyz
  1  'x, y, z'
loop_
 _atom_site_type_symbol
 _atom_site_label
 _atom_site_symmetry_multiplicity
 _atom_site_fract_x
 _atom_site_fract_y
 _atom_site_fract_z
 _atom_site_occupancy
  Er  Er0  1  0.500000  0.500000  0.136914  1
  Er  Er1  1  0.500000  0.500000  0.371797  1
  Er  Er2  1  0.500000  0.500000  0.605223  1
  Er  Er3  1  0.500000  0.500000  0.886942  1
  Al  Al4  1  0.000000  0.000000  0.011454  1
  Zn  Zn5  1  0.000000  0.000000  0.255307  1
  Zn  Zn6  1  0.000000  0.000000  0.487299  1
  In  In7  1  0.000000  0.000000  0.745064  1
