# generated using pymatgen
data_HoLu6Th(CdNi)2
_symmetry_space_group_name_H-M   'P 1'
_cell_length_a   9.42997161
_cell_length_b   9.42997164
_cell_length_c   9.43956400
_cell_angle_alpha   59.96634491
_cell_angle_beta   59.96634481
_cell_angle_gamma   60.03551010
_symmetry_Int_Tables_number   1
_chemical_formula_structural   HoLu6Th(CdNi)2
_chemical_formula_sum   'Ho2 Lu12 Th2 Cd4 Ni4'
_cell_volume   593.40731253
_cell_formula_units_Z   2
loop_
 _symmetry_equiv_pos_site_id
 _symmetry_equiv_pos_as_xyz
  1  'x, y, z'
loop_
 _atom_site_type_symbol
 _atom_site_label
 _atom_site_symmetry_multiplicity
 _atom_site_fract_x
 _atom_site_fract_y
 _atom_site_fract_z
 _atom_site_occupancy
  Ho  Ho0  1  0.566005  0.566005  0.933995  1
  Ho  Ho1  1  0.935296  0.935296  0.564704  1
  Lu  Lu2  1  0.349971  0.948633  0.350698  1
  Lu  Lu3  1  0.948633  0.349971  0.350698  1
  Lu  Lu4  1  0.813830  0.188544  0.186461  1
  Lu  Lu5  1  0.188544  0.813830  0.811165  1
  Lu  Lu6  1  0.188544  0.813830  0.186461  1
  Lu  Lu7  1  0.813830  0.188544  0.811165  1
  Lu  Lu8  1  0.186247  0.186247  0.813753  1
  Lu  Lu9  1  0.812217  0.812217  0.187783  1
  Lu  Lu10  1  0.935838  0.564277  0.565519  1
  Lu  Lu11  1  0.564277  0.935838  0.934367  1
  Lu  Lu12  1  0.564277  0.935838  0.565519  1
  Lu  Lu13  1  0.935838  0.564277  0.934367  1
  Th  Th14  1  0.344666  0.344666  0.352194  1
  Th  Th15  1  0.344666  0.344666  0.958473  1
  Cd  Cd16  1  0.583638  0.583638  0.579285  1
  Cd  Cd17  1  0.583638  0.583638  0.253441  1
  Cd  Cd18  1  0.584710  0.253123  0.581084  1
  Cd  Cd19  1  0.253123  0.584710  0.581084  1
  Ni  Ni20  1  0.142710  0.142710  0.142202  1
  Ni  Ni21  1  0.142710  0.142710  0.572378  1
  Ni  Ni22  1  0.144266  0.572529  0.141602  1
  Ni  Ni23  1  0.572529  0.144266  0.141602  1
