# generated using pymatgen
data_Ca4HoSn3F
_symmetry_space_group_name_H-M   'P 1'
_cell_length_a   9.46358271
_cell_length_b   9.47372103
_cell_length_c   9.46248575
_cell_angle_alpha   129.38078081
_cell_angle_beta   129.43694549
_cell_angle_gamma   74.26012547
_symmetry_Int_Tables_number   1
_chemical_formula_structural   Ca4HoSn3F
_chemical_formula_sum   'Ca8 Ho2 Sn6 F2'
_cell_volume   493.95217773
_cell_formula_units_Z   2
loop_
 _symmetry_equiv_pos_site_id
 _symmetry_equiv_pos_as_xyz
  1  'x, y, z'
loop_
 _atom_site_type_symbol
 _atom_site_label
 _atom_site_symmetry_multiplicity
 _atom_site_fract_x
 _atom_site_fract_y
 _atom_site_fract_z
 _atom_site_occupancy
  Ca  Ca0  1  0.497903  0.501055  0.000516  1
  Ca  Ca1  1  0.187206  0.686436  0.175398  1
  Ca  Ca2  1  0.008210  0.188237  0.500095  1
  Ca  Ca3  1  0.686242  0.506604  0.497055  1
  Ca  Ca4  1  0.490646  0.990216  0.179637  1
  Ca  Ca5  1  0.810681  0.311009  0.820440  1
  Ca  Ca6  1  0.989508  0.812052  0.499972  1
  Ca  Ca7  1  0.311758  0.489651  0.500334  1
  Ho  Ho8  1  0.001654  0.997374  0.000135  1
  Ho  Ho9  1  0.515736  0.013979  0.824392  1
  Sn  Sn10  1  0.251508  0.241333  0.995676  1
  Sn  Sn11  1  0.748236  0.760257  0.995456  1
  Sn  Sn12  1  0.870988  0.362409  0.233900  1
  Sn  Sn13  1  0.122157  0.631795  0.755550  1
  Sn  Sn14  1  0.365303  0.124726  0.496052  1
  Sn  Sn15  1  0.633424  0.873703  0.512013  1
  F  F16  1  0.259018  0.759156  0.510773  1
  F  F17  1  0.749820  0.250005  0.502603  1
