# generated using pymatgen
data_Tb16MgAg3IrRh3
_symmetry_space_group_name_H-M   'P 1'
_cell_length_a   9.64779887
_cell_length_b   9.61900749
_cell_length_c   9.61900800
_cell_angle_alpha   60.00000512
_cell_angle_beta   60.09867407
_cell_angle_gamma   60.09867455
_symmetry_Int_Tables_number   1
_chemical_formula_structural   Tb16MgAg3IrRh3
_chemical_formula_sum   'Tb16 Mg1 Ag3 Ir1 Rh3'
_cell_volume   632.14969792
_cell_formula_units_Z   1
loop_
 _symmetry_equiv_pos_site_id
 _symmetry_equiv_pos_as_xyz
  1  'x, y, z'
loop_
 _atom_site_type_symbol
 _atom_site_label
 _atom_site_symmetry_multiplicity
 _atom_site_fract_x
 _atom_site_fract_y
 _atom_site_fract_z
 _atom_site_occupancy
  Tb  Tb0  1  0.189009  0.811794  0.811794  1
  Tb  Tb1  1  0.813322  0.186555  0.186555  1
  Tb  Tb2  1  0.066451  0.435044  0.063460  1
  Tb  Tb3  1  0.064682  0.645106  0.645106  1
  Tb  Tb4  1  0.648837  0.649808  0.649808  1
  Tb  Tb5  1  0.066451  0.063460  0.435044  1
  Tb  Tb6  1  0.189009  0.811794  0.187402  1
  Tb  Tb7  1  0.813322  0.813569  0.186555  1
  Tb  Tb8  1  0.813322  0.186555  0.813569  1
  Tb  Tb9  1  0.435807  0.064472  0.435249  1
  Tb  Tb10  1  0.435807  0.435249  0.064472  1
  Tb  Tb11  1  0.435807  0.064472  0.064472  1
  Tb  Tb12  1  0.066451  0.435044  0.435044  1
  Tb  Tb13  1  0.189009  0.187402  0.811794  1
  Tb  Tb14  1  0.648837  0.649808  0.051549  1
  Tb  Tb15  1  0.648837  0.051549  0.649808  1
  Mg  Mg16  1  0.713985  0.428672  0.428672  1
  Ag  Ag17  1  0.417584  0.415743  0.750931  1
  Ag  Ag18  1  0.417584  0.750931  0.415743  1
  Ag  Ag19  1  0.417584  0.415743  0.415743  1
  Ir  Ir20  1  0.430327  0.856558  0.856558  1
  Rh  Rh21  1  0.859326  0.855821  0.429034  1
  Rh  Rh22  1  0.859326  0.429034  0.855821  1
  Rh  Rh23  1  0.859326  0.855821  0.855821  1
