# generated using pymatgen
data_HoCo3P3IrRh
_symmetry_space_group_name_H-M   'P 1'
_cell_length_a   3.78356900
_cell_length_b   10.40683000
_cell_length_c   12.13736100
_cell_angle_alpha   90.00000000
_cell_angle_beta   90.00000000
_cell_angle_gamma   90.00000000
_symmetry_Int_Tables_number   1
_chemical_formula_structural   HoCo3P3IrRh
_chemical_formula_sum   'Ho4 Co12 P12 Ir4 Rh4'
_cell_volume   477.90809631
_cell_formula_units_Z   4
loop_
 _symmetry_equiv_pos_site_id
 _symmetry_equiv_pos_as_xyz
  1  'x, y, z'
loop_
 _atom_site_type_symbol
 _atom_site_label
 _atom_site_symmetry_multiplicity
 _atom_site_fract_x
 _atom_site_fract_y
 _atom_site_fract_z
 _atom_site_occupancy
  Ho  Ho0  1  0.250000  0.584352  0.712277  1
  Ho  Ho1  1  0.250000  0.915648  0.212277  1
  Ho  Ho2  1  0.750000  0.415648  0.287723  1
  Ho  Ho3  1  0.750000  0.084352  0.787723  1
  Co  Co4  1  0.250000  0.221232  0.177530  1
  Co  Co5  1  0.250000  0.278768  0.677530  1
  Co  Co6  1  0.750000  0.778768  0.822470  1
  Co  Co7  1  0.750000  0.721232  0.322470  1
  Co  Co8  1  0.250000  0.881489  0.697001  1
  Co  Co9  1  0.250000  0.618511  0.197001  1
  Co  Co10  1  0.750000  0.118511  0.302999  1
  Co  Co11  1  0.750000  0.381489  0.802999  1
  Co  Co12  1  0.250000  0.462667  0.932243  1
  Co  Co13  1  0.250000  0.037333  0.432243  1
  Co  Co14  1  0.750000  0.537333  0.067757  1
  Co  Co15  1  0.750000  0.962667  0.567757  1
  P  P16  1  0.250000  0.423202  0.110833  1
  P  P17  1  0.250000  0.076798  0.610833  1
  P  P18  1  0.750000  0.576798  0.889167  1
  P  P19  1  0.750000  0.923202  0.389167  1
  P  P20  1  0.250000  0.273971  0.860621  1
  P  P21  1  0.250000  0.226029  0.360621  1
  P  P22  1  0.750000  0.726029  0.139379  1
  P  P23  1  0.750000  0.773971  0.639379  1
  P  P24  1  0.250000  0.603211  0.377702  1
  P  P25  1  0.250000  0.896789  0.877702  1
  P  P26  1  0.750000  0.396789  0.622298  1
  P  P27  1  0.750000  0.103211  0.122298  1
  Ir  Ir28  1  0.250000  0.406536  0.477147  1
  Ir  Ir29  1  0.250000  0.093464  0.977147  1
  Ir  Ir30  1  0.750000  0.593464  0.522853  1
  Ir  Ir31  1  0.750000  0.906536  0.022853  1
  Rh  Rh32  1  0.250000  0.713386  0.985458  1
  Rh  Rh33  1  0.250000  0.786614  0.485458  1
  Rh  Rh34  1  0.750000  0.286614  0.014542  1
  Rh  Rh35  1  0.750000  0.213386  0.514542  1
