# generated using pymatgen
data_YU9(Re3C8)2
_symmetry_space_group_name_H-M   'P 1'
_cell_length_a   11.38319957
_cell_length_b   11.38319957
_cell_length_c   3.26530100
_cell_angle_alpha   90.00000000
_cell_angle_beta   90.00000000
_cell_angle_gamma   89.96371952
_symmetry_Int_Tables_number   1
_chemical_formula_structural   YU9(Re3C8)2
_chemical_formula_sum   'Y1 U9 Re6 C16'
_cell_volume   423.10858191
_cell_formula_units_Z   1
loop_
 _symmetry_equiv_pos_site_id
 _symmetry_equiv_pos_as_xyz
  1  'x, y, z'
loop_
 _atom_site_type_symbol
 _atom_site_label
 _atom_site_symmetry_multiplicity
 _atom_site_fract_x
 _atom_site_fract_y
 _atom_site_fract_z
 _atom_site_occupancy
  Y  Y0  1  0.000000  0.500000  0.000000  1
  U  U1  1  0.271165  0.542265  0.500000  1
  U  U2  1  0.728835  0.457735  0.500000  1
  U  U3  1  0.542465  0.728285  0.500000  1
  U  U4  1  0.771715  0.957535  0.500000  1
  U  U5  1  0.228285  0.042465  0.500000  1
  U  U6  1  0.957735  0.228835  0.500000  1
  U  U7  1  0.457535  0.271715  0.500000  1
  U  U8  1  0.500000  0.000000  0.000000  1
  U  U9  1  0.042265  0.771165  0.500000  1
  Re  Re10  1  0.204083  0.295917  0.000000  1
  Re  Re11  1  0.702818  0.202818  0.000000  1
  Re  Re12  1  0.297182  0.797182  0.000000  1
  Re  Re13  1  0.500000  0.500000  0.000000  1
  Re  Re14  1  0.795917  0.704083  0.000000  1
  Re  Re15  1  0.000000  0.000000  0.000000  1
  C  C16  1  0.347128  0.403016  0.000000  1
  C  C17  1  0.616620  0.116620  0.500000  1
  C  C18  1  0.903016  0.847128  0.000000  1
  C  C19  1  0.653902  0.846098  0.000000  1
  C  C20  1  0.346098  0.153902  0.000000  1
  C  C21  1  0.119333  0.380667  0.500000  1
  C  C22  1  0.152257  0.902177  0.000000  1
  C  C23  1  0.844119  0.344119  0.000000  1
  C  C24  1  0.652872  0.596984  0.000000  1
  C  C25  1  0.597823  0.347743  0.000000  1
  C  C26  1  0.880667  0.619333  0.500000  1
  C  C27  1  0.847743  0.097823  0.000000  1
  C  C28  1  0.383380  0.883380  0.500000  1
  C  C29  1  0.155881  0.655881  0.000000  1
  C  C30  1  0.096984  0.152872  0.000000  1
  C  C31  1  0.402177  0.652257  0.000000  1
