# generated using pymatgen
data_Tb6LuRh3
_symmetry_space_group_name_H-M   'P 1'
_cell_length_a   9.80930000
_cell_length_b   9.80929914
_cell_length_c   6.17681100
_cell_angle_alpha   90.00000000
_cell_angle_beta   90.00000000
_cell_angle_gamma   120.00000290
_symmetry_Int_Tables_number   1
_chemical_formula_structural   Tb6LuRh3
_chemical_formula_sum   'Tb12 Lu2 Rh6'
_cell_volume   514.71986245
_cell_formula_units_Z   2
loop_
 _symmetry_equiv_pos_site_id
 _symmetry_equiv_pos_as_xyz
  1  'x, y, z'
loop_
 _atom_site_type_symbol
 _atom_site_label
 _atom_site_symmetry_multiplicity
 _atom_site_fract_x
 _atom_site_fract_y
 _atom_site_fract_z
 _atom_site_occupancy
  Tb  Tb0  1  0.123993  0.876007  0.253893  1
  Tb  Tb1  1  0.752015  0.876007  0.253893  1
  Tb  Tb2  1  0.123993  0.247985  0.253893  1
  Tb  Tb3  1  0.876007  0.123993  0.753893  1
  Tb  Tb4  1  0.247985  0.123993  0.753893  1
  Tb  Tb5  1  0.876007  0.752015  0.753893  1
  Tb  Tb6  1  0.540734  0.459266  0.445217  1
  Tb  Tb7  1  0.918531  0.459266  0.445217  1
  Tb  Tb8  1  0.540734  0.081469  0.445217  1
  Tb  Tb9  1  0.459266  0.540734  0.945217  1
  Tb  Tb10  1  0.081469  0.540734  0.945217  1
  Tb  Tb11  1  0.459266  0.918531  0.945217  1
  Lu  Lu12  1  0.333333  0.666667  0.459096  1
  Lu  Lu13  1  0.666667  0.333333  0.959096  1
  Rh  Rh14  1  0.809375  0.190625  0.178952  1
  Rh  Rh15  1  0.381251  0.190625  0.178952  1
  Rh  Rh16  1  0.809375  0.618749  0.178952  1
  Rh  Rh17  1  0.190625  0.809375  0.678952  1
  Rh  Rh18  1  0.618749  0.809375  0.678952  1
  Rh  Rh19  1  0.190625  0.381251  0.678952  1
