# generated using pymatgen
data_Tm5Lu(Sc2Sn3)2
_symmetry_space_group_name_H-M   'P 1'
_cell_length_a   8.70750426
_cell_length_b   8.71117452
_cell_length_c   6.22554400
_cell_angle_alpha   90.00000000
_cell_angle_beta   90.00000000
_cell_angle_gamma   120.01394217
_symmetry_Int_Tables_number   1
_chemical_formula_structural   Tm5Lu(Sc2Sn3)2
_chemical_formula_sum   'Tm5 Lu1 Sc4 Sn6'
_cell_volume   408.90019438
_cell_formula_units_Z   1
loop_
 _symmetry_equiv_pos_site_id
 _symmetry_equiv_pos_as_xyz
  1  'x, y, z'
loop_
 _atom_site_type_symbol
 _atom_site_label
 _atom_site_symmetry_multiplicity
 _atom_site_fract_x
 _atom_site_fract_y
 _atom_site_fract_z
 _atom_site_occupancy
  Tm  Tm0  1  0.762084  0.761907  0.750000  1
  Tm  Tm1  1  0.237916  0.999822  0.750000  1
  Tm  Tm2  1  0.000000  0.238312  0.750000  1
  Tm  Tm3  1  0.238016  0.237943  0.250000  1
  Tm  Tm4  1  0.761984  0.999927  0.250000  1
  Lu  Lu5  1  0.000000  0.761934  0.250000  1
  Sc  Sc6  1  0.666654  0.333361  0.000033  1
  Sc  Sc7  1  0.333346  0.666708  0.000033  1
  Sc  Sc8  1  0.333346  0.666708  0.499967  1
  Sc  Sc9  1  0.666654  0.333361  0.499967  1
  Sn  Sn10  1  0.398830  0.398819  0.750000  1
  Sn  Sn11  1  0.601170  0.999989  0.750000  1
  Sn  Sn12  1  0.000000  0.601181  0.750000  1
  Sn  Sn13  1  0.601571  0.601288  0.250000  1
  Sn  Sn14  1  0.398429  0.999717  0.250000  1
  Sn  Sn15  1  0.000000  0.399023  0.250000  1
