# generated using pymatgen
data_CeAl10TcPd
_symmetry_space_group_name_H-M   'P 1'
_cell_length_a   6.91190014
_cell_length_b   6.93622419
_cell_length_c   9.24524400
_cell_angle_alpha   90.00000000
_cell_angle_beta   90.00000000
_cell_angle_gamma   97.45264959
_symmetry_Int_Tables_number   1
_chemical_formula_structural   CeAl10TcPd
_chemical_formula_sum   'Ce2 Al20 Tc2 Pd2'
_cell_volume   439.49569078
_cell_formula_units_Z   2
loop_
 _symmetry_equiv_pos_site_id
 _symmetry_equiv_pos_as_xyz
  1  'x, y, z'
loop_
 _atom_site_type_symbol
 _atom_site_label
 _atom_site_symmetry_multiplicity
 _atom_site_fract_x
 _atom_site_fract_y
 _atom_site_fract_z
 _atom_site_occupancy
  Ce  Ce0  1  0.866279  0.115498  0.750000  1
  Ce  Ce1  1  0.133721  0.884502  0.250000  1
  Al  Al2  1  0.594498  0.862223  0.250000  1
  Al  Al3  1  0.773014  0.521572  0.250000  1
  Al  Al4  1  0.158487  0.844808  0.896657  1
  Al  Al5  1  0.405502  0.137777  0.750000  1
  Al  Al6  1  0.616576  0.373829  0.949787  1
  Al  Al7  1  0.841513  0.155192  0.396657  1
  Al  Al8  1  0.774920  0.779609  0.998216  1
  Al  Al9  1  0.856110  0.592908  0.750000  1
  Al  Al10  1  0.841513  0.155192  0.103343  1
  Al  Al11  1  0.226986  0.478428  0.750000  1
  Al  Al12  1  0.158487  0.844808  0.603343  1
  Al  Al13  1  0.774920  0.779609  0.501784  1
  Al  Al14  1  0.484064  0.221488  0.250000  1
  Al  Al15  1  0.616576  0.373829  0.550213  1
  Al  Al16  1  0.225080  0.220391  0.498216  1
  Al  Al17  1  0.383424  0.626171  0.449787  1
  Al  Al18  1  0.143890  0.407092  0.250000  1
  Al  Al19  1  0.515936  0.778512  0.750000  1
  Al  Al20  1  0.383424  0.626171  0.050213  1
  Al  Al21  1  0.225080  0.220391  0.001784  1
  Tc  Tc22  1  0.500000  0.000000  0.000000  1
  Tc  Tc23  1  0.500000  0.000000  0.500000  1
  Pd  Pd24  1  0.000000  0.500000  0.000000  1
  Pd  Pd25  1  0.000000  0.500000  0.500000  1
