# generated using pymatgen
data_Er6TmFeO12
_symmetry_space_group_name_H-M   'P 1'
_cell_length_a   6.57342834
_cell_length_b   6.57342861
_cell_length_c   6.57342900
_cell_angle_alpha   92.51750223
_cell_angle_beta   92.51750234
_cell_angle_gamma   92.51749566
_symmetry_Int_Tables_number   1
_chemical_formula_structural   Er6TmFeO12
_chemical_formula_sum   'Er6 Tm1 Fe1 O12'
_cell_volume   283.19026354
_cell_formula_units_Z   1
loop_
 _symmetry_equiv_pos_site_id
 _symmetry_equiv_pos_as_xyz
  1  'x, y, z'
loop_
 _atom_site_type_symbol
 _atom_site_label
 _atom_site_symmetry_multiplicity
 _atom_site_fract_x
 _atom_site_fract_y
 _atom_site_fract_z
 _atom_site_occupancy
  Er  Er0  1  0.741789  0.927226  0.438300  1
  Er  Er1  1  0.438300  0.741789  0.927226  1
  Er  Er2  1  0.072774  0.561700  0.258211  1
  Er  Er3  1  0.927226  0.438300  0.741789  1
  Er  Er4  1  0.561700  0.258211  0.072774  1
  Er  Er5  1  0.258211  0.072774  0.561700  1
  Tm  Tm6  1  0.000000  0.000000  0.000000  1
  Fe  Fe7  1  0.500000  0.500000  0.500000  1
  O  O8  1  0.068969  0.907085  0.317392  1
  O  O9  1  0.682608  0.931031  0.092915  1
  O  O10  1  0.463441  0.801708  0.590480  1
  O  O11  1  0.092915  0.682608  0.931031  1
  O  O12  1  0.801708  0.590480  0.463441  1
  O  O13  1  0.409520  0.536559  0.198292  1
  O  O14  1  0.590480  0.463441  0.801708  1
  O  O15  1  0.198292  0.409520  0.536559  1
  O  O16  1  0.907085  0.317392  0.068969  1
  O  O17  1  0.536559  0.198292  0.409520  1
  O  O18  1  0.317392  0.068969  0.907085  1
  O  O19  1  0.931031  0.092915  0.682608  1
