# generated using pymatgen
data_ErLuSi2IrRu
_symmetry_space_group_name_H-M   'P 1'
_cell_length_a   4.23503100
_cell_length_b   6.81999200
_cell_length_c   7.26750600
_cell_angle_alpha   90.00000000
_cell_angle_beta   90.00000000
_cell_angle_gamma   90.00000000
_symmetry_Int_Tables_number   1
_chemical_formula_structural   ErLuSi2IrRu
_chemical_formula_sum   'Er2 Lu2 Si4 Ir2 Ru2'
_cell_volume   209.90648582
_cell_formula_units_Z   2
loop_
 _symmetry_equiv_pos_site_id
 _symmetry_equiv_pos_as_xyz
  1  'x, y, z'
loop_
 _atom_site_type_symbol
 _atom_site_label
 _atom_site_symmetry_multiplicity
 _atom_site_fract_x
 _atom_site_fract_y
 _atom_site_fract_z
 _atom_site_occupancy
  Er  Er0  1  0.250000  0.002596  0.315307  1
  Er  Er1  1  0.250000  0.502596  0.184693  1
  Lu  Lu2  1  0.750000  0.497037  0.811560  1
  Lu  Lu3  1  0.750000  0.997037  0.688440  1
  Si  Si4  1  0.250000  0.700275  0.614265  1
  Si  Si5  1  0.250000  0.200275  0.885735  1
  Si  Si6  1  0.750000  0.297811  0.393629  1
  Si  Si7  1  0.750000  0.797811  0.106371  1
  Ir  Ir8  1  0.750000  0.658471  0.437124  1
  Ir  Ir9  1  0.750000  0.158471  0.062876  1
  Ru  Ru10  1  0.250000  0.843813  0.935864  1
  Ru  Ru11  1  0.250000  0.343813  0.564136  1
