# generated using pymatgen
data_Er20Ir8Ru3Rh
_symmetry_space_group_name_H-M   'P 1'
_cell_length_a   10.72873300
_cell_length_b   10.72873300
_cell_length_c   6.37344500
_cell_angle_alpha   90.00000000
_cell_angle_beta   90.00000000
_cell_angle_gamma   90.00000000
_symmetry_Int_Tables_number   1
_chemical_formula_structural   Er20Ir8Ru3Rh
_chemical_formula_sum   'Er20 Ir8 Ru3 Rh1'
_cell_volume   733.61992325
_cell_formula_units_Z   1
loop_
 _symmetry_equiv_pos_site_id
 _symmetry_equiv_pos_as_xyz
  1  'x, y, z'
loop_
 _atom_site_type_symbol
 _atom_site_label
 _atom_site_symmetry_multiplicity
 _atom_site_fract_x
 _atom_site_fract_y
 _atom_site_fract_z
 _atom_site_occupancy
  Er  Er0  1  0.293613  0.086311  0.376973  1
  Er  Er1  1  0.293611  0.913956  0.877219  1
  Er  Er2  1  0.706389  0.086044  0.877219  1
  Er  Er3  1  0.706387  0.913689  0.376973  1
  Er  Er4  1  0.586044  0.793611  0.877219  1
  Er  Er5  1  0.586311  0.206387  0.376973  1
  Er  Er6  1  0.413689  0.793613  0.376973  1
  Er  Er7  1  0.413956  0.206389  0.877219  1
  Er  Er8  1  0.208506  0.412746  0.624941  1
  Er  Er9  1  0.208115  0.587282  0.120494  1
  Er  Er10  1  0.791885  0.412718  0.120494  1
  Er  Er11  1  0.791494  0.587254  0.624941  1
  Er  Er12  1  0.912718  0.708115  0.120494  1
  Er  Er13  1  0.912746  0.291494  0.624941  1
  Er  Er14  1  0.087254  0.708506  0.624941  1
  Er  Er15  1  0.087282  0.291885  0.120494  1
  Er  Er16  1  0.000000  0.000000  0.499350  1
  Er  Er17  1  0.000000  0.000000  0.999694  1
  Er  Er18  1  0.500000  0.500000  0.999694  1
  Er  Er19  1  0.500000  0.500000  0.499350  1
  Ir  Ir20  1  0.847861  0.153312  0.250323  1
  Ir  Ir21  1  0.847491  0.846891  0.749654  1
  Ir  Ir22  1  0.152509  0.153109  0.749654  1
  Ir  Ir23  1  0.152139  0.846688  0.250323  1
  Ir  Ir24  1  0.653109  0.347491  0.749654  1
  Ir  Ir25  1  0.653312  0.652139  0.250323  1
  Ir  Ir26  1  0.346688  0.347861  0.250323  1
  Ir  Ir27  1  0.346891  0.652509  0.749654  1
  Ru  Ru28  1  0.500000  0.000000  0.123255  1
  Ru  Ru29  1  0.500000  0.000000  0.623067  1
  Ru  Ru30  1  0.000000  0.500000  0.878181  1
  Rh  Rh31  1  0.000000  0.500000  0.378990  1
