# generated using pymatgen
data_Ba3TbTlO6
_symmetry_space_group_name_H-M   'P 1'
_cell_length_a   7.35373069
_cell_length_b   7.35372998
_cell_length_c   7.35373200
_cell_angle_alpha   93.18819114
_cell_angle_beta   93.18818303
_cell_angle_gamma   93.18819061
_symmetry_Int_Tables_number   1
_chemical_formula_structural   Ba3TbTlO6
_chemical_formula_sum   'Ba6 Tb2 Tl2 O12'
_cell_volume   395.75225012
_cell_formula_units_Z   2
loop_
 _symmetry_equiv_pos_site_id
 _symmetry_equiv_pos_as_xyz
  1  'x, y, z'
loop_
 _atom_site_type_symbol
 _atom_site_label
 _atom_site_symmetry_multiplicity
 _atom_site_fract_x
 _atom_site_fract_y
 _atom_site_fract_z
 _atom_site_occupancy
  Ba  Ba0  1  0.250000  0.886202  0.613798  1
  Ba  Ba1  1  0.886202  0.613798  0.250000  1
  Ba  Ba2  1  0.750000  0.113798  0.386202  1
  Ba  Ba3  1  0.386202  0.750000  0.113798  1
  Ba  Ba4  1  0.113798  0.386202  0.750000  1
  Ba  Ba5  1  0.613798  0.250000  0.886202  1
  Tb  Tb6  1  0.750000  0.750000  0.750000  1
  Tb  Tb7  1  0.250000  0.250000  0.250000  1
  Tl  Tl8  1  0.500000  0.500000  0.500000  1
  Tl  Tl9  1  0.000000  0.000000  0.000000  1
  O  O10  1  0.601653  0.798788  0.468633  1
  O  O11  1  0.468633  0.601653  0.798788  1
  O  O12  1  0.798788  0.468633  0.601653  1
  O  O13  1  0.898347  0.031367  0.701212  1
  O  O14  1  0.701212  0.898347  0.031367  1
  O  O15  1  0.031367  0.701212  0.898347  1
  O  O16  1  0.398347  0.201212  0.531367  1
  O  O17  1  0.531367  0.398347  0.201212  1
  O  O18  1  0.201212  0.531367  0.398347  1
  O  O19  1  0.101653  0.968633  0.298788  1
  O  O20  1  0.968633  0.298788  0.101653  1
  O  O21  1  0.298788  0.101653  0.968633  1
