# generated using pymatgen
data_Cs12K6AlGaBi8
_symmetry_space_group_name_H-M   'P 1'
_cell_length_a   11.40114800
_cell_length_b   11.40114990
_cell_length_c   11.92335500
_cell_angle_alpha   90.00000000
_cell_angle_beta   90.00000000
_cell_angle_gamma   119.99999447
_symmetry_Int_Tables_number   1
_chemical_formula_structural   Cs12K6AlGaBi8
_chemical_formula_sum   'Cs12 K6 Al1 Ga1 Bi8'
_cell_volume   1342.22823316
_cell_formula_units_Z   1
loop_
 _symmetry_equiv_pos_site_id
 _symmetry_equiv_pos_as_xyz
  1  'x, y, z'
loop_
 _atom_site_type_symbol
 _atom_site_label
 _atom_site_symmetry_multiplicity
 _atom_site_fract_x
 _atom_site_fract_y
 _atom_site_fract_z
 _atom_site_occupancy
  Cs  Cs0  1  0.209254  0.418505  0.541548  1
  Cs  Cs1  1  0.790661  0.209339  0.041471  1
  Cs  Cs2  1  0.418677  0.209339  0.041471  1
  Cs  Cs3  1  0.581495  0.790746  0.541548  1
  Cs  Cs4  1  0.209254  0.790746  0.541548  1
  Cs  Cs5  1  0.790661  0.581323  0.458529  1
  Cs  Cs6  1  0.790661  0.209339  0.458529  1
  Cs  Cs7  1  0.790661  0.581323  0.041471  1
  Cs  Cs8  1  0.418677  0.209339  0.458529  1
  Cs  Cs9  1  0.581495  0.790746  0.958452  1
  Cs  Cs10  1  0.209254  0.418505  0.958452  1
  Cs  Cs11  1  0.209254  0.790746  0.958452  1
  K  K12  1  0.119006  0.238012  0.250000  1
  K  K13  1  0.881007  0.118993  0.750000  1
  K  K14  1  0.237984  0.118993  0.750000  1
  K  K15  1  0.761988  0.880994  0.250000  1
  K  K16  1  0.119006  0.880994  0.250000  1
  K  K17  1  0.881007  0.762016  0.750000  1
  Al  Al18  1  0.333333  0.666667  0.250000  1
  Ga  Ga19  1  0.666667  0.333333  0.750000  1
  Bi  Bi20  1  0.474135  0.525865  0.250000  1
  Bi  Bi21  1  0.948913  0.474458  0.750000  1
  Bi  Bi22  1  0.525542  0.051087  0.750000  1
  Bi  Bi23  1  0.474135  0.948267  0.250000  1
  Bi  Bi24  1  0.051733  0.525865  0.250000  1
  Bi  Bi25  1  0.525542  0.474458  0.750000  1
  Bi  Bi26  1  0.000000  0.000000  0.000045  1
  Bi  Bi27  1  0.000000  0.000000  0.499955  1
