# generated using pymatgen
data_Th3Ga24FePd8
_symmetry_space_group_name_H-M   'P 1'
_cell_length_a   8.53102863
_cell_length_b   8.53102823
_cell_length_c   8.53102800
_cell_angle_alpha   89.90536921
_cell_angle_beta   89.90537594
_cell_angle_gamma   89.90538096
_symmetry_Int_Tables_number   1
_chemical_formula_structural   Th3Ga24FePd8
_chemical_formula_sum   'Th3 Ga24 Fe1 Pd8'
_cell_volume   620.87242420
_cell_formula_units_Z   1
loop_
 _symmetry_equiv_pos_site_id
 _symmetry_equiv_pos_as_xyz
  1  'x, y, z'
loop_
 _atom_site_type_symbol
 _atom_site_label
 _atom_site_symmetry_multiplicity
 _atom_site_fract_x
 _atom_site_fract_y
 _atom_site_fract_z
 _atom_site_occupancy
  Th  Th0  1  0.000000  0.500000  0.000000  1
  Th  Th1  1  0.500000  0.000000  0.000000  1
  Th  Th2  1  0.000000  0.000000  0.500000  1
  Ga  Ga3  1  0.990291  0.642248  0.642248  1
  Ga  Ga4  1  0.642248  0.642248  0.990291  1
  Ga  Ga5  1  0.642248  0.990291  0.642248  1
  Ga  Ga6  1  0.009709  0.357752  0.357752  1
  Ga  Ga7  1  0.357752  0.357752  0.009709  1
  Ga  Ga8  1  0.357752  0.009709  0.357752  1
  Ga  Ga9  1  0.732835  0.500000  0.267165  1
  Ga  Ga10  1  0.267165  0.500000  0.732835  1
  Ga  Ga11  1  0.500000  0.267165  0.732835  1
  Ga  Ga12  1  0.500000  0.732835  0.267165  1
  Ga  Ga13  1  0.267165  0.732835  0.500000  1
  Ga  Ga14  1  0.732835  0.267165  0.500000  1
  Ga  Ga15  1  0.838634  0.142244  0.838634  1
  Ga  Ga16  1  0.142244  0.838634  0.838634  1
  Ga  Ga17  1  0.838634  0.838634  0.142244  1
  Ga  Ga18  1  0.161366  0.857756  0.161366  1
  Ga  Ga19  1  0.857756  0.161366  0.161366  1
  Ga  Ga20  1  0.161366  0.161366  0.857756  1
  Ga  Ga21  1  0.726518  0.489643  0.726518  1
  Ga  Ga22  1  0.489643  0.726518  0.726518  1
  Ga  Ga23  1  0.726518  0.726518  0.489643  1
  Ga  Ga24  1  0.273482  0.510357  0.273482  1
  Ga  Ga25  1  0.510357  0.273482  0.273482  1
  Ga  Ga26  1  0.273482  0.273482  0.510357  1
  Fe  Fe27  1  0.500000  0.500000  0.500000  1
  Pd  Pd28  1  0.838280  0.838280  0.838280  1
  Pd  Pd29  1  0.161720  0.161720  0.161720  1
  Pd  Pd30  1  0.664270  0.335730  0.000000  1
  Pd  Pd31  1  0.000000  0.335730  0.664270  1
  Pd  Pd32  1  0.335730  0.000000  0.664270  1
  Pd  Pd33  1  0.335730  0.664270  0.000000  1
  Pd  Pd34  1  0.000000  0.664270  0.335730  1
  Pd  Pd35  1  0.664270  0.000000  0.335730  1
