# generated using pymatgen
data_Ca3La17Pb16
_symmetry_space_group_name_H-M   'P 1'
_cell_length_a   8.56856709
_cell_length_b   8.67213909
_cell_length_c   16.59437400
_cell_angle_alpha   90.00000000
_cell_angle_beta   90.00000000
_cell_angle_gamma   90.01693543
_symmetry_Int_Tables_number   1
_chemical_formula_structural   Ca3La17Pb16
_chemical_formula_sum   'Ca3 La17 Pb16'
_cell_volume   1233.09146467
_cell_formula_units_Z   1
loop_
 _symmetry_equiv_pos_site_id
 _symmetry_equiv_pos_as_xyz
  1  'x, y, z'
loop_
 _atom_site_type_symbol
 _atom_site_label
 _atom_site_symmetry_multiplicity
 _atom_site_fract_x
 _atom_site_fract_y
 _atom_site_fract_z
 _atom_site_occupancy
  Ca  Ca0  1  0.710376  0.996859  0.250000  1
  Ca  Ca1  1  0.210444  0.503138  0.250000  1
  Ca  Ca2  1  0.789492  0.496378  0.750000  1
  La  La3  1  0.880203  0.659830  0.116949  1
  La  La4  1  0.380622  0.840706  0.382891  1
  La  La5  1  0.621132  0.160160  0.883056  1
  La  La6  1  0.118924  0.340802  0.617098  1
  La  La7  1  0.118924  0.340802  0.882902  1
  La  La8  1  0.621132  0.160160  0.616944  1
  La  La9  1  0.380622  0.840706  0.117109  1
  La  La10  1  0.880203  0.659830  0.383051  1
  La  La11  1  0.027596  0.179959  0.100456  1
  La  La12  1  0.528005  0.320308  0.399660  1
  La  La13  1  0.471891  0.678563  0.899562  1
  La  La14  1  0.970811  0.819442  0.600403  1
  La  La15  1  0.970811  0.819442  0.899597  1
  La  La16  1  0.471891  0.678563  0.600438  1
  La  La17  1  0.528005  0.320308  0.100340  1
  La  La18  1  0.027596  0.179959  0.399544  1
  La  La19  1  0.291175  0.002653  0.750000  1
  Pb  Pb20  1  0.077418  0.882579  0.250000  1
  Pb  Pb21  1  0.576917  0.616695  0.250000  1
  Pb  Pb22  1  0.423962  0.382911  0.750000  1
  Pb  Pb23  1  0.921273  0.119556  0.750000  1
  Pb  Pb24  1  0.833850  0.357247  0.250000  1
  Pb  Pb25  1  0.333769  0.143505  0.250000  1
  Pb  Pb26  1  0.665958  0.855849  0.750000  1
  Pb  Pb27  1  0.165619  0.642870  0.750000  1
  Pb  Pb28  1  0.780353  0.467824  0.956596  1
  Pb  Pb29  1  0.280301  0.032206  0.543597  1
  Pb  Pb30  1  0.719660  0.967921  0.043777  1
  Pb  Pb31  1  0.220375  0.532159  0.456258  1
  Pb  Pb32  1  0.220375  0.532159  0.043742  1
  Pb  Pb33  1  0.719660  0.967921  0.456223  1
  Pb  Pb34  1  0.280301  0.032206  0.956403  1
  Pb  Pb35  1  0.780353  0.467824  0.543404  1
