# generated using pymatgen
data_Rb3HoBr6
_symmetry_space_group_name_H-M   'P 1'
_cell_length_a   8.28832302
_cell_length_b   8.28832335
_cell_length_c   8.45021180
_cell_angle_alpha   118.37237559
_cell_angle_beta   118.37237342
_cell_angle_gamma   61.19420657
_symmetry_Int_Tables_number   1
_chemical_formula_structural   Rb3HoBr6
_chemical_formula_sum   'Rb3 Ho1 Br6'
_cell_volume   424.12636386
_cell_formula_units_Z   1
loop_
 _symmetry_equiv_pos_site_id
 _symmetry_equiv_pos_as_xyz
  1  'x, y, z'
loop_
 _atom_site_type_symbol
 _atom_site_label
 _atom_site_symmetry_multiplicity
 _atom_site_fract_x
 _atom_site_fract_y
 _atom_site_fract_z
 _atom_site_occupancy
  Rb  Rb0  1  0.500000  0.500000  0.500001  1
  Rb  Rb1  1  0.746448  0.746448  0.222001  1
  Rb  Rb2  1  0.253552  0.253552  0.778001  1
  Ho  Ho3  1  0.000000  0.000000  0.000000  1
  Br  Br4  1  0.700925  0.167748  0.155870  1
  Br  Br5  1  0.167748  0.700925  0.155870  1
  Br  Br6  1  0.218088  0.218088  0.330983  1
  Br  Br7  1  0.781912  0.781912  0.669017  1
  Br  Br8  1  0.832252  0.299076  0.844129  1
  Br  Br9  1  0.299076  0.832252  0.844129  1
