# generated using pymatgen
data_Tb3Tm3NiI10
_symmetry_space_group_name_H-M   'P 1'
_cell_length_a   7.67031505
_cell_length_b   9.65309448
_cell_length_c   9.69404950
_cell_angle_alpha   106.93952784
_cell_angle_beta   96.52779041
_cell_angle_gamma   104.44142113
_symmetry_Int_Tables_number   1
_chemical_formula_structural   Tb3Tm3NiI10
_chemical_formula_sum   'Tb3 Tm3 Ni1 I10'
_cell_volume   651.34050920
_cell_formula_units_Z   1
loop_
 _symmetry_equiv_pos_site_id
 _symmetry_equiv_pos_as_xyz
  1  'x, y, z'
loop_
 _atom_site_type_symbol
 _atom_site_label
 _atom_site_symmetry_multiplicity
 _atom_site_fract_x
 _atom_site_fract_y
 _atom_site_fract_z
 _atom_site_occupancy
  Tb  Tb0  1  0.032469  0.719927  0.916619  1
  Tb  Tb1  1  0.886454  0.958795  0.236779  1
  Tb  Tb2  1  0.114422  0.041677  0.763799  1
  Tm  Tm3  1  0.333683  0.118642  0.157427  1
  Tm  Tm4  1  0.665944  0.883029  0.842743  1
  Tm  Tm5  1  0.968078  0.274402  0.082241  1
  Ni  Ni6  1  0.999574  0.999530  0.999786  1
  I  I7  1  0.345071  0.446100  0.269273  1
  I  I8  1  0.648827  0.554132  0.728525  1
  I  I9  1  0.766779  0.255336  0.339355  1
  I  I10  1  0.236249  0.747155  0.658273  1
  I  I11  1  0.547958  0.185602  0.908819  1
  I  I12  1  0.454616  0.816845  0.093297  1
  I  I13  1  0.741322  0.913694  0.540951  1
  I  I14  1  0.260097  0.088098  0.459294  1
  I  I15  1  0.914031  0.624101  0.180791  1
  I  I16  1  0.084427  0.372936  0.822029  1
