# generated using pymatgen
data_Tm2AlZnIr2
_symmetry_space_group_name_H-M   'P 1'
_cell_length_a   4.09199500
_cell_length_b   6.87034354
_cell_length_c   8.01835546
_cell_angle_alpha   89.79572148
_cell_angle_beta   90.00000000
_cell_angle_gamma   90.00000000
_symmetry_Int_Tables_number   1
_chemical_formula_structural   Tm2AlZnIr2
_chemical_formula_sum   'Tm4 Al2 Zn2 Ir4'
_cell_volume   225.42189305
_cell_formula_units_Z   2
loop_
 _symmetry_equiv_pos_site_id
 _symmetry_equiv_pos_as_xyz
  1  'x, y, z'
loop_
 _atom_site_type_symbol
 _atom_site_label
 _atom_site_symmetry_multiplicity
 _atom_site_fract_x
 _atom_site_fract_y
 _atom_site_fract_z
 _atom_site_occupancy
  Tm  Tm0  1  0.250000  0.535075  0.176858  1
  Tm  Tm1  1  0.750000  0.464925  0.823142  1
  Tm  Tm2  1  0.750000  0.963690  0.683284  1
  Tm  Tm3  1  0.250000  0.036310  0.316716  1
  Al  Al4  1  0.250000  0.639246  0.561751  1
  Al  Al5  1  0.750000  0.360754  0.438249  1
  Zn  Zn6  1  0.750000  0.860298  0.064546  1
  Zn  Zn7  1  0.250000  0.139702  0.935454  1
  Ir  Ir8  1  0.250000  0.755620  0.869650  1
  Ir  Ir9  1  0.750000  0.244380  0.130350  1
  Ir  Ir10  1  0.750000  0.734434  0.387483  1
  Ir  Ir11  1  0.250000  0.265566  0.612517  1
