# generated using pymatgen
data_ScCoNi(PRu)3
_symmetry_space_group_name_H-M   'P 1'
_cell_length_a   3.74238900
_cell_length_b   10.60185200
_cell_length_c   11.97559500
_cell_angle_alpha   90.00000000
_cell_angle_beta   90.00000000
_cell_angle_gamma   90.00000000
_symmetry_Int_Tables_number   1
_chemical_formula_structural   ScCoNi(PRu)3
_chemical_formula_sum   'Sc4 Co4 Ni4 P12 Ru12'
_cell_volume   475.14675267
_cell_formula_units_Z   4
loop_
 _symmetry_equiv_pos_site_id
 _symmetry_equiv_pos_as_xyz
  1  'x, y, z'
loop_
 _atom_site_type_symbol
 _atom_site_label
 _atom_site_symmetry_multiplicity
 _atom_site_fract_x
 _atom_site_fract_y
 _atom_site_fract_z
 _atom_site_occupancy
  Sc  Sc0  1  0.250000  0.586729  0.705705  1
  Sc  Sc1  1  0.250000  0.913271  0.205705  1
  Sc  Sc2  1  0.750000  0.413271  0.294295  1
  Sc  Sc3  1  0.750000  0.086729  0.794295  1
  Co  Co4  1  0.250000  0.462799  0.930421  1
  Co  Co5  1  0.250000  0.037201  0.430421  1
  Co  Co6  1  0.750000  0.537201  0.069579  1
  Co  Co7  1  0.750000  0.962799  0.569579  1
  Ni  Ni8  1  0.250000  0.890335  0.699780  1
  Ni  Ni9  1  0.250000  0.609665  0.199780  1
  Ni  Ni10  1  0.750000  0.109665  0.300220  1
  Ni  Ni11  1  0.750000  0.390335  0.800220  1
  P  P12  1  0.250000  0.423416  0.112174  1
  P  P13  1  0.250000  0.076584  0.612174  1
  P  P14  1  0.750000  0.576584  0.887826  1
  P  P15  1  0.750000  0.923416  0.387826  1
  P  P16  1  0.250000  0.267418  0.872759  1
  P  P17  1  0.250000  0.232582  0.372759  1
  P  P18  1  0.750000  0.732582  0.127241  1
  P  P19  1  0.750000  0.767418  0.627241  1
  P  P20  1  0.250000  0.599363  0.388196  1
  P  P21  1  0.250000  0.900637  0.888196  1
  P  P22  1  0.750000  0.400637  0.611804  1
  P  P23  1  0.750000  0.099363  0.111804  1
  Ru  Ru24  1  0.250000  0.707961  0.988501  1
  Ru  Ru25  1  0.250000  0.792039  0.488501  1
  Ru  Ru26  1  0.750000  0.292039  0.011499  1
  Ru  Ru27  1  0.750000  0.207961  0.511499  1
  Ru  Ru28  1  0.250000  0.406699  0.483847  1
  Ru  Ru29  1  0.250000  0.093301  0.983847  1
  Ru  Ru30  1  0.750000  0.593301  0.516153  1
  Ru  Ru31  1  0.750000  0.906699  0.016153  1
  Ru  Ru32  1  0.250000  0.224376  0.181980  1
  Ru  Ru33  1  0.250000  0.275625  0.681980  1
  Ru  Ru34  1  0.750000  0.775625  0.818020  1
  Ru  Ru35  1  0.750000  0.724375  0.318020  1
