# generated using pymatgen
data_TmVFe4P3
_symmetry_space_group_name_H-M   'P 1'
_cell_length_a   3.63286800
_cell_length_b   10.41905600
_cell_length_c   11.87712100
_cell_angle_alpha   90.00000000
_cell_angle_beta   90.00000000
_cell_angle_gamma   90.00000000
_symmetry_Int_Tables_number   1
_chemical_formula_structural   TmVFe4P3
_chemical_formula_sum   'Tm4 V4 Fe16 P12'
_cell_volume   449.56156179
_cell_formula_units_Z   4
loop_
 _symmetry_equiv_pos_site_id
 _symmetry_equiv_pos_as_xyz
  1  'x, y, z'
loop_
 _atom_site_type_symbol
 _atom_site_label
 _atom_site_symmetry_multiplicity
 _atom_site_fract_x
 _atom_site_fract_y
 _atom_site_fract_z
 _atom_site_occupancy
  Tm  Tm0  1  0.250000  0.579807  0.704969  1
  Tm  Tm1  1  0.250000  0.920193  0.204969  1
  Tm  Tm2  1  0.750000  0.420193  0.295031  1
  Tm  Tm3  1  0.750000  0.079807  0.795031  1
  V  V4  1  0.250000  0.699884  0.989298  1
  V  V5  1  0.250000  0.800116  0.489298  1
  V  V6  1  0.750000  0.300116  0.010702  1
  V  V7  1  0.750000  0.199884  0.510702  1
  Fe  Fe8  1  0.250000  0.405609  0.491026  1
  Fe  Fe9  1  0.250000  0.094391  0.991026  1
  Fe  Fe10  1  0.750000  0.594391  0.508974  1
  Fe  Fe11  1  0.750000  0.905609  0.008974  1
  Fe  Fe12  1  0.250000  0.218388  0.177947  1
  Fe  Fe13  1  0.250000  0.281612  0.677947  1
  Fe  Fe14  1  0.750000  0.781612  0.822053  1
  Fe  Fe15  1  0.750000  0.718388  0.322053  1
  Fe  Fe16  1  0.250000  0.874271  0.702262  1
  Fe  Fe17  1  0.250000  0.625729  0.202262  1
  Fe  Fe18  1  0.750000  0.125729  0.297738  1
  Fe  Fe19  1  0.750000  0.374271  0.797738  1
  Fe  Fe20  1  0.250000  0.462339  0.932251  1
  Fe  Fe21  1  0.250000  0.037661  0.432251  1
  Fe  Fe22  1  0.750000  0.537661  0.067749  1
  Fe  Fe23  1  0.750000  0.962339  0.567749  1
  P  P24  1  0.250000  0.425456  0.114537  1
  P  P25  1  0.250000  0.074544  0.614537  1
  P  P26  1  0.750000  0.574544  0.885463  1
  P  P27  1  0.750000  0.925456  0.385463  1
  P  P28  1  0.250000  0.261899  0.871378  1
  P  P29  1  0.250000  0.238101  0.371378  1
  P  P30  1  0.750000  0.738101  0.128622  1
  P  P31  1  0.750000  0.761899  0.628622  1
  P  P32  1  0.250000  0.593306  0.395357  1
  P  P33  1  0.250000  0.906694  0.895357  1
  P  P34  1  0.750000  0.406694  0.604643  1
  P  P35  1  0.750000  0.093306  0.104643  1
