# generated using pymatgen
data_Ho19Er(GaBi2)4
_symmetry_space_group_name_H-M   'P 1'
_cell_length_a   8.07191003
_cell_length_b   9.29071801
_cell_length_c   11.98077905
_cell_angle_alpha   90.00426673
_cell_angle_beta   89.99100437
_cell_angle_gamma   90.00103019
_symmetry_Int_Tables_number   1
_chemical_formula_structural   Ho19Er(GaBi2)4
_chemical_formula_sum   'Ho19 Er1 Ga4 Bi8'
_cell_volume   898.48461093
_cell_formula_units_Z   1
loop_
 _symmetry_equiv_pos_site_id
 _symmetry_equiv_pos_as_xyz
  1  'x, y, z'
loop_
 _atom_site_type_symbol
 _atom_site_label
 _atom_site_symmetry_multiplicity
 _atom_site_fract_x
 _atom_site_fract_y
 _atom_site_fract_z
 _atom_site_occupancy
  Ho  Ho0  1  0.680289  0.946189  0.562399  1
  Ho  Ho1  1  0.180318  0.053775  0.937649  1
  Ho  Ho2  1  0.319691  0.446191  0.437638  1
  Ho  Ho3  1  0.180318  0.446293  0.937693  1
  Ho  Ho4  1  0.319646  0.053794  0.437624  1
  Ho  Ho5  1  0.819673  0.946082  0.062306  1
  Ho  Ho6  1  0.680315  0.553838  0.562370  1
  Ho  Ho7  1  0.174121  0.749949  0.217577  1
  Ho  Ho8  1  0.325863  0.749973  0.717608  1
  Ho  Ho9  1  0.825769  0.249993  0.782370  1
  Ho  Ho10  1  0.674181  0.250078  0.282362  1
  Ho  Ho11  1  0.463250  0.749952  0.003574  1
  Ho  Ho12  1  0.036810  0.749964  0.503571  1
  Ho  Ho13  1  0.536966  0.250092  0.996504  1
  Ho  Ho14  1  0.963149  0.249989  0.496439  1
  Ho  Ho15  1  0.644712  0.749924  0.294678  1
  Ho  Ho16  1  0.855195  0.749929  0.794864  1
  Ho  Ho17  1  0.355382  0.249977  0.705170  1
  Ho  Ho18  1  0.144694  0.249999  0.205196  1
  Er  Er19  1  0.819824  0.553895  0.062335  1
  Ga  Ga20  1  0.405136  0.750025  0.475745  1
  Ga  Ga21  1  0.094792  0.749834  0.975797  1
  Ga  Ga22  1  0.594885  0.249983  0.524282  1
  Ga  Ga23  1  0.905000  0.250333  0.024395  1
  Bi  Bi24  1  0.937387  0.509678  0.324373  1
  Bi  Bi25  1  0.562536  0.990302  0.824483  1
  Bi  Bi26  1  0.062549  0.009660  0.675529  1
  Bi  Bi27  1  0.437580  0.490310  0.175469  1
  Bi  Bi28  1  0.062556  0.490327  0.675527  1
  Bi  Bi29  1  0.437453  0.009660  0.175532  1
  Bi  Bi30  1  0.937473  0.990312  0.324441  1
  Bi  Bi31  1  0.562486  0.509696  0.824499  1
