# generated using pymatgen
data_Er5CoRu
_symmetry_space_group_name_H-M   'P 1'
_cell_length_a   6.23255149
_cell_length_b   7.07127864
_cell_length_c   8.41402253
_cell_angle_alpha   96.48490721
_cell_angle_beta   111.73824765
_cell_angle_gamma   90.00000243
_symmetry_Int_Tables_number   1
_chemical_formula_structural   Er5CoRu
_chemical_formula_sum   'Er10 Co2 Ru2'
_cell_volume   341.89716251
_cell_formula_units_Z   2
loop_
 _symmetry_equiv_pos_site_id
 _symmetry_equiv_pos_as_xyz
  1  'x, y, z'
loop_
 _atom_site_type_symbol
 _atom_site_label
 _atom_site_symmetry_multiplicity
 _atom_site_fract_x
 _atom_site_fract_y
 _atom_site_fract_z
 _atom_site_occupancy
  Er  Er0  1  0.787839  0.588225  0.811007  1
  Er  Er1  1  0.976832  0.911775  0.188993  1
  Er  Er2  1  0.199242  0.417403  0.185218  1
  Er  Er3  1  0.014025  0.082597  0.814782  1
  Er  Er4  1  0.213799  0.688041  0.566517  1
  Er  Er5  1  0.647282  0.811959  0.433483  1
  Er  Er6  1  0.792588  0.318422  0.434624  1
  Er  Er7  1  0.357964  0.181578  0.565376  1
  Er  Er8  1  0.427249  0.750000  0.000000  1
  Er  Er9  1  0.579232  0.250000  0.000000  1
  Co  Co10  1  0.603364  0.923264  0.777631  1
  Co  Co11  1  0.825732  0.576736  0.222369  1
  Ru  Ru12  1  0.397710  0.073066  0.220569  1
  Ru  Ru13  1  0.177142  0.426934  0.779431  1
