# generated using pymatgen
data_Pr16Cd3In(CoIr)2
_symmetry_space_group_name_H-M   'P 1'
_cell_length_a   9.99657102
_cell_length_b   9.99656610
_cell_length_c   9.97002371
_cell_angle_alpha   60.00331624
_cell_angle_beta   60.00314564
_cell_angle_gamma   60.18453749
_symmetry_Int_Tables_number   1
_chemical_formula_structural   Pr16Cd3In(CoIr)2
_chemical_formula_sum   'Pr16 Cd3 In1 Co2 Ir2'
_cell_volume   705.51521518
_cell_formula_units_Z   1
loop_
 _symmetry_equiv_pos_site_id
 _symmetry_equiv_pos_as_xyz
  1  'x, y, z'
loop_
 _atom_site_type_symbol
 _atom_site_label
 _atom_site_symmetry_multiplicity
 _atom_site_fract_x
 _atom_site_fract_y
 _atom_site_fract_z
 _atom_site_occupancy
  Pr  Pr0  1  0.344374  0.344374  0.351938  1
  Pr  Pr1  1  0.346469  0.346469  0.956219  1
  Pr  Pr2  1  0.343825  0.959197  0.349937  1
  Pr  Pr3  1  0.959197  0.343825  0.349937  1
  Pr  Pr4  1  0.815336  0.189832  0.188104  1
  Pr  Pr5  1  0.190520  0.812500  0.803551  1
  Pr  Pr6  1  0.189831  0.815337  0.188104  1
  Pr  Pr7  1  0.812501  0.190520  0.803551  1
  Pr  Pr8  1  0.188488  0.188489  0.810024  1
  Pr  Pr9  1  0.807321  0.807322  0.189774  1
  Pr  Pr10  1  0.941709  0.562501  0.559734  1
  Pr  Pr11  1  0.560539  0.939278  0.939629  1
  Pr  Pr12  1  0.562500  0.941709  0.559734  1
  Pr  Pr13  1  0.939277  0.560540  0.939629  1
  Pr  Pr14  1  0.559183  0.559183  0.944502  1
  Pr  Pr15  1  0.937614  0.937614  0.561516  1
  Cd  Cd16  1  0.579165  0.579166  0.261273  1
  Cd  Cd17  1  0.579484  0.260490  0.579185  1
  Cd  Cd18  1  0.260490  0.579484  0.579186  1
  In  In19  1  0.580519  0.580518  0.580044  1
  Co  Co20  1  0.140486  0.140487  0.141860  1
  Co  Co21  1  0.142033  0.142033  0.577955  1
  Ir  Ir22  1  0.142313  0.576820  0.142307  1
  Ir  Ir23  1  0.576820  0.142313  0.142307  1
