# generated using pymatgen
data_La2Al16Pt8Rh
_symmetry_space_group_name_H-M   'P 1'
_cell_length_a   11.18664100
_cell_length_b   11.18664191
_cell_length_c   11.18664200
_cell_angle_alpha   158.39708788
_cell_angle_beta   115.71428521
_cell_angle_gamma   68.67599608
_symmetry_Int_Tables_number   1
_chemical_formula_structural   La2Al16Pt8Rh
_chemical_formula_sum   'La2 Al16 Pt8 Rh1'
_cell_volume   461.01625072
_cell_formula_units_Z   1
loop_
 _symmetry_equiv_pos_site_id
 _symmetry_equiv_pos_as_xyz
  1  'x, y, z'
loop_
 _atom_site_type_symbol
 _atom_site_label
 _atom_site_symmetry_multiplicity
 _atom_site_fract_x
 _atom_site_fract_y
 _atom_site_fract_z
 _atom_site_occupancy
  La  La0  1  0.228130  0.228265  0.999866  1
  La  La1  1  0.771601  0.771735  0.999866  1
  Al  Al2  1  0.275397  0.392503  0.882893  1
  Al  Al3  1  0.093918  0.922260  0.171657  1
  Al  Al4  1  0.509091  0.203628  0.305463  1
  Al  Al5  1  0.249397  0.077740  0.171657  1
  Al  Al6  1  0.913467  0.416102  0.497365  1
  Al  Al7  1  0.722887  0.603071  0.119817  1
  Al  Al8  1  0.898459  0.204770  0.693689  1
  Al  Al9  1  0.488919  0.795230  0.693689  1
  Al  Al10  1  0.387546  0.000000  0.387546  1
  Al  Al11  1  0.620238  0.000000  0.620238  1
  Al  Al12  1  0.490390  0.607497  0.882893  1
  Al  Al13  1  0.101835  0.796372  0.305463  1
  Al  Al14  1  0.901742  0.079199  0.822543  1
  Al  Al15  1  0.743344  0.920801  0.822543  1
  Al  Al16  1  0.516746  0.396929  0.119817  1
  Al  Al17  1  0.081263  0.583898  0.497365  1
  Pt  Pt18  1  0.027674  0.341371  0.686302  1
  Pt  Pt19  1  0.625365  0.124596  0.500769  1
  Pt  Pt20  1  0.253438  0.500000  0.753438  1
  Pt  Pt21  1  0.376173  0.875404  0.500769  1
  Pt  Pt22  1  0.994835  0.000000  0.994835  1
  Pt  Pt23  1  0.650986  0.339887  0.311099  1
  Pt  Pt24  1  0.344931  0.658629  0.686302  1
  Pt  Pt25  1  0.971212  0.660113  0.311099  1
  Rh  Rh26  1  0.761018  0.500000  0.261018  1
