# generated using pymatgen
data_Ca4Sn3Au10
_symmetry_space_group_name_H-M   'P 1'
_cell_length_a   8.77469235
_cell_length_b   8.77469291
_cell_length_c   10.16917100
_cell_angle_alpha   90.00000000
_cell_angle_beta   90.00000000
_cell_angle_gamma   106.89563485
_symmetry_Int_Tables_number   1
_chemical_formula_structural   Ca4Sn3Au10
_chemical_formula_sum   'Ca8 Sn6 Au20'
_cell_volume   749.18100792
_cell_formula_units_Z   2
loop_
 _symmetry_equiv_pos_site_id
 _symmetry_equiv_pos_as_xyz
  1  'x, y, z'
loop_
 _atom_site_type_symbol
 _atom_site_label
 _atom_site_symmetry_multiplicity
 _atom_site_fract_x
 _atom_site_fract_y
 _atom_site_fract_z
 _atom_site_occupancy
  Ca  Ca0  1  0.699059  0.300941  0.000000  1
  Ca  Ca1  1  0.199059  0.800941  0.500000  1
  Ca  Ca2  1  0.804483  0.804483  0.295144  1
  Ca  Ca3  1  0.304483  0.304483  0.204856  1
  Ca  Ca4  1  0.800941  0.199059  0.500000  1
  Ca  Ca5  1  0.300941  0.699059  0.000000  1
  Ca  Ca6  1  0.695517  0.695517  0.795144  1
  Ca  Ca7  1  0.195517  0.195517  0.704856  1
  Sn  Sn8  1  0.512842  0.012842  0.250000  1
  Sn  Sn9  1  0.987158  0.487158  0.750000  1
  Sn  Sn10  1  0.000000  0.000000  0.000000  1
  Sn  Sn11  1  0.012842  0.512842  0.250000  1
  Sn  Sn12  1  0.487158  0.987158  0.750000  1
  Sn  Sn13  1  0.500000  0.500000  0.500000  1
  Au  Au14  1  0.153006  0.429496  0.480727  1
  Au  Au15  1  0.903193  0.903193  0.595589  1
  Au  Au16  1  0.570504  0.846994  0.519273  1
  Au  Au17  1  0.888391  0.172210  0.207959  1
  Au  Au18  1  0.388391  0.672210  0.292041  1
  Au  Au19  1  0.672210  0.388391  0.292041  1
  Au  Au20  1  0.403193  0.403193  0.904411  1
  Au  Au21  1  0.929496  0.653006  0.019273  1
  Au  Au22  1  0.327790  0.611609  0.707959  1
  Au  Au23  1  0.346994  0.070504  0.980727  1
  Au  Au24  1  0.596807  0.596807  0.095589  1
  Au  Au25  1  0.653006  0.929496  0.019273  1
  Au  Au26  1  0.096807  0.096807  0.404411  1
  Au  Au27  1  0.611609  0.327790  0.707959  1
  Au  Au28  1  0.111609  0.827790  0.792041  1
  Au  Au29  1  0.070504  0.346994  0.980727  1
  Au  Au30  1  0.846994  0.570504  0.519273  1
  Au  Au31  1  0.172210  0.888391  0.207959  1
  Au  Au32  1  0.429496  0.153006  0.480727  1
  Au  Au33  1  0.827790  0.111609  0.792041  1
