# generated using pymatgen
data_Tb2PuSe3
_symmetry_space_group_name_H-M   'P 1'
_cell_length_a   4.10896700
_cell_length_b   4.10896605
_cell_length_c   9.89861300
_cell_angle_alpha   90.00000000
_cell_angle_beta   90.00000000
_cell_angle_gamma   119.99999958
_symmetry_Int_Tables_number   1
_chemical_formula_structural   Tb2PuSe3
_chemical_formula_sum   'Tb2 Pu1 Se3'
_cell_volume   144.73387354
_cell_formula_units_Z   1
loop_
 _symmetry_equiv_pos_site_id
 _symmetry_equiv_pos_as_xyz
  1  'x, y, z'
loop_
 _atom_site_type_symbol
 _atom_site_label
 _atom_site_symmetry_multiplicity
 _atom_site_fract_x
 _atom_site_fract_y
 _atom_site_fract_z
 _atom_site_occupancy
  Tb  Tb0  1  0.333333  0.666667  0.665487  1
  Tb  Tb1  1  0.666667  0.333333  0.334513  1
  Pu  Pu2  1  0.000000  0.000000  0.000000  1
  Se  Se3  1  0.333333  0.666667  0.169216  1
  Se  Se4  1  0.666667  0.333333  0.830784  1
  Se  Se5  1  0.000000  0.000000  0.500000  1
