# generated using pymatgen
data_Nb12Al8Ni3AuC4
_symmetry_space_group_name_H-M   'P 1'
_cell_length_a   8.33509653
_cell_length_b   8.32664810
_cell_length_c   8.32664800
_cell_angle_alpha   60.00000834
_cell_angle_beta   60.03353220
_cell_angle_gamma   60.03352947
_symmetry_Int_Tables_number   1
_chemical_formula_structural   Nb12Al8Ni3AuC4
_chemical_formula_sum   'Nb12 Al8 Ni3 Au1 C4'
_cell_volume   408.84246932
_cell_formula_units_Z   1
loop_
 _symmetry_equiv_pos_site_id
 _symmetry_equiv_pos_as_xyz
  1  'x, y, z'
loop_
 _atom_site_type_symbol
 _atom_site_label
 _atom_site_symmetry_multiplicity
 _atom_site_fract_x
 _atom_site_fract_y
 _atom_site_fract_z
 _atom_site_occupancy
  Nb  Nb0  1  0.812831  0.814374  0.186397  1
  Nb  Nb1  1  0.184655  0.181092  0.817126  1
  Nb  Nb2  1  0.812831  0.186397  0.814374  1
  Nb  Nb3  1  0.184655  0.817126  0.181092  1
  Nb  Nb4  1  0.184655  0.817126  0.817126  1
  Nb  Nb5  1  0.812831  0.186397  0.186397  1
  Nb  Nb6  1  0.437169  0.435626  0.063603  1
  Nb  Nb7  1  0.065345  0.068908  0.432874  1
  Nb  Nb8  1  0.437169  0.063603  0.435626  1
  Nb  Nb9  1  0.065345  0.432874  0.068908  1
  Nb  Nb10  1  0.065345  0.432874  0.432874  1
  Nb  Nb11  1  0.437169  0.063603  0.063603  1
  Al  Al12  1  0.747221  0.417593  0.417593  1
  Al  Al13  1  0.427963  0.750359  0.410839  1
  Al  Al14  1  0.427963  0.410839  0.750359  1
  Al  Al15  1  0.427963  0.410839  0.410839  1
  Al  Al16  1  0.502779  0.832407  0.832407  1
  Al  Al17  1  0.822037  0.499641  0.839161  1
  Al  Al18  1  0.822037  0.839161  0.499641  1
  Al  Al19  1  0.822037  0.839161  0.839161  1
  Ni  Ni20  1  0.625000  0.125000  0.625000  1
  Ni  Ni21  1  0.625000  0.625000  0.125000  1
  Ni  Ni22  1  0.625000  0.625000  0.625000  1
  Au  Au23  1  0.125000  0.625000  0.625000  1
  C  C24  1  0.625000  0.125000  0.125000  1
  C  C25  1  0.125000  0.625000  0.125000  1
  C  C26  1  0.125000  0.125000  0.625000  1
  C  C27  1  0.125000  0.125000  0.125000  1
