# generated using pymatgen
data_Yb2Lu3Co16(TcAs4)3
_symmetry_space_group_name_H-M   'P 1'
_cell_length_a   12.30424200
_cell_length_b   12.30424237
_cell_length_c   3.78985200
_cell_angle_alpha   90.00000000
_cell_angle_beta   90.00000000
_cell_angle_gamma   120.00000437
_symmetry_Int_Tables_number   1
_chemical_formula_structural   Yb2Lu3Co16(TcAs4)3
_chemical_formula_sum   'Yb2 Lu3 Co16 Tc3 As12'
_cell_volume   496.89268647
_cell_formula_units_Z   1
loop_
 _symmetry_equiv_pos_site_id
 _symmetry_equiv_pos_as_xyz
  1  'x, y, z'
loop_
 _atom_site_type_symbol
 _atom_site_label
 _atom_site_symmetry_multiplicity
 _atom_site_fract_x
 _atom_site_fract_y
 _atom_site_fract_z
 _atom_site_occupancy
  Yb  Yb0  1  0.666667  0.333333  0.000000  1
  Yb  Yb1  1  0.333333  0.666667  0.000000  1
  Lu  Lu2  1  0.816898  0.816898  0.500000  1
  Lu  Lu3  1  0.183102  0.000000  0.500000  1
  Lu  Lu4  1  0.000000  0.183102  0.500000  1
  Co  Co5  1  0.875662  0.353037  0.500000  1
  Co  Co6  1  0.646963  0.522626  0.500000  1
  Co  Co7  1  0.477374  0.124338  0.500000  1
  Co  Co8  1  0.353037  0.875662  0.500000  1
  Co  Co9  1  0.522626  0.646963  0.500000  1
  Co  Co10  1  0.124338  0.477374  0.500000  1
  Co  Co11  1  0.802956  0.176625  0.000000  1
  Co  Co12  1  0.823375  0.626329  0.000000  1
  Co  Co13  1  0.373671  0.197044  0.000000  1
  Co  Co14  1  0.176625  0.802956  0.000000  1
  Co  Co15  1  0.626329  0.823375  0.000000  1
  Co  Co16  1  0.197044  0.373671  0.000000  1
  Co  Co17  1  0.281910  0.281910  0.500000  1
  Co  Co18  1  0.718090  0.000000  0.500000  1
  Co  Co19  1  0.000000  0.718090  0.500000  1
  Co  Co20  1  0.000000  0.000000  0.000000  1
  Tc  Tc21  1  0.443934  0.443934  0.000000  1
  Tc  Tc22  1  0.556066  0.000000  0.000000  1
  Tc  Tc23  1  0.000000  0.556066  0.000000  1
  As  As24  1  0.682038  0.166235  0.500000  1
  As  As25  1  0.833765  0.515803  0.500000  1
  As  As26  1  0.484197  0.317962  0.500000  1
  As  As27  1  0.166235  0.682038  0.500000  1
  As  As28  1  0.515803  0.833765  0.500000  1
  As  As29  1  0.317962  0.484197  0.500000  1
  As  As30  1  0.177408  0.177408  0.000000  1
  As  As31  1  0.822592  0.000000  0.000000  1
  As  As32  1  0.000000  0.822592  0.000000  1
  As  As33  1  0.640567  0.640567  0.000000  1
  As  As34  1  0.359433  0.000000  0.000000  1
  As  As35  1  0.000000  0.359433  0.000000  1
