# generated using pymatgen
data_Li2Ho3TmAs4
_symmetry_space_group_name_H-M   'P 1'
_cell_length_a   4.15337000
_cell_length_b   4.15337043
_cell_length_c   14.00306800
_cell_angle_alpha   90.00000000
_cell_angle_beta   90.00000000
_cell_angle_gamma   119.99998068
_symmetry_Int_Tables_number   1
_chemical_formula_structural   Li2Ho3TmAs4
_chemical_formula_sum   'Li2 Ho3 Tm1 As4'
_cell_volume   209.19687938
_cell_formula_units_Z   1
loop_
 _symmetry_equiv_pos_site_id
 _symmetry_equiv_pos_as_xyz
  1  'x, y, z'
loop_
 _atom_site_type_symbol
 _atom_site_label
 _atom_site_symmetry_multiplicity
 _atom_site_fract_x
 _atom_site_fract_y
 _atom_site_fract_z
 _atom_site_occupancy
  Li  Li0  1  0.000000  0.000000  0.749565  1
  Li  Li1  1  0.000000  0.000000  0.249915  1
  Ho  Ho2  1  0.333333  0.666667  0.889231  1
  Ho  Ho3  1  0.666667  0.333333  0.389644  1
  Ho  Ho4  1  0.666667  0.333333  0.110496  1
  Tm  Tm5  1  0.333333  0.666667  0.610468  1
  As  As6  1  0.000000  0.000000  0.999912  1
  As  As7  1  0.333333  0.666667  0.250473  1
  As  As8  1  0.666667  0.333333  0.748664  1
  As  As9  1  0.000000  0.000000  0.501631  1
