# generated using pymatgen
data_Hf11Th8Si16W
_symmetry_space_group_name_H-M   'P 1'
_cell_length_a   7.36275115
_cell_length_b   7.36275220
_cell_length_c   13.55506014
_cell_angle_alpha   89.80885667
_cell_angle_beta   90.19114281
_cell_angle_gamma   90.07339805
_symmetry_Int_Tables_number   1
_chemical_formula_structural   Hf11Th8Si16W
_chemical_formula_sum   'Hf11 Th8 Si16 W1'
_cell_volume   734.81256073
_cell_formula_units_Z   1
loop_
 _symmetry_equiv_pos_site_id
 _symmetry_equiv_pos_as_xyz
  1  'x, y, z'
loop_
 _atom_site_type_symbol
 _atom_site_label
 _atom_site_symmetry_multiplicity
 _atom_site_fract_x
 _atom_site_fract_y
 _atom_site_fract_z
 _atom_site_occupancy
  Hf  Hf0  1  0.826434  0.826434  0.500000  1
  Hf  Hf1  1  0.325111  0.673292  0.248685  1
  Hf  Hf2  1  0.673292  0.325111  0.751315  1
  Hf  Hf3  1  0.153641  0.997265  0.373409  1
  Hf  Hf4  1  0.848780  0.003357  0.877745  1
  Hf  Hf5  1  0.503076  0.654003  0.625552  1
  Hf  Hf6  1  0.346057  0.493534  0.878111  1
  Hf  Hf7  1  0.493534  0.346057  0.121889  1
  Hf  Hf8  1  0.654003  0.503076  0.374448  1
  Hf  Hf9  1  0.997265  0.153641  0.626591  1
  Hf  Hf10  1  0.003357  0.848780  0.122255  1
  Th  Th11  1  0.998668  0.341207  0.215110  1
  Th  Th12  1  0.004879  0.657951  0.717580  1
  Th  Th13  1  0.157972  0.496076  0.466418  1
  Th  Th14  1  0.501175  0.843163  0.033533  1
  Th  Th15  1  0.843163  0.501175  0.966467  1
  Th  Th16  1  0.496076  0.157972  0.533582  1
  Th  Th17  1  0.341207  0.998668  0.784890  1
  Th  Th18  1  0.657951  0.004879  0.282420  1
  Si  Si19  1  0.367197  0.298340  0.314960  1
  Si  Si20  1  0.632723  0.701290  0.815627  1
  Si  Si21  1  0.202193  0.867206  0.566066  1
  Si  Si22  1  0.132715  0.800407  0.933709  1
  Si  Si23  1  0.800407  0.132715  0.066291  1
  Si  Si24  1  0.867206  0.202193  0.433934  1
  Si  Si25  1  0.298340  0.367197  0.685040  1
  Si  Si26  1  0.701290  0.632723  0.184373  1
  Si  Si27  1  0.289789  0.049172  0.182276  1
  Si  Si28  1  0.708058  0.953879  0.685620  1
  Si  Si29  1  0.454001  0.791105  0.434428  1
  Si  Si30  1  0.208510  0.544588  0.064456  1
  Si  Si31  1  0.544588  0.208510  0.935544  1
  Si  Si32  1  0.791105  0.454001  0.565572  1
  Si  Si33  1  0.049172  0.289789  0.817724  1
  Si  Si34  1  0.953879  0.708058  0.314380  1
  W  W35  1  0.173186  0.173186  0.000000  1
