# generated using pymatgen
data_La10Mg(AlRu2)3
_symmetry_space_group_name_H-M   'P 1'
_cell_length_a   8.70275339
_cell_length_b   8.70275286
_cell_length_c   8.60117500
_cell_angle_alpha   109.23495734
_cell_angle_beta   109.23495611
_cell_angle_gamma   109.70644802
_symmetry_Int_Tables_number   1
_chemical_formula_structural   La10Mg(AlRu2)3
_chemical_formula_sum   'La10 Mg1 Al3 Ru6'
_cell_volume   502.92965121
_cell_formula_units_Z   1
loop_
 _symmetry_equiv_pos_site_id
 _symmetry_equiv_pos_as_xyz
  1  'x, y, z'
loop_
 _atom_site_type_symbol
 _atom_site_label
 _atom_site_symmetry_multiplicity
 _atom_site_fract_x
 _atom_site_fract_y
 _atom_site_fract_z
 _atom_site_occupancy
  La  La0  1  0.244859  0.680768  0.435567  1
  La  La1  1  0.751104  0.806493  0.061814  1
  La  La2  1  0.435910  0.255141  0.690707  1
  La  La3  1  0.693507  0.444612  0.255321  1
  La  La4  1  0.055389  0.748896  0.810710  1
  La  La5  1  0.819232  0.064091  0.754798  1
  La  La6  1  0.214517  0.213030  0.212808  1
  La  La7  1  0.500001  0.000000  0.298252  1
  La  La8  1  0.286970  0.501488  0.999779  1
  La  La9  1  0.998513  0.285483  0.498293  1
  Mg  Mg10  1  0.500001  0.000000  0.915425  1
  Al  Al11  1  0.587619  0.589608  0.587752  1
  Al  Al12  1  0.910392  0.498012  0.998145  1
  Al  Al13  1  0.001989  0.912381  0.500134  1
  Ru  Ru14  1  0.242359  0.131051  0.864211  1
  Ru  Ru15  1  0.746481  0.383716  0.630490  1
  Ru  Ru16  1  0.888694  0.257643  0.121853  1
  Ru  Ru17  1  0.116283  0.862764  0.246775  1
  Ru  Ru18  1  0.637235  0.753519  0.384008  1
  Ru  Ru19  1  0.368948  0.611305  0.733160  1
