# generated using pymatgen
data_Tb5CeTcIr
_symmetry_space_group_name_H-M   'P 1'
_cell_length_a   6.35242600
_cell_length_b   7.21448800
_cell_length_c   9.53152600
_cell_angle_alpha   90.00000000
_cell_angle_beta   90.00000000
_cell_angle_gamma   90.00000000
_symmetry_Int_Tables_number   1
_chemical_formula_structural   Tb5CeTcIr
_chemical_formula_sum   'Tb10 Ce2 Tc2 Ir2'
_cell_volume   436.82508176
_cell_formula_units_Z   2
loop_
 _symmetry_equiv_pos_site_id
 _symmetry_equiv_pos_as_xyz
  1  'x, y, z'
loop_
 _atom_site_type_symbol
 _atom_site_label
 _atom_site_symmetry_multiplicity
 _atom_site_fract_x
 _atom_site_fract_y
 _atom_site_fract_z
 _atom_site_occupancy
  Tb  Tb0  1  0.331360  0.678578  0.063493  1
  Tb  Tb1  1  0.168640  0.178578  0.436507  1
  Tb  Tb2  1  0.671959  0.322981  0.564535  1
  Tb  Tb3  1  0.828041  0.822981  0.935465  1
  Tb  Tb4  1  0.671959  0.322981  0.935465  1
  Tb  Tb5  1  0.828041  0.822981  0.564535  1
  Tb  Tb6  1  0.331360  0.678578  0.436507  1
  Tb  Tb7  1  0.168640  0.178578  0.063493  1
  Tb  Tb8  1  0.137296  0.462557  0.750000  1
  Tb  Tb9  1  0.362704  0.962557  0.750000  1
  Ce  Ce10  1  0.864073  0.556413  0.250000  1
  Ce  Ce11  1  0.635927  0.056413  0.250000  1
  Tc  Tc12  1  0.003673  0.862679  0.250000  1
  Tc  Tc13  1  0.496327  0.362679  0.250000  1
  Ir  Ir14  1  0.949301  0.115231  0.750000  1
  Ir  Ir15  1  0.550699  0.615231  0.750000  1
