# generated using pymatgen
data_TbHo(CuP)3
_symmetry_space_group_name_H-M   'P 1'
_cell_length_a   3.85414900
_cell_length_b   10.67929500
_cell_length_c   12.93920600
_cell_angle_alpha   90.00000000
_cell_angle_beta   90.00000000
_cell_angle_gamma   90.00000000
_symmetry_Int_Tables_number   1
_chemical_formula_structural   TbHo(CuP)3
_chemical_formula_sum   'Tb4 Ho4 Cu12 P12'
_cell_volume   532.57246752
_cell_formula_units_Z   4
loop_
 _symmetry_equiv_pos_site_id
 _symmetry_equiv_pos_as_xyz
  1  'x, y, z'
loop_
 _atom_site_type_symbol
 _atom_site_label
 _atom_site_symmetry_multiplicity
 _atom_site_fract_x
 _atom_site_fract_y
 _atom_site_fract_z
 _atom_site_occupancy
  Tb  Tb0  1  0.250000  0.930066  0.793122  1
  Tb  Tb1  1  0.750000  0.430066  0.706878  1
  Tb  Tb2  1  0.250000  0.569934  0.293122  1
  Tb  Tb3  1  0.750000  0.069934  0.206878  1
  Ho  Ho4  1  0.250000  0.841542  0.503067  1
  Ho  Ho5  1  0.750000  0.341542  0.996933  1
  Ho  Ho6  1  0.250000  0.658458  0.003067  1
  Ho  Ho7  1  0.750000  0.158458  0.496933  1
  Cu  Cu8  1  0.250000  0.402249  0.513807  1
  Cu  Cu9  1  0.750000  0.902249  0.986193  1
  Cu  Cu10  1  0.250000  0.097751  0.013807  1
  Cu  Cu11  1  0.750000  0.597751  0.486193  1
  Cu  Cu12  1  0.250000  0.273144  0.332419  1
  Cu  Cu13  1  0.750000  0.773144  0.167581  1
  Cu  Cu14  1  0.250000  0.226856  0.832419  1
  Cu  Cu15  1  0.750000  0.726856  0.667581  1
  Cu  Cu16  1  0.250000  0.860594  0.280159  1
  Cu  Cu17  1  0.750000  0.360594  0.219841  1
  Cu  Cu18  1  0.250000  0.639406  0.780159  1
  Cu  Cu19  1  0.750000  0.139406  0.719841  1
  P  P20  1  0.250000  0.239806  0.642931  1
  P  P21  1  0.750000  0.739806  0.857069  1
  P  P22  1  0.250000  0.260194  0.142931  1
  P  P23  1  0.750000  0.760194  0.357069  1
  P  P24  1  0.250000  0.604508  0.600389  1
  P  P25  1  0.750000  0.104508  0.899611  1
  P  P26  1  0.250000  0.895492  0.100389  1
  P  P27  1  0.750000  0.395492  0.399611  1
  P  P28  1  0.250000  0.057395  0.369757  1
  P  P29  1  0.750000  0.557395  0.130243  1
  P  P30  1  0.250000  0.442605  0.869757  1
  P  P31  1  0.750000  0.942605  0.630243  1
