# generated using pymatgen
data_Sr4DyHo(OsO6)2
_symmetry_space_group_name_H-M   'P 1'
_cell_length_a   5.83010562
_cell_length_b   5.87790301
_cell_length_c   10.08763204
_cell_angle_alpha   89.99524187
_cell_angle_beta   125.00742559
_cell_angle_gamma   90.00530343
_symmetry_Int_Tables_number   1
_chemical_formula_structural   Sr4DyHo(OsO6)2
_chemical_formula_sum   'Sr4 Dy1 Ho1 Os2 O12'
_cell_volume   283.14778682
_cell_formula_units_Z   1
loop_
 _symmetry_equiv_pos_site_id
 _symmetry_equiv_pos_as_xyz
  1  'x, y, z'
loop_
 _atom_site_type_symbol
 _atom_site_label
 _atom_site_symmetry_multiplicity
 _atom_site_fract_x
 _atom_site_fract_y
 _atom_site_fract_z
 _atom_site_occupancy
  Sr  Sr0  1  0.258078  0.034351  0.750640  1
  Sr  Sr1  1  0.258523  0.465750  0.251080  1
  Sr  Sr2  1  0.741922  0.965649  0.249360  1
  Sr  Sr3  1  0.741477  0.534250  0.748920  1
  Dy  Dy4  1  0.000000  0.000000  0.000000  1
  Ho  Ho5  1  0.000000  0.500000  0.500000  1
  Os  Os6  1  0.500000  0.000000  0.500000  1
  Os  Os7  1  0.500000  0.500000  0.000000  1
  O  O8  1  0.190439  0.480789  0.764955  1
  O  O9  1  0.190763  0.019277  0.265561  1
  O  O10  1  0.809561  0.519211  0.235045  1
  O  O11  1  0.809237  0.980723  0.734439  1
  O  O12  1  0.732024  0.200812  0.461436  1
  O  O13  1  0.731654  0.299837  0.961266  1
  O  O14  1  0.267976  0.799188  0.538564  1
  O  O15  1  0.268346  0.700163  0.038734  1
  O  O16  1  0.657645  0.727934  0.459873  1
  O  O17  1  0.656795  0.771896  0.959704  1
  O  O18  1  0.342355  0.272066  0.540127  1
  O  O19  1  0.343205  0.228104  0.040296  1
