# generated using pymatgen
data_LiDyTm5Co17P12
_symmetry_space_group_name_H-M   'P 1'
_cell_length_a   3.69116200
_cell_length_b   10.50805900
_cell_length_c   12.15060500
_cell_angle_alpha   90.00000000
_cell_angle_beta   90.00000000
_cell_angle_gamma   90.00000000
_symmetry_Int_Tables_number   1
_chemical_formula_structural   LiDyTm5Co17P12
_chemical_formula_sum   'Li1 Dy1 Tm5 Co17 P12'
_cell_volume   471.28488521
_cell_formula_units_Z   1
loop_
 _symmetry_equiv_pos_site_id
 _symmetry_equiv_pos_as_xyz
  1  'x, y, z'
loop_
 _atom_site_type_symbol
 _atom_site_label
 _atom_site_symmetry_multiplicity
 _atom_site_fract_x
 _atom_site_fract_y
 _atom_site_fract_z
 _atom_site_occupancy
  Li  Li0  1  0.500000  0.500000  0.151748  1
  Dy  Dy1  1  0.000000  0.500000  0.523123  1
  Tm  Tm2  1  0.500000  0.000000  0.477742  1
  Tm  Tm3  1  0.500000  0.820022  0.206520  1
  Tm  Tm4  1  0.500000  0.179978  0.206520  1
  Tm  Tm5  1  0.000000  0.681898  0.794689  1
  Tm  Tm6  1  0.000000  0.318102  0.794689  1
  Co  Co7  1  0.000000  0.000000  0.839575  1
  Co  Co8  1  0.500000  0.500000  0.705292  1
  Co  Co9  1  0.000000  0.000000  0.296617  1
  Co  Co10  1  0.000000  0.500000  0.986348  1
  Co  Co11  1  0.500000  0.000000  0.012228  1
  Co  Co12  1  0.500000  0.330602  0.995093  1
  Co  Co13  1  0.500000  0.669398  0.995093  1
  Co  Co14  1  0.000000  0.164791  0.003176  1
  Co  Co15  1  0.000000  0.835209  0.003176  1
  Co  Co16  1  0.500000  0.295439  0.431878  1
  Co  Co17  1  0.500000  0.704561  0.431878  1
  Co  Co18  1  0.000000  0.201607  0.570345  1
  Co  Co19  1  0.000000  0.798393  0.570345  1
  Co  Co20  1  0.500000  0.879368  0.709077  1
  Co  Co21  1  0.500000  0.120632  0.709077  1
  Co  Co22  1  0.000000  0.623026  0.292519  1
  Co  Co23  1  0.000000  0.376974  0.292519  1
  P  P24  1  0.500000  0.500000  0.884439  1
  P  P25  1  0.000000  0.000000  0.117197  1
  P  P26  1  0.500000  0.500000  0.345375  1
  P  P27  1  0.000000  0.000000  0.654517  1
  P  P28  1  0.500000  0.310271  0.617768  1
  P  P29  1  0.500000  0.689729  0.617768  1
  P  P30  1  0.000000  0.188429  0.384518  1
  P  P31  1  0.000000  0.811571  0.384518  1
  P  P32  1  0.500000  0.847269  0.890969  1
  P  P33  1  0.500000  0.152731  0.890969  1
  P  P34  1  0.000000  0.658122  0.106346  1
  P  P35  1  0.000000  0.341878  0.106346  1
