# generated using pymatgen
data_Cs12K5Rb(AlAs4)2
_symmetry_space_group_name_H-M   'P 1'
_cell_length_a   10.66670502
_cell_length_b   10.62001098
_cell_length_c   11.30401600
_cell_angle_alpha   90.00000000
_cell_angle_beta   90.00000000
_cell_angle_gamma   119.85530664
_symmetry_Int_Tables_number   1
_chemical_formula_structural   Cs12K5Rb(AlAs4)2
_chemical_formula_sum   'Cs12 K5 Rb1 Al2 As8'
_cell_volume   1110.58042389
_cell_formula_units_Z   1
loop_
 _symmetry_equiv_pos_site_id
 _symmetry_equiv_pos_as_xyz
  1  'x, y, z'
loop_
 _atom_site_type_symbol
 _atom_site_label
 _atom_site_symmetry_multiplicity
 _atom_site_fract_x
 _atom_site_fract_y
 _atom_site_fract_z
 _atom_site_occupancy
  Cs  Cs0  1  0.208072  0.791403  0.953528  1
  Cs  Cs1  1  0.208072  0.416669  0.953528  1
  Cs  Cs2  1  0.583579  0.791789  0.953082  1
  Cs  Cs3  1  0.417038  0.208519  0.452155  1
  Cs  Cs4  1  0.791812  0.583682  0.046914  1
  Cs  Cs5  1  0.791812  0.208131  0.453086  1
  Cs  Cs6  1  0.791812  0.583682  0.453086  1
  Cs  Cs7  1  0.208072  0.791403  0.546472  1
  Cs  Cs8  1  0.583579  0.791789  0.546918  1
  Cs  Cs9  1  0.417038  0.208519  0.047845  1
  Cs  Cs10  1  0.791812  0.208131  0.046914  1
  Cs  Cs11  1  0.208072  0.416669  0.546472  1
  K  K12  1  0.878412  0.121149  0.750000  1
  K  K13  1  0.757681  0.878840  0.250000  1
  K  K14  1  0.120866  0.241964  0.250000  1
  K  K15  1  0.120866  0.878902  0.250000  1
  K  K16  1  0.878412  0.757264  0.750000  1
  Rb  Rb17  1  0.239953  0.119976  0.750000  1
  Al  Al18  1  0.333223  0.666612  0.250000  1
  Al  Al19  1  0.667282  0.333640  0.750000  1
  As  As20  1  0.998365  0.999182  0.001886  1
  As  As21  1  0.064560  0.532280  0.250000  1
  As  As22  1  0.467633  0.936071  0.250000  1
  As  As23  1  0.534969  0.063839  0.750000  1
  As  As24  1  0.534969  0.471129  0.750000  1
  As  As25  1  0.998365  0.999182  0.498114  1
  As  As26  1  0.467633  0.531563  0.250000  1
  As  As27  1  0.936042  0.468021  0.750000  1
