# generated using pymatgen
data_Yb20(HgAu3)3
_symmetry_space_group_name_H-M   'P 1'
_cell_length_a   7.96767200
_cell_length_b   7.96767200
_cell_length_c   14.11413700
_cell_angle_alpha   90.00000000
_cell_angle_beta   90.00000000
_cell_angle_gamma   90.00000000
_symmetry_Int_Tables_number   1
_chemical_formula_structural   Yb20(HgAu3)3
_chemical_formula_sum   'Yb20 Hg3 Au9'
_cell_volume   896.01900954
_cell_formula_units_Z   1
loop_
 _symmetry_equiv_pos_site_id
 _symmetry_equiv_pos_as_xyz
  1  'x, y, z'
loop_
 _atom_site_type_symbol
 _atom_site_label
 _atom_site_symmetry_multiplicity
 _atom_site_fract_x
 _atom_site_fract_y
 _atom_site_fract_z
 _atom_site_occupancy
  Yb  Yb0  1  0.000000  0.000000  0.753813  1
  Yb  Yb1  1  0.500000  0.500000  0.248803  1
  Yb  Yb2  1  0.000000  0.000000  0.246187  1
  Yb  Yb3  1  0.500000  0.500000  0.751197  1
  Yb  Yb4  1  0.171359  0.658419  0.108313  1
  Yb  Yb5  1  0.664250  0.164568  0.611589  1
  Yb  Yb6  1  0.828641  0.341581  0.108313  1
  Yb  Yb7  1  0.335750  0.835432  0.611589  1
  Yb  Yb8  1  0.341581  0.171359  0.108313  1
  Yb  Yb9  1  0.835432  0.664250  0.611589  1
  Yb  Yb10  1  0.658419  0.828641  0.108313  1
  Yb  Yb11  1  0.164568  0.335750  0.611589  1
  Yb  Yb12  1  0.341581  0.828641  0.891687  1
  Yb  Yb13  1  0.835432  0.335750  0.388411  1
  Yb  Yb14  1  0.658419  0.171359  0.891687  1
  Yb  Yb15  1  0.164568  0.664250  0.388411  1
  Yb  Yb16  1  0.171359  0.341581  0.891687  1
  Yb  Yb17  1  0.664250  0.835432  0.388411  1
  Yb  Yb18  1  0.828641  0.658419  0.891687  1
  Yb  Yb19  1  0.335750  0.164568  0.388411  1
  Hg  Hg20  1  0.000000  0.000000  0.500000  1
  Hg  Hg21  1  0.000000  0.000000  0.000000  1
  Hg  Hg22  1  0.500000  0.500000  0.500000  1
  Au  Au23  1  0.634725  0.133975  0.248779  1
  Au  Au24  1  0.133975  0.634725  0.751221  1
  Au  Au25  1  0.866025  0.365275  0.751221  1
  Au  Au26  1  0.365275  0.866025  0.248779  1
  Au  Au27  1  0.365275  0.133975  0.751221  1
  Au  Au28  1  0.866025  0.634725  0.248779  1
  Au  Au29  1  0.133975  0.365275  0.248779  1
  Au  Au30  1  0.634725  0.866025  0.751221  1
  Au  Au31  1  0.500000  0.500000  0.000000  1
