# generated using pymatgen
data_SrYbH9W
_symmetry_space_group_name_H-M   'P 1'
_cell_length_a   8.74123800
_cell_length_b   8.74123785
_cell_length_c   5.03637600
_cell_angle_alpha   90.00000000
_cell_angle_beta   90.00000000
_cell_angle_gamma   120.00000055
_symmetry_Int_Tables_number   1
_chemical_formula_structural   SrYbH9W
_chemical_formula_sum   'Sr3 Yb3 H27 W3'
_cell_volume   333.26880008
_cell_formula_units_Z   3
loop_
 _symmetry_equiv_pos_site_id
 _symmetry_equiv_pos_as_xyz
  1  'x, y, z'
loop_
 _atom_site_type_symbol
 _atom_site_label
 _atom_site_symmetry_multiplicity
 _atom_site_fract_x
 _atom_site_fract_y
 _atom_site_fract_z
 _atom_site_occupancy
  Sr  Sr0  1  0.000000  0.609325  0.000000  1
  Sr  Sr1  1  0.390675  0.390675  0.000000  1
  Sr  Sr2  1  0.609325  0.000000  0.000000  1
  Yb  Yb3  1  0.000000  0.263203  0.500000  1
  Yb  Yb4  1  0.736797  0.736797  0.500000  1
  Yb  Yb5  1  0.263203  0.000000  0.500000  1
  H  H6  1  0.810957  0.329795  0.752459  1
  H  H7  1  0.670205  0.481161  0.752459  1
  H  H8  1  0.518839  0.189043  0.752459  1
  H  H9  1  0.189043  0.518839  0.247541  1
  H  H10  1  0.518839  0.189043  0.247541  1
  H  H11  1  0.810957  0.329795  0.247541  1
  H  H12  1  0.670205  0.481161  0.247541  1
  H  H13  1  0.329795  0.810957  0.752459  1
  H  H14  1  0.481161  0.670205  0.752459  1
  H  H15  1  0.207767  0.000000  0.000000  1
  H  H16  1  0.792233  0.792233  0.000000  1
  H  H17  1  0.000000  0.207767  0.000000  1
  H  H18  1  0.854324  0.000000  0.261358  1
  H  H19  1  0.145676  0.145676  0.738642  1
  H  H20  1  0.000000  0.854324  0.738642  1
  H  H21  1  0.000000  0.854324  0.261358  1
  H  H22  1  0.145676  0.145676  0.261358  1
  H  H23  1  0.854324  0.000000  0.738642  1
  H  H24  1  0.133200  0.675329  0.500000  1
  H  H25  1  0.542129  0.866800  0.500000  1
  H  H26  1  0.324671  0.457871  0.500000  1
  H  H27  1  0.457871  0.324671  0.500000  1
  H  H28  1  0.866800  0.542129  0.500000  1
  H  H29  1  0.675329  0.133200  0.500000  1
  H  H30  1  0.189043  0.518839  0.752459  1
  H  H31  1  0.329795  0.810957  0.247541  1
  H  H32  1  0.481161  0.670205  0.247541  1
  W  W33  1  0.666667  0.333333  0.500000  1
  W  W34  1  0.333333  0.666667  0.500000  1
  W  W35  1  0.000000  0.000000  0.000000  1
