# generated using pymatgen
data_Dy4Ga24NiPt8
_symmetry_space_group_name_H-M   'P 1'
_cell_length_a   7.49118505
_cell_length_b   7.53474817
_cell_length_c   13.35340233
_cell_angle_alpha   84.54622394
_cell_angle_beta   79.43668367
_cell_angle_gamma   60.41796475
_symmetry_Int_Tables_number   1
_chemical_formula_structural   Dy4Ga24NiPt8
_chemical_formula_sum   'Dy4 Ga24 Ni1 Pt8'
_cell_volume   644.35670344
_cell_formula_units_Z   1
loop_
 _symmetry_equiv_pos_site_id
 _symmetry_equiv_pos_as_xyz
  1  'x, y, z'
loop_
 _atom_site_type_symbol
 _atom_site_label
 _atom_site_symmetry_multiplicity
 _atom_site_fract_x
 _atom_site_fract_y
 _atom_site_fract_z
 _atom_site_occupancy
  Dy  Dy0  1  0.398051  0.163943  0.812187  1
  Dy  Dy1  1  0.601949  0.836057  0.187813  1
  Dy  Dy2  1  0.728418  0.496600  0.812824  1
  Dy  Dy3  1  0.271582  0.503400  0.187176  1
  Ga  Ga4  1  0.693834  0.824044  0.942011  1
  Ga  Ga5  1  0.306166  0.175956  0.057989  1
  Ga  Ga6  1  0.145187  0.834133  0.559557  1
  Ga  Ga7  1  0.854813  0.165867  0.440443  1
  Ga  Ga8  1  0.478191  0.168318  0.556569  1
  Ga  Ga9  1  0.521809  0.831682  0.443431  1
  Ga  Ga10  1  0.221059  0.165920  0.322370  1
  Ga  Ga11  1  0.778941  0.834080  0.677630  1
  Ga  Ga12  1  0.435580  0.504165  0.675996  1
  Ga  Ga13  1  0.564420  0.495835  0.324004  1
  Ga  Ga14  1  0.106071  0.164708  0.676029  1
  Ga  Ga15  1  0.893929  0.835292  0.323971  1
  Ga  Ga16  1  0.346215  0.498196  0.942884  1
  Ga  Ga17  1  0.653785  0.501804  0.057116  1
  Ga  Ga18  1  0.019606  0.179456  0.944913  1
  Ga  Ga19  1  0.980394  0.820544  0.055087  1
  Ga  Ga20  1  0.187346  0.497592  0.442495  1
  Ga  Ga21  1  0.812654  0.502408  0.557505  1
  Ga  Ga22  1  0.737542  0.166072  0.180739  1
  Ga  Ga23  1  0.262458  0.833928  0.819261  1
  Ga  Ga24  1  0.059731  0.619898  0.822033  1
  Ga  Ga25  1  0.940269  0.380102  0.177967  1
  Ga  Ga26  1  0.860353  0.034994  0.818346  1
  Ga  Ga27  1  0.139647  0.965006  0.181654  1
  Ni  Ni28  1  0.000000  0.500000  0.000000  1
  Pt  Pt29  1  0.116348  0.498268  0.639361  1
  Pt  Pt30  1  0.883652  0.501732  0.360639  1
  Pt  Pt31  1  0.659660  0.169770  0.999104  1
  Pt  Pt32  1  0.340340  0.830230  0.000896  1
  Pt  Pt33  1  0.542635  0.164806  0.359330  1
  Pt  Pt34  1  0.457365  0.835194  0.640670  1
  Pt  Pt35  1  0.778679  0.173764  0.638717  1
  Pt  Pt36  1  0.221321  0.826236  0.361283  1
