# generated using pymatgen
data_Lu4ReTc3F28
_symmetry_space_group_name_H-M   'P 1'
_cell_length_a   5.48371822
_cell_length_b   8.77042715
_cell_length_c   11.87520508
_cell_angle_alpha   62.69452897
_cell_angle_beta   90.01097718
_cell_angle_gamma   89.97789411
_symmetry_Int_Tables_number   1
_chemical_formula_structural   Lu4ReTc3F28
_chemical_formula_sum   'Lu4 Re1 Tc3 F28'
_cell_volume   507.49322557
_cell_formula_units_Z   1
loop_
 _symmetry_equiv_pos_site_id
 _symmetry_equiv_pos_as_xyz
  1  'x, y, z'
loop_
 _atom_site_type_symbol
 _atom_site_label
 _atom_site_symmetry_multiplicity
 _atom_site_fract_x
 _atom_site_fract_y
 _atom_site_fract_z
 _atom_site_occupancy
  Lu  Lu0  1  0.259358  0.816266  0.263707  1
  Lu  Lu1  1  0.740922  0.184033  0.736617  1
  Lu  Lu2  1  0.759027  0.183631  0.236687  1
  Lu  Lu3  1  0.241505  0.816139  0.763155  1
  Re  Re4  1  0.758232  0.726474  0.042291  1
  Tc  Tc5  1  0.241196  0.273964  0.956922  1
  Tc  Tc6  1  0.258578  0.273492  0.457495  1
  Tc  Tc7  1  0.741480  0.726061  0.542997  1
  F  F8  1  0.943151  0.708786  0.413328  1
  F  F9  1  0.056442  0.291049  0.586474  1
  F  F10  1  0.443088  0.291362  0.086564  1
  F  F11  1  0.554486  0.708554  0.912141  1
  F  F12  1  0.464825  0.728883  0.139530  1
  F  F13  1  0.532227  0.270436  0.861638  1
  F  F14  1  0.967444  0.270802  0.361434  1
  F  F15  1  0.032546  0.729737  0.638339  1
  F  F16  1  0.957669  0.744229  0.176477  1
  F  F17  1  0.044243  0.255407  0.824873  1
  F  F18  1  0.456302  0.255838  0.324640  1
  F  F19  1  0.544223  0.744651  0.675043  1
  F  F20  1  0.771503  0.472845  0.143061  1
  F  F21  1  0.228159  0.524253  0.858692  1
  F  F22  1  0.271589  0.524831  0.358044  1
  F  F23  1  0.728472  0.475317  0.641455  1
  F  F24  1  0.939932  0.277536  0.047527  1
  F  F25  1  0.062800  0.722976  0.951952  1
  F  F26  1  0.439776  0.722535  0.452453  1
  F  F27  1  0.560010  0.277111  0.547424  1
  F  F28  1  0.739398  0.976855  0.445672  1
  F  F29  1  0.260284  0.023707  0.554251  1
  F  F30  1  0.239350  0.023288  0.054146  1
  F  F31  1  0.760658  0.979032  0.944683  1
  F  F32  1  0.584471  0.970037  0.231677  1
  F  F33  1  0.416466  0.030046  0.768075  1
  F  F34  1  0.084151  0.030085  0.268159  1
  F  F35  1  0.916039  0.969754  0.732376  1
