# generated using pymatgen
data_Dy3Ho9(LuRh3)2
_symmetry_space_group_name_H-M   'P 1'
_cell_length_a   9.73351200
_cell_length_b   9.73351229
_cell_length_c   6.15135400
_cell_angle_alpha   90.00000000
_cell_angle_beta   90.00000000
_cell_angle_gamma   119.99999900
_symmetry_Int_Tables_number   1
_chemical_formula_structural   Dy3Ho9(LuRh3)2
_chemical_formula_sum   'Dy3 Ho9 Lu2 Rh6'
_cell_volume   504.70837009
_cell_formula_units_Z   1
loop_
 _symmetry_equiv_pos_site_id
 _symmetry_equiv_pos_as_xyz
  1  'x, y, z'
loop_
 _atom_site_type_symbol
 _atom_site_label
 _atom_site_symmetry_multiplicity
 _atom_site_fract_x
 _atom_site_fract_y
 _atom_site_fract_z
 _atom_site_occupancy
  Dy  Dy0  1  0.123730  0.876270  0.253700  1
  Dy  Dy1  1  0.752539  0.876270  0.253700  1
  Dy  Dy2  1  0.123730  0.247461  0.253700  1
  Ho  Ho3  1  0.876302  0.123698  0.753874  1
  Ho  Ho4  1  0.247398  0.123698  0.753874  1
  Ho  Ho5  1  0.876302  0.752602  0.753874  1
  Ho  Ho6  1  0.540989  0.459011  0.446978  1
  Ho  Ho7  1  0.918023  0.459011  0.446978  1
  Ho  Ho8  1  0.540989  0.081977  0.446978  1
  Ho  Ho9  1  0.459042  0.540958  0.946808  1
  Ho  Ho10  1  0.081915  0.540958  0.946808  1
  Ho  Ho11  1  0.459042  0.918085  0.946808  1
  Lu  Lu12  1  0.333333  0.666667  0.459818  1
  Lu  Lu13  1  0.666667  0.333333  0.959839  1
  Rh  Rh14  1  0.809306  0.190694  0.179859  1
  Rh  Rh15  1  0.381388  0.190694  0.179859  1
  Rh  Rh16  1  0.809306  0.618612  0.179859  1
  Rh  Rh17  1  0.190604  0.809396  0.680076  1
  Rh  Rh18  1  0.618793  0.809396  0.680076  1
  Rh  Rh19  1  0.190604  0.381207  0.680076  1
