# generated using pymatgen
data_Dy9Mg(Ni2Bi)2
_symmetry_space_group_name_H-M   'P 1'
_cell_length_a   8.71676532
_cell_length_b   8.71676545
_cell_length_c   8.71676511
_cell_angle_alpha   128.52506650
_cell_angle_beta   128.52507326
_cell_angle_gamma   75.77596452
_symmetry_Int_Tables_number   1
_chemical_formula_structural   Dy9Mg(Ni2Bi)2
_chemical_formula_sum   'Dy9 Mg1 Ni4 Bi2'
_cell_volume   394.27230912
_cell_formula_units_Z   1
loop_
 _symmetry_equiv_pos_site_id
 _symmetry_equiv_pos_as_xyz
  1  'x, y, z'
loop_
 _atom_site_type_symbol
 _atom_site_label
 _atom_site_symmetry_multiplicity
 _atom_site_fract_x
 _atom_site_fract_y
 _atom_site_fract_z
 _atom_site_occupancy
  Dy  Dy0  1  0.500000  0.500000  0.000000  1
  Dy  Dy1  1  0.799696  0.282645  0.822242  1
  Dy  Dy2  1  0.200304  0.717355  0.177758  1
  Dy  Dy3  1  0.460402  0.977454  0.177758  1
  Dy  Dy4  1  0.282645  0.460402  0.482948  1
  Dy  Dy5  1  0.022546  0.200304  0.482948  1
  Dy  Dy6  1  0.539598  0.022546  0.822242  1
  Dy  Dy7  1  0.717355  0.539598  0.517052  1
  Dy  Dy8  1  0.977454  0.799696  0.517052  1
  Mg  Mg9  1  0.000000  0.000000  0.000000  1
  Ni  Ni10  1  0.130656  0.622444  0.753099  1
  Ni  Ni11  1  0.869344  0.377556  0.246901  1
  Ni  Ni12  1  0.622444  0.869344  0.491788  1
  Ni  Ni13  1  0.377556  0.130656  0.508212  1
  Bi  Bi14  1  0.258261  0.258261  0.000000  1
  Bi  Bi15  1  0.741739  0.741739  0.000000  1
