# generated using pymatgen
data_Ca5Ge3As9Rh19
_symmetry_space_group_name_H-M   'P 1'
_cell_length_a   13.17392000
_cell_length_b   13.17392003
_cell_length_c   4.02066900
_cell_angle_alpha   90.00000000
_cell_angle_beta   90.00000000
_cell_angle_gamma   119.99999490
_symmetry_Int_Tables_number   1
_chemical_formula_structural   Ca5Ge3As9Rh19
_chemical_formula_sum   'Ca5 Ge3 As9 Rh19'
_cell_volume   604.30894133
_cell_formula_units_Z   1
loop_
 _symmetry_equiv_pos_site_id
 _symmetry_equiv_pos_as_xyz
  1  'x, y, z'
loop_
 _atom_site_type_symbol
 _atom_site_label
 _atom_site_symmetry_multiplicity
 _atom_site_fract_x
 _atom_site_fract_y
 _atom_site_fract_z
 _atom_site_occupancy
  Ca  Ca0  1  0.998675  0.183968  0.500000  1
  Ca  Ca1  1  0.816032  0.814707  0.500000  1
  Ca  Ca2  1  0.185293  0.001325  0.500000  1
  Ca  Ca3  1  0.666667  0.333333  0.000000  1
  Ca  Ca4  1  0.333333  0.666667  0.000000  1
  Ge  Ge5  1  0.482511  0.320126  0.500000  1
  Ge  Ge6  1  0.679874  0.162385  0.500000  1
  Ge  Ge7  1  0.837615  0.517489  0.500000  1
  As  As8  1  0.818885  0.998759  0.000000  1
  As  As9  1  0.179874  0.181115  0.000000  1
  As  As10  1  0.001241  0.820126  0.000000  1
  As  As11  1  0.366284  0.002026  0.000000  1
  As  As12  1  0.516253  0.832386  0.500000  1
  As  As13  1  0.167614  0.683867  0.500000  1
  As  As14  1  0.316133  0.483747  0.500000  1
  As  As15  1  0.997974  0.364258  0.000000  1
  As  As16  1  0.635742  0.633716  0.000000  1
  Rh  Rh17  1  0.804782  0.178065  0.000000  1
  Rh  Rh18  1  0.373283  0.195218  0.000000  1
  Rh  Rh19  1  0.647091  0.520087  0.500000  1
  Rh  Rh20  1  0.872996  0.352909  0.500000  1
  Rh  Rh21  1  0.357768  0.874045  0.500000  1
  Rh  Rh22  1  0.516277  0.642232  0.500000  1
  Rh  Rh23  1  0.125955  0.483723  0.500000  1
  Rh  Rh24  1  0.821935  0.626717  0.000000  1
  Rh  Rh25  1  0.622293  0.818339  0.000000  1
  Rh  Rh26  1  0.181661  0.803954  0.000000  1
  Rh  Rh27  1  0.196046  0.377707  0.000000  1
  Rh  Rh28  1  0.003258  0.718938  0.500000  1
  Rh  Rh29  1  0.281062  0.284320  0.500000  1
  Rh  Rh30  1  0.715680  0.996742  0.500000  1
  Rh  Rh31  1  0.995171  0.546823  0.000000  1
  Rh  Rh32  1  0.453177  0.448348  0.000000  1
  Rh  Rh33  1  0.551652  0.004829  0.000000  1
  Rh  Rh34  1  0.000000  0.000000  0.000000  1
  Rh  Rh35  1  0.479913  0.127004  0.500000  1
