# generated using pymatgen
data_Dy2B2Ru5W
_symmetry_space_group_name_H-M   'P 1'
_cell_length_a   9.61957500
_cell_length_b   9.61957500
_cell_length_c   3.11993900
_cell_angle_alpha   90.00000000
_cell_angle_beta   90.00000000
_cell_angle_gamma   90.00000000
_symmetry_Int_Tables_number   1
_chemical_formula_structural   Dy2B2Ru5W
_chemical_formula_sum   'Dy4 B4 Ru10 W2'
_cell_volume   288.70737161
_cell_formula_units_Z   2
loop_
 _symmetry_equiv_pos_site_id
 _symmetry_equiv_pos_as_xyz
  1  'x, y, z'
loop_
 _atom_site_type_symbol
 _atom_site_label
 _atom_site_symmetry_multiplicity
 _atom_site_fract_x
 _atom_site_fract_y
 _atom_site_fract_z
 _atom_site_occupancy
  Dy  Dy0  1  0.675411  0.175411  0.000000  1
  Dy  Dy1  1  0.324589  0.824589  0.000000  1
  Dy  Dy2  1  0.175411  0.324589  0.000000  1
  Dy  Dy3  1  0.824589  0.675411  0.000000  1
  B  B4  1  0.120166  0.620166  0.000000  1
  B  B5  1  0.879834  0.379834  0.000000  1
  B  B6  1  0.620166  0.879834  0.000000  1
  B  B7  1  0.379834  0.120166  0.000000  1
  Ru  Ru8  1  0.216082  0.069635  0.500000  1
  Ru  Ru9  1  0.783918  0.930365  0.500000  1
  Ru  Ru10  1  0.069635  0.783918  0.500000  1
  Ru  Ru11  1  0.716082  0.430365  0.500000  1
  Ru  Ru12  1  0.930365  0.216082  0.500000  1
  Ru  Ru13  1  0.283918  0.569635  0.500000  1
  Ru  Ru14  1  0.569635  0.716082  0.500000  1
  Ru  Ru15  1  0.430365  0.283918  0.500000  1
  Ru  Ru16  1  0.500000  0.000000  0.500000  1
  Ru  Ru17  1  0.000000  0.500000  0.500000  1
  W  W18  1  0.000000  0.000000  0.000000  1
  W  W19  1  0.500000  0.500000  0.000000  1
