# generated using pymatgen
data_Tb3Yb(B4Os)4
_symmetry_space_group_name_H-M   'P 1'
_cell_length_a   3.56313500
_cell_length_b   5.97879024
_cell_length_c   11.55550046
_cell_angle_alpha   89.96776096
_cell_angle_beta   90.00000000
_cell_angle_gamma   90.00000000
_symmetry_Int_Tables_number   1
_chemical_formula_structural   Tb3Yb(B4Os)4
_chemical_formula_sum   'Tb3 Yb1 B16 Os4'
_cell_volume   246.16952303
_cell_formula_units_Z   1
loop_
 _symmetry_equiv_pos_site_id
 _symmetry_equiv_pos_as_xyz
  1  'x, y, z'
loop_
 _atom_site_type_symbol
 _atom_site_label
 _atom_site_symmetry_multiplicity
 _atom_site_fract_x
 _atom_site_fract_y
 _atom_site_fract_z
 _atom_site_occupancy
  Tb  Tb0  1  0.000000  0.127588  0.650087  1
  Tb  Tb1  1  0.000000  0.871892  0.348701  1
  Tb  Tb2  1  0.000000  0.627659  0.850772  1
  Yb  Yb3  1  0.000000  0.370568  0.149374  1
  B  B4  1  0.500000  0.475055  0.691222  1
  B  B5  1  0.500000  0.525249  0.308425  1
  B  B6  1  0.500000  0.974491  0.809279  1
  B  B7  1  0.500000  0.025757  0.190594  1
  B  B8  1  0.500000  0.287914  0.815174  1
  B  B9  1  0.500000  0.711498  0.184849  1
  B  B10  1  0.500000  0.787889  0.685748  1
  B  B11  1  0.500000  0.213294  0.313853  1
  B  B12  1  0.500000  0.363134  0.970450  1
  B  B13  1  0.500000  0.636439  0.030545  1
  B  B14  1  0.500000  0.862997  0.530261  1
  B  B15  1  0.500000  0.136906  0.469839  1
  B  B16  1  0.500000  0.387585  0.546681  1
  B  B17  1  0.500000  0.611565  0.452969  1
  B  B18  1  0.500000  0.888278  0.954289  1
  B  B19  1  0.500000  0.114210  0.047287  1
  Os  Os20  1  0.000000  0.140457  0.907273  1
  Os  Os21  1  0.000000  0.859982  0.091768  1
  Os  Os22  1  0.000000  0.640802  0.592877  1
  Os  Os23  1  0.000000  0.358791  0.407685  1
