# generated using pymatgen
data_Ho2Hf2CN3
_symmetry_space_group_name_H-M   'P 1'
_cell_length_a   11.13180637
_cell_length_b   11.13180655
_cell_length_c   11.13180570
_cell_angle_alpha   17.22319377
_cell_angle_beta   17.22318813
_cell_angle_gamma   17.22319002
_symmetry_Int_Tables_number   1
_chemical_formula_structural   Ho2Hf2CN3
_chemical_formula_sum   'Ho2 Hf2 C1 N3'
_cell_volume   105.52279446
_cell_formula_units_Z   1
loop_
 _symmetry_equiv_pos_site_id
 _symmetry_equiv_pos_as_xyz
  1  'x, y, z'
loop_
 _atom_site_type_symbol
 _atom_site_label
 _atom_site_symmetry_multiplicity
 _atom_site_fract_x
 _atom_site_fract_y
 _atom_site_fract_z
 _atom_site_occupancy
  Ho  Ho0  1  0.876352  0.876352  0.876352  1
  Ho  Ho1  1  0.123648  0.123648  0.123648  1
  Hf  Hf2  1  0.372935  0.372935  0.372935  1
  Hf  Hf3  1  0.627065  0.627065  0.627065  1
  C  C4  1  0.000000  0.000000  0.000000  1
  N  N5  1  0.254257  0.254257  0.254257  1
  N  N6  1  0.500000  0.500000  0.500000  1
  N  N7  1  0.745743  0.745743  0.745743  1
