# generated using pymatgen
data_Pr2NdDy(Mo2O7)2
_symmetry_space_group_name_H-M   'P 1'
_cell_length_a   7.49862238
_cell_length_b   7.49793392
_cell_length_c   7.48856785
_cell_angle_alpha   120.03068386
_cell_angle_beta   119.82815300
_cell_angle_gamma   90.12633593
_symmetry_Int_Tables_number   1
_chemical_formula_structural   Pr2NdDy(Mo2O7)2
_chemical_formula_sum   'Pr2 Nd1 Dy1 Mo4 O14'
_cell_volume   298.02463277
_cell_formula_units_Z   1
loop_
 _symmetry_equiv_pos_site_id
 _symmetry_equiv_pos_as_xyz
  1  'x, y, z'
loop_
 _atom_site_type_symbol
 _atom_site_label
 _atom_site_symmetry_multiplicity
 _atom_site_fract_x
 _atom_site_fract_y
 _atom_site_fract_z
 _atom_site_occupancy
  Pr  Pr0  1  0.375000  0.625000  0.750000  1
  Pr  Pr1  1  0.875000  0.625000  0.250000  1
  Nd  Nd2  1  0.375000  0.125000  0.750000  1
  Dy  Dy3  1  0.375000  0.625000  0.250000  1
  Mo  Mo4  1  0.875000  0.625000  0.750000  1
  Mo  Mo5  1  0.375000  0.125000  0.250000  1
  Mo  Mo6  1  0.875000  0.125000  0.250000  1
  Mo  Mo7  1  0.875000  0.125000  0.750000  1
  O  O8  1  0.782206  0.201112  0.996863  1
  O  O9  1  0.544180  0.465639  0.491039  1
  O  O10  1  0.209210  0.211859  0.002974  1
  O  O11  1  0.958453  0.458849  0.500844  1
  O  O12  1  0.795086  0.796176  0.581926  1
  O  O13  1  0.535815  0.033872  0.080905  1
  O  O14  1  0.254933  0.747388  0.491875  1
  O  O15  1  0.954914  0.453824  0.918074  1
  O  O16  1  0.967794  0.048888  0.503137  1
  O  O17  1  0.540790  0.038141  0.497026  1
  O  O18  1  0.214185  0.216128  0.419095  1
  O  O19  1  0.495067  0.502612  0.008125  1
  O  O20  1  0.791547  0.791151  0.999156  1
  O  O21  1  0.205820  0.784361  0.008961  1
