# generated using pymatgen
data_ZrSnPt2(SeO3)8
_symmetry_space_group_name_H-M   'P 1'
_cell_length_a   8.28762002
_cell_length_b   8.37037146
_cell_length_c   8.25143048
_cell_angle_alpha   89.62742568
_cell_angle_beta   90.41245653
_cell_angle_gamma   90.85949812
_symmetry_Int_Tables_number   1
_chemical_formula_structural   ZrSnPt2(SeO3)8
_chemical_formula_sum   'Zr1 Sn1 Pt2 Se8 O24'
_cell_volume   572.31457404
_cell_formula_units_Z   1
loop_
 _symmetry_equiv_pos_site_id
 _symmetry_equiv_pos_as_xyz
  1  'x, y, z'
loop_
 _atom_site_type_symbol
 _atom_site_label
 _atom_site_symmetry_multiplicity
 _atom_site_fract_x
 _atom_site_fract_y
 _atom_site_fract_z
 _atom_site_occupancy
  Zr  Zr0  1  0.500000  0.500000  0.000000  1
  Sn  Sn1  1  0.000000  0.500000  0.500000  1
  Pt  Pt2  1  0.500000  0.000000  0.500000  1
  Pt  Pt3  1  0.000000  0.000000  0.000000  1
  Se  Se4  1  0.822526  0.158200  0.678821  1
  Se  Se5  1  0.177474  0.841800  0.321179  1
  Se  Se6  1  0.675909  0.687548  0.646762  1
  Se  Se7  1  0.149585  0.692225  0.829839  1
  Se  Se8  1  0.316952  0.144720  0.811692  1
  Se  Se9  1  0.850415  0.307775  0.170161  1
  Se  Se10  1  0.683048  0.855280  0.188308  1
  Se  Se11  1  0.324091  0.312452  0.353238  1
  O  O12  1  0.244200  0.448995  0.488298  1
  O  O13  1  0.988417  0.240500  0.025004  1
  O  O14  1  0.048650  0.742688  0.452850  1
  O  O15  1  0.437475  0.264822  0.929818  1
  O  O16  1  0.258046  0.977128  0.464032  1
  O  O17  1  0.559245  0.558897  0.759736  1
  O  O18  1  0.964607  0.023655  0.757228  1
  O  O19  1  0.562525  0.735178  0.070182  1
  O  O20  1  0.536122  0.988725  0.256847  1
  O  O21  1  0.463878  0.011275  0.743153  1
  O  O22  1  0.757396  0.987504  0.037176  1
  O  O23  1  0.262331  0.572932  0.954322  1
  O  O24  1  0.021130  0.547039  0.745919  1
  O  O25  1  0.035393  0.976345  0.242772  1
  O  O26  1  0.242604  0.012496  0.962824  1
  O  O27  1  0.440755  0.441103  0.240264  1
  O  O28  1  0.755800  0.551005  0.511702  1
  O  O29  1  0.978870  0.452961  0.254081  1
  O  O30  1  0.011583  0.759500  0.974996  1
  O  O31  1  0.473485  0.240803  0.487939  1
  O  O32  1  0.526515  0.759197  0.512061  1
  O  O33  1  0.951350  0.257312  0.547150  1
  O  O34  1  0.741954  0.022872  0.535968  1
  O  O35  1  0.737669  0.427068  0.045678  1
