# generated using pymatgen
data_Tb2Y8Cd3Fe
_symmetry_space_group_name_H-M   'P 1'
_cell_length_a   9.61864040
_cell_length_b   9.61864095
_cell_length_c   9.82817586
_cell_angle_alpha   90.11741783
_cell_angle_beta   89.88258300
_cell_angle_gamma   120.06051210
_symmetry_Int_Tables_number   1
_chemical_formula_structural   Tb2Y8Cd3Fe
_chemical_formula_sum   'Tb4 Y16 Cd6 Fe2'
_cell_volume   786.98163737
_cell_formula_units_Z   2
loop_
 _symmetry_equiv_pos_site_id
 _symmetry_equiv_pos_as_xyz
  1  'x, y, z'
loop_
 _atom_site_type_symbol
 _atom_site_label
 _atom_site_symmetry_multiplicity
 _atom_site_fract_x
 _atom_site_fract_y
 _atom_site_fract_z
 _atom_site_occupancy
  Tb  Tb0  1  0.212106  0.787894  0.435770  1
  Tb  Tb1  1  0.212010  0.424362  0.435827  1
  Tb  Tb2  1  0.575638  0.787990  0.435827  1
  Tb  Tb3  1  0.787396  0.212604  0.564734  1
  Y  Y4  1  0.999773  0.000227  0.499646  1
  Y  Y5  1  0.000024  0.999976  0.000199  1
  Y  Y6  1  0.541783  0.458217  0.250038  1
  Y  Y7  1  0.541641  0.083584  0.250130  1
  Y  Y8  1  0.916416  0.458359  0.250130  1
  Y  Y9  1  0.458138  0.541862  0.749933  1
  Y  Y10  1  0.458242  0.916440  0.749891  1
  Y  Y11  1  0.083560  0.541758  0.749891  1
  Y  Y12  1  0.788241  0.576702  0.563175  1
  Y  Y13  1  0.423298  0.211759  0.563175  1
  Y  Y14  1  0.788386  0.211614  0.936828  1
  Y  Y15  1  0.787822  0.575819  0.936369  1
  Y  Y16  1  0.424181  0.212178  0.936369  1
  Y  Y17  1  0.211855  0.788145  0.063476  1
  Y  Y18  1  0.211911  0.423733  0.063412  1
  Y  Y19  1  0.576267  0.788089  0.063412  1
  Cd  Cd20  1  0.885448  0.114552  0.249345  1
  Cd  Cd21  1  0.885433  0.770823  0.249572  1
  Cd  Cd22  1  0.229177  0.114567  0.249572  1
  Cd  Cd23  1  0.114516  0.885484  0.750364  1
  Cd  Cd24  1  0.114649  0.229046  0.750648  1
  Cd  Cd25  1  0.770954  0.885351  0.750648  1
  Fe  Fe26  1  0.333327  0.666673  0.253101  1
  Fe  Fe27  1  0.667808  0.332192  0.748519  1
