# generated using pymatgen
data_Np4PaO10
_symmetry_space_group_name_H-M   'P 1'
_cell_length_a   6.64461122
_cell_length_b   6.64461057
_cell_length_c   6.64461115
_cell_angle_alpha   99.61695930
_cell_angle_beta   99.61695627
_cell_angle_gamma   131.74979117
_symmetry_Int_Tables_number   1
_chemical_formula_structural   Np4PaO10
_chemical_formula_sum   'Np4 Pa1 O10'
_cell_volume   199.75102714
_cell_formula_units_Z   1
loop_
 _symmetry_equiv_pos_site_id
 _symmetry_equiv_pos_as_xyz
  1  'x, y, z'
loop_
 _atom_site_type_symbol
 _atom_site_label
 _atom_site_symmetry_multiplicity
 _atom_site_fract_x
 _atom_site_fract_y
 _atom_site_fract_z
 _atom_site_occupancy
  Np  Np0  1  0.401066  0.198941  0.600006  1
  Np  Np1  1  0.801059  0.401066  0.202125  1
  Np  Np2  1  0.198941  0.598934  0.797875  1
  Np  Np3  1  0.598934  0.801059  0.399994  1
  Pa  Pa4  1  0.000000  0.000000  0.000000  1
  O  O5  1  0.750000  0.250000  0.500000  1
  O  O6  1  0.146899  0.442959  0.097194  1
  O  O7  1  0.557041  0.654236  0.703940  1
  O  O8  1  0.950295  0.853101  0.296060  1
  O  O9  1  0.345764  0.049705  0.902806  1
  O  O10  1  0.853101  0.557041  0.902806  1
  O  O11  1  0.250000  0.750000  0.500000  1
  O  O12  1  0.654236  0.950295  0.097194  1
  O  O13  1  0.049705  0.146899  0.703940  1
  O  O14  1  0.442959  0.345764  0.296060  1
