# generated using pymatgen
data_Er19Lu(Ir2Ru)4
_symmetry_space_group_name_H-M   'P 1'
_cell_length_a   10.74123900
_cell_length_b   10.74123900
_cell_length_c   6.38377600
_cell_angle_alpha   90.00000000
_cell_angle_beta   90.00000000
_cell_angle_gamma   90.00000000
_symmetry_Int_Tables_number   1
_chemical_formula_structural   Er19Lu(Ir2Ru)4
_chemical_formula_sum   'Er19 Lu1 Ir8 Ru4'
_cell_volume   736.52314636
_cell_formula_units_Z   1
loop_
 _symmetry_equiv_pos_site_id
 _symmetry_equiv_pos_as_xyz
  1  'x, y, z'
loop_
 _atom_site_type_symbol
 _atom_site_label
 _atom_site_symmetry_multiplicity
 _atom_site_fract_x
 _atom_site_fract_y
 _atom_site_fract_z
 _atom_site_occupancy
  Er  Er0  1  0.292923  0.086235  0.376799  1
  Er  Er1  1  0.293243  0.913663  0.876650  1
  Er  Er2  1  0.706757  0.086337  0.876650  1
  Er  Er3  1  0.707077  0.913765  0.376799  1
  Er  Er4  1  0.586327  0.793359  0.876832  1
  Er  Er5  1  0.586327  0.206626  0.376807  1
  Er  Er6  1  0.413673  0.793374  0.376807  1
  Er  Er7  1  0.413673  0.206641  0.876832  1
  Er  Er8  1  0.206626  0.413673  0.623193  1
  Er  Er9  1  0.206641  0.586327  0.123168  1
  Er  Er10  1  0.793359  0.413673  0.123168  1
  Er  Er11  1  0.793374  0.586327  0.623193  1
  Er  Er12  1  0.913663  0.706757  0.123350  1
  Er  Er13  1  0.913765  0.292923  0.623201  1
  Er  Er14  1  0.086235  0.707077  0.623201  1
  Er  Er15  1  0.086337  0.293243  0.123350  1
  Er  Er16  1  0.000000  0.000000  0.000000  1
  Er  Er17  1  0.500000  0.500000  0.000000  1
  Er  Er18  1  0.500000  0.500000  0.500000  1
  Lu  Lu19  1  0.000000  0.000000  0.500000  1
  Ir  Ir20  1  0.848088  0.151902  0.251251  1
  Ir  Ir21  1  0.848098  0.848088  0.748749  1
  Ir  Ir22  1  0.151902  0.151912  0.748749  1
  Ir  Ir23  1  0.151912  0.848098  0.251251  1
  Ir  Ir24  1  0.652590  0.347440  0.749869  1
  Ir  Ir25  1  0.652560  0.652590  0.250131  1
  Ir  Ir26  1  0.347440  0.347410  0.250131  1
  Ir  Ir27  1  0.347410  0.652560  0.749869  1
  Ru  Ru28  1  0.500000  0.000000  0.122831  1
  Ru  Ru29  1  0.500000  0.000000  0.622836  1
  Ru  Ru30  1  0.000000  0.500000  0.877169  1
  Ru  Ru31  1  0.000000  0.500000  0.377164  1
