# generated using pymatgen
data_Ca3AlP3
_symmetry_space_group_name_H-M   'P 1'
_cell_length_a   4.09436700
_cell_length_b   11.98858800
_cell_length_c   13.08519500
_cell_angle_alpha   90.00000000
_cell_angle_beta   90.00000000
_cell_angle_gamma   90.00000000
_symmetry_Int_Tables_number   1
_chemical_formula_structural   Ca3AlP3
_chemical_formula_sum   'Ca12 Al4 P12'
_cell_volume   642.29568252
_cell_formula_units_Z   4
loop_
 _symmetry_equiv_pos_site_id
 _symmetry_equiv_pos_as_xyz
  1  'x, y, z'
loop_
 _atom_site_type_symbol
 _atom_site_label
 _atom_site_symmetry_multiplicity
 _atom_site_fract_x
 _atom_site_fract_y
 _atom_site_fract_z
 _atom_site_occupancy
  Ca  Ca0  1  0.250000  0.852422  0.500486  1
  Ca  Ca1  1  0.250000  0.352422  0.999514  1
  Ca  Ca2  1  0.750000  0.147578  0.499514  1
  Ca  Ca3  1  0.750000  0.229335  0.211405  1
  Ca  Ca4  1  0.750000  0.432934  0.394022  1
  Ca  Ca5  1  0.250000  0.567066  0.605978  1
  Ca  Ca6  1  0.750000  0.932934  0.105978  1
  Ca  Ca7  1  0.250000  0.067066  0.894022  1
  Ca  Ca8  1  0.250000  0.270665  0.711405  1
  Ca  Ca9  1  0.750000  0.729335  0.288595  1
  Ca  Ca10  1  0.250000  0.770665  0.788595  1
  Ca  Ca11  1  0.750000  0.647578  0.000486  1
  Al  Al12  1  0.750000  0.940164  0.702093  1
  Al  Al13  1  0.250000  0.059836  0.297907  1
  Al  Al14  1  0.250000  0.559836  0.202093  1
  Al  Al15  1  0.750000  0.440164  0.797907  1
  P  P16  1  0.750000  0.461336  0.149690  1
  P  P17  1  0.250000  0.538664  0.850310  1
  P  P18  1  0.750000  0.961336  0.350310  1
  P  P19  1  0.250000  0.038664  0.649690  1
  P  P20  1  0.750000  0.398147  0.617339  1
  P  P21  1  0.250000  0.601853  0.382661  1
  P  P22  1  0.750000  0.898147  0.882661  1
  P  P23  1  0.250000  0.101853  0.117339  1
  P  P24  1  0.750000  0.256363  0.874298  1
  P  P25  1  0.250000  0.743637  0.125702  1
  P  P26  1  0.750000  0.756363  0.625702  1
  P  P27  1  0.250000  0.243637  0.374298  1
