# generated using pymatgen
data_Y2CoNi3B4
_symmetry_space_group_name_H-M   'P 1'
_cell_length_a   4.95552594
_cell_length_b   4.97806878
_cell_length_c   6.91411681
_cell_angle_alpha   59.17843861
_cell_angle_beta   59.40567061
_cell_angle_gamma   63.99485932
_symmetry_Int_Tables_number   1
_chemical_formula_structural   Y2CoNi3B4
_chemical_formula_sum   'Y2 Co1 Ni3 B4'
_cell_volume   122.38800556
_cell_formula_units_Z   1
loop_
 _symmetry_equiv_pos_site_id
 _symmetry_equiv_pos_as_xyz
  1  'x, y, z'
loop_
 _atom_site_type_symbol
 _atom_site_label
 _atom_site_symmetry_multiplicity
 _atom_site_fract_x
 _atom_site_fract_y
 _atom_site_fract_z
 _atom_site_occupancy
  Y  Y0  1  0.119523  0.877640  0.254086  1
  Y  Y1  1  0.875786  0.116478  0.757484  1
  Co  Co2  1  0.466969  0.281055  0.200676  1
  Ni  Ni3  1  0.726507  0.532637  0.298218  1
  Ni  Ni4  1  0.534740  0.726163  0.793870  1
  Ni  Ni5  1  0.278010  0.468493  0.700407  1
  B  B6  1  0.163543  0.497414  0.023730  1
  B  B7  1  0.494136  0.850012  0.472334  1
  B  B8  1  0.842711  0.487022  0.979473  1
  B  B9  1  0.498074  0.163084  0.519722  1
