# generated using pymatgen
data_Ho3B7Ru
_symmetry_space_group_name_H-M   'P 1'
_cell_length_a   8.02914386
_cell_length_b   8.02914443
_cell_length_c   9.31502100
_cell_angle_alpha   90.00000000
_cell_angle_beta   90.00000000
_cell_angle_gamma   154.77298992
_symmetry_Int_Tables_number   1
_chemical_formula_structural   Ho3B7Ru
_chemical_formula_sum   'Ho6 B14 Ru2'
_cell_volume   255.94208050
_cell_formula_units_Z   2
loop_
 _symmetry_equiv_pos_site_id
 _symmetry_equiv_pos_as_xyz
  1  'x, y, z'
loop_
 _atom_site_type_symbol
 _atom_site_label
 _atom_site_symmetry_multiplicity
 _atom_site_fract_x
 _atom_site_fract_y
 _atom_site_fract_z
 _atom_site_occupancy
  Ho  Ho0  1  0.105925  0.894075  0.060036  1
  Ho  Ho1  1  0.894075  0.105925  0.939964  1
  Ho  Ho2  1  0.755619  0.244381  0.250000  1
  Ho  Ho3  1  0.244381  0.755619  0.750000  1
  Ho  Ho4  1  0.105925  0.894075  0.439964  1
  Ho  Ho5  1  0.894075  0.105925  0.560036  1
  B  B6  1  0.727382  0.272618  0.534100  1
  B  B7  1  0.272618  0.727382  0.465900  1
  B  B8  1  0.272618  0.727382  0.034100  1
  B  B9  1  0.727382  0.272618  0.965900  1
  B  B10  1  0.520732  0.479268  0.903788  1
  B  B11  1  0.479268  0.520732  0.096212  1
  B  B12  1  0.479268  0.520732  0.403788  1
  B  B13  1  0.520732  0.479268  0.596212  1
  B  B14  1  0.456915  0.543085  0.750000  1
  B  B15  1  0.543085  0.456915  0.250000  1
  B  B16  1  0.632048  0.367952  0.650815  1
  B  B17  1  0.367952  0.632048  0.349185  1
  B  B18  1  0.367952  0.632048  0.150815  1
  B  B19  1  0.632048  0.367952  0.849185  1
  Ru  Ru20  1  0.054278  0.945722  0.750000  1
  Ru  Ru21  1  0.945722  0.054278  0.250000  1
