# generated using pymatgen
data_Cs2V2CuNi3Se8
_symmetry_space_group_name_H-M   'P 1'
_cell_length_a   10.38725552
_cell_length_b   10.35762750
_cell_length_c   7.60722600
_cell_angle_alpha   90.00000000
_cell_angle_beta   90.00000000
_cell_angle_gamma   148.57452629
_symmetry_Int_Tables_number   1
_chemical_formula_structural   Cs2V2CuNi3Se8
_chemical_formula_sum   'Cs2 V2 Cu1 Ni3 Se8'
_cell_volume   426.72623490
_cell_formula_units_Z   1
loop_
 _symmetry_equiv_pos_site_id
 _symmetry_equiv_pos_as_xyz
  1  'x, y, z'
loop_
 _atom_site_type_symbol
 _atom_site_label
 _atom_site_symmetry_multiplicity
 _atom_site_fract_x
 _atom_site_fract_y
 _atom_site_fract_z
 _atom_site_occupancy
  Cs  Cs0  1  0.165990  0.536724  0.750000  1
  Cs  Cs1  1  0.546365  0.175243  0.250000  1
  V  V2  1  0.708182  0.506543  0.750000  1
  V  V3  1  0.502250  0.703297  0.250000  1
  Cu  Cu4  1  0.002182  0.202963  0.250000  1
  Ni  Ni5  1  0.610557  0.610350  0.499940  1
  Ni  Ni6  1  0.209005  0.004107  0.750000  1
  Ni  Ni7  1  0.610557  0.610350  0.000060  1
  Se  Se8  1  0.740518  0.938103  0.997871  1
  Se  Se9  1  0.366016  0.353571  0.750000  1
  Se  Se10  1  0.362074  0.366465  0.250000  1
  Se  Se11  1  0.948620  0.757192  0.503980  1
  Se  Se12  1  0.557634  0.167727  0.750000  1
  Se  Se13  1  0.948620  0.757192  0.996020  1
  Se  Se14  1  0.172713  0.563875  0.250000  1
  Se  Se15  1  0.740518  0.938103  0.502129  1
