# generated using pymatgen
data_DyBiAs4O9
_symmetry_space_group_name_H-M   'P 1'
_cell_length_a   6.91072992
_cell_length_b   7.56699118
_cell_length_c   10.00064343
_cell_angle_alpha   94.45150072
_cell_angle_beta   104.31720895
_cell_angle_gamma   104.42724054
_symmetry_Int_Tables_number   1
_chemical_formula_structural   DyBiAs4O9
_chemical_formula_sum   'Dy2 Bi2 As8 O18'
_cell_volume   485.31413356
_cell_formula_units_Z   2
loop_
 _symmetry_equiv_pos_site_id
 _symmetry_equiv_pos_as_xyz
  1  'x, y, z'
loop_
 _atom_site_type_symbol
 _atom_site_label
 _atom_site_symmetry_multiplicity
 _atom_site_fract_x
 _atom_site_fract_y
 _atom_site_fract_z
 _atom_site_occupancy
  Dy  Dy0  1  0.718732  0.538901  0.410075  1
  Dy  Dy1  1  0.281268  0.461099  0.589925  1
  Bi  Bi2  1  0.238895  0.921581  0.619272  1
  Bi  Bi3  1  0.761105  0.078419  0.380728  1
  As  As4  1  0.676572  0.768655  0.071798  1
  As  As5  1  0.323428  0.231345  0.928202  1
  As  As6  1  0.177044  0.753475  0.913284  1
  As  As7  1  0.822956  0.246525  0.086716  1
  As  As8  1  0.745034  0.904724  0.705271  1
  As  As9  1  0.254966  0.095276  0.294729  1
  As  As10  1  0.805627  0.347518  0.698710  1
  As  As11  1  0.194373  0.652482  0.301290  1
  O  O12  1  0.717809  0.731043  0.245596  1
  O  O13  1  0.282191  0.268957  0.754404  1
  O  O14  1  0.317730  0.982925  0.879009  1
  O  O15  1  0.682270  0.017075  0.120991  1
  O  O16  1  0.608686  0.323766  0.986653  1
  O  O17  1  0.391314  0.676234  0.013347  1
  O  O18  1  0.139753  0.656314  0.738291  1
  O  O19  1  0.860247  0.343686  0.261709  1
  O  O20  1  0.832550  0.847642  0.556148  1
  O  O21  1  0.167450  0.152358  0.443852  1
  O  O22  1  0.486980  0.762716  0.666630  1
  O  O23  1  0.513020  0.237284  0.333370  1
  O  O24  1  0.379063  0.544407  0.383186  1
  O  O25  1  0.620937  0.455593  0.616814  1
  O  O26  1  0.087311  0.659679  0.451860  1
  O  O27  1  0.912689  0.340321  0.548140  1
  O  O28  1  0.359902  0.902254  0.358643  1
  O  O29  1  0.640098  0.097746  0.641357  1
