# generated using pymatgen
data_Hf3ScCo7Si5Ge
_symmetry_space_group_name_H-M   'P 1'
_cell_length_a   6.68379034
_cell_length_b   6.68379033
_cell_length_c   6.68027755
_cell_angle_alpha   109.49445796
_cell_angle_beta   109.49445593
_cell_angle_gamma   109.30369862
_symmetry_Int_Tables_number   1
_chemical_formula_structural   Hf3ScCo7Si5Ge
_chemical_formula_sum   'Hf3 Sc1 Co7 Si5 Ge1'
_cell_volume   230.07220490
_cell_formula_units_Z   1
loop_
 _symmetry_equiv_pos_site_id
 _symmetry_equiv_pos_as_xyz
  1  'x, y, z'
loop_
 _atom_site_type_symbol
 _atom_site_label
 _atom_site_symmetry_multiplicity
 _atom_site_fract_x
 _atom_site_fract_y
 _atom_site_fract_z
 _atom_site_occupancy
  Hf  Hf0  1  0.001676  0.001676  0.511539  1
  Hf  Hf1  1  0.001563  0.490150  0.000022  1
  Hf  Hf2  1  0.490150  0.001563  0.000022  1
  Sc  Sc3  1  0.490837  0.490837  0.489493  1
  Co  Co4  1  0.499297  0.751930  0.250719  1
  Co  Co5  1  0.246534  0.499257  0.749531  1
  Co  Co6  1  0.749478  0.247391  0.500103  1
  Co  Co7  1  0.751930  0.499297  0.250719  1
  Co  Co8  1  0.499257  0.246534  0.749531  1
  Co  Co9  1  0.247391  0.749478  0.500103  1
  Co  Co10  1  0.015232  0.015232  0.998359  1
  Si  Si11  1  0.998975  0.322614  0.326007  1
  Si  Si12  1  0.322614  0.998975  0.326007  1
  Si  Si13  1  0.331836  0.331836  0.002846  1
  Si  Si14  1  0.994710  0.670545  0.673881  1
  Si  Si15  1  0.670545  0.994710  0.673881  1
  Ge  Ge16  1  0.687975  0.687975  0.997235  1
