# generated using pymatgen
data_TlSnPO5
_symmetry_space_group_name_H-M   'P 1'
_cell_length_a   6.63629600
_cell_length_b   10.90101100
_cell_length_c   13.37912800
_cell_angle_alpha   90.00000000
_cell_angle_beta   90.00000000
_cell_angle_gamma   90.00000000
_symmetry_Int_Tables_number   1
_chemical_formula_structural   TlSnPO5
_chemical_formula_sum   'Tl8 Sn8 P8 O40'
_cell_volume   967.87736909
_cell_formula_units_Z   8
loop_
 _symmetry_equiv_pos_site_id
 _symmetry_equiv_pos_as_xyz
  1  'x, y, z'
loop_
 _atom_site_type_symbol
 _atom_site_label
 _atom_site_symmetry_multiplicity
 _atom_site_fract_x
 _atom_site_fract_y
 _atom_site_fract_z
 _atom_site_occupancy
  Tl  Tl0  1  0.322320  0.437800  0.888797  1
  Tl  Tl1  1  0.217153  0.192965  0.623823  1
  Tl  Tl2  1  0.177680  0.437800  0.388797  1
  Tl  Tl3  1  0.677680  0.937800  0.111203  1
  Tl  Tl4  1  0.782847  0.692965  0.376177  1
  Tl  Tl5  1  0.822320  0.937800  0.611203  1
  Tl  Tl6  1  0.717153  0.692965  0.876177  1
  Tl  Tl7  1  0.282847  0.192965  0.123823  1
  Sn  Sn8  1  0.744518  0.250224  0.751622  1
  Sn  Sn9  1  0.755482  0.250224  0.251622  1
  Sn  Sn10  1  0.998025  0.500977  0.125623  1
  Sn  Sn11  1  0.498025  0.000977  0.374377  1
  Sn  Sn12  1  0.001975  0.000977  0.874377  1
  Sn  Sn13  1  0.501975  0.500977  0.625623  1
  Sn  Sn14  1  0.255482  0.750224  0.248378  1
  Sn  Sn15  1  0.244518  0.750224  0.748378  1
  P  P16  1  0.340297  0.752825  0.501988  1
  P  P17  1  0.497260  0.998951  0.823365  1
  P  P18  1  0.159703  0.752825  0.001988  1
  P  P19  1  0.502740  0.498951  0.176635  1
  P  P20  1  0.997260  0.498951  0.676635  1
  P  P21  1  0.002740  0.998951  0.323365  1
  P  P22  1  0.659703  0.252825  0.498012  1
  P  P23  1  0.840297  0.252825  0.998012  1
  O  O24  1  0.790684  0.231483  0.592121  1
  O  O25  1  0.034762  0.625484  0.235709  1
  O  O26  1  0.468143  0.885637  0.754090  1
  O  O27  1  0.709316  0.231483  0.092121  1
  O  O28  1  0.012497  0.863160  0.773169  1
  O  O29  1  0.209316  0.731483  0.407879  1
  O  O30  1  0.682985  0.977470  0.891532  1
  O  O31  1  0.482175  0.865906  0.488666  1
  O  O32  1  0.465238  0.625484  0.735709  1
  O  O33  1  0.182985  0.477470  0.608468  1
  O  O34  1  0.017825  0.865906  0.988666  1
  O  O35  1  0.817015  0.977470  0.391532  1
  O  O36  1  0.523646  0.137373  0.483223  1
  O  O37  1  0.534762  0.125484  0.264291  1
  O  O38  1  0.970315  0.108482  0.250982  1
  O  O39  1  0.512497  0.363160  0.726831  1
  O  O40  1  0.290684  0.731483  0.907879  1
  O  O41  1  0.029685  0.608482  0.749018  1
  O  O42  1  0.199568  0.773894  0.592623  1
  O  O43  1  0.031857  0.885637  0.254090  1
  O  O44  1  0.317015  0.477470  0.108468  1
  O  O45  1  0.314291  0.022370  0.892165  1
  O  O46  1  0.699568  0.273894  0.907377  1
  O  O47  1  0.965238  0.125484  0.764291  1
  O  O48  1  0.529685  0.108482  0.750982  1
  O  O49  1  0.982175  0.365906  0.011334  1
  O  O50  1  0.023646  0.637373  0.016777  1
  O  O51  1  0.185709  0.022370  0.392165  1
  O  O52  1  0.987503  0.363160  0.226831  1
  O  O53  1  0.685709  0.522370  0.107835  1
  O  O54  1  0.800432  0.273894  0.407377  1
  O  O55  1  0.976354  0.137373  0.983223  1
  O  O56  1  0.470315  0.608482  0.249018  1
  O  O57  1  0.968143  0.385637  0.745910  1
  O  O58  1  0.814291  0.522370  0.607835  1
  O  O59  1  0.531857  0.385637  0.245910  1
  O  O60  1  0.476354  0.637373  0.516777  1
  O  O61  1  0.300432  0.773894  0.092623  1
  O  O62  1  0.517825  0.365906  0.511334  1
  O  O63  1  0.487503  0.863160  0.273169  1
