# generated using pymatgen
data_CaAl32Cd7(PbO15)4
_symmetry_space_group_name_H-M   'P 1'
_cell_length_a   5.37613114
_cell_length_b   8.98699605
_cell_length_c   28.14274055
_cell_angle_alpha   89.99629449
_cell_angle_beta   89.97718576
_cell_angle_gamma   89.98833222
_symmetry_Int_Tables_number   1
_chemical_formula_structural   CaAl32Cd7(PbO15)4
_chemical_formula_sum   'Ca1 Al32 Cd7 Pb4 O60'
_cell_volume   1359.72395012
_cell_formula_units_Z   1
loop_
 _symmetry_equiv_pos_site_id
 _symmetry_equiv_pos_as_xyz
  1  'x, y, z'
loop_
 _atom_site_type_symbol
 _atom_site_label
 _atom_site_symmetry_multiplicity
 _atom_site_fract_x
 _atom_site_fract_y
 _atom_site_fract_z
 _atom_site_occupancy
  Ca  Ca0  1  0.054195  0.563947  0.610809  1
  Al  Al1  1  0.615139  0.662967  0.539449  1
  Al  Al2  1  0.114218  0.835765  0.959661  1
  Al  Al3  1  0.385775  0.335720  0.040475  1
  Al  Al4  1  0.884313  0.164410  0.459611  1
  Al  Al5  1  0.383675  0.335913  0.459484  1
  Al  Al6  1  0.885804  0.164304  0.040484  1
  Al  Al7  1  0.614225  0.664272  0.959661  1
  Al  Al8  1  0.117529  0.835224  0.540009  1
  Al  Al9  1  0.521763  0.654774  0.689516  1
  Al  Al10  1  0.023638  0.844834  0.811508  1
  Al  Al11  1  0.476806  0.344299  0.188856  1
  Al  Al12  1  0.976403  0.155891  0.311139  1
  Al  Al13  1  0.476498  0.344457  0.311163  1
  Al  Al14  1  0.976819  0.155753  0.188854  1
  Al  Al15  1  0.523080  0.655900  0.811742  1
  Al  Al16  1  0.020764  0.845687  0.689470  1
  Al  Al17  1  0.467835  0.313937  0.661634  1
  Al  Al18  1  0.963474  0.185526  0.838630  1
  Al  Al19  1  0.536589  0.685361  0.161480  1
  Al  Al20  1  0.037172  0.814615  0.338154  1
  Al  Al21  1  0.537021  0.685416  0.338174  1
  Al  Al22  1  0.036589  0.814676  0.161477  1
  Al  Al23  1  0.463312  0.314702  0.838727  1
  Al  Al24  1  0.967157  0.185738  0.661116  1
  Al  Al25  1  0.704278  0.305380  0.558172  1
  Al  Al26  1  0.210278  0.194348  0.940886  1
  Al  Al27  1  0.289758  0.694349  0.059234  1
  Al  Al28  1  0.790406  0.806807  0.440212  1
  Al  Al29  1  0.290123  0.695271  0.440385  1
  Al  Al30  1  0.789741  0.805685  0.059235  1
  Al  Al31  1  0.710284  0.305659  0.940872  1
  Al  Al32  1  0.206379  0.193471  0.559420  1
  Cd  Cd33  1  0.560626  0.937719  0.610665  1
  Cd  Cd34  1  0.058946  0.560422  0.889337  1
  Cd  Cd35  1  0.441004  0.060260  0.110874  1
  Cd  Cd36  1  0.940383  0.439832  0.389247  1
  Cd  Cd37  1  0.439611  0.060446  0.388971  1
  Cd  Cd38  1  0.940957  0.439759  0.110854  1
  Cd  Cd39  1  0.559113  0.939924  0.889328  1
  Pb  Pb40  1  0.929858  0.457937  0.750433  1
  Pb  Pb41  1  0.432036  0.043376  0.750234  1
  Pb  Pb42  1  0.068933  0.542647  0.249887  1
  Pb  Pb43  1  0.569187  0.957361  0.249899  1
  O  O44  1  0.912384  0.193891  0.522196  1
  O  O45  1  0.416634  0.302741  0.978206  1
  O  O46  1  0.083312  0.802754  0.021934  1
  O  O47  1  0.584115  0.699557  0.477490  1
  O  O48  1  0.083681  0.804428  0.477712  1
  O  O49  1  0.583391  0.697258  0.021937  1
  O  O50  1  0.916646  0.197332  0.978214  1
  O  O51  1  0.409982  0.300685  0.521649  1
  O  O52  1  0.537007  0.607272  0.750733  1
  O  O53  1  0.040801  0.894434  0.750449  1
  O  O54  1  0.460636  0.392476  0.250010  1
  O  O55  1  0.960568  0.107683  0.250003  1
  O  O56  1  0.384599  0.501792  0.659893  1
  O  O57  1  0.878969  0.997063  0.840678  1
  O  O58  1  0.621286  0.496743  0.159681  1
  O  O59  1  0.120830  0.003292  0.340203  1
  O  O60  1  0.621137  0.496783  0.340371  1
  O  O61  1  0.121281  0.003288  0.159689  1
  O  O62  1  0.379382  0.503270  0.840956  1
  O  O63  1  0.878852  0.997504  0.659403  1
  O  O64  1  0.340992  0.814858  0.673627  1
  O  O65  1  0.846831  0.682164  0.825939  1
  O  O66  1  0.653525  0.181675  0.174299  1
  O  O67  1  0.153270  0.318331  0.325760  1
  O  O68  1  0.653220  0.181955  0.325764  1
  O  O69  1  0.153542  0.318336  0.174299  1
  O  O70  1  0.346349  0.818451  0.826275  1
  O  O71  1  0.843112  0.684172  0.675125  1
  O  O72  1  0.512298  0.224173  0.605130  1
  O  O73  1  0.008929  0.275143  0.894967  1
  O  O74  1  0.490963  0.775079  0.105154  1
  O  O75  1  0.991622  0.725156  0.394543  1
  O  O76  1  0.490997  0.775849  0.394331  1
  O  O77  1  0.990975  0.724973  0.105159  1
  O  O78  1  0.508858  0.224751  0.895003  1
  O  O79  1  0.013711  0.279696  0.605377  1
  O  O80  1  0.755292  0.497427  0.557714  1
  O  O81  1  0.258378  0.000172  0.940109  1
  O  O82  1  0.241595  0.500121  0.060084  1
  O  O83  1  0.740516  0.000665  0.439523  1
  O  O84  1  0.241533  0.500959  0.439896  1
  O  O85  1  0.741600  0.999917  0.060082  1
  O  O86  1  0.758434  0.499854  0.940076  1
  O  O87  1  0.257775  0.999702  0.560461  1
  O  O88  1  0.251367  0.200729  0.692857  1
  O  O89  1  0.747000  0.297186  0.807052  1
  O  O90  1  0.752550  0.797391  0.193048  1
  O  O91  1  0.253367  0.702798  0.306553  1
  O  O92  1  0.753531  0.796954  0.306550  1
  O  O93  1  0.252555  0.702647  0.193052  1
  O  O94  1  0.247294  0.203190  0.806969  1
  O  O95  1  0.752285  0.297025  0.693175  1
  O  O96  1  0.821560  0.797121  0.565358  1
  O  O97  1  0.313186  0.694816  0.936215  1
  O  O98  1  0.186803  0.194821  0.064008  1
  O  O99  1  0.685885  0.306096  0.436474  1
  O  O100  1  0.184647  0.195447  0.435808  1
  O  O101  1  0.686776  0.305213  0.064004  1
  O  O102  1  0.813210  0.805181  0.936168  1
  O  O103  1  0.316480  0.694818  0.563172  1
