# generated using pymatgen
data_K3Nb2Ag3Se8
_symmetry_space_group_name_H-M   'P 1'
_cell_length_a   13.27703711
_cell_length_b   13.27703712
_cell_length_c   15.01419060
_cell_angle_alpha   60.99776782
_cell_angle_beta   60.99776740
_cell_angle_gamma   26.59282029
_symmetry_Int_Tables_number   1
_chemical_formula_structural   K3Nb2Ag3Se8
_chemical_formula_sum   'K6 Nb4 Ag6 Se16'
_cell_volume   1027.28407912
_cell_formula_units_Z   2
loop_
 _symmetry_equiv_pos_site_id
 _symmetry_equiv_pos_as_xyz
  1  'x, y, z'
loop_
 _atom_site_type_symbol
 _atom_site_label
 _atom_site_symmetry_multiplicity
 _atom_site_fract_x
 _atom_site_fract_y
 _atom_site_fract_z
 _atom_site_occupancy
  K  K0  1  0.636343  0.755789  0.398773  1
  K  K1  1  0.363657  0.244211  0.601227  1
  K  K2  1  0.755789  0.636343  0.898773  1
  K  K3  1  0.000000  0.000000  0.500000  1
  K  K4  1  0.244211  0.363657  0.101227  1
  K  K5  1  0.000000  0.000000  0.000000  1
  Nb  Nb6  1  0.157325  0.588179  0.779173  1
  Nb  Nb7  1  0.842675  0.411821  0.220827  1
  Nb  Nb8  1  0.588179  0.157325  0.279173  1
  Nb  Nb9  1  0.411821  0.842675  0.720827  1
  Ag  Ag10  1  0.283001  0.716999  0.750000  1
  Ag  Ag11  1  0.716999  0.283001  0.250000  1
  Ag  Ag12  1  0.657652  0.088619  0.784726  1
  Ag  Ag13  1  0.911381  0.342348  0.715274  1
  Ag  Ag14  1  0.342348  0.911381  0.215274  1
  Ag  Ag15  1  0.088619  0.657652  0.284726  1
  Se  Se16  1  0.537209  0.550608  0.350438  1
  Se  Se17  1  0.102297  0.215370  0.318693  1
  Se  Se18  1  0.284232  0.289587  0.394454  1
  Se  Se19  1  0.972693  0.830846  0.887219  1
  Se  Se20  1  0.027307  0.169154  0.112781  1
  Se  Se21  1  0.449392  0.462791  0.149562  1
  Se  Se22  1  0.830846  0.972693  0.387219  1
  Se  Se23  1  0.462791  0.449392  0.649562  1
  Se  Se24  1  0.169154  0.027307  0.612781  1
  Se  Se25  1  0.289587  0.284232  0.894454  1
  Se  Se26  1  0.710413  0.715768  0.105546  1
  Se  Se27  1  0.715768  0.710413  0.605546  1
  Se  Se28  1  0.784630  0.897703  0.181307  1
  Se  Se29  1  0.897703  0.784630  0.681307  1
  Se  Se30  1  0.550608  0.537209  0.850438  1
  Se  Se31  1  0.215370  0.102297  0.818693  1
