# generated using pymatgen
data_Th2Mn5RuC5
_symmetry_space_group_name_H-M   'P 1'
_cell_length_a   8.67301000
_cell_length_b   8.67301000
_cell_length_c   4.21437200
_cell_angle_alpha   90.00000000
_cell_angle_beta   90.00000000
_cell_angle_gamma   90.00000000
_symmetry_Int_Tables_number   1
_chemical_formula_structural   Th2Mn5RuC5
_chemical_formula_sum   'Th4 Mn10 Ru2 C10'
_cell_volume   317.00970802
_cell_formula_units_Z   2
loop_
 _symmetry_equiv_pos_site_id
 _symmetry_equiv_pos_as_xyz
  1  'x, y, z'
loop_
 _atom_site_type_symbol
 _atom_site_label
 _atom_site_symmetry_multiplicity
 _atom_site_fract_x
 _atom_site_fract_y
 _atom_site_fract_z
 _atom_site_occupancy
  Th  Th0  1  0.326047  0.826047  0.500000  1
  Th  Th1  1  0.826047  0.673953  0.500000  1
  Th  Th2  1  0.173953  0.326047  0.500000  1
  Th  Th3  1  0.673953  0.173953  0.500000  1
  Mn  Mn4  1  0.714021  0.432561  0.000000  1
  Mn  Mn5  1  0.432561  0.285979  0.000000  1
  Mn  Mn6  1  0.500000  0.000000  0.000000  1
  Mn  Mn7  1  0.000000  0.500000  0.000000  1
  Mn  Mn8  1  0.785979  0.932561  0.000000  1
  Mn  Mn9  1  0.932561  0.214021  0.000000  1
  Mn  Mn10  1  0.067439  0.785979  0.000000  1
  Mn  Mn11  1  0.214021  0.067439  0.000000  1
  Mn  Mn12  1  0.567439  0.714021  0.000000  1
  Mn  Mn13  1  0.285979  0.567439  0.000000  1
  Ru  Ru14  1  0.000000  0.000000  0.500000  1
  Ru  Ru15  1  0.500000  0.500000  0.500000  1
  C  C16  1  0.500000  0.500000  0.000000  1
  C  C17  1  0.000000  0.000000  0.000000  1
  C  C18  1  0.879007  0.379007  0.675593  1
  C  C19  1  0.120993  0.620993  0.675593  1
  C  C20  1  0.879007  0.379007  0.324407  1
  C  C21  1  0.379007  0.120993  0.324407  1
  C  C22  1  0.620993  0.879007  0.324407  1
  C  C23  1  0.120993  0.620993  0.324407  1
  C  C24  1  0.620993  0.879007  0.675593  1
  C  C25  1  0.379007  0.120993  0.675593  1
