# generated using pymatgen
data_Dy12Co3Si8Ni
_symmetry_space_group_name_H-M   'P 1'
_cell_length_a   4.11005500
_cell_length_b   11.17322238
_cell_length_c   11.35013544
_cell_angle_alpha   90.05729984
_cell_angle_beta   90.00000000
_cell_angle_gamma   90.00000000
_symmetry_Int_Tables_number   1
_chemical_formula_structural   Dy12Co3Si8Ni
_chemical_formula_sum   'Dy12 Co3 Si8 Ni1'
_cell_volume   521.22699800
_cell_formula_units_Z   1
loop_
 _symmetry_equiv_pos_site_id
 _symmetry_equiv_pos_as_xyz
  1  'x, y, z'
loop_
 _atom_site_type_symbol
 _atom_site_label
 _atom_site_symmetry_multiplicity
 _atom_site_fract_x
 _atom_site_fract_y
 _atom_site_fract_z
 _atom_site_occupancy
  Dy  Dy0  1  0.250000  0.059963  0.882201  1
  Dy  Dy1  1  0.250000  0.440923  0.382441  1
  Dy  Dy2  1  0.750000  0.941936  0.118432  1
  Dy  Dy3  1  0.750000  0.558550  0.618258  1
  Dy  Dy4  1  0.250000  0.125799  0.558410  1
  Dy  Dy5  1  0.250000  0.372688  0.058231  1
  Dy  Dy6  1  0.750000  0.873389  0.441655  1
  Dy  Dy7  1  0.750000  0.624133  0.942622  1
  Dy  Dy8  1  0.250000  0.803822  0.714533  1
  Dy  Dy9  1  0.250000  0.698272  0.216944  1
  Dy  Dy10  1  0.750000  0.198451  0.282972  1
  Dy  Dy11  1  0.750000  0.301952  0.783275  1
  Co  Co12  1  0.250000  0.364576  0.630716  1
  Co  Co13  1  0.250000  0.135236  0.130461  1
  Co  Co14  1  0.750000  0.634830  0.369524  1
  Si  Si15  1  0.250000  0.814994  0.974292  1
  Si  Si16  1  0.250000  0.684241  0.474231  1
  Si  Si17  1  0.750000  0.183703  0.025387  1
  Si  Si18  1  0.750000  0.315962  0.526091  1
  Si  Si19  1  0.250000  0.495001  0.801645  1
  Si  Si20  1  0.250000  0.005434  0.301815  1
  Si  Si21  1  0.750000  0.505402  0.198104  1
  Si  Si22  1  0.750000  0.995347  0.697081  1
  Ni  Ni23  1  0.750000  0.865399  0.870676  1
