# generated using pymatgen
data_Ta2CoB3Mo
_symmetry_space_group_name_H-M   'P 1'
_cell_length_a   3.23495300
_cell_length_b   4.59249774
_cell_length_c   11.01203300
_cell_angle_alpha   90.00000000
_cell_angle_beta   90.00000000
_cell_angle_gamma   110.62191338
_symmetry_Int_Tables_number   1
_chemical_formula_structural   Ta2CoB3Mo
_chemical_formula_sum   'Ta4 Co2 B6 Mo2'
_cell_volume   153.11771295
_cell_formula_units_Z   2
loop_
 _symmetry_equiv_pos_site_id
 _symmetry_equiv_pos_as_xyz
  1  'x, y, z'
loop_
 _atom_site_type_symbol
 _atom_site_label
 _atom_site_symmetry_multiplicity
 _atom_site_fract_x
 _atom_site_fract_y
 _atom_site_fract_z
 _atom_site_occupancy
  Ta  Ta0  1  0.208423  0.416845  0.393586  1
  Ta  Ta1  1  0.791577  0.583155  0.606414  1
  Ta  Ta2  1  0.208423  0.416845  0.106414  1
  Ta  Ta3  1  0.791577  0.583155  0.893586  1
  Co  Co4  1  0.500000  0.000000  0.500000  1
  Co  Co5  1  0.500000  0.000000  0.000000  1
  B  B6  1  0.912758  0.825516  0.394578  1
  B  B7  1  0.087242  0.174484  0.605422  1
  B  B8  1  0.912758  0.825516  0.105422  1
  B  B9  1  0.087242  0.174484  0.894578  1
  B  B10  1  0.794900  0.589801  0.250000  1
  B  B11  1  0.205100  0.410199  0.750000  1
  Mo  Mo12  1  0.498138  0.996274  0.250000  1
  Mo  Mo13  1  0.501862  0.003726  0.750000  1
