# generated using pymatgen
data_DyNp(NiH4)2
_symmetry_space_group_name_H-M   'P 1'
_cell_length_a   3.68169392
_cell_length_b   4.72242000
_cell_length_c   6.04166429
_cell_angle_alpha   90.00000000
_cell_angle_beta   107.83842881
_cell_angle_gamma   90.00000000
_symmetry_Int_Tables_number   1
_chemical_formula_structural   DyNp(NiH4)2
_chemical_formula_sum   'Dy1 Np1 Ni2 H8'
_cell_volume   99.99337386
_cell_formula_units_Z   1
loop_
 _symmetry_equiv_pos_site_id
 _symmetry_equiv_pos_as_xyz
  1  'x, y, z'
loop_
 _atom_site_type_symbol
 _atom_site_label
 _atom_site_symmetry_multiplicity
 _atom_site_fract_x
 _atom_site_fract_y
 _atom_site_fract_z
 _atom_site_occupancy
  Dy  Dy0  1  0.635323  0.250001  0.771039  1
  Np  Np1  1  0.368921  0.750000  0.237792  1
  Ni  Ni2  1  0.905282  0.250001  0.310661  1
  Ni  Ni3  1  0.097508  0.750000  0.693810  1
  H  H4  1  0.805272  0.504353  0.111406  1
  H  H5  1  0.805272  0.995645  0.111406  1
  H  H6  1  0.413825  0.250001  0.327968  1
  H  H7  1  0.996827  0.989083  0.493336  1
  H  H8  1  0.996827  0.510917  0.493336  1
  H  H9  1  0.584479  0.750000  0.668684  1
  H  H10  1  0.195229  0.001519  0.890280  1
  H  H11  1  0.195229  0.498481  0.890280  1
