# generated using pymatgen
data_Ca(AlAg2)4
_symmetry_space_group_name_H-M   'P 1'
_cell_length_a   7.18592091
_cell_length_b   7.18592243
_cell_length_c   7.18592148
_cell_angle_alpha   97.97224743
_cell_angle_beta   97.97225521
_cell_angle_gamma   136.27063626
_symmetry_Int_Tables_number   1
_chemical_formula_structural   Ca(AlAg2)4
_chemical_formula_sum   'Ca1 Al4 Ag8'
_cell_volume   238.04727840
_cell_formula_units_Z   1
loop_
 _symmetry_equiv_pos_site_id
 _symmetry_equiv_pos_as_xyz
  1  'x, y, z'
loop_
 _atom_site_type_symbol
 _atom_site_label
 _atom_site_symmetry_multiplicity
 _atom_site_fract_x
 _atom_site_fract_y
 _atom_site_fract_z
 _atom_site_occupancy
  Ca  Ca0  1  0.000000  0.000000  0.000000  1
  Al  Al1  1  0.500000  0.500000  0.500000  1
  Al  Al2  1  0.000000  0.000000  0.500000  1
  Al  Al3  1  0.000000  0.500000  0.000000  1
  Al  Al4  1  0.500000  0.000000  0.000000  1
  Ag  Ag5  1  0.281504  0.500000  0.781504  1
  Ag  Ag6  1  0.718496  0.500000  0.218496  1
  Ag  Ag7  1  0.500000  0.281504  0.781504  1
  Ag  Ag8  1  0.500000  0.718496  0.218496  1
  Ag  Ag9  1  0.346373  0.000000  0.346373  1
  Ag  Ag10  1  0.653627  0.000000  0.653627  1
  Ag  Ag11  1  0.000000  0.346373  0.346373  1
  Ag  Ag12  1  0.000000  0.653627  0.653627  1
