# generated using pymatgen
data_Dy3Ir2Rh7
_symmetry_space_group_name_H-M   'P 1'
_cell_length_a   5.26714634
_cell_length_b   5.26463382
_cell_length_c   17.56670100
_cell_angle_alpha   90.00026120
_cell_angle_beta   89.97939715
_cell_angle_gamma   119.98470650
_symmetry_Int_Tables_number   1
_chemical_formula_structural   Dy3Ir2Rh7
_chemical_formula_sum   'Dy6 Ir4 Rh14'
_cell_volume   421.92112055
_cell_formula_units_Z   2
loop_
 _symmetry_equiv_pos_site_id
 _symmetry_equiv_pos_as_xyz
  1  'x, y, z'
loop_
 _atom_site_type_symbol
 _atom_site_label
 _atom_site_symmetry_multiplicity
 _atom_site_fract_x
 _atom_site_fract_y
 _atom_site_fract_z
 _atom_site_occupancy
  Dy  Dy0  1  0.333045  0.666526  0.958678  1
  Dy  Dy1  1  0.666650  0.333324  0.041532  1
  Dy  Dy2  1  0.667866  0.333933  0.458845  1
  Dy  Dy3  1  0.333718  0.666857  0.541094  1
  Dy  Dy4  1  0.333093  0.666544  0.749946  1
  Dy  Dy5  1  0.666904  0.333452  0.251446  1
  Ir  Ir6  1  0.164450  0.830919  0.373773  1
  Ir  Ir7  1  0.164459  0.333533  0.373772  1
  Ir  Ir8  1  0.004038  0.002020  0.500196  1
  Ir  Ir9  1  0.999118  0.999560  0.999848  1
  Rh  Rh10  1  0.663527  0.831773  0.374865  1
  Rh  Rh11  1  0.832912  0.166612  0.625831  1
  Rh  Rh12  1  0.832919  0.666293  0.625829  1
  Rh  Rh13  1  0.333616  0.166808  0.625665  1
  Rh  Rh14  1  0.833129  0.167246  0.874577  1
  Rh  Rh15  1  0.833118  0.665892  0.874577  1
  Rh  Rh16  1  0.334167  0.167086  0.874658  1
  Rh  Rh17  1  0.167218  0.832713  0.124775  1
  Rh  Rh18  1  0.167212  0.334494  0.124779  1
  Rh  Rh19  1  0.666704  0.833349  0.125071  1
  Rh  Rh20  1  0.334077  0.667038  0.249780  1
  Rh  Rh21  1  0.666312  0.333156  0.750294  1
  Rh  Rh22  1  0.000933  0.000467  0.250105  1
  Rh  Rh23  1  0.000812  0.000409  0.750066  1
