# generated using pymatgen
data_Ti20Si12H
_symmetry_space_group_name_H-M   'P 1'
_cell_length_a   12.92135600
_cell_length_b   5.12289247
_cell_length_c   7.46923973
_cell_angle_alpha   90.00071626
_cell_angle_beta   90.00000000
_cell_angle_gamma   90.00000000
_symmetry_Int_Tables_number   1
_chemical_formula_structural   Ti20Si12H
_chemical_formula_sum   'Ti20 Si12 H1'
_cell_volume   494.42421294
_cell_formula_units_Z   1
loop_
 _symmetry_equiv_pos_site_id
 _symmetry_equiv_pos_as_xyz
  1  'x, y, z'
loop_
 _atom_site_type_symbol
 _atom_site_label
 _atom_site_symmetry_multiplicity
 _atom_site_fract_x
 _atom_site_fract_y
 _atom_site_fract_z
 _atom_site_occupancy
  Ti  Ti0  1  0.333474  0.500000  0.000000  1
  Ti  Ti1  1  0.833796  0.500000  0.500000  1
  Ti  Ti2  1  0.166204  0.500000  0.500000  1
  Ti  Ti3  1  0.666526  0.500000  0.000000  1
  Ti  Ti4  1  0.166366  0.000000  0.500000  1
  Ti  Ti5  1  0.666527  0.000000  0.000000  1
  Ti  Ti6  1  0.333473  0.000000  0.000000  1
  Ti  Ti7  1  0.833634  0.000000  0.500000  1
  Ti  Ti8  1  0.500000  0.248960  0.751431  1
  Ti  Ti9  1  0.000000  0.253004  0.252493  1
  Ti  Ti10  1  0.374776  0.250136  0.375942  1
  Ti  Ti11  1  0.873745  0.251892  0.873893  1
  Ti  Ti12  1  0.126255  0.251892  0.873893  1
  Ti  Ti13  1  0.625224  0.250136  0.375942  1
  Ti  Ti14  1  0.500000  0.751040  0.248569  1
  Ti  Ti15  1  0.000000  0.746996  0.747507  1
  Ti  Ti16  1  0.126255  0.748108  0.126107  1
  Ti  Ti17  1  0.625224  0.749864  0.624058  1
  Ti  Ti18  1  0.374776  0.749864  0.624058  1
  Ti  Ti19  1  0.873745  0.748108  0.126107  1
  Si  Si20  1  0.500000  0.250789  0.109891  1
  Si  Si21  1  0.000000  0.247260  0.609162  1
  Si  Si22  1  0.196507  0.248190  0.196573  1
  Si  Si23  1  0.696112  0.249925  0.696575  1
  Si  Si24  1  0.303888  0.249925  0.696575  1
  Si  Si25  1  0.803493  0.248190  0.196573  1
  Si  Si26  1  0.500000  0.749211  0.890109  1
  Si  Si27  1  0.000000  0.752740  0.390838  1
  Si  Si28  1  0.303888  0.750075  0.303425  1
  Si  Si29  1  0.803493  0.751810  0.803427  1
  Si  Si30  1  0.196507  0.751810  0.803427  1
  Si  Si31  1  0.696112  0.750075  0.303425  1
  H  H32  1  0.000000  0.500000  0.000000  1
