# generated using pymatgen
data_AcFeN3
_symmetry_space_group_name_H-M   'P 1'
_cell_length_a   6.64411528
_cell_length_b   6.64411552
_cell_length_c   5.44767300
_cell_angle_alpha   90.00000000
_cell_angle_beta   90.00000000
_cell_angle_gamma   145.13633141
_symmetry_Int_Tables_number   1
_chemical_formula_structural   AcFeN3
_chemical_formula_sum   'Ac2 Fe2 N6'
_cell_volume   137.46657400
_cell_formula_units_Z   2
loop_
 _symmetry_equiv_pos_site_id
 _symmetry_equiv_pos_as_xyz
  1  'x, y, z'
loop_
 _atom_site_type_symbol
 _atom_site_label
 _atom_site_symmetry_multiplicity
 _atom_site_fract_x
 _atom_site_fract_y
 _atom_site_fract_z
 _atom_site_occupancy
  Ac  Ac0  1  0.371977  0.628023  0.250000  1
  Ac  Ac1  1  0.628023  0.371977  0.750000  1
  Fe  Fe2  1  0.911377  0.088623  0.750000  1
  Fe  Fe3  1  0.088623  0.911377  0.250000  1
  N  N4  1  0.469305  0.854612  0.750000  1
  N  N5  1  0.145388  0.530695  0.750000  1
  N  N6  1  0.000000  0.000000  0.000000  1
  N  N7  1  0.530695  0.145388  0.250000  1
  N  N8  1  0.854612  0.469305  0.250000  1
  N  N9  1  0.000000  0.000000  0.500000  1
