# generated using pymatgen
data_NaAc19(Ga2Sn)4
_symmetry_space_group_name_H-M   'P 1'
_cell_length_a   8.41032200
_cell_length_b   8.41032200
_cell_length_c   15.86986700
_cell_angle_alpha   90.00000000
_cell_angle_beta   90.00000000
_cell_angle_gamma   90.00000000
_symmetry_Int_Tables_number   1
_chemical_formula_structural   NaAc19(Ga2Sn)4
_chemical_formula_sum   'Na1 Ac19 Ga8 Sn4'
_cell_volume   1122.53149364
_cell_formula_units_Z   1
loop_
 _symmetry_equiv_pos_site_id
 _symmetry_equiv_pos_as_xyz
  1  'x, y, z'
loop_
 _atom_site_type_symbol
 _atom_site_label
 _atom_site_symmetry_multiplicity
 _atom_site_fract_x
 _atom_site_fract_y
 _atom_site_fract_z
 _atom_site_occupancy
  Na  Na0  1  0.500000  0.000000  0.756070  1
  Ac  Ac1  1  0.821695  0.840393  0.608070  1
  Ac  Ac2  1  0.174172  0.838463  0.104860  1
  Ac  Ac3  1  0.160231  0.824089  0.395864  1
  Ac  Ac4  1  0.000000  0.500000  0.729093  1
  Ac  Ac5  1  0.839769  0.175911  0.395864  1
  Ac  Ac6  1  0.675911  0.660231  0.395864  1
  Ac  Ac7  1  0.659607  0.321695  0.608070  1
  Ac  Ac8  1  0.340393  0.678305  0.608070  1
  Ac  Ac9  1  0.000000  0.500000  0.221284  1
  Ac  Ac10  1  0.661537  0.674172  0.104860  1
  Ac  Ac11  1  0.672096  0.324631  0.891822  1
  Ac  Ac12  1  0.824631  0.827904  0.891822  1
  Ac  Ac13  1  0.324089  0.339769  0.395864  1
  Ac  Ac14  1  0.178305  0.159607  0.608070  1
  Ac  Ac15  1  0.825828  0.161537  0.104860  1
  Ac  Ac16  1  0.327904  0.675369  0.891822  1
  Ac  Ac17  1  0.338463  0.325828  0.104860  1
  Ac  Ac18  1  0.500000  0.000000  0.268823  1
  Ac  Ac19  1  0.175369  0.172096  0.891822  1
  Ga  Ga20  1  0.617964  0.384706  0.251358  1
  Ga  Ga21  1  0.111352  0.881285  0.753040  1
  Ga  Ga22  1  0.381285  0.388648  0.753040  1
  Ga  Ga23  1  0.382036  0.615294  0.251358  1
  Ga  Ga24  1  0.884706  0.882036  0.251358  1
  Ga  Ga25  1  0.618715  0.611352  0.753040  1
  Ga  Ga26  1  0.888648  0.118715  0.753040  1
  Ga  Ga27  1  0.115294  0.117964  0.251358  1
  Sn  Sn28  1  0.000000  0.500000  0.511919  1
  Sn  Sn29  1  0.500000  0.000000  0.490919  1
  Sn  Sn30  1  0.500000  0.000000  0.000063  1
  Sn  Sn31  1  0.000000  0.500000  0.001769  1
