# generated using pymatgen
data_LaNd4(MoO6)2
_symmetry_space_group_name_H-M   'P 1'
_cell_length_a   7.13367702
_cell_length_b   7.13367770
_cell_length_c   7.65381262
_cell_angle_alpha   74.58643060
_cell_angle_beta   74.58641799
_cell_angle_gamma   51.37263441
_symmetry_Int_Tables_number   1
_chemical_formula_structural   LaNd4(MoO6)2
_chemical_formula_sum   'La1 Nd4 Mo2 O12'
_cell_volume   290.74938586
_cell_formula_units_Z   1
loop_
 _symmetry_equiv_pos_site_id
 _symmetry_equiv_pos_as_xyz
  1  'x, y, z'
loop_
 _atom_site_type_symbol
 _atom_site_label
 _atom_site_symmetry_multiplicity
 _atom_site_fract_x
 _atom_site_fract_y
 _atom_site_fract_z
 _atom_site_occupancy
  La  La0  1  0.000000  0.000000  0.500000  1
  Nd  Nd1  1  0.304220  0.304220  0.359902  1
  Nd  Nd2  1  0.695780  0.695780  0.640098  1
  Nd  Nd3  1  0.306014  0.306014  0.831850  1
  Nd  Nd4  1  0.693986  0.693986  0.168150  1
  Mo  Mo5  1  0.755428  0.244572  0.000000  1
  Mo  Mo6  1  0.244572  0.755428  0.000000  1
  O  O7  1  0.895047  0.427290  0.919513  1
  O  O8  1  0.427290  0.895047  0.919513  1
  O  O9  1  0.104953  0.572710  0.080487  1
  O  O10  1  0.572710  0.104953  0.080487  1
  O  O11  1  0.094416  0.593234  0.578198  1
  O  O12  1  0.593234  0.094416  0.578198  1
  O  O13  1  0.905584  0.406766  0.421802  1
  O  O14  1  0.406766  0.905584  0.421802  1
  O  O15  1  0.000278  0.000278  0.823276  1
  O  O16  1  0.999722  0.999722  0.176724  1
  O  O17  1  0.498665  0.498665  0.819253  1
  O  O18  1  0.501335  0.501335  0.180747  1
