# generated using pymatgen
data_La2Cd4PdAu
_symmetry_space_group_name_H-M   'P 1'
_cell_length_a   5.63435866
_cell_length_b   5.63435804
_cell_length_c   8.48349800
_cell_angle_alpha   90.00000000
_cell_angle_beta   90.00000000
_cell_angle_gamma   133.37101987
_symmetry_Int_Tables_number   1
_chemical_formula_structural   La2Cd4PdAu
_chemical_formula_sum   'La2 Cd4 Pd1 Au1'
_cell_volume   195.77253662
_cell_formula_units_Z   1
loop_
 _symmetry_equiv_pos_site_id
 _symmetry_equiv_pos_as_xyz
  1  'x, y, z'
loop_
 _atom_site_type_symbol
 _atom_site_label
 _atom_site_symmetry_multiplicity
 _atom_site_fract_x
 _atom_site_fract_y
 _atom_site_fract_z
 _atom_site_occupancy
  La  La0  1  0.063813  0.936187  0.250000  1
  La  La1  1  0.932569  0.067431  0.750000  1
  Cd  Cd2  1  0.642132  0.357868  0.544839  1
  Cd  Cd3  1  0.357805  0.642195  0.444375  1
  Cd  Cd4  1  0.642132  0.357868  0.955161  1
  Cd  Cd5  1  0.357805  0.642195  0.055625  1
  Pd  Pd6  1  0.778286  0.221714  0.250000  1
  Au  Au7  1  0.225458  0.774542  0.750000  1
