# generated using pymatgen
data_Ta6Al5V4SiB
_symmetry_space_group_name_H-M   'P 1'
_cell_length_a   7.67976933
_cell_length_b   7.65639005
_cell_length_c   5.05863625
_cell_angle_alpha   90.18020113
_cell_angle_beta   89.91015779
_cell_angle_gamma   119.89837945
_symmetry_Int_Tables_number   1
_chemical_formula_structural   Ta6Al5V4SiB
_chemical_formula_sum   'Ta6 Al5 V4 Si1 B1'
_cell_volume   257.85643109
_cell_formula_units_Z   1
loop_
 _symmetry_equiv_pos_site_id
 _symmetry_equiv_pos_as_xyz
  1  'x, y, z'
loop_
 _atom_site_type_symbol
 _atom_site_label
 _atom_site_symmetry_multiplicity
 _atom_site_fract_x
 _atom_site_fract_y
 _atom_site_fract_z
 _atom_site_occupancy
  Ta  Ta0  1  0.999961  0.757872  0.239917  1
  Ta  Ta1  1  0.233708  0.240102  0.238153  1
  Ta  Ta2  1  0.766327  0.006457  0.238158  1
  Ta  Ta3  1  0.999975  0.241614  0.757154  1
  Ta  Ta4  1  0.764571  0.763771  0.764802  1
  Ta  Ta5  1  0.235476  0.999303  0.764805  1
  Al  Al6  1  0.591279  0.592962  0.256942  1
  Al  Al7  1  0.408621  0.001461  0.256945  1
  Al  Al8  1  0.000107  0.593662  0.744060  1
  Al  Al9  1  0.411578  0.408171  0.744485  1
  Al  Al10  1  0.588300  0.996366  0.744509  1
  V  V11  1  0.325358  0.660152  0.497778  1
  V  V12  1  0.674638  0.334797  0.497852  1
  V  V13  1  0.673656  0.334819  0.001447  1
  V  V14  1  0.326354  0.661156  0.001472  1
  Si  Si15  1  0.000078  0.408454  0.251747  1
  B  B16  1  0.000013  0.998879  0.499775  1
