# generated using pymatgen
data_Ca2Eu8Si5Ni
_symmetry_space_group_name_H-M   'P 1'
_cell_length_a   9.15345357
_cell_length_b   9.15345355
_cell_length_c   9.21432972
_cell_angle_alpha   129.76817236
_cell_angle_beta   129.76816308
_cell_angle_gamma   73.26926550
_symmetry_Int_Tables_number   1
_chemical_formula_structural   Ca2Eu8Si5Ni
_chemical_formula_sum   'Ca2 Eu8 Si5 Ni1'
_cell_volume   446.39926499
_cell_formula_units_Z   1
loop_
 _symmetry_equiv_pos_site_id
 _symmetry_equiv_pos_as_xyz
  1  'x, y, z'
loop_
 _atom_site_type_symbol
 _atom_site_label
 _atom_site_symmetry_multiplicity
 _atom_site_fract_x
 _atom_site_fract_y
 _atom_site_fract_z
 _atom_site_occupancy
  Ca  Ca0  1  0.001962  0.001156  0.003118  1
  Ca  Ca1  1  0.501156  0.501962  0.003118  1
  Eu  Eu2  1  0.822044  0.322044  0.855762  1
  Eu  Eu3  1  0.179860  0.679860  0.145614  1
  Eu  Eu4  1  0.465755  0.965755  0.145614  1
  Eu  Eu5  1  0.320097  0.470253  0.503160  1
  Eu  Eu6  1  0.032907  0.183063  0.503160  1
  Eu  Eu7  1  0.533717  0.033717  0.855762  1
  Eu  Eu8  1  0.683063  0.532907  0.503160  1
  Eu  Eu9  1  0.970253  0.820097  0.503160  1
  Si  Si10  1  0.885496  0.385496  0.270990  1
  Si  Si11  1  0.612391  0.888981  0.501373  1
  Si  Si12  1  0.388981  0.112391  0.501373  1
  Si  Si13  1  0.252916  0.252916  0.005832  1
  Si  Si14  1  0.752916  0.752916  0.005832  1
  Ni  Ni15  1  0.096485  0.596485  0.692971  1
