# generated using pymatgen
data_Sr5NdNbCo4O15
_symmetry_space_group_name_H-M   'P 1'
_cell_length_a   6.89113125
_cell_length_b   6.96879085
_cell_length_c   6.96878986
_cell_angle_alpha   86.99212772
_cell_angle_beta   86.94118479
_cell_angle_gamma   86.94116629
_symmetry_Int_Tables_number   1
_chemical_formula_structural   Sr5NdNbCo4O15
_chemical_formula_sum   'Sr5 Nd1 Nb1 Co4 O15'
_cell_volume   333.29472643
_cell_formula_units_Z   1
loop_
 _symmetry_equiv_pos_site_id
 _symmetry_equiv_pos_as_xyz
  1  'x, y, z'
loop_
 _atom_site_type_symbol
 _atom_site_label
 _atom_site_symmetry_multiplicity
 _atom_site_fract_x
 _atom_site_fract_y
 _atom_site_fract_z
 _atom_site_occupancy
  Sr  Sr0  1  0.129910  0.500252  0.866046  1
  Sr  Sr1  1  0.870090  0.133954  0.499748  1
  Sr  Sr2  1  0.000000  0.677756  0.322244  1
  Sr  Sr3  1  0.315648  0.001013  0.678894  1
  Sr  Sr4  1  0.684352  0.321106  0.998987  1
  Nd  Nd5  1  0.500000  0.867071  0.132929  1
  Nb  Nb6  1  0.500000  0.499960  0.500040  1
  Co  Co7  1  0.705020  0.709070  0.707285  1
  Co  Co8  1  0.294980  0.292715  0.290930  1
  Co  Co9  1  0.902806  0.902786  0.903902  1
  Co  Co10  1  0.097194  0.096098  0.097214  1
  O  O11  1  0.383692  0.558637  0.238272  1
  O  O12  1  0.240986  0.381536  0.550251  1
  O  O13  1  0.555806  0.243644  0.380295  1
  O  O14  1  0.616308  0.761728  0.441363  1
  O  O15  1  0.444194  0.619705  0.756356  1
  O  O16  1  0.759014  0.449749  0.618464  1
  O  O17  1  0.213910  0.030260  0.342274  1
  O  O18  1  0.352301  0.195213  0.035820  1
  O  O19  1  0.033887  0.344264  0.203680  1
  O  O20  1  0.786090  0.657726  0.969740  1
  O  O21  1  0.966113  0.796320  0.655736  1
  O  O22  1  0.162798  0.844464  0.002887  1
  O  O23  1  0.837202  0.997113  0.155536  1
  O  O24  1  0.000000  0.153681  0.846319  1
  O  O25  1  0.647699  0.964180  0.804787  1
