# generated using pymatgen
data_Lu4Ge2B4RuRh9
_symmetry_space_group_name_H-M   'P 1'
_cell_length_a   9.37227236
_cell_length_b   9.37227236
_cell_length_c   3.20036100
_cell_angle_alpha   90.00000000
_cell_angle_beta   90.00000000
_cell_angle_gamma   89.73872834
_symmetry_Int_Tables_number   1
_chemical_formula_structural   Lu4Ge2B4RuRh9
_chemical_formula_sum   'Lu4 Ge2 B4 Ru1 Rh9'
_cell_volume   281.11515273
_cell_formula_units_Z   1
loop_
 _symmetry_equiv_pos_site_id
 _symmetry_equiv_pos_as_xyz
  1  'x, y, z'
loop_
 _atom_site_type_symbol
 _atom_site_label
 _atom_site_symmetry_multiplicity
 _atom_site_fract_x
 _atom_site_fract_y
 _atom_site_fract_z
 _atom_site_occupancy
  Lu  Lu0  1  0.825022  0.325022  0.000000  1
  Lu  Lu1  1  0.326292  0.173708  0.000000  1
  Lu  Lu2  1  0.673708  0.826292  0.000000  1
  Lu  Lu3  1  0.174978  0.674978  0.000000  1
  Ge  Ge4  1  0.000000  0.000000  0.000000  1
  Ge  Ge5  1  0.500000  0.500000  0.000000  1
  B  B6  1  0.622169  0.122169  0.000000  1
  B  B7  1  0.122612  0.377388  0.000000  1
  B  B8  1  0.877388  0.622612  0.000000  1
  B  B9  1  0.377831  0.877831  0.000000  1
  Ru  Ru10  1  0.500000  0.000000  0.500000  1
  Rh  Rh11  1  0.070889  0.217180  0.500000  1
  Rh  Rh12  1  0.215439  0.928292  0.500000  1
  Rh  Rh13  1  0.784561  0.071708  0.500000  1
  Rh  Rh14  1  0.929111  0.782820  0.500000  1
  Rh  Rh15  1  0.428292  0.715439  0.500000  1
  Rh  Rh16  1  0.571708  0.284561  0.500000  1
  Rh  Rh17  1  0.717180  0.570889  0.500000  1
  Rh  Rh18  1  0.282820  0.429111  0.500000  1
  Rh  Rh19  1  0.000000  0.500000  0.500000  1
