# generated using pymatgen
data_Sc4FeB8MoRu8
_symmetry_space_group_name_H-M   'P 1'
_cell_length_a   3.01289600
_cell_length_b   8.49506784
_cell_length_c   9.98930784
_cell_angle_alpha   90.78021081
_cell_angle_beta   90.00000000
_cell_angle_gamma   90.00000000
_symmetry_Int_Tables_number   1
_chemical_formula_structural   Sc4FeB8MoRu8
_chemical_formula_sum   'Sc4 Fe1 B8 Mo1 Ru8'
_cell_volume   255.65019152
_cell_formula_units_Z   1
loop_
 _symmetry_equiv_pos_site_id
 _symmetry_equiv_pos_as_xyz
  1  'x, y, z'
loop_
 _atom_site_type_symbol
 _atom_site_label
 _atom_site_symmetry_multiplicity
 _atom_site_fract_x
 _atom_site_fract_y
 _atom_site_fract_z
 _atom_site_occupancy
  Sc  Sc0  1  0.500000  0.842837  0.172083  1
  Sc  Sc1  1  0.500000  0.158604  0.826885  1
  Sc  Sc2  1  0.500000  0.660520  0.686314  1
  Sc  Sc3  1  0.500000  0.341929  0.314099  1
  Fe  Fe4  1  0.000000  0.002699  0.999702  1
  B  B5  1  0.500000  0.966381  0.590641  1
  B  B6  1  0.500000  0.034370  0.407695  1
  B  B7  1  0.500000  0.858806  0.905904  1
  B  B8  1  0.500000  0.139786  0.093165  1
  B  B9  1  0.500000  0.646244  0.399692  1
  B  B10  1  0.500000  0.350789  0.601765  1
  B  B11  1  0.500000  0.464692  0.913816  1
  B  B12  1  0.500000  0.533739  0.088084  1
  Mo  Mo13  1  0.000000  0.663066  0.955090  1
  Ru  Ru14  1  0.000000  0.331593  0.047262  1
  Ru  Ru15  1  0.000000  0.841650  0.453309  1
  Ru  Ru16  1  0.000000  0.158850  0.544178  1
  Ru  Ru17  1  0.000000  0.403277  0.761637  1
  Ru  Ru18  1  0.000000  0.596942  0.239519  1
  Ru  Ru19  1  0.000000  0.499695  0.501147  1
  Ru  Ru20  1  0.000000  0.911403  0.741765  1
  Ru  Ru21  1  0.000000  0.092130  0.256249  1
