# generated using pymatgen
data_Dy2Tm3IrRu
_symmetry_space_group_name_H-M   'P 1'
_cell_length_a   6.38135029
_cell_length_b   7.24528406
_cell_length_c   8.39267163
_cell_angle_alpha   96.90355815
_cell_angle_beta   112.34447376
_cell_angle_gamma   90.00000146
_symmetry_Int_Tables_number   1
_chemical_formula_structural   Dy2Tm3IrRu
_chemical_formula_sum   'Dy4 Tm6 Ir2 Ru2'
_cell_volume   355.85360341
_cell_formula_units_Z   2
loop_
 _symmetry_equiv_pos_site_id
 _symmetry_equiv_pos_as_xyz
  1  'x, y, z'
loop_
 _atom_site_type_symbol
 _atom_site_label
 _atom_site_symmetry_multiplicity
 _atom_site_fract_x
 _atom_site_fract_y
 _atom_site_fract_z
 _atom_site_occupancy
  Dy  Dy0  1  0.790882  0.081562  0.813720  1
  Dy  Dy1  1  0.977161  0.418438  0.186280  1
  Dy  Dy2  1  0.211319  0.915845  0.184915  1
  Dy  Dy3  1  0.026405  0.584155  0.815085  1
  Tm  Tm4  1  0.207998  0.182193  0.563772  1
  Tm  Tm5  1  0.644226  0.317807  0.436228  1
  Tm  Tm6  1  0.790564  0.815262  0.437369  1
  Tm  Tm7  1  0.353195  0.684738  0.562631  1
  Tm  Tm8  1  0.424026  0.250000  0.000000  1
  Tm  Tm9  1  0.576265  0.750000  0.000000  1
  Ir  Ir10  1  0.601317  0.424038  0.778163  1
  Ir  Ir11  1  0.823152  0.075962  0.221837  1
  Ru  Ru12  1  0.396705  0.574632  0.219922  1
  Ru  Ru13  1  0.176784  0.925368  0.780078  1
