# generated using pymatgen
data_PrSmAl20(FeRh)2
_symmetry_space_group_name_H-M   'P 1'
_cell_length_a   6.84174832
_cell_length_b   6.84174872
_cell_length_c   9.13534746
_cell_angle_alpha   90.16648995
_cell_angle_beta   90.16648901
_cell_angle_gamma   97.27708266
_symmetry_Int_Tables_number   1
_chemical_formula_structural   PrSmAl20(FeRh)2
_chemical_formula_sum   'Pr1 Sm1 Al20 Fe2 Rh2'
_cell_volume   424.17274499
_cell_formula_units_Z   1
loop_
 _symmetry_equiv_pos_site_id
 _symmetry_equiv_pos_as_xyz
  1  'x, y, z'
loop_
 _atom_site_type_symbol
 _atom_site_label
 _atom_site_symmetry_multiplicity
 _atom_site_fract_x
 _atom_site_fract_y
 _atom_site_fract_z
 _atom_site_occupancy
  Pr  Pr0  1  0.124683  0.875317  0.250000  1
  Sm  Sm1  1  0.874277  0.125723  0.750000  1
  Al  Al2  1  0.619867  0.373408  0.550744  1
  Al  Al3  1  0.380740  0.626202  0.450396  1
  Al  Al4  1  0.373798  0.619260  0.049604  1
  Al  Al5  1  0.626592  0.380133  0.949256  1
  Al  Al6  1  0.230206  0.223179  0.497965  1
  Al  Al7  1  0.769738  0.777536  0.504067  1
  Al  Al8  1  0.776821  0.769794  0.002035  1
  Al  Al9  1  0.222464  0.230262  0.995933  1
  Al  Al10  1  0.844347  0.164213  0.100209  1
  Al  Al11  1  0.154712  0.836554  0.898528  1
  Al  Al12  1  0.163446  0.845288  0.601472  1
  Al  Al13  1  0.835787  0.155653  0.399791  1
  Al  Al14  1  0.861740  0.587880  0.753637  1
  Al  Al15  1  0.138012  0.410145  0.246355  1
  Al  Al16  1  0.412120  0.138260  0.746363  1
  Al  Al17  1  0.589855  0.861988  0.253645  1
  Al  Al18  1  0.223043  0.480674  0.754769  1
  Al  Al19  1  0.776075  0.518489  0.245085  1
  Al  Al20  1  0.519326  0.776957  0.745231  1
  Al  Al21  1  0.481511  0.223925  0.254915  1
  Fe  Fe22  1  0.999973  0.499611  0.999349  1
  Fe  Fe23  1  0.500389  0.000027  0.500651  1
  Rh  Rh24  1  0.000034  0.499556  0.500768  1
  Rh  Rh25  1  0.500444  0.999966  0.999232  1
