# generated using pymatgen
data_Tb3ZrAl16(SiIr3)2
_symmetry_space_group_name_H-M   'P 1'
_cell_length_a   7.53143338
_cell_length_b   7.51641394
_cell_length_c   9.31520000
_cell_angle_alpha   90.00000000
_cell_angle_beta   90.00000000
_cell_angle_gamma   119.64260821
_symmetry_Int_Tables_number   1
_chemical_formula_structural   Tb3ZrAl16(SiIr3)2
_chemical_formula_sum   'Tb3 Zr1 Al16 Si2 Ir6'
_cell_volume   458.31485878
_cell_formula_units_Z   1
loop_
 _symmetry_equiv_pos_site_id
 _symmetry_equiv_pos_as_xyz
  1  'x, y, z'
loop_
 _atom_site_type_symbol
 _atom_site_label
 _atom_site_symmetry_multiplicity
 _atom_site_fract_x
 _atom_site_fract_y
 _atom_site_fract_z
 _atom_site_occupancy
  Tb  Tb0  1  0.005693  0.325089  0.750000  1
  Tb  Tb1  1  0.675234  0.994244  0.250000  1
  Tb  Tb2  1  0.325372  0.005769  0.750000  1
  Zr  Zr3  1  0.992921  0.674307  0.250000  1
  Al  Al4  1  0.001264  0.339365  0.077326  1
  Al  Al5  1  0.999229  0.663872  0.927923  1
  Al  Al6  1  0.999229  0.663872  0.572077  1
  Al  Al7  1  0.333475  0.998922  0.422126  1
  Al  Al8  1  0.001264  0.339365  0.422674  1
  Al  Al9  1  0.663451  0.998301  0.575605  1
  Al  Al10  1  0.663451  0.998301  0.924395  1
  Al  Al11  1  0.333475  0.998922  0.077874  1
  Al  Al12  1  0.335899  0.335847  0.555935  1
  Al  Al13  1  0.666986  0.664423  0.440798  1
  Al  Al14  1  0.666986  0.664423  0.059202  1
  Al  Al15  1  0.335899  0.335847  0.944065  1
  Al  Al16  1  0.331375  0.549074  0.250000  1
  Al  Al17  1  0.665946  0.453173  0.750000  1
  Al  Al18  1  0.552895  0.338738  0.250000  1
  Al  Al19  1  0.451616  0.664166  0.750000  1
  Si  Si20  1  0.127539  0.124912  0.250000  1
  Si  Si21  1  0.870044  0.869017  0.750000  1
  Ir  Ir22  1  0.672032  0.328438  0.000979  1
  Ir  Ir23  1  0.328909  0.672121  0.001064  1
  Ir  Ir24  1  0.328909  0.672121  0.498936  1
  Ir  Ir25  1  0.672032  0.328438  0.499021  1
  Ir  Ir26  1  0.999438  0.999466  0.001555  1
  Ir  Ir27  1  0.999438  0.999466  0.498445  1
