# generated using pymatgen
data_YHo5Os2
_symmetry_space_group_name_H-M   'P 1'
_cell_length_a   6.30503700
_cell_length_b   7.38226700
_cell_length_c   9.04544600
_cell_angle_alpha   90.00000000
_cell_angle_beta   90.00000000
_cell_angle_gamma   90.00000000
_symmetry_Int_Tables_number   1
_chemical_formula_structural   YHo5Os2
_chemical_formula_sum   'Y2 Ho10 Os4'
_cell_volume   421.02450448
_cell_formula_units_Z   2
loop_
 _symmetry_equiv_pos_site_id
 _symmetry_equiv_pos_as_xyz
  1  'x, y, z'
loop_
 _atom_site_type_symbol
 _atom_site_label
 _atom_site_symmetry_multiplicity
 _atom_site_fract_x
 _atom_site_fract_y
 _atom_site_fract_z
 _atom_site_occupancy
  Y  Y0  1  0.870590  0.538014  0.250000  1
  Y  Y1  1  0.629410  0.038014  0.250000  1
  Ho  Ho2  1  0.331324  0.675723  0.062143  1
  Ho  Ho3  1  0.168676  0.175723  0.437857  1
  Ho  Ho4  1  0.668500  0.324221  0.563420  1
  Ho  Ho5  1  0.831500  0.824221  0.936580  1
  Ho  Ho6  1  0.668500  0.324221  0.936580  1
  Ho  Ho7  1  0.831500  0.824221  0.563420  1
  Ho  Ho8  1  0.331324  0.675723  0.437857  1
  Ho  Ho9  1  0.168676  0.175723  0.062143  1
  Ho  Ho10  1  0.130819  0.460907  0.750000  1
  Ho  Ho11  1  0.369181  0.960907  0.750000  1
  Os  Os12  1  0.044139  0.884637  0.250000  1
  Os  Os13  1  0.455861  0.384637  0.250000  1
  Os  Os14  1  0.961013  0.116556  0.750000  1
  Os  Os15  1  0.538987  0.616556  0.750000  1
