# generated using pymatgen
data_Lu4TcPt3F28
_symmetry_space_group_name_H-M   'P 1'
_cell_length_a   5.46836550
_cell_length_b   8.73337662
_cell_length_c   11.81588461
_cell_angle_alpha   62.63595615
_cell_angle_beta   89.95495767
_cell_angle_gamma   89.96215752
_symmetry_Int_Tables_number   1
_chemical_formula_structural   Lu4TcPt3F28
_chemical_formula_sum   'Lu4 Tc1 Pt3 F28'
_cell_volume   501.15219537
_cell_formula_units_Z   1
loop_
 _symmetry_equiv_pos_site_id
 _symmetry_equiv_pos_as_xyz
  1  'x, y, z'
loop_
 _atom_site_type_symbol
 _atom_site_label
 _atom_site_symmetry_multiplicity
 _atom_site_fract_x
 _atom_site_fract_y
 _atom_site_fract_z
 _atom_site_occupancy
  Lu  Lu0  1  0.761429  0.816608  0.763415  1
  Lu  Lu1  1  0.259926  0.185008  0.734484  1
  Lu  Lu2  1  0.239355  0.184540  0.236196  1
  Lu  Lu3  1  0.739199  0.815839  0.263906  1
  Tc  Tc4  1  0.757523  0.273614  0.956526  1
  Pt  Pt5  1  0.259431  0.727946  0.542928  1
  Pt  Pt6  1  0.240854  0.727783  0.042974  1
  Pt  Pt7  1  0.740846  0.272741  0.456570  1
  F  F8  1  0.439909  0.701885  0.914215  1
  F  F9  1  0.938026  0.298120  0.585977  1
  F  F10  1  0.550931  0.293371  0.084080  1
  F  F11  1  0.060844  0.701968  0.414288  1
  F  F12  1  0.434956  0.278593  0.543270  1
  F  F13  1  0.935977  0.722415  0.955359  1
  F  F14  1  0.564544  0.722094  0.455709  1
  F  F15  1  0.058032  0.277029  0.047641  1
  F  F16  1  0.774052  0.525445  0.857566  1
  F  F17  1  0.274786  0.475559  0.642776  1
  F  F18  1  0.224301  0.475555  0.143606  1
  F  F19  1  0.725276  0.525197  0.356522  1
  F  F20  1  0.755954  0.022346  0.054563  1
  F  F21  1  0.255383  0.980781  0.448588  1
  F  F22  1  0.245682  0.980532  0.947840  1
  F  F23  1  0.745445  0.019894  0.551249  1
  F  F24  1  0.962846  0.724847  0.638082  1
  F  F25  1  0.469664  0.271439  0.858587  1
  F  F26  1  0.038225  0.275364  0.362277  1
  F  F27  1  0.537011  0.725023  0.137919  1
  F  F28  1  0.048773  0.746437  0.177260  1
  F  F29  1  0.550024  0.254330  0.321920  1
  F  F30  1  0.958477  0.252854  0.825686  1
  F  F31  1  0.452316  0.746183  0.677148  1
  F  F32  1  0.416749  0.970130  0.233269  1
  F  F33  1  0.917060  0.028478  0.268704  1
  F  F34  1  0.582764  0.029516  0.766816  1
  F  F35  1  0.083428  0.970537  0.732082  1
