# generated using pymatgen
data_Ce8Si15Au
_symmetry_space_group_name_H-M   'P 1'
_cell_length_a   8.07709500
_cell_length_b   8.07709572
_cell_length_c   8.33396200
_cell_angle_alpha   90.00000000
_cell_angle_beta   90.00000000
_cell_angle_gamma   120.00000115
_symmetry_Int_Tables_number   1
_chemical_formula_structural   Ce8Si15Au
_chemical_formula_sum   'Ce8 Si15 Au1'
_cell_volume   470.86082916
_cell_formula_units_Z   1
loop_
 _symmetry_equiv_pos_site_id
 _symmetry_equiv_pos_as_xyz
  1  'x, y, z'
loop_
 _atom_site_type_symbol
 _atom_site_label
 _atom_site_symmetry_multiplicity
 _atom_site_fract_x
 _atom_site_fract_y
 _atom_site_fract_z
 _atom_site_occupancy
  Ce  Ce0  1  0.496511  0.503489  0.743732  1
  Ce  Ce1  1  0.496700  0.503300  0.256311  1
  Ce  Ce2  1  0.006978  0.503489  0.743732  1
  Ce  Ce3  1  0.006601  0.503300  0.256311  1
  Ce  Ce4  1  0.496511  0.993022  0.743732  1
  Ce  Ce5  1  0.496700  0.993399  0.256311  1
  Ce  Ce6  1  0.000000  0.000000  0.747880  1
  Ce  Ce7  1  0.000000  0.000000  0.252126  1
  Si  Si8  1  0.837802  0.162198  0.000174  1
  Si  Si9  1  0.167348  0.832652  0.000029  1
  Si  Si10  1  0.324396  0.162198  0.000174  1
  Si  Si11  1  0.166640  0.833360  0.499724  1
  Si  Si12  1  0.665303  0.832652  0.000029  1
  Si  Si13  1  0.833598  0.166402  0.500104  1
  Si  Si14  1  0.837802  0.675604  0.000174  1
  Si  Si15  1  0.666719  0.833360  0.499724  1
  Si  Si16  1  0.167348  0.334697  0.000029  1
  Si  Si17  1  0.332806  0.166402  0.500104  1
  Si  Si18  1  0.166640  0.333281  0.499724  1
  Si  Si19  1  0.833598  0.667194  0.500104  1
  Si  Si20  1  0.333333  0.666667  0.999893  1
  Si  Si21  1  0.333333  0.666667  0.500125  1
  Si  Si22  1  0.666667  0.333333  0.500410  1
  Au  Au23  1  0.666667  0.333333  0.999346  1
