# generated using pymatgen
data_Yb3(SbPd)2
_symmetry_space_group_name_H-M   'P 1'
_cell_length_a   5.80038000
_cell_length_b   8.48216000
_cell_length_c   13.75958000
_cell_angle_alpha   90.00000000
_cell_angle_beta   90.00000000
_cell_angle_gamma   90.00000000
_symmetry_Int_Tables_number   1
_chemical_formula_structural   Yb3(SbPd)2
_chemical_formula_sum   'Yb12 Sb8 Pd8'
_cell_volume   676.96791290
_cell_formula_units_Z   4
loop_
 _symmetry_equiv_pos_site_id
 _symmetry_equiv_pos_as_xyz
  1  'x, y, z'
loop_
 _atom_site_type_symbol
 _atom_site_label
 _atom_site_symmetry_multiplicity
 _atom_site_fract_x
 _atom_site_fract_y
 _atom_site_fract_z
 _atom_site_occupancy
  Yb  Yb0  1  0.153893  0.604088  0.096926  1
  Yb  Yb1  1  0.153893  0.895912  0.903074  1
  Yb  Yb2  1  0.846107  0.104088  0.403074  1
  Yb  Yb3  1  0.846107  0.395912  0.596926  1
  Yb  Yb4  1  0.846107  0.395912  0.903074  1
  Yb  Yb5  1  0.846107  0.104088  0.096926  1
  Yb  Yb6  1  0.153893  0.895912  0.596926  1
  Yb  Yb7  1  0.153893  0.604088  0.403074  1
  Yb  Yb8  1  0.364310  0.238040  0.250000  1
  Yb  Yb9  1  0.364310  0.261960  0.750000  1
  Yb  Yb10  1  0.635690  0.738040  0.250000  1
  Yb  Yb11  1  0.635690  0.761960  0.750000  1
  Sb  Sb12  1  0.316994  0.250000  0.000000  1
  Sb  Sb13  1  0.683006  0.750000  0.500000  1
  Sb  Sb14  1  0.683006  0.750000  0.000000  1
  Sb  Sb15  1  0.316994  0.250000  0.500000  1
  Sb  Sb16  1  0.869991  0.392078  0.250000  1
  Sb  Sb17  1  0.869991  0.107922  0.750000  1
  Sb  Sb18  1  0.130009  0.892078  0.250000  1
  Sb  Sb19  1  0.130009  0.607922  0.750000  1
  Pd  Pd20  1  0.617187  0.455958  0.091083  1
  Pd  Pd21  1  0.617187  0.044042  0.908917  1
  Pd  Pd22  1  0.382813  0.955958  0.408917  1
  Pd  Pd23  1  0.382813  0.544042  0.591083  1
  Pd  Pd24  1  0.382813  0.544042  0.908917  1
  Pd  Pd25  1  0.382813  0.955958  0.091083  1
  Pd  Pd26  1  0.617187  0.044042  0.591083  1
  Pd  Pd27  1  0.617187  0.455958  0.408917  1
