# generated using pymatgen
data_Y16Tm4Ir11Pt
_symmetry_space_group_name_H-M   'P 1'
_cell_length_a   10.94338850
_cell_length_b   10.94338850
_cell_length_c   6.35950506
_cell_angle_alpha   89.98915063
_cell_angle_beta   89.98915063
_cell_angle_gamma   89.87553754
_symmetry_Int_Tables_number   1
_chemical_formula_structural   Y16Tm4Ir11Pt
_chemical_formula_sum   'Y16 Tm4 Ir11 Pt1'
_cell_volume   761.59820495
_cell_formula_units_Z   1
loop_
 _symmetry_equiv_pos_site_id
 _symmetry_equiv_pos_as_xyz
  1  'x, y, z'
loop_
 _atom_site_type_symbol
 _atom_site_label
 _atom_site_symmetry_multiplicity
 _atom_site_fract_x
 _atom_site_fract_y
 _atom_site_fract_z
 _atom_site_occupancy
  Y  Y0  1  0.290157  0.087755  0.377382  1
  Y  Y1  1  0.290804  0.912001  0.876719  1
  Y  Y2  1  0.707520  0.086549  0.873593  1
  Y  Y3  1  0.708266  0.909409  0.378480  1
  Y  Y4  1  0.587651  0.790323  0.877805  1
  Y  Y5  1  0.584584  0.209987  0.378107  1
  Y  Y6  1  0.411956  0.790326  0.377503  1
  Y  Y7  1  0.411945  0.209664  0.877648  1
  Y  Y8  1  0.209677  0.412349  0.622195  1
  Y  Y9  1  0.209674  0.588044  0.122497  1
  Y  Y10  1  0.790013  0.415416  0.121893  1
  Y  Y11  1  0.790336  0.588055  0.622352  1
  Y  Y12  1  0.912245  0.709843  0.122618  1
  Y  Y13  1  0.913451  0.292480  0.626407  1
  Y  Y14  1  0.087999  0.709196  0.623281  1
  Y  Y15  1  0.090591  0.291734  0.121520  1
  Tm  Tm16  1  0.001435  0.998287  0.501164  1
  Tm  Tm17  1  0.001713  0.998565  0.998836  1
  Tm  Tm18  1  0.499885  0.499973  0.999718  1
  Tm  Tm19  1  0.500027  0.500115  0.500282  1
  Ir  Ir20  1  0.848752  0.849875  0.750130  1
  Ir  Ir21  1  0.150125  0.151248  0.749870  1
  Ir  Ir22  1  0.151242  0.848758  0.250000  1
  Ir  Ir23  1  0.652381  0.347619  0.750000  1
  Ir  Ir24  1  0.651415  0.651252  0.249923  1
  Ir  Ir25  1  0.348748  0.348585  0.250077  1
  Ir  Ir26  1  0.348532  0.651468  0.750000  1
  Ir  Ir27  1  0.500540  0.000205  0.124597  1
  Ir  Ir28  1  0.500411  0.000292  0.623332  1
  Ir  Ir29  1  0.999708  0.499589  0.876668  1
  Ir  Ir30  1  0.999795  0.499460  0.375403  1
  Pt  Pt31  1  0.848421  0.151579  0.250000  1
