# generated using pymatgen
data_Er4Tm4Tc(B8Ru)3
_symmetry_space_group_name_H-M   'P 1'
_cell_length_a   3.63339300
_cell_length_b   9.08549489
_cell_length_c   11.46855000
_cell_angle_alpha   89.91291041
_cell_angle_beta   90.00000000
_cell_angle_gamma   90.00000000
_symmetry_Int_Tables_number   1
_chemical_formula_structural   Er4Tm4Tc(B8Ru)3
_chemical_formula_sum   'Er4 Tm4 Tc1 B24 Ru3'
_cell_volume   378.58985718
_cell_formula_units_Z   1
loop_
 _symmetry_equiv_pos_site_id
 _symmetry_equiv_pos_as_xyz
  1  'x, y, z'
loop_
 _atom_site_type_symbol
 _atom_site_label
 _atom_site_symmetry_multiplicity
 _atom_site_fract_x
 _atom_site_fract_y
 _atom_site_fract_z
 _atom_site_occupancy
  Er  Er0  1  0.000000  0.323912  0.413260  1
  Er  Er1  1  0.000000  0.677334  0.583352  1
  Er  Er2  1  0.000000  0.819982  0.088077  1
  Er  Er3  1  0.000000  0.177605  0.915056  1
  Tm  Tm4  1  0.000000  0.943382  0.372392  1
  Tm  Tm5  1  0.000000  0.057026  0.628151  1
  Tm  Tm6  1  0.000000  0.444307  0.128070  1
  Tm  Tm7  1  0.000000  0.556637  0.871560  1
  Tc  Tc8  1  0.000000  0.637869  0.320918  1
  B  B9  1  0.500000  0.552920  0.433423  1
  B  B10  1  0.500000  0.446334  0.567167  1
  B  B11  1  0.500000  0.053697  0.066834  1
  B  B12  1  0.500000  0.946144  0.933405  1
  B  B13  1  0.500000  0.748930  0.419695  1
  B  B14  1  0.500000  0.251437  0.580304  1
  B  B15  1  0.500000  0.248733  0.080094  1
  B  B16  1  0.500000  0.751161  0.919799  1
  B  B17  1  0.500000  0.792146  0.265795  1
  B  B18  1  0.500000  0.208456  0.734245  1
  B  B19  1  0.500000  0.291466  0.233511  1
  B  B20  1  0.500000  0.708829  0.765717  1
  B  B21  1  0.500000  0.631268  0.185104  1
  B  B22  1  0.500000  0.368397  0.815275  1
  B  B23  1  0.500000  0.131419  0.314744  1
  B  B24  1  0.500000  0.869006  0.684851  1
  B  B25  1  0.500000  0.982675  0.212747  1
  B  B26  1  0.500000  0.017344  0.787632  1
  B  B27  1  0.500000  0.481791  0.287204  1
  B  B28  1  0.500000  0.517150  0.712762  1
  B  B29  1  0.500000  0.606121  0.028738  1
  B  B30  1  0.500000  0.393403  0.970296  1
  B  B31  1  0.500000  0.106780  0.470834  1
  B  B32  1  0.500000  0.894673  0.529738  1
  Ru  Ru33  1  0.000000  0.361678  0.679714  1
  Ru  Ru34  1  0.000000  0.137828  0.178628  1
  Ru  Ru35  1  0.000000  0.862160  0.820908  1
