# generated using pymatgen
data_GdPa5H8Br15
_symmetry_space_group_name_H-M   'P 1'
_cell_length_a   9.96726422
_cell_length_b   9.96684025
_cell_length_c   9.96844100
_cell_angle_alpha   109.24718081
_cell_angle_beta   109.28709872
_cell_angle_gamma   109.87304309
_symmetry_Int_Tables_number   1
_chemical_formula_structural   GdPa5H8Br15
_chemical_formula_sum   'Gd1 Pa5 H8 Br15'
_cell_volume   762.36085963
_cell_formula_units_Z   1
loop_
 _symmetry_equiv_pos_site_id
 _symmetry_equiv_pos_as_xyz
  1  'x, y, z'
loop_
 _atom_site_type_symbol
 _atom_site_label
 _atom_site_symmetry_multiplicity
 _atom_site_fract_x
 _atom_site_fract_y
 _atom_site_fract_z
 _atom_site_occupancy
  Gd  Gd0  1  0.236576  0.236496  0.999730  1
  Pa  Pa1  1  0.761645  0.761800  0.999601  1
  Pa  Pa2  1  0.236448  0.002435  0.233680  1
  Pa  Pa3  1  0.002331  0.236314  0.233661  1
  Pa  Pa4  1  0.768693  0.002555  0.766380  1
  Pa  Pa5  1  0.002571  0.768754  0.766125  1
  H  H6  1  0.177779  0.997581  0.999938  1
  H  H7  1  0.820784  0.999119  0.999665  1
  H  H8  1  0.997101  0.177333  0.999460  1
  H  H9  1  0.998932  0.820733  0.000160  1
  H  H10  1  0.999085  0.999260  0.178353  1
  H  H11  1  0.177619  0.177818  0.180173  1
  H  H12  1  0.997331  0.997621  0.819891  1
  H  H13  1  0.820646  0.820942  0.821658  1
  Br  Br14  1  0.746164  0.253298  0.999813  1
  Br  Br15  1  0.503588  0.503461  0.000067  1
  Br  Br16  1  0.253625  0.745950  0.999981  1
  Br  Br17  1  0.745943  0.999163  0.253560  1
  Br  Br18  1  0.999195  0.745769  0.253565  1
  Br  Br19  1  0.508207  0.254032  0.254353  1
  Br  Br20  1  0.253945  0.508206  0.254445  1
  Br  Br21  1  0.746156  0.746348  0.492845  1
  Br  Br22  1  0.500234  0.999921  0.500310  1
  Br  Br23  1  0.999988  0.499814  0.499968  1
  Br  Br24  1  0.253540  0.253629  0.507507  1
  Br  Br25  1  0.253970  0.999840  0.746021  1
  Br  Br26  1  0.999479  0.253627  0.745865  1
  Br  Br27  1  0.745800  0.492289  0.746627  1
  Br  Br28  1  0.492633  0.745899  0.746599  1
