# generated using pymatgen
data_Hf3TiNbGe3
_symmetry_space_group_name_H-M   'P 1'
_cell_length_a   7.88343600
_cell_length_b   7.88343650
_cell_length_c   5.37975700
_cell_angle_alpha   90.00000000
_cell_angle_beta   90.00000000
_cell_angle_gamma   119.99998951
_symmetry_Int_Tables_number   1
_chemical_formula_structural   Hf3TiNbGe3
_chemical_formula_sum   'Hf6 Ti2 Nb2 Ge6'
_cell_volume   289.55059184
_cell_formula_units_Z   2
loop_
 _symmetry_equiv_pos_site_id
 _symmetry_equiv_pos_as_xyz
  1  'x, y, z'
loop_
 _atom_site_type_symbol
 _atom_site_label
 _atom_site_symmetry_multiplicity
 _atom_site_fract_x
 _atom_site_fract_y
 _atom_site_fract_z
 _atom_site_occupancy
  Hf  Hf0  1  0.748358  0.748358  0.753975  1
  Hf  Hf1  1  0.251642  0.000000  0.753975  1
  Hf  Hf2  1  0.000000  0.251642  0.753975  1
  Hf  Hf3  1  0.251642  0.251642  0.246025  1
  Hf  Hf4  1  0.748358  0.000000  0.246025  1
  Hf  Hf5  1  0.000000  0.748358  0.246025  1
  Ti  Ti6  1  0.333333  0.666667  0.500000  1
  Ti  Ti7  1  0.666667  0.333333  0.500000  1
  Nb  Nb8  1  0.666667  0.333333  0.000000  1
  Nb  Nb9  1  0.333333  0.666667  0.000000  1
  Ge  Ge10  1  0.394299  0.394299  0.744821  1
  Ge  Ge11  1  0.605701  0.000000  0.744821  1
  Ge  Ge12  1  0.000000  0.605701  0.744821  1
  Ge  Ge13  1  0.605701  0.605701  0.255179  1
  Ge  Ge14  1  0.394299  0.000000  0.255179  1
  Ge  Ge15  1  0.000000  0.394299  0.255179  1
