# generated using pymatgen
data_Dy2YLu3MnBi2
_symmetry_space_group_name_H-M   'P 1'
_cell_length_a   8.20300000
_cell_length_b   8.18487265
_cell_length_c   4.27207900
_cell_angle_alpha   90.00000000
_cell_angle_beta   90.00000000
_cell_angle_gamma   120.07329001
_symmetry_Int_Tables_number   1
_chemical_formula_structural   Dy2YLu3MnBi2
_chemical_formula_sum   'Dy2 Y1 Lu3 Mn1 Bi2'
_cell_volume   248.21803691
_cell_formula_units_Z   1
loop_
 _symmetry_equiv_pos_site_id
 _symmetry_equiv_pos_as_xyz
  1  'x, y, z'
loop_
 _atom_site_type_symbol
 _atom_site_label
 _atom_site_symmetry_multiplicity
 _atom_site_fract_x
 _atom_site_fract_y
 _atom_site_fract_z
 _atom_site_occupancy
  Dy  Dy0  1  0.000105  0.611520  0.000000  1
  Dy  Dy1  1  0.388584  0.388480  0.000000  1
  Y  Y2  1  0.611009  0.000000  0.000000  1
  Lu  Lu3  1  0.229224  0.000000  0.500000  1
  Lu  Lu4  1  0.000316  0.229789  0.500000  1
  Lu  Lu5  1  0.770526  0.770211  0.500000  1
  Mn  Mn6  1  0.000339  0.000000  0.000000  1
  Bi  Bi7  1  0.333415  0.666933  0.500000  1
  Bi  Bi8  1  0.666483  0.333067  0.500000  1
