# generated using pymatgen
data_SmHo3(Al8Pd3)3
_symmetry_space_group_name_H-M   'P 1'
_cell_length_a   7.54536632
_cell_length_b   7.57626559
_cell_length_c   13.19594600
_cell_angle_alpha   84.58694628
_cell_angle_beta   79.13212422
_cell_angle_gamma   60.02321924
_symmetry_Int_Tables_number   1
_chemical_formula_structural   SmHo3(Al8Pd3)3
_chemical_formula_sum   'Sm1 Ho3 Al24 Pd9'
_cell_volume   641.72401033
_cell_formula_units_Z   1
loop_
 _symmetry_equiv_pos_site_id
 _symmetry_equiv_pos_as_xyz
  1  'x, y, z'
loop_
 _atom_site_type_symbol
 _atom_site_label
 _atom_site_symmetry_multiplicity
 _atom_site_fract_x
 _atom_site_fract_y
 _atom_site_fract_z
 _atom_site_occupancy
  Sm  Sm0  1  0.393308  0.168802  0.808920  1
  Ho  Ho1  1  0.606721  0.831039  0.191700  1
  Ho  Ho2  1  0.733483  0.498225  0.808521  1
  Ho  Ho3  1  0.266330  0.502026  0.191673  1
  Al  Al4  1  0.685396  0.832398  0.945570  1
  Al  Al5  1  0.315312  0.166266  0.056268  1
  Al  Al6  1  0.146092  0.833091  0.561292  1
  Al  Al7  1  0.854168  0.166847  0.438217  1
  Al  Al8  1  0.479071  0.166763  0.558708  1
  Al  Al9  1  0.521063  0.833119  0.440516  1
  Al  Al10  1  0.216945  0.165203  0.329777  1
  Al  Al11  1  0.784144  0.833918  0.669361  1
  Al  Al12  1  0.437165  0.507694  0.669475  1
  Al  Al13  1  0.563221  0.493177  0.329628  1
  Al  Al14  1  0.108500  0.159595  0.668365  1
  Al  Al15  1  0.890882  0.840452  0.330649  1
  Al  Al16  1  0.352464  0.500845  0.945713  1
  Al  Al17  1  0.647232  0.500456  0.055253  1
  Al  Al18  1  0.014023  0.167565  0.955050  1
  Al  Al19  1  0.984475  0.832551  0.046115  1
  Al  Al20  1  0.187086  0.499389  0.440518  1
  Al  Al21  1  0.812971  0.500670  0.559050  1
  Al  Al22  1  0.733466  0.164038  0.183936  1
  Al  Al23  1  0.266589  0.834253  0.816142  1
  Al  Al24  1  0.060022  0.632202  0.815084  1
  Al  Al25  1  0.938222  0.369301  0.185014  1
  Al  Al26  1  0.856824  0.041713  0.816064  1
  Al  Al27  1  0.144530  0.958242  0.184099  1
  Pd  Pd28  1  0.119034  0.493153  0.637903  1
  Pd  Pd29  1  0.880608  0.507657  0.361448  1
  Pd  Pd30  1  0.657142  0.171332  0.000183  1
  Pd  Pd31  1  0.342885  0.828456  0.000520  1
  Pd  Pd32  1  0.538012  0.166783  0.361514  1
  Pd  Pd33  1  0.462001  0.832620  0.637934  1
  Pd  Pd34  1  0.778533  0.174993  0.637321  1
  Pd  Pd35  1  0.222329  0.824861  0.362110  1
  Pd  Pd36  1  0.999751  0.500305  0.000386  1
