# generated using pymatgen
data_Ce2Co7Si4
_symmetry_space_group_name_H-M   'P 1'
_cell_length_a   3.78577700
_cell_length_b   9.11125800
_cell_length_c   10.49816400
_cell_angle_alpha   90.00000000
_cell_angle_beta   90.00000000
_cell_angle_gamma   90.00000000
_symmetry_Int_Tables_number   1
_chemical_formula_structural   Ce2Co7Si4
_chemical_formula_sum   'Ce4 Co14 Si8'
_cell_volume   362.11517576
_cell_formula_units_Z   2
loop_
 _symmetry_equiv_pos_site_id
 _symmetry_equiv_pos_as_xyz
  1  'x, y, z'
loop_
 _atom_site_type_symbol
 _atom_site_label
 _atom_site_symmetry_multiplicity
 _atom_site_fract_x
 _atom_site_fract_y
 _atom_site_fract_z
 _atom_site_occupancy
  Ce  Ce0  1  0.000000  0.046819  0.015576  1
  Ce  Ce1  1  0.500000  0.953181  0.515576  1
  Ce  Ce2  1  0.000000  0.436864  0.781849  1
  Ce  Ce3  1  0.500000  0.563136  0.281849  1
  Co  Co4  1  0.000000  0.072169  0.321463  1
  Co  Co5  1  0.500000  0.927831  0.821463  1
  Co  Co6  1  0.000000  0.186554  0.554918  1
  Co  Co7  1  0.500000  0.813446  0.054918  1
  Co  Co8  1  0.000000  0.393401  0.072344  1
  Co  Co9  1  0.500000  0.606599  0.572344  1
  Co  Co10  1  0.000000  0.436469  0.470299  1
  Co  Co11  1  0.500000  0.563531  0.970299  1
  Co  Co12  1  0.000000  0.760005  0.896981  1
  Co  Co13  1  0.500000  0.239995  0.396981  1
  Co  Co14  1  0.000000  0.784419  0.669594  1
  Co  Co15  1  0.500000  0.215581  0.169594  1
  Co  Co16  1  0.000000  0.807038  0.255410  1
  Co  Co17  1  0.500000  0.192962  0.755410  1
  Si  Si18  1  0.000000  0.039765  0.732196  1
  Si  Si19  1  0.500000  0.960235  0.232196  1
  Si  Si20  1  0.000000  0.310149  0.277308  1
  Si  Si21  1  0.500000  0.689851  0.777308  1
  Si  Si22  1  0.000000  0.648099  0.081457  1
  Si  Si23  1  0.500000  0.351901  0.581457  1
  Si  Si24  1  0.000000  0.692118  0.465913  1
  Si  Si25  1  0.500000  0.307882  0.965913  1
