# generated using pymatgen
data_Sm4Ho2NiBr10
_symmetry_space_group_name_H-M   'P 1'
_cell_length_a   7.37599227
_cell_length_b   9.33533530
_cell_length_c   9.34761090
_cell_angle_alpha   108.08617552
_cell_angle_beta   95.79230295
_cell_angle_gamma   104.99453087
_symmetry_Int_Tables_number   1
_chemical_formula_structural   Sm4Ho2NiBr10
_chemical_formula_sum   'Sm4 Ho2 Ni1 Br10'
_cell_volume   579.38862426
_cell_formula_units_Z   1
loop_
 _symmetry_equiv_pos_site_id
 _symmetry_equiv_pos_as_xyz
  1  'x, y, z'
loop_
 _atom_site_type_symbol
 _atom_site_label
 _atom_site_symmetry_multiplicity
 _atom_site_fract_x
 _atom_site_fract_y
 _atom_site_fract_z
 _atom_site_occupancy
  Sm  Sm0  1  0.466578  0.795057  0.594380  1
  Sm  Sm1  1  0.533422  0.204943  0.405620  1
  Sm  Sm2  1  0.372463  0.453122  0.744801  1
  Sm  Sm3  1  0.627537  0.546878  0.255199  1
  Ho  Ho4  1  0.846812  0.626309  0.669857  1
  Ho  Ho5  1  0.153188  0.373691  0.330143  1
  Ni  Ni6  1  0.500000  0.500000  0.500000  1
  Br  Br7  1  0.411416  0.130757  0.674588  1
  Br  Br8  1  0.588584  0.869243  0.325412  1
  Br  Br9  1  0.047597  0.674631  0.416769  1
  Br  Br10  1  0.952403  0.325369  0.583231  1
  Br  Br11  1  0.261525  0.747865  0.841713  1
  Br  Br12  1  0.738475  0.252135  0.158287  1
  Br  Br13  1  0.248417  0.417841  0.051771  1
  Br  Br14  1  0.751583  0.582159  0.948229  1
  Br  Br15  1  0.851995  0.942588  0.769549  1
  Br  Br16  1  0.148005  0.057412  0.230451  1
