# generated using pymatgen
data_Dy12Co3Pd
_symmetry_space_group_name_H-M   'P 1'
_cell_length_a   6.22548474
_cell_length_b   6.98721415
_cell_length_c   9.46973200
_cell_angle_alpha   90.00000000
_cell_angle_beta   90.00000000
_cell_angle_gamma   89.66657964
_symmetry_Int_Tables_number   1
_chemical_formula_structural   Dy12Co3Pd
_chemical_formula_sum   'Dy12 Co3 Pd1'
_cell_volume   411.91495666
_cell_formula_units_Z   1
loop_
 _symmetry_equiv_pos_site_id
 _symmetry_equiv_pos_as_xyz
  1  'x, y, z'
loop_
 _atom_site_type_symbol
 _atom_site_label
 _atom_site_symmetry_multiplicity
 _atom_site_fract_x
 _atom_site_fract_y
 _atom_site_fract_z
 _atom_site_occupancy
  Dy  Dy0  1  0.122388  0.456381  0.750000  1
  Dy  Dy1  1  0.676045  0.311144  0.939324  1
  Dy  Dy2  1  0.351038  0.975008  0.750000  1
  Dy  Dy3  1  0.861337  0.541924  0.250000  1
  Dy  Dy4  1  0.642213  0.039383  0.250000  1
  Dy  Dy5  1  0.178668  0.177683  0.430529  1
  Dy  Dy6  1  0.833827  0.830016  0.563357  1
  Dy  Dy7  1  0.178668  0.177683  0.069471  1
  Dy  Dy8  1  0.833827  0.830016  0.936643  1
  Dy  Dy9  1  0.676045  0.311144  0.560676  1
  Dy  Dy10  1  0.324561  0.677182  0.069638  1
  Dy  Dy11  1  0.324561  0.677182  0.430362  1
  Co  Co12  1  0.941082  0.114279  0.750000  1
  Co  Co13  1  0.049337  0.885526  0.250000  1
  Co  Co14  1  0.451782  0.386207  0.250000  1
  Pd  Pd15  1  0.554623  0.609243  0.750000  1
