# generated using pymatgen
data_Rb2Hg3Br8
_symmetry_space_group_name_H-M   'P 1'
_cell_length_a   11.11999967
_cell_length_b   11.12000028
_cell_length_c   7.73968288
_cell_angle_alpha   85.37296831
_cell_angle_beta   85.37296606
_cell_angle_gamma   143.72801010
_symmetry_Int_Tables_number   1
_chemical_formula_structural   Rb2Hg3Br8
_chemical_formula_sum   'Rb2 Hg3 Br8'
_cell_volume   546.86203778
_cell_formula_units_Z   1
loop_
 _symmetry_equiv_pos_site_id
 _symmetry_equiv_pos_as_xyz
  1  'x, y, z'
loop_
 _atom_site_type_symbol
 _atom_site_label
 _atom_site_symmetry_multiplicity
 _atom_site_fract_x
 _atom_site_fract_y
 _atom_site_fract_z
 _atom_site_occupancy
  Rb  Rb0  1  0.658472  0.941581  0.505106  1
  Rb  Rb1  1  0.941581  0.658472  0.505106  1
  Hg  Hg2  1  0.926600  0.926600  0.027682  1
  Hg  Hg3  1  0.959892  0.339246  0.910295  1
  Hg  Hg4  1  0.339246  0.959892  0.910295  1
  Br  Br5  1  0.657607  0.657607  0.321093  1
  Br  Br6  1  0.006381  0.006381  0.690570  1
  Br  Br7  1  0.538628  0.922642  0.018247  1
  Br  Br8  1  0.922642  0.538628  0.018247  1
  Br  Br9  1  0.091214  0.471058  0.562592  1
  Br  Br10  1  0.471058  0.091214  0.562592  1
  Br  Br11  1  0.296605  0.104460  0.116263  1
  Br  Br12  1  0.104460  0.296605  0.116263  1
