# generated using pymatgen
data_Tm5Ge9P3Ir19
_symmetry_space_group_name_H-M   'P 1'
_cell_length_a   13.05012300
_cell_length_b   13.05012271
_cell_length_c   3.97094100
_cell_angle_alpha   90.00000000
_cell_angle_beta   90.00000000
_cell_angle_gamma   119.99999819
_symmetry_Int_Tables_number   1
_chemical_formula_structural   Tm5Ge9P3Ir19
_chemical_formula_sum   'Tm5 Ge9 P3 Ir19'
_cell_volume   585.67039914
_cell_formula_units_Z   1
loop_
 _symmetry_equiv_pos_site_id
 _symmetry_equiv_pos_as_xyz
  1  'x, y, z'
loop_
 _atom_site_type_symbol
 _atom_site_label
 _atom_site_symmetry_multiplicity
 _atom_site_fract_x
 _atom_site_fract_y
 _atom_site_fract_z
 _atom_site_occupancy
  Tm  Tm0  1  0.333333  0.666667  0.500000  1
  Tm  Tm1  1  0.666667  0.333333  0.500000  1
  Tm  Tm2  1  0.000000  0.817876  0.000000  1
  Tm  Tm3  1  0.182124  0.182124  0.000000  1
  Tm  Tm4  1  0.817876  0.000000  0.000000  1
  Ge  Ge5  1  0.000000  0.637704  0.500000  1
  Ge  Ge6  1  0.362296  0.362296  0.500000  1
  Ge  Ge7  1  0.637704  0.000000  0.500000  1
  Ge  Ge8  1  0.518192  0.683126  0.000000  1
  Ge  Ge9  1  0.316874  0.835066  0.000000  1
  Ge  Ge10  1  0.164934  0.481808  0.000000  1
  Ge  Ge11  1  0.481808  0.164934  0.000000  1
  Ge  Ge12  1  0.683126  0.518192  0.000000  1
  Ge  Ge13  1  0.835066  0.316874  0.000000  1
  P  P14  1  0.000000  0.175932  0.500000  1
  P  P15  1  0.824068  0.824068  0.500000  1
  P  P16  1  0.175932  0.000000  0.500000  1
  Ir  Ir17  1  0.515909  0.871582  0.000000  1
  Ir  Ir18  1  0.128418  0.644327  0.000000  1
  Ir  Ir19  1  0.355673  0.484091  0.000000  1
  Ir  Ir20  1  0.484091  0.355673  0.000000  1
  Ir  Ir21  1  0.871582  0.515909  0.000000  1
  Ir  Ir22  1  0.644327  0.128418  0.000000  1
  Ir  Ir23  1  0.000000  0.446441  0.500000  1
  Ir  Ir24  1  0.553559  0.553559  0.500000  1
  Ir  Ir25  1  0.446441  0.000000  0.500000  1
  Ir  Ir26  1  0.000000  0.270265  0.000000  1
  Ir  Ir27  1  0.729735  0.729735  0.000000  1
  Ir  Ir28  1  0.270265  0.000000  0.000000  1
  Ir  Ir29  1  0.634088  0.808895  0.500000  1
  Ir  Ir30  1  0.191105  0.825193  0.500000  1
  Ir  Ir31  1  0.174807  0.365912  0.500000  1
  Ir  Ir32  1  0.365912  0.174807  0.500000  1
  Ir  Ir33  1  0.808895  0.634088  0.500000  1
  Ir  Ir34  1  0.825193  0.191105  0.500000  1
  Ir  Ir35  1  0.000000  0.000000  0.500000  1
