# generated using pymatgen
data_Tm9Lu(InBi2)2
_symmetry_space_group_name_H-M   'P 1'
_cell_length_a   6.44301426
_cell_length_b   9.00467882
_cell_length_c   8.97540856
_cell_angle_alpha   120.10718850
_cell_angle_beta   90.03005913
_cell_angle_gamma   89.99538370
_symmetry_Int_Tables_number   1
_chemical_formula_structural   Tm9Lu(InBi2)2
_chemical_formula_sum   'Tm9 Lu1 In2 Bi4'
_cell_volume   450.47636661
_cell_formula_units_Z   1
loop_
 _symmetry_equiv_pos_site_id
 _symmetry_equiv_pos_as_xyz
  1  'x, y, z'
loop_
 _atom_site_type_symbol
 _atom_site_label
 _atom_site_symmetry_multiplicity
 _atom_site_fract_x
 _atom_site_fract_y
 _atom_site_fract_z
 _atom_site_occupancy
  Tm  Tm0  1  0.496747  0.671575  0.340140  1
  Tm  Tm1  1  0.003293  0.671585  0.340241  1
  Tm  Tm2  1  0.003443  0.331435  0.659830  1
  Tm  Tm3  1  0.749984  0.235440  0.000074  1
  Tm  Tm4  1  0.749923  0.765743  0.763663  1
  Tm  Tm5  1  0.749851  0.002064  0.236339  1
  Tm  Tm6  1  0.250024  0.767880  0.999974  1
  Tm  Tm7  1  0.250073  0.233087  0.242411  1
  Tm  Tm8  1  0.250027  0.990762  0.757652  1
  Lu  Lu9  1  0.496268  0.331314  0.659597  1
  In  In10  1  0.250434  0.604119  0.606477  1
  In  In11  1  0.250424  0.998388  0.393911  1
  Bi  Bi12  1  0.749857  0.606110  0.999702  1
  Bi  Bi13  1  0.749780  0.396615  0.393457  1
  Bi  Bi14  1  0.749664  0.003813  0.606810  1
  Bi  Bi15  1  0.250207  0.390072  0.999724  1
