# generated using pymatgen
data_Sm2ReSi2WC
_symmetry_space_group_name_H-M   'P 1'
_cell_length_a   3.93634188
_cell_length_b   5.88870415
_cell_length_c   6.25428479
_cell_angle_alpha   72.51952184
_cell_angle_beta   71.65779581
_cell_angle_gamma   70.47438526
_symmetry_Int_Tables_number   1
_chemical_formula_structural   Sm2ReSi2WC
_chemical_formula_sum   'Sm2 Re1 Si2 W1 C1'
_cell_volume   126.56982943
_cell_formula_units_Z   1
loop_
 _symmetry_equiv_pos_site_id
 _symmetry_equiv_pos_as_xyz
  1  'x, y, z'
loop_
 _atom_site_type_symbol
 _atom_site_label
 _atom_site_symmetry_multiplicity
 _atom_site_fract_x
 _atom_site_fract_y
 _atom_site_fract_z
 _atom_site_occupancy
  Sm  Sm0  1  0.426374  0.845308  0.301944  1
  Sm  Sm1  1  0.575466  0.149842  0.699227  1
  Re  Re2  1  0.207577  0.668690  0.916155  1
  Si  Si3  1  0.858678  0.605321  0.677324  1
  Si  Si4  1  0.133783  0.405726  0.326707  1
  W  W5  1  0.795598  0.328254  0.080551  1
  C  C6  1  0.002524  0.996860  0.998092  1
