# generated using pymatgen
data_Cs6Fe2O7
_symmetry_space_group_name_H-M   'P 1'
_cell_length_a   9.85926600
_cell_length_b   7.41389746
_cell_length_c   12.41747515
_cell_angle_alpha   54.61036691
_cell_angle_beta   90.00000000
_cell_angle_gamma   90.00000000
_symmetry_Int_Tables_number   1
_chemical_formula_structural   Cs6Fe2O7
_chemical_formula_sum   'Cs12 Fe4 O14'
_cell_volume   739.95616693
_cell_formula_units_Z   2
loop_
 _symmetry_equiv_pos_site_id
 _symmetry_equiv_pos_as_xyz
  1  'x, y, z'
loop_
 _atom_site_type_symbol
 _atom_site_label
 _atom_site_symmetry_multiplicity
 _atom_site_fract_x
 _atom_site_fract_y
 _atom_site_fract_z
 _atom_site_occupancy
  Cs  Cs0  1  0.290477  0.908025  0.716443  1
  Cs  Cs1  1  0.856464  0.445539  0.922531  1
  Cs  Cs2  1  0.974552  0.698427  0.557040  1
  Cs  Cs3  1  0.474552  0.301573  0.942960  1
  Cs  Cs4  1  0.209523  0.908025  0.216443  1
  Cs  Cs5  1  0.356464  0.554461  0.577469  1
  Cs  Cs6  1  0.643536  0.445539  0.422531  1
  Cs  Cs7  1  0.790477  0.091975  0.783557  1
  Cs  Cs8  1  0.525448  0.698427  0.057040  1
  Cs  Cs9  1  0.025448  0.301573  0.442960  1
  Cs  Cs10  1  0.143536  0.554461  0.077469  1
  Cs  Cs11  1  0.709523  0.091975  0.283557  1
  Fe  Fe12  1  0.636605  0.823147  0.633521  1
  Fe  Fe13  1  0.136605  0.176853  0.866479  1
  Fe  Fe14  1  0.863395  0.823147  0.133521  1
  Fe  Fe15  1  0.363395  0.176853  0.366479  1
  O  O16  1  0.283906  0.995948  0.925159  1
  O  O17  1  0.600043  0.754601  0.795789  1
  O  O18  1  0.500000  0.000000  0.500000  1
  O  O19  1  0.216094  0.995948  0.425159  1
  O  O20  1  0.146025  0.441426  0.844655  1
  O  O21  1  0.646025  0.558574  0.655345  1
  O  O22  1  0.899957  0.754601  0.295789  1
  O  O23  1  0.000000  0.000000  0.000000  1
  O  O24  1  0.100043  0.245399  0.704211  1
  O  O25  1  0.353975  0.441426  0.344655  1
  O  O26  1  0.853975  0.558574  0.155345  1
  O  O27  1  0.783906  0.004052  0.574841  1
  O  O28  1  0.399957  0.245399  0.204211  1
  O  O29  1  0.716094  0.004052  0.074841  1
