# generated using pymatgen
data_TbHo9CuSiPb6
_symmetry_space_group_name_H-M   'P 1'
_cell_length_a   9.18227200
_cell_length_b   9.18227216
_cell_length_c   6.71731000
_cell_angle_alpha   90.00000000
_cell_angle_beta   90.00000000
_cell_angle_gamma   119.99999943
_symmetry_Int_Tables_number   1
_chemical_formula_structural   TbHo9CuSiPb6
_chemical_formula_sum   'Tb1 Ho9 Cu1 Si1 Pb6'
_cell_volume   490.48568828
_cell_formula_units_Z   1
loop_
 _symmetry_equiv_pos_site_id
 _symmetry_equiv_pos_as_xyz
  1  'x, y, z'
loop_
 _atom_site_type_symbol
 _atom_site_label
 _atom_site_symmetry_multiplicity
 _atom_site_fract_x
 _atom_site_fract_y
 _atom_site_fract_z
 _atom_site_occupancy
  Tb  Tb0  1  0.333333  0.666667  0.500000  1
  Ho  Ho1  1  0.248543  0.999992  0.239143  1
  Ho  Ho2  1  0.751449  0.999992  0.760857  1
  Ho  Ho3  1  0.000008  0.248551  0.239143  1
  Ho  Ho4  1  0.000008  0.751457  0.760857  1
  Ho  Ho5  1  0.751449  0.751457  0.239143  1
  Ho  Ho6  1  0.248543  0.248551  0.760857  1
  Ho  Ho7  1  0.333333  0.666667  0.000000  1
  Ho  Ho8  1  0.666667  0.333333  0.000000  1
  Ho  Ho9  1  0.666667  0.333333  0.500000  1
  Cu  Cu10  1  0.000000  0.000000  0.500000  1
  Si  Si11  1  0.000000  0.000000  0.000000  1
  Pb  Pb12  1  0.606668  0.000483  0.249119  1
  Pb  Pb13  1  0.393815  0.000483  0.750881  1
  Pb  Pb14  1  0.999517  0.606185  0.249119  1
  Pb  Pb15  1  0.999517  0.393332  0.750881  1
  Pb  Pb16  1  0.393815  0.393332  0.249119  1
  Pb  Pb17  1  0.606668  0.606185  0.750881  1
