# generated using pymatgen
data_Mg2Ag3IrO6
_symmetry_space_group_name_H-M   'P 1'
_cell_length_a   5.35934300
_cell_length_b   5.35934432
_cell_length_c   18.81822100
_cell_angle_alpha   90.00000000
_cell_angle_beta   90.00000000
_cell_angle_gamma   119.99998567
_symmetry_Int_Tables_number   1
_chemical_formula_structural   Mg2Ag3IrO6
_chemical_formula_sum   'Mg6 Ag9 Ir3 O18'
_cell_volume   468.09335063
_cell_formula_units_Z   3
loop_
 _symmetry_equiv_pos_site_id
 _symmetry_equiv_pos_as_xyz
  1  'x, y, z'
loop_
 _atom_site_type_symbol
 _atom_site_label
 _atom_site_symmetry_multiplicity
 _atom_site_fract_x
 _atom_site_fract_y
 _atom_site_fract_z
 _atom_site_occupancy
  Mg  Mg0  1  0.106788  0.893212  0.333333  1
  Mg  Mg1  1  0.106788  0.213575  0.666667  1
  Mg  Mg2  1  0.786425  0.893212  0.000000  1
  Mg  Mg3  1  0.773455  0.226545  0.333333  1
  Mg  Mg4  1  0.773455  0.546908  0.666667  1
  Mg  Mg5  1  0.453092  0.226545  0.000000  1
  Ag  Ag6  1  0.441832  0.220916  0.500000  1
  Ag  Ag7  1  0.779084  0.220916  0.833333  1
  Ag  Ag8  1  0.779084  0.558168  0.166667  1
  Ag  Ag9  1  0.115002  0.557501  0.500000  1
  Ag  Ag10  1  0.442499  0.557501  0.833333  1
  Ag  Ag11  1  0.442499  0.884998  0.166667  1
  Ag  Ag12  1  0.765908  0.882954  0.500000  1
  Ag  Ag13  1  0.117046  0.882954  0.833333  1
  Ag  Ag14  1  0.117046  0.234092  0.166667  1
  Ir  Ir15  1  0.440206  0.559794  0.333333  1
  Ir  Ir16  1  0.440206  0.880411  0.666667  1
  Ir  Ir17  1  0.119589  0.559794  0.000000  1
  O  O18  1  0.758215  0.559389  0.278292  1
  O  O19  1  0.440611  0.198827  0.611625  1
  O  O20  1  0.801173  0.241785  0.944959  1
  O  O21  1  0.758215  0.198827  0.721708  1
  O  O22  1  0.440611  0.241785  0.388375  1
  O  O23  1  0.801173  0.559389  0.055041  1
  O  O24  1  0.440250  0.878584  0.278392  1
  O  O25  1  0.121416  0.561666  0.611725  1
  O  O26  1  0.438334  0.559750  0.945059  1
  O  O27  1  0.440250  0.561666  0.721608  1
  O  O28  1  0.121416  0.559750  0.388275  1
  O  O29  1  0.438334  0.878584  0.054941  1
  O  O30  1  0.122309  0.241494  0.278516  1
  O  O31  1  0.758506  0.880814  0.611849  1
  O  O32  1  0.119186  0.877691  0.945182  1
  O  O33  1  0.122309  0.880814  0.721484  1
  O  O34  1  0.758506  0.877691  0.388151  1
  O  O35  1  0.119186  0.241494  0.054818  1
