# generated using pymatgen
data_Ac3Dy(PbAu2)2
_symmetry_space_group_name_H-M   'P 1'
_cell_length_a   8.37139500
_cell_length_b   8.37139485
_cell_length_c   4.13303000
_cell_angle_alpha   90.00000000
_cell_angle_beta   90.00000000
_cell_angle_gamma   89.03113207
_symmetry_Int_Tables_number   1
_chemical_formula_structural   Ac3Dy(PbAu2)2
_chemical_formula_sum   'Ac3 Dy1 Pb2 Au4'
_cell_volume   289.60237793
_cell_formula_units_Z   1
loop_
 _symmetry_equiv_pos_site_id
 _symmetry_equiv_pos_as_xyz
  1  'x, y, z'
loop_
 _atom_site_type_symbol
 _atom_site_label
 _atom_site_symmetry_multiplicity
 _atom_site_fract_x
 _atom_site_fract_y
 _atom_site_fract_z
 _atom_site_occupancy
  Ac  Ac0  1  0.321801  0.826603  0.000000  1
  Ac  Ac1  1  0.673397  0.178199  0.000000  1
  Ac  Ac2  1  0.828118  0.671882  0.000000  1
  Dy  Dy3  1  0.174307  0.325693  0.000000  1
  Pb  Pb4  1  0.004001  0.007131  0.500000  1
  Pb  Pb5  1  0.492869  0.495999  0.500000  1
  Au  Au6  1  0.365239  0.134761  0.500000  1
  Au  Au7  1  0.618912  0.881088  0.500000  1
  Au  Au8  1  0.891511  0.370154  0.500000  1
  Au  Au9  1  0.129846  0.608489  0.500000  1
