# generated using pymatgen
data_Hf8Al14Rh7N
_symmetry_space_group_name_H-M   'P 1'
_cell_length_a   8.84125551
_cell_length_b   8.84119969
_cell_length_c   8.84112600
_cell_angle_alpha   120.08460362
_cell_angle_beta   119.94197285
_cell_angle_gamma   89.97742475
_symmetry_Int_Tables_number   1
_chemical_formula_structural   Hf8Al14Rh7N
_chemical_formula_sum   'Hf8 Al14 Rh7 N1'
_cell_volume   488.57147979
_cell_formula_units_Z   1
loop_
 _symmetry_equiv_pos_site_id
 _symmetry_equiv_pos_as_xyz
  1  'x, y, z'
loop_
 _atom_site_type_symbol
 _atom_site_label
 _atom_site_symmetry_multiplicity
 _atom_site_fract_x
 _atom_site_fract_y
 _atom_site_fract_z
 _atom_site_occupancy
  Hf  Hf0  1  0.819769  0.317392  0.131857  1
  Hf  Hf1  1  0.185523  0.317409  0.497645  1
  Hf  Hf2  1  0.178742  0.678739  0.500015  1
  Hf  Hf3  1  0.185493  0.687914  0.868160  1
  Hf  Hf4  1  0.819784  0.687867  0.502385  1
  Hf  Hf5  1  0.815025  0.315024  0.499995  1
  Hf  Hf6  1  0.380551  0.118191  0.737657  1
  Hf  Hf7  1  0.380577  0.642917  0.262371  1
  Al  Al8  1  0.163731  0.329112  0.165337  1
  Al  Al9  1  0.163687  0.998330  0.834609  1
  Al  Al10  1  0.159335  0.332551  0.826899  1
  Al  Al11  1  0.505640  0.332545  0.173219  1
  Al  Al12  1  0.832630  0.666276  0.833645  1
  Al  Al13  1  0.832620  0.998979  0.166334  1
  Al  Al14  1  0.834406  0.666593  0.167731  1
  Al  Al15  1  0.498847  0.666589  0.832181  1
  Al  Al16  1  0.380715  0.117967  0.262728  1
  Al  Al17  1  0.855213  0.117952  0.737233  1
  Al  Al18  1  0.621839  0.881495  0.259689  1
  Al  Al19  1  0.621844  0.362205  0.740350  1
  Al  Al20  1  0.625288  0.882068  0.743164  1
  Al  Al21  1  0.138908  0.882108  0.256773  1
  Rh  Rh22  1  0.000439  0.001688  0.501626  1
  Rh  Rh23  1  0.500030  0.001704  0.001297  1
  Rh  Rh24  1  0.498845  0.498814  0.999947  1
  Rh  Rh25  1  0.500057  0.498751  0.498364  1
  Rh  Rh26  1  0.000517  0.498917  0.998816  1
  Rh  Rh27  1  0.000591  0.000603  0.000043  1
  Rh  Rh28  1  0.503972  0.003947  0.499949  1
  N  N29  1  0.995377  0.495352  0.499983  1
