# generated using pymatgen
data_Y2HoTm17Pt16
_symmetry_space_group_name_H-M   'P 1'
_cell_length_a   7.40567521
_cell_length_b   7.49103223
_cell_length_c   14.58853809
_cell_angle_alpha   90.00728142
_cell_angle_beta   89.99339611
_cell_angle_gamma   89.96995939
_symmetry_Int_Tables_number   1
_chemical_formula_structural   Y2HoTm17Pt16
_chemical_formula_sum   'Y2 Ho1 Tm17 Pt16'
_cell_volume   809.31582835
_cell_formula_units_Z   1
loop_
 _symmetry_equiv_pos_site_id
 _symmetry_equiv_pos_as_xyz
  1  'x, y, z'
loop_
 _atom_site_type_symbol
 _atom_site_label
 _atom_site_symmetry_multiplicity
 _atom_site_fract_x
 _atom_site_fract_y
 _atom_site_fract_z
 _atom_site_occupancy
  Y  Y0  1  0.498976  0.679049  0.407612  1
  Y  Y1  1  0.999098  0.821010  0.092453  1
  Ho  Ho2  1  0.501090  0.320952  0.907309  1
  Tm  Tm3  1  0.680962  0.989609  0.250078  1
  Tm  Tm4  1  0.180971  0.510479  0.250030  1
  Tm  Tm5  1  0.818992  0.489260  0.749667  1
  Tm  Tm6  1  0.318887  0.010561  0.749818  1
  Tm  Tm7  1  0.656782  0.833118  0.622382  1
  Tm  Tm8  1  0.156198  0.667254  0.877278  1
  Tm  Tm9  1  0.844475  0.332273  0.377745  1
  Tm  Tm10  1  0.343982  0.167374  0.122474  1
  Tm  Tm11  1  0.343903  0.167505  0.377942  1
  Tm  Tm12  1  0.843955  0.332318  0.122172  1
  Tm  Tm13  1  0.155936  0.667787  0.622083  1
  Tm  Tm14  1  0.656084  0.832289  0.877751  1
  Tm  Tm15  1  0.997906  0.820213  0.406994  1
  Tm  Tm16  1  0.497584  0.680349  0.093229  1
  Tm  Tm17  1  0.502462  0.319249  0.593188  1
  Tm  Tm18  1  0.002306  0.180659  0.906881  1
  Tm  Tm19  1  0.001967  0.179918  0.592803  1
  Pt  Pt20  1  0.816906  0.642685  0.250806  1
  Pt  Pt21  1  0.316922  0.857202  0.249410  1
  Pt  Pt22  1  0.683347  0.143142  0.749103  1
  Pt  Pt23  1  0.181871  0.356200  0.749596  1
  Pt  Pt24  1  0.546247  0.385764  0.249514  1
  Pt  Pt25  1  0.046170  0.114218  0.250577  1
  Pt  Pt26  1  0.954116  0.886661  0.749971  1
  Pt  Pt27  1  0.453617  0.613764  0.749494  1
  Pt  Pt28  1  0.816457  0.531478  0.542534  1
  Pt  Pt29  1  0.315931  0.966834  0.958005  1
  Pt  Pt30  1  0.684827  0.034102  0.458648  1
  Pt  Pt31  1  0.184535  0.466389  0.041782  1
  Pt  Pt32  1  0.181800  0.465981  0.458519  1
  Pt  Pt33  1  0.681956  0.033237  0.041841  1
  Pt  Pt34  1  0.315384  0.968744  0.542454  1
  Pt  Pt35  1  0.817400  0.532374  0.957857  1
