# generated using pymatgen
data_LiHo2Tm3(P2Ru3)6
_symmetry_space_group_name_H-M   'P 1'
_cell_length_a   12.59452936
_cell_length_b   12.39988972
_cell_length_c   3.96296900
_cell_angle_alpha   90.00000000
_cell_angle_beta   90.00000000
_cell_angle_gamma   119.49007169
_symmetry_Int_Tables_number   1
_chemical_formula_structural   LiHo2Tm3(P2Ru3)6
_chemical_formula_sum   'Li1 Ho2 Tm3 P12 Ru18'
_cell_volume   538.71589004
_cell_formula_units_Z   1
loop_
 _symmetry_equiv_pos_site_id
 _symmetry_equiv_pos_as_xyz
  1  'x, y, z'
loop_
 _atom_site_type_symbol
 _atom_site_label
 _atom_site_symmetry_multiplicity
 _atom_site_fract_x
 _atom_site_fract_y
 _atom_site_fract_z
 _atom_site_occupancy
  Li  Li0  1  0.000000  0.561252  0.000000  1
  Ho  Ho1  1  0.817114  0.816654  0.500000  1
  Ho  Ho2  1  0.182886  0.999539  0.500000  1
  Tm  Tm3  1  0.000000  0.181613  0.500000  1
  Tm  Tm4  1  0.659175  0.328730  0.000000  1
  Tm  Tm5  1  0.340825  0.669556  0.000000  1
  P  P6  1  0.000000  0.808705  0.000000  1
  P  P7  1  0.181487  0.183268  0.000000  1
  P  P8  1  0.818513  0.001780  0.000000  1
  P  P9  1  0.691856  0.173714  0.500000  1
  P  P10  1  0.819410  0.518031  0.500000  1
  P  P11  1  0.474027  0.306859  0.500000  1
  P  P12  1  0.180590  0.698622  0.500000  1
  P  P13  1  0.525973  0.832832  0.500000  1
  P  P14  1  0.308144  0.481858  0.500000  1
  P  P15  1  0.000000  0.366937  0.000000  1
  P  P16  1  0.626603  0.625487  0.000000  1
  P  P17  1  0.373397  0.998883  0.000000  1
  Ru  Ru18  1  0.444182  0.444734  0.000000  1
  Ru  Ru19  1  0.555818  0.000552  0.000000  1
  Ru  Ru20  1  0.000000  0.712188  0.500000  1
  Ru  Ru21  1  0.280113  0.283075  0.500000  1
  Ru  Ru22  1  0.719887  0.002962  0.500000  1
  Ru  Ru23  1  0.806451  0.186792  0.000000  1
  Ru  Ru24  1  0.812986  0.618309  0.000000  1
  Ru  Ru25  1  0.372701  0.188816  0.000000  1
  Ru  Ru26  1  0.187014  0.805324  0.000000  1
  Ru  Ru27  1  0.627299  0.816115  0.000000  1
  Ru  Ru28  1  0.193549  0.380341  0.000000  1
  Ru  Ru29  1  0.875825  0.367141  0.500000  1
  Ru  Ru30  1  0.630998  0.508388  0.500000  1
  Ru  Ru31  1  0.492881  0.129031  0.500000  1
  Ru  Ru32  1  0.369002  0.877390  0.500000  1
  Ru  Ru33  1  0.507119  0.636150  0.500000  1
  Ru  Ru34  1  0.124175  0.491316  0.500000  1
  Ru  Ru35  1  0.000000  0.997058  0.000000  1
