# generated using pymatgen
data_CaPa(NiB4)2
_symmetry_space_group_name_H-M   'P 1'
_cell_length_a   6.84745057
_cell_length_b   6.84745193
_cell_length_c   6.84745213
_cell_angle_alpha   112.75910935
_cell_angle_beta   112.75911608
_cell_angle_gamma   103.07844319
_symmetry_Int_Tables_number   1
_chemical_formula_structural   CaPa(NiB4)2
_chemical_formula_sum   'Ca2 Pa2 Ni4 B16'
_cell_volume   244.88026166
_cell_formula_units_Z   2
loop_
 _symmetry_equiv_pos_site_id
 _symmetry_equiv_pos_as_xyz
  1  'x, y, z'
loop_
 _atom_site_type_symbol
 _atom_site_label
 _atom_site_symmetry_multiplicity
 _atom_site_fract_x
 _atom_site_fract_y
 _atom_site_fract_z
 _atom_site_occupancy
  Ca  Ca0  1  0.797297  0.797297  0.000000  1
  Ca  Ca1  1  0.202703  0.202703  0.000000  1
  Pa  Pa2  1  0.750000  0.250000  0.500000  1
  Pa  Pa3  1  0.250000  0.750000  0.500000  1
  Ni  Ni4  1  0.272295  0.500000  0.772295  1
  Ni  Ni5  1  0.727705  0.500000  0.227705  1
  Ni  Ni6  1  0.500000  0.727705  0.227705  1
  Ni  Ni7  1  0.500000  0.272295  0.772295  1
  B  B8  1  0.279637  0.112408  0.392046  1
  B  B9  1  0.720363  0.887592  0.607954  1
  B  B10  1  0.279637  0.887592  0.167229  1
  B  B11  1  0.720363  0.112408  0.832771  1
  B  B12  1  0.112408  0.720363  0.832771  1
  B  B13  1  0.887592  0.279637  0.167229  1
  B  B14  1  0.112408  0.279637  0.392046  1
  B  B15  1  0.887592  0.720363  0.607954  1
  B  B16  1  0.111837  0.111837  0.528678  1
  B  B17  1  0.583160  0.583160  0.471322  1
  B  B18  1  0.111837  0.583160  0.000000  1
  B  B19  1  0.583160  0.111837  0.000000  1
  B  B20  1  0.888163  0.888163  0.471322  1
  B  B21  1  0.416840  0.416840  0.528678  1
  B  B22  1  0.888163  0.416840  0.000000  1
  B  B23  1  0.416840  0.888163  0.000000  1
