# generated using pymatgen
data_HoTl(PSe3)2
_symmetry_space_group_name_H-M   'P 1'
_cell_length_a   7.65674700
_cell_length_b   6.86453241
_cell_length_c   10.78686300
_cell_angle_alpha   87.09647217
_cell_angle_beta   90.00000000
_cell_angle_gamma   90.00000000
_symmetry_Int_Tables_number   1
_chemical_formula_structural   HoTl(PSe3)2
_chemical_formula_sum   'Ho2 Tl2 P4 Se12'
_cell_volume   566.22955211
_cell_formula_units_Z   2
loop_
 _symmetry_equiv_pos_site_id
 _symmetry_equiv_pos_as_xyz
  1  'x, y, z'
loop_
 _atom_site_type_symbol
 _atom_site_label
 _atom_site_symmetry_multiplicity
 _atom_site_fract_x
 _atom_site_fract_y
 _atom_site_fract_z
 _atom_site_occupancy
  Ho  Ho0  1  0.266118  0.217358  0.998695  1
  Ho  Ho1  1  0.766118  0.782642  0.001305  1
  Tl  Tl2  1  0.045445  0.321128  0.490927  1
  Tl  Tl3  1  0.545445  0.678872  0.509073  1
  P  P4  1  0.750474  0.323201  0.832373  1
  P  P5  1  0.250474  0.676799  0.167627  1
  P  P6  1  0.032109  0.801151  0.281788  1
  P  P7  1  0.532109  0.198849  0.718212  1
  Se  Se8  1  0.624725  0.376565  0.016378  1
  Se  Se9  1  0.123641  0.835434  0.468703  1
  Se  Se10  1  0.950197  0.085049  0.839528  1
  Se  Se11  1  0.815320  0.596981  0.260407  1
  Se  Se12  1  0.346432  0.396160  0.246889  1
  Se  Se13  1  0.315320  0.403019  0.739593  1
  Se  Se14  1  0.459039  0.940576  0.844360  1
  Se  Se15  1  0.959039  0.059424  0.155640  1
  Se  Se16  1  0.623641  0.164566  0.531297  1
  Se  Se17  1  0.124725  0.623435  0.983622  1
  Se  Se18  1  0.450197  0.914951  0.160472  1
  Se  Se19  1  0.846432  0.603840  0.753111  1
