# generated using pymatgen
data_Li2Ho7Er(Sc5Si8)2
_symmetry_space_group_name_H-M   'P 1'
_cell_length_a   6.97665203
_cell_length_b   7.37671273
_cell_length_c   13.96452209
_cell_angle_alpha   89.98687132
_cell_angle_beta   89.99781283
_cell_angle_gamma   89.96633283
_symmetry_Int_Tables_number   1
_chemical_formula_structural   Li2Ho7Er(Sc5Si8)2
_chemical_formula_sum   'Li2 Ho7 Er1 Sc10 Si16'
_cell_volume   718.68060483
_cell_formula_units_Z   1
loop_
 _symmetry_equiv_pos_site_id
 _symmetry_equiv_pos_as_xyz
  1  'x, y, z'
loop_
 _atom_site_type_symbol
 _atom_site_label
 _atom_site_symmetry_multiplicity
 _atom_site_fract_x
 _atom_site_fract_y
 _atom_site_fract_z
 _atom_site_occupancy
  Li  Li0  1  0.159807  0.506536  0.750003  1
  Li  Li1  1  0.840200  0.493442  0.249990  1
  Ho  Ho2  1  0.989622  0.815986  0.901632  1
  Ho  Ho3  1  0.484702  0.674379  0.902504  1
  Ho  Ho4  1  0.989615  0.815973  0.598387  1
  Ho  Ho5  1  0.515283  0.325599  0.097511  1
  Ho  Ho6  1  0.010397  0.184036  0.401627  1
  Ho  Ho7  1  0.515277  0.325622  0.402488  1
  Ho  Ho8  1  0.484711  0.674375  0.597508  1
  Er  Er9  1  0.010487  0.184157  0.098436  1
  Sc  Sc10  1  0.341696  0.003135  0.249974  1
  Sc  Sc11  1  0.658244  0.996903  0.750002  1
  Sc  Sc12  1  0.325810  0.181682  0.626069  1
  Sc  Sc13  1  0.674185  0.818323  0.373917  1
  Sc  Sc14  1  0.165315  0.675114  0.373052  1
  Sc  Sc15  1  0.674200  0.818353  0.126075  1
  Sc  Sc16  1  0.834690  0.324888  0.626941  1
  Sc  Sc17  1  0.325786  0.181687  0.873947  1
  Sc  Sc18  1  0.834724  0.324858  0.873073  1
  Sc  Sc19  1  0.165311  0.675125  0.126939  1
  Si  Si20  1  0.029092  0.101260  0.750008  1
  Si  Si21  1  0.970945  0.898850  0.249950  1
  Si  Si22  1  0.465304  0.613239  0.249987  1
  Si  Si23  1  0.534714  0.386749  0.750000  1
  Si  Si24  1  0.287274  0.879511  0.749995  1
  Si  Si25  1  0.712832  0.120531  0.249932  1
  Si  Si26  1  0.220685  0.372662  0.249943  1
  Si  Si27  1  0.779206  0.627226  0.750003  1
  Si  Si28  1  0.160149  0.461434  0.533155  1
  Si  Si29  1  0.839846  0.538562  0.466839  1
  Si  Si30  1  0.343207  0.966786  0.461213  1
  Si  Si31  1  0.839873  0.538433  0.033193  1
  Si  Si32  1  0.656802  0.033205  0.538784  1
  Si  Si33  1  0.160108  0.461297  0.966885  1
  Si  Si34  1  0.656855  0.033225  0.961219  1
  Si  Si35  1  0.343046  0.966860  0.038818  1
