# generated using pymatgen
data_Y2Al9CuOs2
_symmetry_space_group_name_H-M   'P 1'
_cell_length_a   7.58123977
_cell_length_b   7.58123917
_cell_length_c   9.50188400
_cell_angle_alpha   90.00000000
_cell_angle_beta   90.00000000
_cell_angle_gamma   119.76331491
_symmetry_Int_Tables_number   1
_chemical_formula_structural   Y2Al9CuOs2
_chemical_formula_sum   'Y4 Al18 Cu2 Os4'
_cell_volume   474.08000988
_cell_formula_units_Z   2
loop_
 _symmetry_equiv_pos_site_id
 _symmetry_equiv_pos_as_xyz
  1  'x, y, z'
loop_
 _atom_site_type_symbol
 _atom_site_label
 _atom_site_symmetry_multiplicity
 _atom_site_fract_x
 _atom_site_fract_y
 _atom_site_fract_z
 _atom_site_occupancy
  Y  Y0  1  0.995468  0.669263  0.250000  1
  Y  Y1  1  0.004532  0.330737  0.750000  1
  Y  Y2  1  0.669263  0.995468  0.250000  1
  Y  Y3  1  0.330737  0.004532  0.750000  1
  Al  Al4  1  0.128029  0.128029  0.250000  1
  Al  Al5  1  0.871971  0.871971  0.750000  1
  Al  Al6  1  0.001572  0.338360  0.073520  1
  Al  Al7  1  0.998428  0.661640  0.926480  1
  Al  Al8  1  0.998428  0.661640  0.573520  1
  Al  Al9  1  0.338360  0.001572  0.426480  1
  Al  Al10  1  0.001572  0.338360  0.426480  1
  Al  Al11  1  0.661640  0.998428  0.573520  1
  Al  Al12  1  0.661640  0.998428  0.926480  1
  Al  Al13  1  0.338360  0.001572  0.073520  1
  Al  Al14  1  0.337855  0.337855  0.548780  1
  Al  Al15  1  0.662145  0.662145  0.451220  1
  Al  Al16  1  0.662145  0.662145  0.048780  1
  Al  Al17  1  0.337855  0.337855  0.951220  1
  Al  Al18  1  0.335791  0.548367  0.250000  1
  Al  Al19  1  0.664209  0.451633  0.750000  1
  Al  Al20  1  0.548367  0.335791  0.250000  1
  Al  Al21  1  0.451633  0.664209  0.750000  1
  Cu  Cu22  1  0.000000  0.000000  0.000000  1
  Cu  Cu23  1  0.000000  0.000000  0.500000  1
  Os  Os24  1  0.672236  0.327764  0.000000  1
  Os  Os25  1  0.327764  0.672236  0.000000  1
  Os  Os26  1  0.327764  0.672236  0.500000  1
  Os  Os27  1  0.672236  0.327764  0.500000  1
