# generated using pymatgen
data_TbEr7Ti12Si15P
_symmetry_space_group_name_H-M   'P 1'
_cell_length_a   7.00691204
_cell_length_b   7.01392583
_cell_length_c   12.89169838
_cell_angle_alpha   89.94248689
_cell_angle_beta   89.94986892
_cell_angle_gamma   89.94414494
_symmetry_Int_Tables_number   1
_chemical_formula_structural   TbEr7Ti12Si15P
_chemical_formula_sum   'Tb1 Er7 Ti12 Si15 P1'
_cell_volume   633.57404797
_cell_formula_units_Z   1
loop_
 _symmetry_equiv_pos_site_id
 _symmetry_equiv_pos_as_xyz
  1  'x, y, z'
loop_
 _atom_site_type_symbol
 _atom_site_label
 _atom_site_symmetry_multiplicity
 _atom_site_fract_x
 _atom_site_fract_y
 _atom_site_fract_z
 _atom_site_occupancy
  Tb  Tb0  1  0.996820  0.659933  0.033048  1
  Er  Er1  1  0.340558  0.002757  0.467852  1
  Er  Er2  1  0.494427  0.844675  0.716653  1
  Er  Er3  1  0.502099  0.159001  0.216578  1
  Er  Er4  1  0.840068  0.497352  0.283843  1
  Er  Er5  1  0.159346  0.497893  0.781998  1
  Er  Er6  1  0.659904  0.995972  0.966565  1
  Er  Er7  1  0.003522  0.339737  0.534557  1
  Ti  Ti8  1  0.326475  0.326615  0.999355  1
  Ti  Ti9  1  0.172888  0.827313  0.250165  1
  Ti  Ti10  1  0.827791  0.172808  0.749232  1
  Ti  Ti11  1  0.672883  0.672935  0.500238  1
  Ti  Ti12  1  0.154284  0.009443  0.872244  1
  Ti  Ti13  1  0.491846  0.652373  0.125699  1
  Ti  Ti14  1  0.505707  0.344912  0.627153  1
  Ti  Ti15  1  0.653536  0.493935  0.873850  1
  Ti  Ti16  1  0.347779  0.507126  0.374384  1
  Ti  Ti17  1  0.847778  0.992420  0.376256  1
  Ti  Ti18  1  0.007501  0.152320  0.124141  1
  Ti  Ti19  1  0.995066  0.849901  0.624981  1
  Si  Si20  1  0.369049  0.703283  0.932663  1
  Si  Si21  1  0.630678  0.297898  0.435060  1
  Si  Si22  1  0.701731  0.368535  0.065921  1
  Si  Si23  1  0.297756  0.630683  0.566288  1
  Si  Si24  1  0.796301  0.870085  0.184943  1
  Si  Si25  1  0.131090  0.202574  0.316512  1
  Si  Si26  1  0.869880  0.796968  0.815050  1
  Si  Si27  1  0.291911  0.954156  0.063821  1
  Si  Si28  1  0.545936  0.791787  0.315086  1
  Si  Si29  1  0.459117  0.210146  0.817499  1
  Si  Si30  1  0.790327  0.547300  0.684490  1
  Si  Si31  1  0.208781  0.452569  0.185691  1
  Si  Si32  1  0.708571  0.045716  0.564598  1
  Si  Si33  1  0.953425  0.290098  0.934999  1
  Si  Si34  1  0.046478  0.708144  0.435700  1
  P  P35  1  0.198687  0.130634  0.682888  1
