# generated using pymatgen
data_La4Gd2FeI10
_symmetry_space_group_name_H-M   'P 1'
_cell_length_a   8.12270933
_cell_length_b   10.13782453
_cell_length_c   9.89586800
_cell_angle_alpha   106.89159585
_cell_angle_beta   96.55549350
_cell_angle_gamma   106.01639556
_symmetry_Int_Tables_number   1
_chemical_formula_structural   La4Gd2FeI10
_chemical_formula_sum   'La4 Gd2 Fe1 I10'
_cell_volume   732.54458303
_cell_formula_units_Z   1
loop_
 _symmetry_equiv_pos_site_id
 _symmetry_equiv_pos_as_xyz
  1  'x, y, z'
loop_
 _atom_site_type_symbol
 _atom_site_label
 _atom_site_symmetry_multiplicity
 _atom_site_fract_x
 _atom_site_fract_y
 _atom_site_fract_z
 _atom_site_occupancy
  La  La0  1  0.859549  0.133221  0.677888  1
  La  La1  1  0.140451  0.866779  0.322112  1
  La  La2  1  0.391749  0.958165  0.714626  1
  La  La3  1  0.608251  0.041835  0.285374  1
  Gd  Gd4  1  0.469641  0.286445  0.585658  1
  Gd  Gd5  1  0.530359  0.713555  0.414342  1
  Fe  Fe6  1  0.500000  0.000000  0.500000  1
  I  I7  1  0.418911  0.627828  0.674317  1
  I  I8  1  0.581089  0.372172  0.325683  1
  I  I9  1  0.296383  0.261190  0.845223  1
  I  I10  1  0.703617  0.738810  0.154777  1
  I  I11  1  0.842600  0.454492  0.768846  1
  I  I12  1  0.157400  0.545508  0.231154  1
  I  I13  1  0.049628  0.182873  0.409652  1
  I  I14  1  0.244916  0.914775  0.038148  1
  I  I15  1  0.755084  0.085225  0.961852  1
  I  I16  1  0.950372  0.817127  0.590348  1
