# generated using pymatgen
data_Tm3ZnCd2HgAu2
_symmetry_space_group_name_H-M   'P 1'
_cell_length_a   3.72331600
_cell_length_b   7.83143250
_cell_length_c   7.83143262
_cell_angle_alpha   119.86267799
_cell_angle_beta   90.00000000
_cell_angle_gamma   90.00000000
_symmetry_Int_Tables_number   1
_chemical_formula_structural   Tm3ZnCd2HgAu2
_chemical_formula_sum   'Tm3 Zn1 Cd2 Hg1 Au2'
_cell_volume   198.03513352
_cell_formula_units_Z   1
loop_
 _symmetry_equiv_pos_site_id
 _symmetry_equiv_pos_as_xyz
  1  'x, y, z'
loop_
 _atom_site_type_symbol
 _atom_site_label
 _atom_site_symmetry_multiplicity
 _atom_site_fract_x
 _atom_site_fract_y
 _atom_site_fract_z
 _atom_site_occupancy
  Tm  Tm0  1  0.000000  0.411353  0.411353  1
  Tm  Tm1  1  0.000000  0.998346  0.592940  1
  Tm  Tm2  1  0.000000  0.592940  0.998346  1
  Zn  Zn3  1  0.000000  0.001242  0.001242  1
  Cd  Cd4  1  0.500000  0.000881  0.259133  1
  Cd  Cd5  1  0.500000  0.259133  0.000881  1
  Hg  Hg6  1  0.500000  0.740550  0.740550  1
  Au  Au7  1  0.500000  0.666229  0.329325  1
  Au  Au8  1  0.500000  0.329325  0.666229  1
