# generated using pymatgen
data_Rb2Cd2(SiO3)3
_symmetry_space_group_name_H-M   'P 1'
_cell_length_a   7.38243000
_cell_length_b   6.65664159
_cell_length_c   12.14808552
_cell_angle_alpha   60.55308842
_cell_angle_beta   90.00000000
_cell_angle_gamma   90.00000000
_symmetry_Int_Tables_number   1
_chemical_formula_structural   Rb2Cd2(SiO3)3
_chemical_formula_sum   'Rb4 Cd4 Si6 O18'
_cell_volume   519.86017773
_cell_formula_units_Z   2
loop_
 _symmetry_equiv_pos_site_id
 _symmetry_equiv_pos_as_xyz
  1  'x, y, z'
loop_
 _atom_site_type_symbol
 _atom_site_label
 _atom_site_symmetry_multiplicity
 _atom_site_fract_x
 _atom_site_fract_y
 _atom_site_fract_z
 _atom_site_occupancy
  Rb  Rb0  1  0.397031  0.436610  0.770266  1
  Rb  Rb1  1  0.602969  0.436610  0.270266  1
  Rb  Rb2  1  0.666203  0.821092  0.901104  1
  Rb  Rb3  1  0.333797  0.821092  0.401104  1
  Cd  Cd4  1  0.831878  0.879990  0.589073  1
  Cd  Cd5  1  0.168122  0.879990  0.089073  1
  Cd  Cd6  1  0.929731  0.343423  0.855023  1
  Cd  Cd7  1  0.070269  0.343423  0.355023  1
  Si  Si8  1  0.582233  0.112988  0.091549  1
  Si  Si9  1  0.417767  0.112988  0.591549  1
  Si  Si10  1  0.248638  0.430336  0.049122  1
  Si  Si11  1  0.751362  0.430336  0.549122  1
  Si  Si12  1  0.137636  0.874045  0.816668  1
  Si  Si13  1  0.862364  0.874045  0.316668  1
  O  O14  1  0.833468  0.490877  0.653216  1
  O  O15  1  0.166532  0.490877  0.153216  1
  O  O16  1  0.456251  0.321826  0.094235  1
  O  O17  1  0.543749  0.321826  0.594235  1
  O  O18  1  0.461776  0.881681  0.136984  1
  O  O19  1  0.538224  0.881681  0.636984  1
  O  O20  1  0.041685  0.990826  0.892601  1
  O  O21  1  0.958315  0.990826  0.392601  1
  O  O22  1  0.868916  0.265512  0.512778  1
  O  O23  1  0.131084  0.265512  0.012778  1
  O  O24  1  0.668912  0.213248  0.952025  1
  O  O25  1  0.331088  0.213248  0.452025  1
  O  O26  1  0.996152  0.741054  0.770808  1
  O  O27  1  0.003848  0.741054  0.270808  1
  O  O28  1  0.288121  0.679684  0.915496  1
  O  O29  1  0.711879  0.679684  0.415496  1
  O  O30  1  0.738027  0.070707  0.200491  1
  O  O31  1  0.261973  0.070707  0.700491  1
