# generated using pymatgen
data_Gd10B(CCl5)3
_symmetry_space_group_name_H-M   'P 1'
_cell_length_a   8.69153880
_cell_length_b   9.80545918
_cell_length_c   10.53168400
_cell_angle_alpha   70.18346609
_cell_angle_beta   66.50272437
_cell_angle_gamma   70.50826332
_symmetry_Int_Tables_number   1
_chemical_formula_structural   Gd10B(CCl5)3
_chemical_formula_sum   'Gd10 B1 C3 Cl15'
_cell_volume   753.61269440
_cell_formula_units_Z   1
loop_
 _symmetry_equiv_pos_site_id
 _symmetry_equiv_pos_as_xyz
  1  'x, y, z'
loop_
 _atom_site_type_symbol
 _atom_site_label
 _atom_site_symmetry_multiplicity
 _atom_site_fract_x
 _atom_site_fract_y
 _atom_site_fract_z
 _atom_site_occupancy
  Gd  Gd0  1  0.341373  0.745505  0.829371  1
  Gd  Gd1  1  0.656648  0.255390  0.172630  1
  Gd  Gd2  1  0.174946  0.429790  0.044878  1
  Gd  Gd3  1  0.826335  0.570865  0.953719  1
  Gd  Gd4  1  0.089388  0.187637  0.871088  1
  Gd  Gd5  1  0.913103  0.808963  0.123613  1
  Gd  Gd6  1  0.250235  0.546147  0.632463  1
  Gd  Gd7  1  0.747328  0.455509  0.375512  1
  Gd  Gd8  1  0.034224  0.104563  0.267473  1
  Gd  Gd9  1  0.966201  0.895710  0.731906  1
  B  B10  1  0.876903  0.361157  0.177736  1
  C  C11  1  0.123193  0.640018  0.822345  1
  C  C12  1  0.960224  0.289168  0.053965  1
  C  C13  1  0.042624  0.705478  0.940546  1
  Cl  Cl14  1  0.499332  0.501136  0.000625  1
  Cl  Cl15  1  0.125920  0.817006  0.470670  1
  Cl  Cl16  1  0.873150  0.179016  0.533831  1
  Cl  Cl17  1  0.249025  0.012567  0.655617  1
  Cl  Cl18  1  0.755233  0.982159  0.338642  1
  Cl  Cl19  1  0.336217  0.173037  0.215457  1
  Cl  Cl20  1  0.662118  0.828809  0.785100  1
  Cl  Cl21  1  0.452133  0.374422  0.416082  1
  Cl  Cl22  1  0.542149  0.630932  0.590422  1
  Cl  Cl23  1  0.958094  0.443801  0.700577  1
  Cl  Cl24  1  0.042592  0.560386  0.298971  1
  Cl  Cl25  1  0.210157  0.916433  0.052438  1
  Cl  Cl26  1  0.792609  0.080518  0.942829  1
  Cl  Cl27  1  0.379493  0.281012  0.809659  1
  Cl  Cl28  1  0.619049  0.722865  0.191837  1
