# generated using pymatgen
data_HoPa3Ga6Ir7
_symmetry_space_group_name_H-M   'P 1'
_cell_length_a   7.25492170
_cell_length_b   7.32515941
_cell_length_c   7.32538009
_cell_angle_alpha   109.66584311
_cell_angle_beta   109.27748795
_cell_angle_gamma   109.27668898
_symmetry_Int_Tables_number   1
_chemical_formula_structural   HoPa3Ga6Ir7
_chemical_formula_sum   'Ho1 Pa3 Ga6 Ir7'
_cell_volume   300.39080049
_cell_formula_units_Z   1
loop_
 _symmetry_equiv_pos_site_id
 _symmetry_equiv_pos_as_xyz
  1  'x, y, z'
loop_
 _atom_site_type_symbol
 _atom_site_label
 _atom_site_symmetry_multiplicity
 _atom_site_fract_x
 _atom_site_fract_y
 _atom_site_fract_z
 _atom_site_occupancy
  Ho  Ho0  1  0.500000  0.000000  0.000000  1
  Pa  Pa1  1  0.000000  0.000000  0.500000  1
  Pa  Pa2  1  0.000000  0.500000  0.000000  1
  Pa  Pa3  1  0.500000  0.500000  0.500000  1
  Ga  Ga4  1  0.685011  0.689532  0.000006  1
  Ga  Ga5  1  0.314988  0.999999  0.310468  1
  Ga  Ga6  1  0.995476  0.310465  0.310470  1
  Ga  Ga7  1  0.314989  0.310468  0.999994  1
  Ga  Ga8  1  0.685012  0.000001  0.689532  1
  Ga  Ga9  1  0.004524  0.689535  0.689530  1
  Ir  Ir10  1  0.753547  0.253541  0.507089  1
  Ir  Ir11  1  0.753547  0.507093  0.253546  1
  Ir  Ir12  1  0.499995  0.253541  0.746453  1
  Ir  Ir13  1  0.246453  0.492907  0.746454  1
  Ir  Ir14  1  0.246453  0.746459  0.492911  1
  Ir  Ir15  1  0.500005  0.746459  0.253547  1
  Ir  Ir16  1  0.000000  0.000000  0.000000  1
