# generated using pymatgen
data_Hf2Co9B6Os
_symmetry_space_group_name_H-M   'P 1'
_cell_length_a   5.63975597
_cell_length_b   5.63975536
_cell_length_c   5.63975476
_cell_angle_alpha   95.56513060
_cell_angle_beta   95.56513314
_cell_angle_gamma   95.56513519
_symmetry_Int_Tables_number   1
_chemical_formula_structural   Hf2Co9B6Os
_chemical_formula_sum   'Hf2 Co9 B6 Os1'
_cell_volume   176.66812448
_cell_formula_units_Z   1
loop_
 _symmetry_equiv_pos_site_id
 _symmetry_equiv_pos_as_xyz
  1  'x, y, z'
loop_
 _atom_site_type_symbol
 _atom_site_label
 _atom_site_symmetry_multiplicity
 _atom_site_fract_x
 _atom_site_fract_y
 _atom_site_fract_z
 _atom_site_occupancy
  Hf  Hf0  1  0.686190  0.686190  0.686190  1
  Hf  Hf1  1  0.313810  0.313810  0.313810  1
  Co  Co2  1  0.500000  0.000000  0.000000  1
  Co  Co3  1  0.000000  0.500000  0.000000  1
  Co  Co4  1  0.000000  0.000000  0.500000  1
  Co  Co5  1  0.703541  0.201760  0.703541  1
  Co  Co6  1  0.703541  0.703541  0.201760  1
  Co  Co7  1  0.201760  0.703541  0.703541  1
  Co  Co8  1  0.296459  0.798240  0.296459  1
  Co  Co9  1  0.296459  0.296459  0.798240  1
  Co  Co10  1  0.798240  0.296459  0.296459  1
  B  B11  1  0.385567  0.000000  0.614433  1
  B  B12  1  0.614433  0.385567  0.000000  1
  B  B13  1  0.000000  0.614433  0.385567  1
  B  B14  1  0.614433  0.000000  0.385567  1
  B  B15  1  0.385567  0.614433  0.000000  1
  B  B16  1  0.000000  0.385567  0.614433  1
  Os  Os17  1  0.000000  0.000000  0.000000  1
