# generated using pymatgen
data_Tb3YAl18(Co2Pt)2
_symmetry_space_group_name_H-M   'P 1'
_cell_length_a   7.48275207
_cell_length_b   7.48391359
_cell_length_c   9.36624864
_cell_angle_alpha   90.02240049
_cell_angle_beta   90.02026018
_cell_angle_gamma   119.56859539
_symmetry_Int_Tables_number   1
_chemical_formula_structural   Tb3YAl18(Co2Pt)2
_chemical_formula_sum   'Tb3 Y1 Al18 Co4 Pt2'
_cell_volume   456.20272859
_cell_formula_units_Z   1
loop_
 _symmetry_equiv_pos_site_id
 _symmetry_equiv_pos_as_xyz
  1  'x, y, z'
loop_
 _atom_site_type_symbol
 _atom_site_label
 _atom_site_symmetry_multiplicity
 _atom_site_fract_x
 _atom_site_fract_y
 _atom_site_fract_z
 _atom_site_occupancy
  Tb  Tb0  1  0.993615  0.668890  0.250307  1
  Tb  Tb1  1  0.006460  0.331086  0.750389  1
  Tb  Tb2  1  0.668839  0.993583  0.249607  1
  Y  Y3  1  0.331114  0.006561  0.749675  1
  Al  Al4  1  0.121103  0.121020  0.249779  1
  Al  Al5  1  0.879044  0.879003  0.750234  1
  Al  Al6  1  0.331378  0.325200  0.546371  1
  Al  Al7  1  0.668921  0.674840  0.046292  1
  Al  Al8  1  0.325081  0.330998  0.953706  1
  Al  Al9  1  0.674633  0.668601  0.453666  1
  Al  Al10  1  0.340983  0.548963  0.241877  1
  Al  Al11  1  0.659196  0.451017  0.741795  1
  Al  Al12  1  0.548952  0.340920  0.258185  1
  Al  Al13  1  0.451123  0.659275  0.758150  1
  Al  Al14  1  0.006540  0.333849  0.073064  1
  Al  Al15  1  0.993415  0.665984  0.572995  1
  Al  Al16  1  0.334111  0.006569  0.427014  1
  Al  Al17  1  0.665982  0.993397  0.927000  1
  Al  Al18  1  0.009776  0.674173  0.927003  1
  Al  Al19  1  0.990251  0.326209  0.426912  1
  Al  Al20  1  0.673656  0.009712  0.573036  1
  Al  Al21  1  0.326040  0.990305  0.072956  1
  Co  Co22  1  0.000221  0.999843  0.999936  1
  Co  Co23  1  0.999819  0.000240  0.500065  1
  Co  Co24  1  0.329226  0.670670  0.999938  1
  Co  Co25  1  0.670619  0.329198  0.500071  1
  Pt  Pt26  1  0.672021  0.327875  0.999878  1
  Pt  Pt27  1  0.327882  0.672019  0.500097  1
