# generated using pymatgen
data_Tm10Ga5Te
_symmetry_space_group_name_H-M   'P 1'
_cell_length_a   8.51169700
_cell_length_b   8.51169578
_cell_length_c   6.44884300
_cell_angle_alpha   90.00000000
_cell_angle_beta   90.00000000
_cell_angle_gamma   120.00073744
_symmetry_Int_Tables_number   1
_chemical_formula_structural   Tm10Ga5Te
_chemical_formula_sum   'Tm10 Ga5 Te1'
_cell_volume   404.61451329
_cell_formula_units_Z   1
loop_
 _symmetry_equiv_pos_site_id
 _symmetry_equiv_pos_as_xyz
  1  'x, y, z'
loop_
 _atom_site_type_symbol
 _atom_site_label
 _atom_site_symmetry_multiplicity
 _atom_site_fract_x
 _atom_site_fract_y
 _atom_site_fract_z
 _atom_site_occupancy
  Tm  Tm0  1  0.678467  0.333000  0.006929  1
  Tm  Tm1  1  0.333000  0.678467  0.006929  1
  Tm  Tm2  1  0.333000  0.678467  0.493071  1
  Tm  Tm3  1  0.678467  0.333000  0.493071  1
  Tm  Tm4  1  0.770620  0.770620  0.750000  1
  Tm  Tm5  1  0.236694  0.983319  0.750000  1
  Tm  Tm6  1  0.983319  0.236694  0.750000  1
  Tm  Tm7  1  0.237264  0.237264  0.250000  1
  Tm  Tm8  1  0.758607  0.999493  0.250000  1
  Tm  Tm9  1  0.999493  0.758607  0.250000  1
  Ga  Ga10  1  0.597186  0.997189  0.750000  1
  Ga  Ga11  1  0.997189  0.597186  0.750000  1
  Ga  Ga12  1  0.600022  0.600022  0.250000  1
  Ga  Ga13  1  0.399969  0.003662  0.250000  1
  Ga  Ga14  1  0.003662  0.399969  0.250000  1
  Te  Te15  1  0.393040  0.393040  0.750000  1
