# generated using pymatgen
data_La2NiOs3
_symmetry_space_group_name_H-M   'P 1'
_cell_length_a   5.34431048
_cell_length_b   5.34431107
_cell_length_c   5.52440118
_cell_angle_alpha   61.07263515
_cell_angle_beta   61.07263357
_cell_angle_gamma   59.99999925
_symmetry_Int_Tables_number   1
_chemical_formula_structural   La2NiOs3
_chemical_formula_sum   'La2 Ni1 Os3'
_cell_volume   113.34639566
_cell_formula_units_Z   1
loop_
 _symmetry_equiv_pos_site_id
 _symmetry_equiv_pos_as_xyz
  1  'x, y, z'
loop_
 _atom_site_type_symbol
 _atom_site_label
 _atom_site_symmetry_multiplicity
 _atom_site_fract_x
 _atom_site_fract_y
 _atom_site_fract_z
 _atom_site_occupancy
  La  La0  1  0.748550  0.748550  0.754350  1
  La  La1  1  0.501450  0.501450  0.495650  1
  Ni  Ni2  1  0.125000  0.125000  0.625000  1
  Os  Os3  1  0.125000  0.625000  0.125000  1
  Os  Os4  1  0.625000  0.125000  0.125000  1
  Os  Os5  1  0.125000  0.125000  0.125000  1
