# generated using pymatgen
data_Cs2NaScAs2
_symmetry_space_group_name_H-M   'P 1'
_cell_length_a   9.71537105
_cell_length_b   9.71537112
_cell_length_c   9.71537200
_cell_angle_alpha   137.99403599
_cell_angle_beta   136.99061551
_cell_angle_gamma   61.68509751
_symmetry_Int_Tables_number   1
_chemical_formula_structural   Cs2NaScAs2
_chemical_formula_sum   'Cs4 Na2 Sc2 As4'
_cell_volume   413.78280056
_cell_formula_units_Z   2
loop_
 _symmetry_equiv_pos_site_id
 _symmetry_equiv_pos_as_xyz
  1  'x, y, z'
loop_
 _atom_site_type_symbol
 _atom_site_label
 _atom_site_symmetry_multiplicity
 _atom_site_fract_x
 _atom_site_fract_y
 _atom_site_fract_z
 _atom_site_occupancy
  Cs  Cs0  1  0.093523  0.321674  0.771849  1
  Cs  Cs1  1  0.450175  0.178326  0.271849  1
  Cs  Cs2  1  0.906477  0.678326  0.228151  1
  Cs  Cs3  1  0.549825  0.821674  0.728151  1
  Na  Na4  1  0.500000  0.750000  0.250000  1
  Na  Na5  1  0.500000  0.250000  0.750000  1
  Sc  Sc6  1  0.000000  0.750000  0.750000  1
  Sc  Sc7  1  0.000000  0.250000  0.250000  1
  As  As8  1  0.124093  0.914116  0.209977  1
  As  As9  1  0.875907  0.085884  0.790023  1
  As  As10  1  0.295861  0.585884  0.709977  1
  As  As11  1  0.704139  0.414116  0.290023  1
