# generated using pymatgen
data_Sm6EuRuBr12
_symmetry_space_group_name_H-M   'P 1'
_cell_length_a   9.45198945
_cell_length_b   9.45198912
_cell_length_c   9.45198777
_cell_angle_alpha   106.60464335
_cell_angle_beta   106.60465102
_cell_angle_gamma   106.60464283
_symmetry_Int_Tables_number   1
_chemical_formula_structural   Sm6EuRuBr12
_chemical_formula_sum   'Sm6 Eu1 Ru1 Br12'
_cell_volume   710.70714031
_cell_formula_units_Z   1
loop_
 _symmetry_equiv_pos_site_id
 _symmetry_equiv_pos_as_xyz
  1  'x, y, z'
loop_
 _atom_site_type_symbol
 _atom_site_label
 _atom_site_symmetry_multiplicity
 _atom_site_fract_x
 _atom_site_fract_y
 _atom_site_fract_z
 _atom_site_occupancy
  Sm  Sm0  1  0.899014  0.688616  0.977191  1
  Sm  Sm1  1  0.977191  0.899014  0.688616  1
  Sm  Sm2  1  0.688616  0.977191  0.899014  1
  Sm  Sm3  1  0.100986  0.311384  0.022809  1
  Sm  Sm4  1  0.022809  0.100986  0.311384  1
  Sm  Sm5  1  0.311384  0.022809  0.100986  1
  Eu  Eu6  1  0.500000  0.500000  0.500000  1
  Ru  Ru7  1  0.000000  0.000000  0.000000  1
  Br  Br8  1  0.627815  0.851166  0.549110  1
  Br  Br9  1  0.549110  0.627815  0.851166  1
  Br  Br10  1  0.851166  0.549110  0.627815  1
  Br  Br11  1  0.372185  0.148834  0.450890  1
  Br  Br12  1  0.450890  0.372185  0.148834  1
  Br  Br13  1  0.148834  0.450890  0.372185  1
  Br  Br14  1  0.681467  0.073104  0.221203  1
  Br  Br15  1  0.221203  0.681467  0.073104  1
  Br  Br16  1  0.073104  0.221203  0.681467  1
  Br  Br17  1  0.318533  0.926896  0.778797  1
  Br  Br18  1  0.778797  0.318533  0.926896  1
  Br  Br19  1  0.926896  0.778797  0.318533  1
