# generated using pymatgen
data_Y12Al2Co3Os
_symmetry_space_group_name_H-M   'P 1'
_cell_length_a   8.35723763
_cell_length_b   8.35723840
_cell_length_c   8.35723781
_cell_angle_alpha   112.28281484
_cell_angle_beta   110.19424541
_cell_angle_gamma   105.99881033
_symmetry_Int_Tables_number   1
_chemical_formula_structural   Y12Al2Co3Os
_chemical_formula_sum   'Y12 Al2 Co3 Os1'
_cell_volume   447.94393656
_cell_formula_units_Z   1
loop_
 _symmetry_equiv_pos_site_id
 _symmetry_equiv_pos_as_xyz
  1  'x, y, z'
loop_
 _atom_site_type_symbol
 _atom_site_label
 _atom_site_symmetry_multiplicity
 _atom_site_fract_x
 _atom_site_fract_y
 _atom_site_fract_z
 _atom_site_occupancy
  Y  Y0  1  0.052008  0.746212  0.305796  1
  Y  Y1  1  0.961289  0.265337  0.695953  1
  Y  Y2  1  0.559582  0.253788  0.305796  1
  Y  Y3  1  0.430617  0.734663  0.695953  1
  Y  Y4  1  0.675429  0.860991  0.186897  1
  Y  Y5  1  0.325906  0.511468  0.186897  1
  Y  Y6  1  0.325906  0.139009  0.814438  1
  Y  Y7  1  0.675429  0.488532  0.814438  1
  Y  Y8  1  0.178632  0.220059  0.398690  1
  Y  Y9  1  0.815769  0.216750  0.032519  1
  Y  Y10  1  0.178632  0.779941  0.958573  1
  Y  Y11  1  0.815769  0.783250  0.599019  1
  Al  Al12  1  0.989624  0.500000  0.489624  1
  Al  Al13  1  0.505509  0.000000  0.505509  1
  Co  Co14  1  0.334361  0.500000  0.834361  1
  Co  Co15  1  0.887824  0.887965  0.999859  1
  Co  Co16  1  0.111894  0.112035  0.999859  1
  Os  Os17  1  0.675819  0.500000  0.175819  1
