# generated using pymatgen
data_Tm6Al24Ru3Rh5
_symmetry_space_group_name_H-M   'P 1'
_cell_length_a   8.74952500
_cell_length_b   8.78654168
_cell_length_c   9.50963500
_cell_angle_alpha   90.18240005
_cell_angle_beta   90.00000000
_cell_angle_gamma   119.86074024
_symmetry_Int_Tables_number   1
_chemical_formula_structural   Tm6Al24Ru3Rh5
_chemical_formula_sum   'Tm6 Al24 Ru3 Rh5'
_cell_volume   634.01820615
_cell_formula_units_Z   1
loop_
 _symmetry_equiv_pos_site_id
 _symmetry_equiv_pos_as_xyz
  1  'x, y, z'
loop_
 _atom_site_type_symbol
 _atom_site_label
 _atom_site_symmetry_multiplicity
 _atom_site_fract_x
 _atom_site_fract_y
 _atom_site_fract_z
 _atom_site_occupancy
  Tm  Tm0  1  0.803813  0.190598  0.749354  1
  Tm  Tm1  1  0.196187  0.809402  0.250646  1
  Tm  Tm2  1  0.386785  0.190598  0.749354  1
  Tm  Tm3  1  0.613215  0.809402  0.250646  1
  Tm  Tm4  1  0.806974  0.613948  0.749939  1
  Tm  Tm5  1  0.193026  0.386052  0.250061  1
  Al  Al6  1  0.666468  0.332935  0.970235  1
  Al  Al7  1  0.333532  0.667065  0.029765  1
  Al  Al8  1  0.334377  0.668755  0.471287  1
  Al  Al9  1  0.665623  0.331245  0.528713  1
  Al  Al10  1  0.835520  0.162840  0.422620  1
  Al  Al11  1  0.164480  0.837160  0.577380  1
  Al  Al12  1  0.327319  0.162840  0.422620  1
  Al  Al13  1  0.162383  0.835126  0.922219  1
  Al  Al14  1  0.672681  0.837160  0.577380  1
  Al  Al15  1  0.837617  0.164874  0.077781  1
  Al  Al16  1  0.837136  0.674273  0.422778  1
  Al  Al17  1  0.672743  0.835126  0.922219  1
  Al  Al18  1  0.162864  0.325727  0.577222  1
  Al  Al19  1  0.327257  0.164874  0.077781  1
  Al  Al20  1  0.162828  0.325655  0.922099  1
  Al  Al21  1  0.837172  0.674345  0.077901  1
  Al  Al22  1  0.437366  0.560574  0.750518  1
  Al  Al23  1  0.562634  0.439426  0.249482  1
  Al  Al24  1  0.123206  0.560574  0.750518  1
  Al  Al25  1  0.876794  0.439426  0.249482  1
  Al  Al26  1  0.437189  0.874379  0.749350  1
  Al  Al27  1  0.562811  0.125621  0.250650  1
  Al  Al28  1  0.999151  0.998302  0.750010  1
  Al  Al29  1  0.000849  0.001698  0.249990  1
  Ru  Ru30  1  0.500000  0.000000  0.500000  1
  Ru  Ru31  1  0.000000  0.000000  0.000000  1
  Ru  Ru32  1  0.000000  0.000000  0.500000  1
  Rh  Rh33  1  0.500000  0.500000  0.000000  1
  Rh  Rh34  1  0.000000  0.500000  0.000000  1
  Rh  Rh35  1  0.500000  0.500000  0.500000  1
  Rh  Rh36  1  0.500000  0.000000  0.000000  1
  Rh  Rh37  1  0.000000  0.500000  0.500000  1
