# generated using pymatgen
data_K6PbS4
_symmetry_space_group_name_H-M   'P 1'
_cell_length_a   10.38962000
_cell_length_b   10.38962012
_cell_length_c   7.89765600
_cell_angle_alpha   90.00000000
_cell_angle_beta   90.00000000
_cell_angle_gamma   119.99999960
_symmetry_Int_Tables_number   1
_chemical_formula_structural   K6PbS4
_chemical_formula_sum   'K12 Pb2 S8'
_cell_volume   738.29202785
_cell_formula_units_Z   2
loop_
 _symmetry_equiv_pos_site_id
 _symmetry_equiv_pos_as_xyz
  1  'x, y, z'
loop_
 _atom_site_type_symbol
 _atom_site_label
 _atom_site_symmetry_multiplicity
 _atom_site_fract_x
 _atom_site_fract_y
 _atom_site_fract_z
 _atom_site_occupancy
  K  K0  1  0.853285  0.706572  0.290704  1
  K  K1  1  0.532504  0.065008  0.624183  1
  K  K2  1  0.065008  0.532504  0.124183  1
  K  K3  1  0.934992  0.467496  0.624183  1
  K  K4  1  0.532504  0.467496  0.624183  1
  K  K5  1  0.467496  0.934992  0.124183  1
  K  K6  1  0.706572  0.853285  0.790704  1
  K  K7  1  0.293428  0.146715  0.290704  1
  K  K8  1  0.853285  0.146715  0.290704  1
  K  K9  1  0.146715  0.293428  0.790704  1
  K  K10  1  0.467496  0.532504  0.124183  1
  K  K11  1  0.146715  0.853285  0.790704  1
  Pb  Pb12  1  0.666667  0.333333  0.004015  1
  Pb  Pb13  1  0.333333  0.666667  0.504015  1
  S  S14  1  0.183455  0.366910  0.392008  1
  S  S15  1  0.816545  0.183455  0.892008  1
  S  S16  1  0.183455  0.816545  0.392008  1
  S  S17  1  0.816545  0.633090  0.892008  1
  S  S18  1  0.666667  0.333333  0.363296  1
  S  S19  1  0.333333  0.666667  0.863296  1
  S  S20  1  0.366910  0.183455  0.892008  1
  S  S21  1  0.633090  0.816545  0.392008  1
