# generated using pymatgen
data_Er20Zn3Pd3Ru2
_symmetry_space_group_name_H-M   'P 1'
_cell_length_a   9.35796000
_cell_length_b   9.35795992
_cell_length_c   9.34865000
_cell_angle_alpha   90.00000000
_cell_angle_beta   90.00000000
_cell_angle_gamma   120.00000027
_symmetry_Int_Tables_number   1
_chemical_formula_structural   Er20Zn3Pd3Ru2
_chemical_formula_sum   'Er20 Zn3 Pd3 Ru2'
_cell_volume   708.99291735
_cell_formula_units_Z   1
loop_
 _symmetry_equiv_pos_site_id
 _symmetry_equiv_pos_as_xyz
  1  'x, y, z'
loop_
 _atom_site_type_symbol
 _atom_site_label
 _atom_site_symmetry_multiplicity
 _atom_site_fract_x
 _atom_site_fract_y
 _atom_site_fract_z
 _atom_site_occupancy
  Er  Er0  1  0.000000  0.000000  0.475111  1
  Er  Er1  1  0.000000  0.000000  0.024889  1
  Er  Er2  1  0.207823  0.792177  0.442652  1
  Er  Er3  1  0.207823  0.415646  0.442652  1
  Er  Er4  1  0.584354  0.792177  0.442652  1
  Er  Er5  1  0.793299  0.206701  0.557763  1
  Er  Er6  1  0.793299  0.586598  0.557763  1
  Er  Er7  1  0.413402  0.206701  0.557763  1
  Er  Er8  1  0.793299  0.206701  0.942237  1
  Er  Er9  1  0.793299  0.586598  0.942237  1
  Er  Er10  1  0.413402  0.206701  0.942237  1
  Er  Er11  1  0.207823  0.792177  0.057348  1
  Er  Er12  1  0.207823  0.415646  0.057348  1
  Er  Er13  1  0.584354  0.792177  0.057348  1
  Er  Er14  1  0.540920  0.459080  0.250000  1
  Er  Er15  1  0.540920  0.081839  0.250000  1
  Er  Er16  1  0.918161  0.459080  0.250000  1
  Er  Er17  1  0.458913  0.541087  0.750000  1
  Er  Er18  1  0.458913  0.917825  0.750000  1
  Er  Er19  1  0.082175  0.541087  0.750000  1
  Zn  Zn20  1  0.110460  0.889540  0.750000  1
  Zn  Zn21  1  0.110460  0.220919  0.750000  1
  Zn  Zn22  1  0.779081  0.889540  0.750000  1
  Pd  Pd23  1  0.877077  0.122923  0.250000  1
  Pd  Pd24  1  0.877077  0.754155  0.250000  1
  Pd  Pd25  1  0.245845  0.122923  0.250000  1
  Ru  Ru26  1  0.333333  0.666667  0.250000  1
  Ru  Ru27  1  0.666667  0.333333  0.750000  1
