# generated using pymatgen
data_Cs4Li2MgTiP4
_symmetry_space_group_name_H-M   'P 1'
_cell_length_a   12.20363676
_cell_length_b   12.20363759
_cell_length_c   12.20363833
_cell_angle_alpha   149.97202841
_cell_angle_beta   42.82871542
_cell_angle_gamma   150.18185647
_symmetry_Int_Tables_number   1
_chemical_formula_structural   Cs4Li2MgTiP4
_chemical_formula_sum   'Cs4 Li2 Mg1 Ti1 P4'
_cell_volume   451.09543767
_cell_formula_units_Z   1
loop_
 _symmetry_equiv_pos_site_id
 _symmetry_equiv_pos_as_xyz
  1  'x, y, z'
loop_
 _atom_site_type_symbol
 _atom_site_label
 _atom_site_symmetry_multiplicity
 _atom_site_fract_x
 _atom_site_fract_y
 _atom_site_fract_z
 _atom_site_occupancy
  Cs  Cs0  1  0.375767  0.775055  0.134615  1
  Cs  Cs1  1  0.124233  0.258847  0.399288  1
  Cs  Cs2  1  0.859558  0.724944  0.600712  1
  Cs  Cs3  1  0.640442  0.241153  0.865385  1
  Li  Li4  1  0.750001  0.250001  0.500000  1
  Li  Li5  1  0.250001  0.750000  0.500000  1
  Mg  Mg6  1  0.750000  0.750000  0.000000  1
  Ti  Ti7  1  0.250001  0.250001  0.000000  1
  P  P8  1  0.961578  0.248749  0.171072  1
  P  P9  1  0.538422  0.709493  0.287171  1
  P  P10  1  0.422323  0.251251  0.712829  1
  P  P11  1  0.077677  0.790505  0.828928  1
