# generated using pymatgen
data_BaHfV2O8
_symmetry_space_group_name_H-M   'P 1'
_cell_length_a   5.36999585
_cell_length_b   5.36999528
_cell_length_c   7.82614655
_cell_angle_alpha   92.12257006
_cell_angle_beta   92.12257952
_cell_angle_gamma   65.28312600
_symmetry_Int_Tables_number   1
_chemical_formula_structural   BaHfV2O8
_chemical_formula_sum   'Ba1 Hf1 V2 O8'
_cell_volume   204.80724531
_cell_formula_units_Z   1
loop_
 _symmetry_equiv_pos_site_id
 _symmetry_equiv_pos_as_xyz
  1  'x, y, z'
loop_
 _atom_site_type_symbol
 _atom_site_label
 _atom_site_symmetry_multiplicity
 _atom_site_fract_x
 _atom_site_fract_y
 _atom_site_fract_z
 _atom_site_occupancy
  Ba  Ba0  1  0.000000  0.000000  0.000000  1
  Hf  Hf1  1  0.000000  0.000000  0.500000  1
  V  V2  1  0.632561  0.632561  0.283753  1
  V  V3  1  0.367439  0.367439  0.716248  1
  O  O4  1  0.695630  0.695630  0.084039  1
  O  O5  1  0.781478  0.270961  0.307544  1
  O  O6  1  0.270961  0.781478  0.307544  1
  O  O7  1  0.777012  0.777012  0.436086  1
  O  O8  1  0.222988  0.222988  0.563914  1
  O  O9  1  0.729039  0.218522  0.692457  1
  O  O10  1  0.218522  0.729039  0.692457  1
  O  O11  1  0.304370  0.304370  0.915962  1
