# generated using pymatgen
data_Ho3Er2Tm3In3Ir
_symmetry_space_group_name_H-M   'P 1'
_cell_length_a   10.32573400
_cell_length_b   10.32573267
_cell_length_c   7.04288400
_cell_angle_alpha   90.00000000
_cell_angle_beta   90.00000000
_cell_angle_gamma   119.99999785
_symmetry_Int_Tables_number   1
_chemical_formula_structural   Ho3Er2Tm3In3Ir
_chemical_formula_sum   'Ho6 Er4 Tm6 In6 Ir2'
_cell_volume   650.31382494
_cell_formula_units_Z   2
loop_
 _symmetry_equiv_pos_site_id
 _symmetry_equiv_pos_as_xyz
  1  'x, y, z'
loop_
 _atom_site_type_symbol
 _atom_site_label
 _atom_site_symmetry_multiplicity
 _atom_site_fract_x
 _atom_site_fract_y
 _atom_site_fract_z
 _atom_site_occupancy
  Ho  Ho0  1  0.533243  0.066486  0.792949  1
  Ho  Ho1  1  0.933514  0.466757  0.792949  1
  Ho  Ho2  1  0.533243  0.466757  0.792949  1
  Ho  Ho3  1  0.466757  0.933514  0.292949  1
  Ho  Ho4  1  0.066486  0.533243  0.292949  1
  Ho  Ho5  1  0.466757  0.533243  0.292949  1
  Er  Er6  1  0.666667  0.333333  0.175369  1
  Er  Er7  1  0.333333  0.666667  0.675369  1
  Er  Er8  1  0.000000  0.000000  0.778708  1
  Er  Er9  1  0.000000  0.000000  0.278708  1
  Tm  Tm10  1  0.823147  0.646294  0.498717  1
  Tm  Tm11  1  0.353706  0.176853  0.498717  1
  Tm  Tm12  1  0.823147  0.176853  0.498717  1
  Tm  Tm13  1  0.176853  0.353706  0.998717  1
  Tm  Tm14  1  0.646294  0.823147  0.998717  1
  Tm  Tm15  1  0.176853  0.823147  0.998717  1
  In  In16  1  0.837431  0.674864  0.040305  1
  In  In17  1  0.325136  0.162569  0.040305  1
  In  In18  1  0.837431  0.162569  0.040305  1
  In  In19  1  0.162569  0.325136  0.540305  1
  In  In20  1  0.674864  0.837431  0.540305  1
  In  In21  1  0.162569  0.837431  0.540305  1
  Ir  Ir22  1  0.666667  0.333333  0.567960  1
  Ir  Ir23  1  0.333333  0.666667  0.067960  1
