# generated using pymatgen
data_TbY3Zn4Si3Ge
_symmetry_space_group_name_H-M   'P 1'
_cell_length_a   4.18652200
_cell_length_b   4.18652165
_cell_length_c   15.72618100
_cell_angle_alpha   90.00000000
_cell_angle_beta   90.00000000
_cell_angle_gamma   120.00000277
_symmetry_Int_Tables_number   1
_chemical_formula_structural   TbY3Zn4Si3Ge
_chemical_formula_sum   'Tb1 Y3 Zn4 Si3 Ge1'
_cell_volume   238.70450120
_cell_formula_units_Z   1
loop_
 _symmetry_equiv_pos_site_id
 _symmetry_equiv_pos_as_xyz
  1  'x, y, z'
loop_
 _atom_site_type_symbol
 _atom_site_label
 _atom_site_symmetry_multiplicity
 _atom_site_fract_x
 _atom_site_fract_y
 _atom_site_fract_z
 _atom_site_occupancy
  Tb  Tb0  1  0.000000  0.000000  0.752089  1
  Y  Y1  1  0.000000  0.000000  0.249508  1
  Y  Y2  1  0.000000  0.000000  0.498029  1
  Y  Y3  1  0.000000  0.000000  0.000418  1
  Zn  Zn4  1  0.666667  0.333333  0.861333  1
  Zn  Zn5  1  0.666667  0.333333  0.644448  1
  Zn  Zn6  1  0.333333  0.666667  0.139639  1
  Zn  Zn7  1  0.333333  0.666667  0.359309  1
  Si  Si8  1  0.666667  0.333333  0.117800  1
  Si  Si9  1  0.666667  0.333333  0.381004  1
  Si  Si10  1  0.333333  0.666667  0.882190  1
  Ge  Ge11  1  0.333333  0.666667  0.614234  1
