# generated using pymatgen
data_Dy6Y2Re3B24Os
_symmetry_space_group_name_H-M   'P 1'
_cell_length_a   3.67986900
_cell_length_b   9.18456814
_cell_length_c   11.57166808
_cell_angle_alpha   90.06468567
_cell_angle_beta   90.00000000
_cell_angle_gamma   90.00000000
_symmetry_Int_Tables_number   1
_chemical_formula_structural   Dy6Y2Re3B24Os
_chemical_formula_sum   'Dy6 Y2 Re3 B24 Os1'
_cell_volume   391.09907614
_cell_formula_units_Z   1
loop_
 _symmetry_equiv_pos_site_id
 _symmetry_equiv_pos_as_xyz
  1  'x, y, z'
loop_
 _atom_site_type_symbol
 _atom_site_label
 _atom_site_symmetry_multiplicity
 _atom_site_fract_x
 _atom_site_fract_y
 _atom_site_fract_z
 _atom_site_occupancy
  Dy  Dy0  1  0.000000  0.824680  0.084430  1
  Dy  Dy1  1  0.000000  0.176359  0.913558  1
  Dy  Dy2  1  0.000000  0.942620  0.369987  1
  Dy  Dy3  1  0.000000  0.056422  0.629454  1
  Dy  Dy4  1  0.000000  0.442867  0.129875  1
  Dy  Dy5  1  0.000000  0.556948  0.870836  1
  Y  Y6  1  0.000000  0.322044  0.414217  1
  Y  Y7  1  0.000000  0.677284  0.587567  1
  Re  Re8  1  0.000000  0.361939  0.678180  1
  Re  Re9  1  0.000000  0.138457  0.179477  1
  Re  Re10  1  0.000000  0.861588  0.821050  1
  B  B11  1  0.500000  0.553930  0.432664  1
  B  B12  1  0.500000  0.446904  0.566976  1
  B  B13  1  0.500000  0.053184  0.066890  1
  B  B14  1  0.500000  0.946817  0.932903  1
  B  B15  1  0.500000  0.748448  0.418294  1
  B  B16  1  0.500000  0.250879  0.581347  1
  B  B17  1  0.500000  0.248955  0.081286  1
  B  B18  1  0.500000  0.751526  0.918763  1
  B  B19  1  0.500000  0.790901  0.265697  1
  B  B20  1  0.500000  0.208207  0.734151  1
  B  B21  1  0.500000  0.291641  0.234508  1
  B  B22  1  0.500000  0.708133  0.766122  1
  B  B23  1  0.500000  0.631605  0.186054  1
  B  B24  1  0.500000  0.369041  0.813822  1
  B  B25  1  0.500000  0.131218  0.314538  1
  B  B26  1  0.500000  0.868667  0.685936  1
  B  B27  1  0.500000  0.982855  0.211856  1
  B  B28  1  0.500000  0.017216  0.787834  1
  B  B29  1  0.500000  0.483826  0.288084  1
  B  B30  1  0.500000  0.517517  0.712032  1
  B  B31  1  0.500000  0.602230  0.028962  1
  B  B32  1  0.500000  0.398003  0.971814  1
  B  B33  1  0.500000  0.101114  0.471410  1
  B  B34  1  0.500000  0.897535  0.528258  1
  Os  Os35  1  0.000000  0.638441  0.321167  1
