# generated using pymatgen
data_Dy6SiBBr6
_symmetry_space_group_name_H-M   'P 1'
_cell_length_a   9.99567928
_cell_length_b   9.99566513
_cell_length_c   9.86352916
_cell_angle_alpha   109.47828124
_cell_angle_beta   109.47833313
_cell_angle_gamma   109.99362615
_symmetry_Int_Tables_number   1
_chemical_formula_structural   Dy6SiBBr6
_chemical_formula_sum   'Dy12 Si2 B2 Br12'
_cell_volume   753.55689770
_cell_formula_units_Z   2
loop_
 _symmetry_equiv_pos_site_id
 _symmetry_equiv_pos_as_xyz
  1  'x, y, z'
loop_
 _atom_site_type_symbol
 _atom_site_label
 _atom_site_symmetry_multiplicity
 _atom_site_fract_x
 _atom_site_fract_y
 _atom_site_fract_z
 _atom_site_occupancy
  Dy  Dy0  1  0.463202  0.491396  0.221448  1
  Dy  Dy1  1  0.769950  0.241753  0.278552  1
  Dy  Dy2  1  0.769010  0.028278  0.495046  1
  Dy  Dy3  1  0.226036  0.466769  0.495045  1
  Dy  Dy4  1  0.258245  0.730049  0.221445  1
  Dy  Dy5  1  0.033233  0.273965  0.004954  1
  Dy  Dy6  1  0.008604  0.036799  0.278554  1
  Dy  Dy7  1  0.471722  0.730991  0.004954  1
  Dy  Dy8  1  0.489755  0.239755  0.479511  1
  Dy  Dy9  1  0.022714  0.477287  0.750000  1
  Dy  Dy10  1  0.260244  0.010246  0.020488  1
  Dy  Dy11  1  0.227287  0.272714  0.750001  1
  Si  Si12  1  0.249396  0.250603  0.250000  1
  Si  Si13  1  0.500603  0.999396  0.250000  1
  B  B14  1  0.000155  0.250155  0.500309  1
  B  B15  1  0.249846  0.499846  0.999691  1
  Br  Br16  1  0.248849  0.755419  0.741376  1
  Br  Br17  1  0.514043  0.507474  0.758623  1
  Br  Br18  1  0.989238  0.742996  0.993968  1
  Br  Br19  1  0.744579  0.251150  0.758624  1
  Br  Br20  1  0.992526  0.985955  0.741376  1
  Br  Br21  1  0.249029  0.995271  0.506032  1
  Br  Br22  1  0.757005  0.510763  0.506036  1
  Br  Br23  1  0.504728  0.250970  0.993964  1
  Br  Br24  1  0.756033  0.743965  0.249999  1
  Br  Br25  1  0.745130  0.995130  0.990258  1
  Br  Br26  1  0.993968  0.506034  0.250001  1
  Br  Br27  1  0.504872  0.754872  0.509742  1
