# generated using pymatgen
data_DyY4P12Ru10Rh9
_symmetry_space_group_name_H-M   'P 1'
_cell_length_a   12.61972402
_cell_length_b   12.59008162
_cell_length_c   3.93678200
_cell_angle_alpha   90.00000000
_cell_angle_beta   90.00000000
_cell_angle_gamma   119.83981361
_symmetry_Int_Tables_number   1
_chemical_formula_structural   DyY4P12Ru10Rh9
_chemical_formula_sum   'Dy1 Y4 P12 Ru10 Rh9'
_cell_volume   542.56172645
_cell_formula_units_Z   1
loop_
 _symmetry_equiv_pos_site_id
 _symmetry_equiv_pos_as_xyz
  1  'x, y, z'
loop_
 _atom_site_type_symbol
 _atom_site_label
 _atom_site_symmetry_multiplicity
 _atom_site_fract_x
 _atom_site_fract_y
 _atom_site_fract_z
 _atom_site_occupancy
  Dy  Dy0  1  0.333432  0.666870  0.000000  1
  Y  Y1  1  0.666594  0.332492  0.000000  1
  Y  Y2  1  0.812292  0.000793  0.500000  1
  Y  Y3  1  0.185424  0.187251  0.500000  1
  Y  Y4  1  0.000069  0.813306  0.500000  1
  P  P5  1  0.630802  0.997642  0.000000  1
  P  P6  1  0.366382  0.372058  0.000000  1
  P  P7  1  0.006127  0.633485  0.000000  1
  P  P8  1  0.687030  0.519826  0.500000  1
  P  P9  1  0.831245  0.308366  0.500000  1
  P  P10  1  0.314767  0.832355  0.500000  1
  P  P11  1  0.517818  0.685711  0.500000  1
  P  P12  1  0.180577  0.001283  0.000000  1
  P  P13  1  0.819461  0.819117  0.000000  1
  P  P14  1  0.996094  0.180604  0.000000  1
  P  P15  1  0.478999  0.165236  0.500000  1
  P  P16  1  0.168199  0.482884  0.500000  1
  Ru  Ru17  1  0.127118  0.641385  0.500000  1
  Ru  Ru18  1  0.360481  0.487133  0.500000  1
  Ru  Ru19  1  0.512530  0.871622  0.500000  1
  Ru  Ru20  1  0.716714  0.715352  0.500000  1
  Ru  Ru21  1  0.001048  0.285214  0.500000  1
  Ru  Ru22  1  0.450575  0.002621  0.000000  1
  Ru  Ru23  1  0.553121  0.547909  0.000000  1
  Ru  Ru24  1  0.000285  0.449374  0.000000  1
  Ru  Ru25  1  0.817173  0.195312  0.000000  1
  Ru  Ru26  1  0.283845  0.001152  0.500000  1
  Rh  Rh27  1  0.624127  0.803512  0.000000  1
  Rh  Rh28  1  0.180903  0.375875  0.000000  1
  Rh  Rh29  1  0.375232  0.183978  0.000000  1
  Rh  Rh30  1  0.196146  0.821275  0.000000  1
  Rh  Rh31  1  0.808428  0.623940  0.000000  1
  Rh  Rh32  1  0.870168  0.507703  0.500000  1
  Rh  Rh33  1  0.490213  0.359737  0.500000  1
  Rh  Rh34  1  0.637058  0.127449  0.500000  1
  Rh  Rh35  1  0.999524  0.000176  0.000000  1
