# generated using pymatgen
data_Sc11Tc3Ir
_symmetry_space_group_name_H-M   'P 1'
_cell_length_a   9.53870025
_cell_length_b   9.50047794
_cell_length_c   9.53870037
_cell_angle_alpha   60.13246664
_cell_angle_beta   59.74893770
_cell_angle_gamma   60.13247099
_symmetry_Int_Tables_number   1
_chemical_formula_structural   Sc11Tc3Ir
_chemical_formula_sum   'Sc22 Tc6 Ir2'
_cell_volume   611.28179706
_cell_formula_units_Z   2
loop_
 _symmetry_equiv_pos_site_id
 _symmetry_equiv_pos_as_xyz
  1  'x, y, z'
loop_
 _atom_site_type_symbol
 _atom_site_label
 _atom_site_symmetry_multiplicity
 _atom_site_fract_x
 _atom_site_fract_y
 _atom_site_fract_z
 _atom_site_occupancy
  Sc  Sc0  1  0.804830  0.800726  0.195170  1
  Sc  Sc1  1  0.198849  0.801151  0.198849  1
  Sc  Sc2  1  0.804830  0.199274  0.195170  1
  Sc  Sc3  1  0.195170  0.199274  0.804830  1
  Sc  Sc4  1  0.801151  0.198849  0.801151  1
  Sc  Sc5  1  0.195170  0.800726  0.804830  1
  Sc  Sc6  1  0.618929  0.617291  0.146488  1
  Sc  Sc7  1  0.617228  0.149300  0.617228  1
  Sc  Sc8  1  0.146488  0.617291  0.618929  1
  Sc  Sc9  1  0.617228  0.616243  0.617228  1
  Sc  Sc10  1  0.381071  0.382709  0.853512  1
  Sc  Sc11  1  0.382772  0.850700  0.382772  1
  Sc  Sc12  1  0.853512  0.382709  0.381071  1
  Sc  Sc13  1  0.382772  0.383757  0.382772  1
  Sc  Sc14  1  0.841856  0.845735  0.466673  1
  Sc  Sc15  1  0.841256  0.470483  0.841256  1
  Sc  Sc16  1  0.466673  0.845735  0.841856  1
  Sc  Sc17  1  0.841256  0.847003  0.841256  1
  Sc  Sc18  1  0.158144  0.154265  0.533327  1
  Sc  Sc19  1  0.158744  0.529517  0.158744  1
  Sc  Sc20  1  0.533327  0.154265  0.158144  1
  Sc  Sc21  1  0.158744  0.152997  0.158744  1
  Tc  Tc22  1  0.000000  0.000000  0.000000  1
  Tc  Tc23  1  0.000000  0.000000  0.500000  1
  Tc  Tc24  1  0.000000  0.500000  0.500000  1
  Tc  Tc25  1  0.500000  0.500000  0.000000  1
  Tc  Tc26  1  0.000000  0.500000  0.000000  1
  Tc  Tc27  1  0.500000  0.000000  0.000000  1
  Ir  Ir28  1  0.500000  0.500000  0.500000  1
  Ir  Ir29  1  0.500000  0.000000  0.500000  1
