# generated using pymatgen
data_SmU(Tl2S3)2
_symmetry_space_group_name_H-M   'P 1'
_cell_length_a   7.22023056
_cell_length_b   7.22023155
_cell_length_c   7.65152600
_cell_angle_alpha   80.80300006
_cell_angle_beta   80.80300682
_cell_angle_gamma   119.97562165
_symmetry_Int_Tables_number   1
_chemical_formula_structural   SmU(Tl2S3)2
_chemical_formula_sum   'Sm1 U1 Tl4 S6'
_cell_volume   327.41601452
_cell_formula_units_Z   1
loop_
 _symmetry_equiv_pos_site_id
 _symmetry_equiv_pos_as_xyz
  1  'x, y, z'
loop_
 _atom_site_type_symbol
 _atom_site_label
 _atom_site_symmetry_multiplicity
 _atom_site_fract_x
 _atom_site_fract_y
 _atom_site_fract_z
 _atom_site_occupancy
  Sm  Sm0  1  0.167591  0.832409  0.000000  1
  U  U1  1  0.832630  0.167370  0.000000  1
  Tl  Tl2  1  0.344624  0.655376  0.500000  1
  Tl  Tl3  1  0.655286  0.344714  0.500000  1
  Tl  Tl4  1  0.000440  0.999560  0.500000  1
  Tl  Tl5  1  0.499976  0.500024  0.000000  1
  S  S6  1  0.796862  0.816077  0.201088  1
  S  S7  1  0.447102  0.062125  0.210065  1
  S  S8  1  0.042542  0.408850  0.213205  1
  S  S9  1  0.591150  0.957458  0.786795  1
  S  S10  1  0.937875  0.552898  0.789935  1
  S  S11  1  0.183923  0.203138  0.798912  1
