# generated using pymatgen
data_Ac4SmMg3Ir4
_symmetry_space_group_name_H-M   'P 1'
_cell_length_a   4.39335300
_cell_length_b   7.70639377
_cell_length_c   9.10023400
_cell_angle_alpha   89.96111580
_cell_angle_beta   90.00000000
_cell_angle_gamma   90.00000000
_symmetry_Int_Tables_number   1
_chemical_formula_structural   Ac4SmMg3Ir4
_chemical_formula_sum   'Ac4 Sm1 Mg3 Ir4'
_cell_volume   308.10571627
_cell_formula_units_Z   1
loop_
 _symmetry_equiv_pos_site_id
 _symmetry_equiv_pos_as_xyz
  1  'x, y, z'
loop_
 _atom_site_type_symbol
 _atom_site_label
 _atom_site_symmetry_multiplicity
 _atom_site_fract_x
 _atom_site_fract_y
 _atom_site_fract_z
 _atom_site_occupancy
  Ac  Ac0  1  0.250000  0.546080  0.167307  1
  Ac  Ac1  1  0.750000  0.463715  0.826368  1
  Ac  Ac2  1  0.250000  0.019139  0.312542  1
  Ac  Ac3  1  0.750000  0.961716  0.685639  1
  Sm  Sm4  1  0.750000  0.370641  0.440890  1
  Mg  Mg5  1  0.250000  0.128262  0.948601  1
  Mg  Mg6  1  0.750000  0.871258  0.052428  1
  Mg  Mg7  1  0.250000  0.645447  0.562120  1
  Ir  Ir8  1  0.750000  0.738965  0.378090  1
  Ir  Ir9  1  0.250000  0.254028  0.623287  1
  Ir  Ir10  1  0.750000  0.237409  0.123314  1
  Ir  Ir11  1  0.250000  0.763340  0.879415  1
