# generated using pymatgen
data_Sc4Ga3Si2PIr7
_symmetry_space_group_name_H-M   'P 1'
_cell_length_a   7.01994227
_cell_length_b   7.01994227
_cell_length_c   7.11071232
_cell_angle_alpha   109.69827725
_cell_angle_beta   109.69826966
_cell_angle_gamma   109.38442769
_symmetry_Int_Tables_number   1
_chemical_formula_structural   Sc4Ga3Si2PIr7
_chemical_formula_sum   'Sc4 Ga3 Si2 P1 Ir7'
_cell_volume   268.51626842
_cell_formula_units_Z   1
loop_
 _symmetry_equiv_pos_site_id
 _symmetry_equiv_pos_as_xyz
  1  'x, y, z'
loop_
 _atom_site_type_symbol
 _atom_site_label
 _atom_site_symmetry_multiplicity
 _atom_site_fract_x
 _atom_site_fract_y
 _atom_site_fract_z
 _atom_site_occupancy
  Sc  Sc0  1  0.998752  0.998752  0.539751  1
  Sc  Sc1  1  0.000046  0.478558  0.002460  1
  Sc  Sc2  1  0.478558  0.000046  0.002460  1
  Sc  Sc3  1  0.512503  0.512503  0.515236  1
  Ga  Ga4  1  0.720374  0.720374  0.012934  1
  Ga  Ga5  1  0.286908  0.997182  0.303141  1
  Ga  Ga6  1  0.997182  0.286908  0.303141  1
  Si  Si7  1  0.668388  0.998179  0.675333  1
  Si  Si8  1  0.998179  0.668388  0.675333  1
  P  P9  1  0.332120  0.332120  0.001112  1
  Ir  Ir10  1  0.746014  0.247459  0.501164  1
  Ir  Ir11  1  0.748793  0.500002  0.250319  1
  Ir  Ir12  1  0.502006  0.254548  0.755329  1
  Ir  Ir13  1  0.254548  0.502006  0.755329  1
  Ir  Ir14  1  0.247459  0.746014  0.501164  1
  Ir  Ir15  1  0.500002  0.748793  0.250319  1
  Ir  Ir16  1  0.008167  0.008167  0.955478  1
