# generated using pymatgen
data_LiPm4(FeO4)3
_symmetry_space_group_name_H-M   'P 1'
_cell_length_a   5.39343630
_cell_length_b   5.64552722
_cell_length_c   7.80143622
_cell_angle_alpha   89.97180420
_cell_angle_beta   89.99893380
_cell_angle_gamma   89.75451493
_symmetry_Int_Tables_number   1
_chemical_formula_structural   LiPm4(FeO4)3
_chemical_formula_sum   'Li1 Pm4 Fe3 O12'
_cell_volume   237.54209520
_cell_formula_units_Z   1
loop_
 _symmetry_equiv_pos_site_id
 _symmetry_equiv_pos_as_xyz
  1  'x, y, z'
loop_
 _atom_site_type_symbol
 _atom_site_label
 _atom_site_symmetry_multiplicity
 _atom_site_fract_x
 _atom_site_fract_y
 _atom_site_fract_z
 _atom_site_occupancy
  Li  Li0  1  0.500000  0.000000  0.000000  1
  Pm  Pm1  1  0.988798  0.058382  0.241653  1
  Pm  Pm2  1  0.517905  0.568364  0.241792  1
  Pm  Pm3  1  0.482096  0.431636  0.758208  1
  Pm  Pm4  1  0.011201  0.941618  0.758347  1
  Fe  Fe5  1  0.000000  0.499999  0.000000  1
  Fe  Fe6  1  0.500000  0.000000  0.500000  1
  Fe  Fe7  1  0.000000  0.499999  0.500000  1
  O  O8  1  0.719233  0.313308  0.043314  1
  O  O9  1  0.812588  0.783233  0.045156  1
  O  O10  1  0.099263  0.471503  0.255207  1
  O  O11  1  0.410995  0.975174  0.261101  1
  O  O12  1  0.705066  0.300106  0.444405  1
  O  O13  1  0.800029  0.797263  0.446153  1
  O  O14  1  0.199972  0.202737  0.553848  1
  O  O15  1  0.294935  0.699894  0.555596  1
  O  O16  1  0.589006  0.024826  0.738899  1
  O  O17  1  0.900738  0.528497  0.744793  1
  O  O18  1  0.187413  0.216767  0.954845  1
  O  O19  1  0.280768  0.686692  0.956687  1
