# generated using pymatgen
data_Dy4Pa4Re(B8W)3
_symmetry_space_group_name_H-M   'P 1'
_cell_length_a   3.74053400
_cell_length_b   9.22183808
_cell_length_c   11.56362910
_cell_angle_alpha   89.98504391
_cell_angle_beta   90.00000000
_cell_angle_gamma   90.00000000
_symmetry_Int_Tables_number   1
_chemical_formula_structural   Dy4Pa4Re(B8W)3
_chemical_formula_sum   'Dy4 Pa4 Re1 B24 W3'
_cell_volume   398.88273371
_cell_formula_units_Z   1
loop_
 _symmetry_equiv_pos_site_id
 _symmetry_equiv_pos_as_xyz
  1  'x, y, z'
loop_
 _atom_site_type_symbol
 _atom_site_label
 _atom_site_symmetry_multiplicity
 _atom_site_fract_x
 _atom_site_fract_y
 _atom_site_fract_z
 _atom_site_occupancy
  Dy  Dy0  1  0.000000  0.946233  0.375267  1
  Dy  Dy1  1  0.000000  0.054035  0.625827  1
  Dy  Dy2  1  0.000000  0.446231  0.124976  1
  Dy  Dy3  1  0.000000  0.554601  0.874491  1
  Pa  Pa4  1  0.000000  0.322312  0.412519  1
  Pa  Pa5  1  0.000000  0.676375  0.586201  1
  Pa  Pa6  1  0.000000  0.822387  0.088065  1
  Pa  Pa7  1  0.000000  0.178331  0.912885  1
  Re  Re8  1  0.000000  0.861660  0.822362  1
  B  B9  1  0.500000  0.552581  0.433328  1
  B  B10  1  0.500000  0.447441  0.566869  1
  B  B11  1  0.500000  0.052198  0.066035  1
  B  B12  1  0.500000  0.946457  0.932302  1
  B  B13  1  0.500000  0.747599  0.421312  1
  B  B14  1  0.500000  0.252291  0.579178  1
  B  B15  1  0.500000  0.247852  0.078745  1
  B  B16  1  0.500000  0.752565  0.919891  1
  B  B17  1  0.500000  0.793937  0.265599  1
  B  B18  1  0.500000  0.205925  0.734542  1
  B  B19  1  0.500000  0.293576  0.234281  1
  B  B20  1  0.500000  0.707570  0.766506  1
  B  B21  1  0.500000  0.634157  0.185237  1
  B  B22  1  0.500000  0.366138  0.814771  1
  B  B23  1  0.500000  0.133541  0.314384  1
  B  B24  1  0.500000  0.866578  0.686461  1
  B  B25  1  0.500000  0.981783  0.212899  1
  B  B26  1  0.500000  0.016318  0.787080  1
  B  B27  1  0.500000  0.482024  0.286763  1
  B  B28  1  0.500000  0.518161  0.713267  1
  B  B29  1  0.500000  0.615691  0.031306  1
  B  B30  1  0.500000  0.385246  0.967826  1
  B  B31  1  0.500000  0.114817  0.468178  1
  B  B32  1  0.500000  0.884965  0.532955  1
  W  W33  1  0.000000  0.638744  0.322061  1
  W  W34  1  0.000000  0.361764  0.678332  1
  W  W35  1  0.000000  0.137916  0.177299  1
