# generated using pymatgen
data_TbHo3Pd3PtO14
_symmetry_space_group_name_H-M   'P 1'
_cell_length_a   7.24125407
_cell_length_b   7.24817988
_cell_length_c   7.24817900
_cell_angle_alpha   59.99999943
_cell_angle_beta   59.96835569
_cell_angle_gamma   59.96835571
_symmetry_Int_Tables_number   1
_chemical_formula_structural   TbHo3Pd3PtO14
_chemical_formula_sum   'Tb1 Ho3 Pd3 Pt1 O14'
_cell_volume   268.87397530
_cell_formula_units_Z   1
loop_
 _symmetry_equiv_pos_site_id
 _symmetry_equiv_pos_as_xyz
  1  'x, y, z'
loop_
 _atom_site_type_symbol
 _atom_site_label
 _atom_site_symmetry_multiplicity
 _atom_site_fract_x
 _atom_site_fract_y
 _atom_site_fract_z
 _atom_site_occupancy
  Tb  Tb0  1  0.125000  0.625000  0.625000  1
  Ho  Ho1  1  0.625000  0.625000  0.125000  1
  Ho  Ho2  1  0.625000  0.625000  0.625000  1
  Ho  Ho3  1  0.625000  0.125000  0.625000  1
  Pd  Pd4  1  0.125000  0.125000  0.125000  1
  Pd  Pd5  1  0.125000  0.625000  0.125000  1
  Pd  Pd6  1  0.125000  0.125000  0.625000  1
  Pt  Pt7  1  0.625000  0.125000  0.125000  1
  O  O8  1  0.033476  0.465476  0.465476  1
  O  O9  1  0.782678  0.784889  0.216217  1
  O  O10  1  0.782678  0.216217  0.216217  1
  O  O11  1  0.467322  0.033783  0.465111  1
  O  O12  1  0.746692  0.751103  0.751103  1
  O  O13  1  0.033476  0.035573  0.465476  1
  O  O14  1  0.033476  0.465476  0.035573  1
  O  O15  1  0.782678  0.216217  0.784889  1
  O  O16  1  0.216524  0.784524  0.214427  1
  O  O17  1  0.216524  0.214427  0.784524  1
  O  O18  1  0.503308  0.498897  0.498897  1
  O  O19  1  0.467322  0.033783  0.033783  1
  O  O20  1  0.467322  0.465111  0.033783  1
  O  O21  1  0.216524  0.784524  0.784524  1
