# generated using pymatgen
data_Dy6Lu10CdHg3Ir4
_symmetry_space_group_name_H-M   'P 1'
_cell_length_a   9.48310320
_cell_length_b   9.47638367
_cell_length_c   9.48997400
_cell_angle_alpha   59.95254814
_cell_angle_beta   59.97602983
_cell_angle_gamma   59.93367735
_symmetry_Int_Tables_number   1
_chemical_formula_structural   Dy6Lu10CdHg3Ir4
_chemical_formula_sum   'Dy6 Lu10 Cd1 Hg3 Ir4'
_cell_volume   602.40774818
_cell_formula_units_Z   1
loop_
 _symmetry_equiv_pos_site_id
 _symmetry_equiv_pos_as_xyz
  1  'x, y, z'
loop_
 _atom_site_type_symbol
 _atom_site_label
 _atom_site_symmetry_multiplicity
 _atom_site_fract_x
 _atom_site_fract_y
 _atom_site_fract_z
 _atom_site_occupancy
  Dy  Dy0  1  0.189573  0.809760  0.810089  1
  Dy  Dy1  1  0.809358  0.190657  0.189757  1
  Dy  Dy2  1  0.809358  0.190657  0.810228  1
  Dy  Dy3  1  0.189573  0.809760  0.190577  1
  Dy  Dy4  1  0.809609  0.809936  0.190227  1
  Dy  Dy5  1  0.188957  0.190977  0.810033  1
  Lu  Lu6  1  0.600045  0.599753  0.598109  1
  Lu  Lu7  1  0.600045  0.599753  0.202093  1
  Lu  Lu8  1  0.600681  0.201886  0.598716  1
  Lu  Lu9  1  0.199597  0.601152  0.599626  1
  Lu  Lu10  1  0.060707  0.437672  0.440049  1
  Lu  Lu11  1  0.436707  0.061302  0.062119  1
  Lu  Lu12  1  0.436707  0.061302  0.439873  1
  Lu  Lu13  1  0.060707  0.437672  0.061572  1
  Lu  Lu14  1  0.437892  0.438459  0.061825  1
  Lu  Lu15  1  0.061225  0.061432  0.438671  1
  Cd  Cd16  1  0.509194  0.829479  0.830664  1
  Hg  Hg17  1  0.832541  0.834037  0.834367  1
  Hg  Hg18  1  0.832541  0.834037  0.499055  1
  Hg  Hg19  1  0.833296  0.497169  0.834768  1
  Ir  Ir20  1  0.392182  0.392528  0.390807  1
  Ir  Ir21  1  0.392182  0.392528  0.824483  1
  Ir  Ir22  1  0.392214  0.825427  0.391180  1
  Ir  Ir23  1  0.825112  0.392665  0.391111  1
