# generated using pymatgen
data_Zr18ZnFeRe8
_symmetry_space_group_name_H-M   'P 1'
_cell_length_a   8.67187700
_cell_length_b   8.67187694
_cell_length_c   8.66581700
_cell_angle_alpha   90.00000000
_cell_angle_beta   90.00000000
_cell_angle_gamma   119.99999641
_symmetry_Int_Tables_number   1
_chemical_formula_structural   Zr18ZnFeRe8
_chemical_formula_sum   'Zr18 Zn1 Fe1 Re8'
_cell_volume   564.37319228
_cell_formula_units_Z   1
loop_
 _symmetry_equiv_pos_site_id
 _symmetry_equiv_pos_as_xyz
  1  'x, y, z'
loop_
 _atom_site_type_symbol
 _atom_site_label
 _atom_site_symmetry_multiplicity
 _atom_site_fract_x
 _atom_site_fract_y
 _atom_site_fract_z
 _atom_site_occupancy
  Zr  Zr0  1  0.192670  0.807330  0.450046  1
  Zr  Zr1  1  0.192670  0.385341  0.450046  1
  Zr  Zr2  1  0.614659  0.807330  0.450046  1
  Zr  Zr3  1  0.799099  0.200901  0.558061  1
  Zr  Zr4  1  0.799099  0.598196  0.558061  1
  Zr  Zr5  1  0.401804  0.200901  0.558061  1
  Zr  Zr6  1  0.799099  0.200901  0.941939  1
  Zr  Zr7  1  0.799099  0.598196  0.941939  1
  Zr  Zr8  1  0.401804  0.200901  0.941939  1
  Zr  Zr9  1  0.192670  0.807330  0.049954  1
  Zr  Zr10  1  0.192670  0.385341  0.049954  1
  Zr  Zr11  1  0.614659  0.807330  0.049954  1
  Zr  Zr12  1  0.541306  0.458694  0.250000  1
  Zr  Zr13  1  0.541306  0.082611  0.250000  1
  Zr  Zr14  1  0.917389  0.458694  0.250000  1
  Zr  Zr15  1  0.459263  0.540737  0.750000  1
  Zr  Zr16  1  0.459263  0.918527  0.750000  1
  Zr  Zr17  1  0.081473  0.540737  0.750000  1
  Zn  Zn18  1  0.333333  0.666667  0.250000  1
  Fe  Fe19  1  0.666667  0.333333  0.750000  1
  Re  Re20  1  0.891599  0.108401  0.250000  1
  Re  Re21  1  0.891599  0.783198  0.250000  1
  Re  Re22  1  0.216802  0.108401  0.250000  1
  Re  Re23  1  0.107771  0.892229  0.750000  1
  Re  Re24  1  0.107771  0.215541  0.750000  1
  Re  Re25  1  0.784459  0.892229  0.750000  1
  Re  Re26  1  0.000000  0.000000  0.500478  1
  Re  Re27  1  0.000000  0.000000  0.999522  1
