# generated using pymatgen
data_NpCoBr6
_symmetry_space_group_name_H-M   'P 1'
_cell_length_a   7.33936702
_cell_length_b   6.63067947
_cell_length_c   7.33936670
_cell_angle_alpha   90.40715045
_cell_angle_beta   119.41322392
_cell_angle_gamma   90.40714732
_symmetry_Int_Tables_number   1
_chemical_formula_structural   NpCoBr6
_chemical_formula_sum   'Np1 Co1 Br6'
_cell_volume   311.10026880
_cell_formula_units_Z   1
loop_
 _symmetry_equiv_pos_site_id
 _symmetry_equiv_pos_as_xyz
  1  'x, y, z'
loop_
 _atom_site_type_symbol
 _atom_site_label
 _atom_site_symmetry_multiplicity
 _atom_site_fract_x
 _atom_site_fract_y
 _atom_site_fract_z
 _atom_site_occupancy
  Np  Np0  1  0.000023  0.249997  0.000023  1
  Co  Co1  1  0.999983  0.749998  0.999983  1
  Br  Br2  1  0.708859  0.980336  0.996184  1
  Br  Br3  1  0.291144  0.519686  0.003828  1
  Br  Br4  1  0.003828  0.519686  0.291142  1
  Br  Br5  1  0.284178  0.978838  0.284179  1
  Br  Br6  1  0.715829  0.521124  0.715828  1
  Br  Br7  1  0.996184  0.980336  0.708859  1
