# generated using pymatgen
data_Y5MnFeB6
_symmetry_space_group_name_H-M   'P 1'
_cell_length_a   8.39717292
_cell_length_b   8.39717322
_cell_length_c   8.39717350
_cell_angle_alpha   37.73743524
_cell_angle_beta   37.73742181
_cell_angle_gamma   37.73742382
_symmetry_Int_Tables_number   1
_chemical_formula_structural   Y5MnFeB6
_chemical_formula_sum   'Y5 Mn1 Fe1 B6'
_cell_volume   199.00312352
_cell_formula_units_Z   1
loop_
 _symmetry_equiv_pos_site_id
 _symmetry_equiv_pos_as_xyz
  1  'x, y, z'
loop_
 _atom_site_type_symbol
 _atom_site_label
 _atom_site_symmetry_multiplicity
 _atom_site_fract_x
 _atom_site_fract_y
 _atom_site_fract_z
 _atom_site_occupancy
  Y  Y0  1  0.582730  0.582730  0.582730  1
  Y  Y1  1  0.416698  0.416698  0.416698  1
  Y  Y2  1  0.749029  0.749029  0.749029  1
  Y  Y3  1  0.250449  0.250449  0.250449  1
  Y  Y4  1  0.001597  0.001597  0.001597  1
  Mn  Mn5  1  0.883324  0.883324  0.883324  1
  Fe  Fe6  1  0.118100  0.118100  0.118100  1
  B  B7  1  0.499644  0.832903  0.166490  1
  B  B8  1  0.166490  0.499644  0.832903  1
  B  B9  1  0.832903  0.166490  0.499644  1
  B  B10  1  0.499644  0.166490  0.832903  1
  B  B11  1  0.832903  0.499644  0.166490  1
  B  B12  1  0.166490  0.832903  0.499644  1
