# generated using pymatgen
data_HoEr2Sn3PdPt2
_symmetry_space_group_name_H-M   'P 1'
_cell_length_a   7.59723842
_cell_length_b   7.59723711
_cell_length_c   3.90392900
_cell_angle_alpha   90.00000000
_cell_angle_beta   90.00000000
_cell_angle_gamma   120.03831120
_symmetry_Int_Tables_number   1
_chemical_formula_structural   HoEr2Sn3PdPt2
_chemical_formula_sum   'Ho1 Er2 Sn3 Pd1 Pt2'
_cell_volume   195.06358027
_cell_formula_units_Z   1
loop_
 _symmetry_equiv_pos_site_id
 _symmetry_equiv_pos_as_xyz
  1  'x, y, z'
loop_
 _atom_site_type_symbol
 _atom_site_label
 _atom_site_symmetry_multiplicity
 _atom_site_fract_x
 _atom_site_fract_y
 _atom_site_fract_z
 _atom_site_occupancy
  Ho  Ho0  1  0.405391  0.405391  0.500000  1
  Er  Er1  1  0.594687  0.000004  0.500000  1
  Er  Er2  1  0.000004  0.594687  0.500000  1
  Sn  Sn3  1  0.739484  0.739484  0.000000  1
  Sn  Sn4  1  0.260227  0.999326  0.000000  1
  Sn  Sn5  1  0.999326  0.260227  0.000000  1
  Pd  Pd6  1  0.000527  0.000527  0.500000  1
  Pt  Pt7  1  0.667022  0.333332  0.000000  1
  Pt  Pt8  1  0.333332  0.667022  0.000000  1
