# generated using pymatgen
data_TmLu2In3Ag2Pt
_symmetry_space_group_name_H-M   'P 1'
_cell_length_a   7.92364204
_cell_length_b   7.90550263
_cell_length_c   3.67739900
_cell_angle_alpha   90.00000000
_cell_angle_beta   90.00000000
_cell_angle_gamma   119.97537089
_symmetry_Int_Tables_number   1
_chemical_formula_structural   TmLu2In3Ag2Pt
_chemical_formula_sum   'Tm1 Lu2 In3 Ag2 Pt1'
_cell_volume   199.54159988
_cell_formula_units_Z   1
loop_
 _symmetry_equiv_pos_site_id
 _symmetry_equiv_pos_as_xyz
  1  'x, y, z'
loop_
 _atom_site_type_symbol
 _atom_site_label
 _atom_site_symmetry_multiplicity
 _atom_site_fract_x
 _atom_site_fract_y
 _atom_site_fract_z
 _atom_site_occupancy
  Tm  Tm0  1  0.024002  0.609565  0.500000  1
  Lu  Lu1  1  0.584876  0.974917  0.500000  1
  Lu  Lu2  1  0.390184  0.415225  0.500000  1
  In  In3  1  0.991175  0.266788  0.000000  1
  In  In4  1  0.276206  0.009279  0.000000  1
  In  In5  1  0.732641  0.724190  0.000000  1
  Ag  Ag6  1  0.000055  0.000306  0.500000  1
  Ag  Ag7  1  0.665793  0.332645  0.000000  1
  Pt  Pt8  1  0.335066  0.667087  0.000000  1
