# generated using pymatgen
data_Dy12Ho5Er3Pb16
_symmetry_space_group_name_H-M   'P 1'
_cell_length_a   8.19059400
_cell_length_b   8.27007233
_cell_length_c   15.62210300
_cell_angle_alpha   90.00053102
_cell_angle_beta   89.99989969
_cell_angle_gamma   90.01473679
_symmetry_Int_Tables_number   1
_chemical_formula_structural   Dy12Ho5Er3Pb16
_chemical_formula_sum   'Dy12 Ho5 Er3 Pb16'
_cell_volume   1058.19130640
_cell_formula_units_Z   1
loop_
 _symmetry_equiv_pos_site_id
 _symmetry_equiv_pos_as_xyz
  1  'x, y, z'
loop_
 _atom_site_type_symbol
 _atom_site_label
 _atom_site_symmetry_multiplicity
 _atom_site_fract_x
 _atom_site_fract_y
 _atom_site_fract_z
 _atom_site_occupancy
  Dy  Dy0  1  0.622509  0.159310  0.120590  1
  Dy  Dy1  1  0.122489  0.340684  0.379338  1
  Dy  Dy2  1  0.377595  0.840726  0.620561  1
  Dy  Dy3  1  0.877357  0.659419  0.879451  1
  Dy  Dy4  1  0.534850  0.323200  0.899965  1
  Dy  Dy5  1  0.034719  0.176614  0.600049  1
  Dy  Dy6  1  0.465198  0.676740  0.399902  1
  Dy  Dy7  1  0.965213  0.823281  0.100041  1
  Dy  Dy8  1  0.465164  0.676682  0.100060  1
  Dy  Dy9  1  0.965172  0.823340  0.399991  1
  Dy  Dy10  1  0.534887  0.323255  0.600000  1
  Dy  Dy11  1  0.034754  0.176559  0.899992  1
  Ho  Ho12  1  0.377531  0.840789  0.879443  1
  Ho  Ho13  1  0.877290  0.659351  0.620543  1
  Ho  Ho14  1  0.622570  0.159248  0.379422  1
  Ho  Ho15  1  0.122553  0.340752  0.120649  1
  Ho  Ho16  1  0.208787  0.503826  0.750010  1
  Er  Er17  1  0.708890  0.996017  0.749946  1
  Er  Er18  1  0.791196  0.496072  0.250038  1
  Er  Er19  1  0.291214  0.003891  0.250015  1
  Pb  Pb20  1  0.280881  0.033008  0.042834  1
  Pb  Pb21  1  0.780907  0.467063  0.457149  1
  Pb  Pb22  1  0.719082  0.967014  0.542789  1
  Pb  Pb23  1  0.219087  0.533102  0.957460  1
  Pb  Pb24  1  0.718876  0.967014  0.957104  1
  Pb  Pb25  1  0.218882  0.533085  0.542641  1
  Pb  Pb26  1  0.281108  0.033002  0.457066  1
  Pb  Pb27  1  0.781110  0.467051  0.042943  1
  Pb  Pb28  1  0.572853  0.626630  0.750011  1
  Pb  Pb29  1  0.072249  0.873918  0.749993  1
  Pb  Pb30  1  0.427635  0.373655  0.250007  1
  Pb  Pb31  1  0.927648  0.126320  0.249990  1
  Pb  Pb32  1  0.346707  0.152343  0.750031  1
  Pb  Pb33  1  0.846235  0.346891  0.749969  1
  Pb  Pb34  1  0.653435  0.847019  0.250036  1
  Pb  Pb35  1  0.153361  0.653133  0.249970  1
