# generated using pymatgen
data_Tb2Y3IrRu
_symmetry_space_group_name_H-M   'P 1'
_cell_length_a   6.46079343
_cell_length_b   7.29455974
_cell_length_c   8.54077548
_cell_angle_alpha   96.57223222
_cell_angle_beta   112.22422360
_cell_angle_gamma   90.00000017
_symmetry_Int_Tables_number   1
_chemical_formula_structural   Tb2Y3IrRu
_chemical_formula_sum   'Tb4 Y6 Ir2 Ru2'
_cell_volume   369.75357155
_cell_formula_units_Z   2
loop_
 _symmetry_equiv_pos_site_id
 _symmetry_equiv_pos_as_xyz
  1  'x, y, z'
loop_
 _atom_site_type_symbol
 _atom_site_label
 _atom_site_symmetry_multiplicity
 _atom_site_fract_x
 _atom_site_fract_y
 _atom_site_fract_z
 _atom_site_occupancy
  Tb  Tb0  1  0.349940  0.181939  0.562675  1
  Tb  Tb1  1  0.787265  0.318061  0.437325  1
  Tb  Tb2  1  0.426012  0.750000  0.000000  1
  Tb  Tb3  1  0.574937  0.250000  0.000000  1
  Y  Y4  1  0.975105  0.914711  0.183978  1
  Y  Y5  1  0.791127  0.585289  0.816022  1
  Y  Y6  1  0.023327  0.082183  0.815265  1
  Y  Y7  1  0.208061  0.417817  0.184735  1
  Y  Y8  1  0.652005  0.816029  0.438813  1
  Y  Y9  1  0.213192  0.683971  0.561187  1
  Ir  Ir10  1  0.175019  0.424964  0.779411  1
  Ir  Ir11  1  0.395608  0.075036  0.220589  1
  Ru  Ru12  1  0.824000  0.571529  0.219600  1
  Ru  Ru13  1  0.604400  0.928471  0.780400  1
