# generated using pymatgen
data_Ho16Cd4OsRh3
_symmetry_space_group_name_H-M   'P 1'
_cell_length_a   9.56220523
_cell_length_b   9.56220506
_cell_length_c   9.60227972
_cell_angle_alpha   60.13796243
_cell_angle_beta   60.13796504
_cell_angle_gamma   60.00000224
_symmetry_Int_Tables_number   1
_chemical_formula_structural   Ho16Cd4OsRh3
_chemical_formula_sum   'Ho16 Cd4 Os1 Rh3'
_cell_volume   622.12546583
_cell_formula_units_Z   1
loop_
 _symmetry_equiv_pos_site_id
 _symmetry_equiv_pos_as_xyz
  1  'x, y, z'
loop_
 _atom_site_type_symbol
 _atom_site_label
 _atom_site_symmetry_multiplicity
 _atom_site_fract_x
 _atom_site_fract_y
 _atom_site_fract_z
 _atom_site_occupancy
  Ho  Ho0  1  0.936463  0.936463  0.563233  1
  Ho  Ho1  1  0.561800  0.561800  0.934905  1
  Ho  Ho2  1  0.688543  0.688543  0.311023  1
  Ho  Ho3  1  0.151012  0.547295  0.150679  1
  Ho  Ho4  1  0.686611  0.311852  0.689685  1
  Ho  Ho5  1  0.151012  0.151012  0.150679  1
  Ho  Ho6  1  0.547295  0.151012  0.150679  1
  Ho  Ho7  1  0.688543  0.311890  0.311023  1
  Ho  Ho8  1  0.150287  0.150287  0.549138  1
  Ho  Ho9  1  0.311890  0.688543  0.311023  1
  Ho  Ho10  1  0.311852  0.686611  0.689685  1
  Ho  Ho11  1  0.936463  0.563840  0.563233  1
  Ho  Ho12  1  0.941495  0.561800  0.934905  1
  Ho  Ho13  1  0.563840  0.936463  0.563233  1
  Ho  Ho14  1  0.561800  0.941495  0.934905  1
  Ho  Ho15  1  0.311852  0.311852  0.689685  1
  Cd  Cd16  1  0.919694  0.919694  0.240918  1
  Cd  Cd17  1  0.241237  0.919753  0.919258  1
  Cd  Cd18  1  0.919753  0.919753  0.919258  1
  Cd  Cd19  1  0.919753  0.241237  0.919258  1
  Os  Os20  1  0.357492  0.357492  0.927524  1
  Rh  Rh21  1  0.357437  0.926435  0.358689  1
  Rh  Rh22  1  0.926435  0.357437  0.358689  1
  Rh  Rh23  1  0.357437  0.357437  0.358689  1
