# generated using pymatgen
data_RbTcNiP2
_symmetry_space_group_name_H-M   'P 1'
_cell_length_a   7.50852332
_cell_length_b   7.50852278
_cell_length_c   7.50852348
_cell_angle_alpha   150.18289809
_cell_angle_beta   150.18289059
_cell_angle_gamma   42.67300099
_symmetry_Int_Tables_number   1
_chemical_formula_structural   RbTcNiP2
_chemical_formula_sum   'Rb1 Tc1 Ni1 P2'
_cell_volume   104.39740146
_cell_formula_units_Z   1
loop_
 _symmetry_equiv_pos_site_id
 _symmetry_equiv_pos_as_xyz
  1  'x, y, z'
loop_
 _atom_site_type_symbol
 _atom_site_label
 _atom_site_symmetry_multiplicity
 _atom_site_fract_x
 _atom_site_fract_y
 _atom_site_fract_z
 _atom_site_occupancy
  Rb  Rb0  1  0.000000  0.000000  0.000000  1
  Tc  Tc1  1  0.750000  0.250000  0.500000  1
  Ni  Ni2  1  0.250000  0.750000  0.500000  1
  P  P3  1  0.340258  0.340258  0.000000  1
  P  P4  1  0.659742  0.659742  0.000000  1
