# generated using pymatgen
data_Cs3Eu(PO4)2
_symmetry_space_group_name_H-M   'P 1'
_cell_length_a   5.95820400
_cell_length_b   5.95820311
_cell_length_c   8.66458500
_cell_angle_alpha   90.00000000
_cell_angle_beta   90.00000000
_cell_angle_gamma   120.00000493
_symmetry_Int_Tables_number   1
_chemical_formula_structural   Cs3Eu(PO4)2
_chemical_formula_sum   'Cs3 Eu1 P2 O8'
_cell_volume   266.38456029
_cell_formula_units_Z   1
loop_
 _symmetry_equiv_pos_site_id
 _symmetry_equiv_pos_as_xyz
  1  'x, y, z'
loop_
 _atom_site_type_symbol
 _atom_site_label
 _atom_site_symmetry_multiplicity
 _atom_site_fract_x
 _atom_site_fract_y
 _atom_site_fract_z
 _atom_site_occupancy
  Cs  Cs0  1  0.333333  0.666667  0.761086  1
  Cs  Cs1  1  0.666667  0.333333  0.238914  1
  Cs  Cs2  1  0.000000  0.000000  0.000000  1
  Eu  Eu3  1  0.000000  0.000000  0.500000  1
  P  P4  1  0.333333  0.666667  0.286756  1
  P  P5  1  0.666667  0.333333  0.713244  1
  O  O6  1  0.333333  0.666667  0.108687  1
  O  O7  1  0.666667  0.333333  0.891313  1
  O  O8  1  0.189859  0.810141  0.346204  1
  O  O9  1  0.810141  0.189859  0.653796  1
  O  O10  1  0.189859  0.379718  0.346204  1
  O  O11  1  0.810141  0.620282  0.653796  1
  O  O12  1  0.620282  0.810141  0.346204  1
  O  O13  1  0.379718  0.189859  0.653796  1
