# generated using pymatgen
data_Ho4B16MoIr2W
_symmetry_space_group_name_H-M   'P 1'
_cell_length_a   3.58739500
_cell_length_b   5.99387931
_cell_length_c   11.60842413
_cell_angle_alpha   89.66730805
_cell_angle_beta   90.00000000
_cell_angle_gamma   90.00000000
_symmetry_Int_Tables_number   1
_chemical_formula_structural   Ho4B16MoIr2W
_chemical_formula_sum   'Ho4 B16 Mo1 Ir2 W1'
_cell_volume   249.60491816
_cell_formula_units_Z   1
loop_
 _symmetry_equiv_pos_site_id
 _symmetry_equiv_pos_as_xyz
  1  'x, y, z'
loop_
 _atom_site_type_symbol
 _atom_site_label
 _atom_site_symmetry_multiplicity
 _atom_site_fract_x
 _atom_site_fract_y
 _atom_site_fract_z
 _atom_site_occupancy
  Ho  Ho0  1  0.000000  0.627330  0.349886  1
  Ho  Ho1  1  0.000000  0.373013  0.650256  1
  Ho  Ho2  1  0.000000  0.129442  0.148571  1
  Ho  Ho3  1  0.000000  0.870460  0.851118  1
  B  B4  1  0.500000  0.789150  0.185889  1
  B  B5  1  0.500000  0.210854  0.814048  1
  B  B6  1  0.500000  0.290615  0.311759  1
  B  B7  1  0.500000  0.709870  0.687852  1
  B  B8  1  0.500000  0.864422  0.030700  1
  B  B9  1  0.500000  0.135595  0.969288  1
  B  B10  1  0.500000  0.367691  0.467823  1
  B  B11  1  0.500000  0.632797  0.532484  1
  B  B12  1  0.500000  0.885023  0.453430  1
  B  B13  1  0.500000  0.114429  0.546966  1
  B  B14  1  0.500000  0.386951  0.046941  1
  B  B15  1  0.500000  0.612966  0.953018  1
  B  B16  1  0.500000  0.975575  0.305639  1
  B  B17  1  0.500000  0.023863  0.694227  1
  B  B18  1  0.500000  0.474730  0.191256  1
  B  B19  1  0.500000  0.525424  0.808674  1
  Mo  Mo20  1  0.000000  0.871117  0.586186  1
  Ir  Ir21  1  0.000000  0.645042  0.094910  1
  Ir  Ir22  1  0.000000  0.354930  0.905291  1
  W  W23  1  0.000000  0.128709  0.413787  1
