# generated using pymatgen
data_Lu6ScAl15Os7
_symmetry_space_group_name_H-M   'P 1'
_cell_length_a   8.92080496
_cell_length_b   8.92080505
_cell_length_c   8.92027101
_cell_angle_alpha   59.99802216
_cell_angle_beta   59.99801885
_cell_angle_gamma   60.00000055
_symmetry_Int_Tables_number   1
_chemical_formula_structural   Lu6ScAl15Os7
_chemical_formula_sum   'Lu6 Sc1 Al15 Os7'
_cell_volume   501.94733325
_cell_formula_units_Z   1
loop_
 _symmetry_equiv_pos_site_id
 _symmetry_equiv_pos_as_xyz
  1  'x, y, z'
loop_
 _atom_site_type_symbol
 _atom_site_label
 _atom_site_symmetry_multiplicity
 _atom_site_fract_x
 _atom_site_fract_y
 _atom_site_fract_z
 _atom_site_occupancy
  Lu  Lu0  1  0.706833  0.706833  0.289132  1
  Lu  Lu1  1  0.297201  0.706833  0.289132  1
  Lu  Lu2  1  0.706833  0.297201  0.289132  1
  Lu  Lu3  1  0.288340  0.288340  0.713654  1
  Lu  Lu4  1  0.709666  0.288340  0.713654  1
  Lu  Lu5  1  0.288340  0.709666  0.713654  1
  Sc  Sc6  1  0.881688  0.881688  0.354936  1
  Al  Al7  1  0.877907  0.364707  0.879480  1
  Al  Al8  1  0.364707  0.877907  0.879480  1
  Al  Al9  1  0.877907  0.877907  0.879480  1
  Al  Al10  1  0.123239  0.123239  0.630284  1
  Al  Al11  1  0.120087  0.637549  0.122276  1
  Al  Al12  1  0.637549  0.120087  0.122276  1
  Al  Al13  1  0.120087  0.120087  0.122276  1
  Al  Al14  1  0.667947  0.667947  0.996162  1
  Al  Al15  1  0.666147  0.998862  0.668845  1
  Al  Al16  1  0.998862  0.666147  0.668845  1
  Al  Al17  1  0.666147  0.666147  0.668845  1
  Al  Al18  1  0.332388  0.332388  0.002834  1
  Al  Al19  1  0.333663  0.000464  0.332208  1
  Al  Al20  1  0.000464  0.333663  0.332208  1
  Al  Al21  1  0.333663  0.333663  0.332208  1
  Os  Os22  1  0.004398  0.004398  0.986805  1
  Os  Os23  1  0.001301  0.001301  0.503856  1
  Os  Os24  1  0.493542  0.001301  0.503856  1
  Os  Os25  1  0.001301  0.493542  0.503856  1
  Os  Os26  1  0.499617  0.499617  0.000208  1
  Os  Os27  1  0.000557  0.499617  0.000208  1
  Os  Os28  1  0.499617  0.000557  0.000208  1
