# generated using pymatgen
data_NpWCl28
_symmetry_space_group_name_H-M   'P 1'
_cell_length_a   15.29438541
_cell_length_b   15.77640562
_cell_length_c   9.83687900
_cell_angle_alpha   68.89907613
_cell_angle_beta   74.22792871
_cell_angle_gamma   36.85771008
_symmetry_Int_Tables_number   1
_chemical_formula_structural   NpWCl28
_chemical_formula_sum   'Np1 W1 Cl28'
_cell_volume   1327.69933202
_cell_formula_units_Z   1
loop_
 _symmetry_equiv_pos_site_id
 _symmetry_equiv_pos_as_xyz
  1  'x, y, z'
loop_
 _atom_site_type_symbol
 _atom_site_label
 _atom_site_symmetry_multiplicity
 _atom_site_fract_x
 _atom_site_fract_y
 _atom_site_fract_z
 _atom_site_occupancy
  Np  Np0  1  0.127829  0.127829  0.372171  1
  W  W1  1  0.877821  0.877821  0.122179  1
  Cl  Cl2  1  0.610933  0.855191  0.571828  1
  Cl  Cl3  1  0.677762  0.287594  0.639910  1
  Cl  Cl4  1  0.855191  0.610933  0.962046  1
  Cl  Cl5  1  0.287594  0.677762  0.394736  1
  Cl  Cl6  1  0.065128  0.065264  0.258543  1
  Cl  Cl7  1  0.183822  0.196829  0.485619  1
  Cl  Cl8  1  0.196829  0.183822  0.133730  1
  Cl  Cl9  1  0.919209  0.836951  0.359401  1
  Cl  Cl10  1  0.154045  0.448343  0.813937  1
  Cl  Cl11  1  0.653269  0.984750  0.180199  1
  Cl  Cl12  1  0.303817  0.357772  0.944124  1
  Cl  Cl13  1  0.735368  0.653011  0.576562  1
  Cl  Cl14  1  0.855677  0.305848  0.892339  1
  Cl  Cl15  1  0.436102  0.666148  0.095980  1
  Cl  Cl16  1  0.357772  0.303817  0.394285  1
  Cl  Cl17  1  0.380592  0.875089  0.415669  1
  Cl  Cl18  1  0.666148  0.436102  0.801770  1
  Cl  Cl19  1  0.984750  0.653269  0.181781  1
  Cl  Cl20  1  0.673643  0.214975  0.514268  1
  Cl  Cl21  1  0.448343  0.154045  0.583674  1
  Cl  Cl22  1  0.101612  0.771505  0.056645  1
  Cl  Cl23  1  0.653011  0.735368  0.035060  1
  Cl  Cl24  1  0.771505  0.101612  0.070238  1
  Cl  Cl25  1  0.065264  0.065128  0.611067  1
  Cl  Cl26  1  0.305848  0.855677  0.946137  1
  Cl  Cl27  1  0.875089  0.380592  0.328650  1
  Cl  Cl28  1  0.214975  0.673643  0.597113  1
  Cl  Cl29  1  0.836951  0.919209  0.884439  1
