# generated using pymatgen
data_Rb5VMoSe8
_symmetry_space_group_name_H-M   'P 1'
_cell_length_a   12.35120738
_cell_length_b   12.39066542
_cell_length_c   12.35125106
_cell_angle_alpha   132.73784938
_cell_angle_beta   127.64377037
_cell_angle_gamma   73.10433552
_symmetry_Int_Tables_number   1
_chemical_formula_structural   Rb5VMoSe8
_chemical_formula_sum   'Rb10 V2 Mo2 Se16'
_cell_volume   1074.07970582
_cell_formula_units_Z   2
loop_
 _symmetry_equiv_pos_site_id
 _symmetry_equiv_pos_as_xyz
  1  'x, y, z'
loop_
 _atom_site_type_symbol
 _atom_site_label
 _atom_site_symmetry_multiplicity
 _atom_site_fract_x
 _atom_site_fract_y
 _atom_site_fract_z
 _atom_site_occupancy
  Rb  Rb0  1  0.496797  0.261142  0.265525  1
  Rb  Rb1  1  0.004381  0.738877  0.235683  1
  Rb  Rb2  1  0.569039  0.709477  0.140444  1
  Rb  Rb3  1  0.430970  0.290497  0.859520  1
  Rb  Rb4  1  0.503195  0.738875  0.734500  1
  Rb  Rb5  1  0.076740  0.433150  0.356401  1
  Rb  Rb6  1  0.923253  0.566809  0.643565  1
  Rb  Rb7  1  0.995630  0.261135  0.764342  1
  Rb  Rb8  1  0.260154  0.999957  0.260119  1
  Rb  Rb9  1  0.739841  0.999967  0.739810  1
  V  V10  1  0.363290  0.642114  0.278830  1
  V  V11  1  0.636687  0.357915  0.721216  1
  Mo  Mo12  1  0.136041  0.913325  0.777282  1
  Mo  Mo13  1  0.863973  0.086674  0.222701  1
  Se  Se14  1  0.581428  0.589613  0.353284  1
  Se  Se15  1  0.746750  0.991400  0.244645  1
  Se  Se16  1  0.890133  0.883450  0.993315  1
  Se  Se17  1  0.763661  0.410386  0.991848  1
  Se  Se18  1  0.734231  0.233876  0.150080  1
  Se  Se19  1  0.751811  0.500425  0.748630  1
  Se  Se20  1  0.253265  0.008669  0.755405  1
  Se  Se21  1  0.236340  0.589611  0.008184  1
  Se  Se22  1  0.248179  0.499612  0.251425  1
  Se  Se23  1  0.265809  0.766112  0.849871  1
  Se  Se24  1  0.109845  0.116497  0.006660  1
  Se  Se25  1  0.916234  0.766119  0.500312  1
  Se  Se26  1  0.083795  0.233871  0.499646  1
  Se  Se27  1  0.614998  0.109827  0.494820  1
  Se  Se28  1  0.418532  0.410398  0.646715  1
  Se  Se29  1  0.384995  0.890220  0.505223  1
