# generated using pymatgen
data_La3Er3TcBi2
_symmetry_space_group_name_H-M   'P 1'
_cell_length_a   8.50855900
_cell_length_b   8.50855891
_cell_length_c   4.39978000
_cell_angle_alpha   90.00000000
_cell_angle_beta   90.00000000
_cell_angle_gamma   119.99998871
_symmetry_Int_Tables_number   1
_chemical_formula_structural   La3Er3TcBi2
_chemical_formula_sum   'La3 Er3 Tc1 Bi2'
_cell_volume   275.85043101
_cell_formula_units_Z   1
loop_
 _symmetry_equiv_pos_site_id
 _symmetry_equiv_pos_as_xyz
  1  'x, y, z'
loop_
 _atom_site_type_symbol
 _atom_site_label
 _atom_site_symmetry_multiplicity
 _atom_site_fract_x
 _atom_site_fract_y
 _atom_site_fract_z
 _atom_site_occupancy
  La  La0  1  0.000000  0.607272  0.500000  1
  La  La1  1  0.392728  0.392728  0.500000  1
  La  La2  1  0.607272  0.000000  0.500000  1
  Er  Er3  1  0.224792  0.000000  0.000000  1
  Er  Er4  1  0.775208  0.775208  0.000000  1
  Er  Er5  1  0.000000  0.224792  0.000000  1
  Tc  Tc6  1  0.000000  0.000000  0.500000  1
  Bi  Bi7  1  0.333333  0.666667  0.000000  1
  Bi  Bi8  1  0.666667  0.333333  0.000000  1
