# generated using pymatgen
data_Nd6UAl23Tc8
_symmetry_space_group_name_H-M   'P 1'
_cell_length_a   8.98014100
_cell_length_b   8.98014105
_cell_length_c   9.88699400
_cell_angle_alpha   90.00000000
_cell_angle_beta   90.00000000
_cell_angle_gamma   120.00000351
_symmetry_Int_Tables_number   1
_chemical_formula_structural   Nd6UAl23Tc8
_chemical_formula_sum   'Nd6 U1 Al23 Tc8'
_cell_volume   690.49605325
_cell_formula_units_Z   1
loop_
 _symmetry_equiv_pos_site_id
 _symmetry_equiv_pos_as_xyz
  1  'x, y, z'
loop_
 _atom_site_type_symbol
 _atom_site_label
 _atom_site_symmetry_multiplicity
 _atom_site_fract_x
 _atom_site_fract_y
 _atom_site_fract_z
 _atom_site_occupancy
  Nd  Nd0  1  0.187143  0.374284  0.257569  1
  Nd  Nd1  1  0.806217  0.612434  0.749327  1
  Nd  Nd2  1  0.625716  0.812857  0.257569  1
  Nd  Nd3  1  0.387566  0.193783  0.749327  1
  Nd  Nd4  1  0.187143  0.812857  0.257569  1
  Nd  Nd5  1  0.806217  0.193783  0.749327  1
  U  U6  1  0.333333  0.666667  0.012744  1
  Al  Al7  1  0.666667  0.333333  0.994833  1
  Al  Al8  1  0.666667  0.333333  0.508530  1
  Al  Al9  1  0.333333  0.666667  0.484675  1
  Al  Al10  1  0.163082  0.326164  0.575871  1
  Al  Al11  1  0.835990  0.671979  0.425070  1
  Al  Al12  1  0.673836  0.836918  0.575871  1
  Al  Al13  1  0.839446  0.678892  0.078556  1
  Al  Al14  1  0.328021  0.164010  0.425070  1
  Al  Al15  1  0.155002  0.310004  0.919512  1
  Al  Al16  1  0.163082  0.836918  0.575871  1
  Al  Al17  1  0.321108  0.160554  0.078556  1
  Al  Al18  1  0.835990  0.164010  0.425070  1
  Al  Al19  1  0.689996  0.844998  0.919512  1
  Al  Al20  1  0.839446  0.160554  0.078556  1
  Al  Al21  1  0.155002  0.844998  0.919512  1
  Al  Al22  1  0.561538  0.123075  0.249666  1
  Al  Al23  1  0.437577  0.875154  0.744649  1
  Al  Al24  1  0.876925  0.438462  0.249666  1
  Al  Al25  1  0.124846  0.562423  0.744649  1
  Al  Al26  1  0.561538  0.438462  0.249666  1
  Al  Al27  1  0.437577  0.562423  0.744649  1
  Al  Al28  1  0.000000  0.000000  0.247328  1
  Al  Al29  1  0.000000  0.000000  0.747566  1
  Tc  Tc30  1  0.489318  0.978635  0.002815  1
  Tc  Tc31  1  0.021365  0.510682  0.002815  1
  Tc  Tc32  1  0.500537  0.001074  0.499836  1
  Tc  Tc33  1  0.489318  0.510682  0.002815  1
  Tc  Tc34  1  0.998926  0.499463  0.499836  1
  Tc  Tc35  1  0.500537  0.499463  0.499836  1
  Tc  Tc36  1  0.000000  0.000000  0.997925  1
  Tc  Tc37  1  0.000000  0.000000  0.497785  1
