# generated using pymatgen
data_Tm6Zn21Rh2Se
_symmetry_space_group_name_H-M   'P 1'
_cell_length_a   9.05999939
_cell_length_b   8.95255082
_cell_length_c   9.06000000
_cell_angle_alpha   60.39154728
_cell_angle_beta   59.21691036
_cell_angle_gamma   60.39154700
_symmetry_Int_Tables_number   1
_chemical_formula_structural   Tm6Zn21Rh2Se
_chemical_formula_sum   'Tm6 Zn21 Rh2 Se1'
_cell_volume   519.47831243
_cell_formula_units_Z   1
loop_
 _symmetry_equiv_pos_site_id
 _symmetry_equiv_pos_as_xyz
  1  'x, y, z'
loop_
 _atom_site_type_symbol
 _atom_site_label
 _atom_site_symmetry_multiplicity
 _atom_site_fract_x
 _atom_site_fract_y
 _atom_site_fract_z
 _atom_site_occupancy
  Tm  Tm0  1  0.719611  0.280389  0.280389  1
  Tm  Tm1  1  0.721420  0.278580  0.721420  1
  Tm  Tm2  1  0.719611  0.719611  0.280389  1
  Tm  Tm3  1  0.280389  0.719611  0.719611  1
  Tm  Tm4  1  0.278580  0.721420  0.278580  1
  Tm  Tm5  1  0.280389  0.280389  0.719611  1
  Zn  Zn6  1  0.624144  0.123436  0.128984  1
  Zn  Zn7  1  0.123436  0.624144  0.123436  1
  Zn  Zn8  1  0.128984  0.123436  0.624144  1
  Zn  Zn9  1  0.123436  0.128984  0.123436  1
  Zn  Zn10  1  0.375856  0.876564  0.871016  1
  Zn  Zn11  1  0.876564  0.375856  0.876564  1
  Zn  Zn12  1  0.871016  0.876564  0.375856  1
  Zn  Zn13  1  0.876564  0.871016  0.876564  1
  Zn  Zn14  1  0.500000  0.000000  0.000000  1
  Zn  Zn15  1  0.500000  0.500000  0.000000  1
  Zn  Zn16  1  0.000000  0.500000  0.500000  1
  Zn  Zn17  1  0.000000  0.000000  0.500000  1
  Zn  Zn18  1  0.000000  0.000000  0.000000  1
  Zn  Zn19  1  0.009291  0.331552  0.327604  1
  Zn  Zn20  1  0.331552  0.009291  0.331552  1
  Zn  Zn21  1  0.327604  0.331552  0.009291  1
  Zn  Zn22  1  0.331552  0.327604  0.331552  1
  Zn  Zn23  1  0.990709  0.668448  0.672396  1
  Zn  Zn24  1  0.668448  0.990709  0.668448  1
  Zn  Zn25  1  0.672396  0.668448  0.990709  1
  Zn  Zn26  1  0.668448  0.672396  0.668448  1
  Rh  Rh27  1  0.500000  0.000000  0.500000  1
  Rh  Rh28  1  0.000000  0.500000  0.000000  1
  Se  Se29  1  0.500000  0.500000  0.500000  1
