# generated using pymatgen
data_BaGdF5
_symmetry_space_group_name_H-M   'P 1'
_cell_length_a   8.55315579
_cell_length_b   8.55315544
_cell_length_c   6.03526360
_cell_angle_alpha   89.24891591
_cell_angle_beta   89.24891684
_cell_angle_gamma   149.47460575
_symmetry_Int_Tables_number   1
_chemical_formula_structural   BaGdF5
_chemical_formula_sum   'Ba2 Gd2 F10'
_cell_volume   223.97799991
_cell_formula_units_Z   2
loop_
 _symmetry_equiv_pos_site_id
 _symmetry_equiv_pos_as_xyz
  1  'x, y, z'
loop_
 _atom_site_type_symbol
 _atom_site_label
 _atom_site_symmetry_multiplicity
 _atom_site_fract_x
 _atom_site_fract_y
 _atom_site_fract_z
 _atom_site_occupancy
  Ba  Ba0  1  0.325780  0.674220  0.750000  1
  Ba  Ba1  1  0.674220  0.325780  0.250000  1
  Gd  Gd2  1  0.073912  0.926088  0.750000  1
  Gd  Gd3  1  0.926088  0.073912  0.250000  1
  F  F4  1  0.737817  0.810428  0.595918  1
  F  F5  1  0.810428  0.737817  0.095918  1
  F  F6  1  0.803670  0.174135  0.009602  1
  F  F7  1  0.618460  0.381540  0.750000  1
  F  F8  1  0.825865  0.196330  0.490398  1
  F  F9  1  0.174135  0.803670  0.509602  1
  F  F10  1  0.381540  0.618460  0.250000  1
  F  F11  1  0.196330  0.825865  0.990398  1
  F  F12  1  0.189572  0.262183  0.904082  1
  F  F13  1  0.262183  0.189572  0.404082  1
