# generated using pymatgen
data_NdFeSe2ClO6
_symmetry_space_group_name_H-M   'P 1'
_cell_length_a   7.24712334
_cell_length_b   9.03875546
_cell_length_c   12.10237500
_cell_angle_alpha   97.49894293
_cell_angle_beta   105.53335789
_cell_angle_gamma   107.96438075
_symmetry_Int_Tables_number   1
_chemical_formula_structural   NdFeSe2ClO6
_chemical_formula_sum   'Nd4 Fe4 Se8 Cl4 O24'
_cell_volume   706.65892542
_cell_formula_units_Z   4
loop_
 _symmetry_equiv_pos_site_id
 _symmetry_equiv_pos_as_xyz
  1  'x, y, z'
loop_
 _atom_site_type_symbol
 _atom_site_label
 _atom_site_symmetry_multiplicity
 _atom_site_fract_x
 _atom_site_fract_y
 _atom_site_fract_z
 _atom_site_occupancy
  Nd  Nd0  1  0.167591  0.380536  0.433829  1
  Nd  Nd1  1  0.182428  0.902063  0.936978  1
  Nd  Nd2  1  0.817572  0.097937  0.063022  1
  Nd  Nd3  1  0.832409  0.619464  0.566171  1
  Fe  Fe4  1  0.094363  0.106340  0.651804  1
  Fe  Fe5  1  0.905637  0.893660  0.348196  1
  Fe  Fe6  1  0.074222  0.610201  0.154032  1
  Fe  Fe7  1  0.925778  0.389799  0.845968  1
  Se  Se8  1  0.480270  0.257136  0.925155  1
  Se  Se9  1  0.248247  0.017844  0.252357  1
  Se  Se10  1  0.519730  0.742864  0.074845  1
  Se  Se11  1  0.539168  0.265272  0.588154  1
  Se  Se12  1  0.729639  0.395303  0.257864  1
  Se  Se13  1  0.751753  0.982156  0.747643  1
  Se  Se14  1  0.460832  0.734728  0.411846  1
  Se  Se15  1  0.270361  0.604697  0.742136  1
  Cl  Cl16  1  0.857963  0.626309  0.947915  1
  Cl  Cl17  1  0.831207  0.111332  0.463353  1
  Cl  Cl18  1  0.142037  0.373691  0.052085  1
  Cl  Cl19  1  0.168793  0.888668  0.536647  1
  O  O20  1  0.866787  0.884594  0.671140  1
  O  O21  1  0.315494  0.279042  0.611617  1
  O  O22  1  0.471808  0.643083  0.529124  1
  O  O23  1  0.282777  0.099443  0.819013  1
  O  O24  1  0.900533  0.506155  0.396137  1
  O  O25  1  0.528192  0.356917  0.470876  1
  O  O26  1  0.124199  0.723644  0.758459  1
  O  O27  1  0.116692  0.018721  0.109853  1
  O  O28  1  0.109381  0.831064  0.265293  1
  O  O29  1  0.883308  0.981279  0.890147  1
  O  O30  1  0.684506  0.720958  0.388383  1
  O  O31  1  0.691632  0.229719  0.895646  1
  O  O32  1  0.511513  0.845149  0.961769  1
  O  O33  1  0.890619  0.168936  0.734707  1
  O  O34  1  0.717223  0.900557  0.180987  1
  O  O35  1  0.099467  0.493845  0.603863  1
  O  O36  1  0.727382  0.428965  0.693520  1
  O  O37  1  0.875801  0.276356  0.241541  1
  O  O38  1  0.272618  0.571035  0.306480  1
  O  O39  1  0.308368  0.770281  0.104354  1
  O  O40  1  0.783869  0.515395  0.164306  1
  O  O41  1  0.488487  0.154851  0.038231  1
  O  O42  1  0.133213  0.115406  0.328860  1
  O  O43  1  0.216131  0.484605  0.835694  1
