# generated using pymatgen
data_CdNiBi3Sb3O14
_symmetry_space_group_name_H-M   'P 1'
_cell_length_a   7.38188721
_cell_length_b   7.38183244
_cell_length_c   7.38184230
_cell_angle_alpha   61.54670441
_cell_angle_beta   61.54604731
_cell_angle_gamma   61.54684544
_symmetry_Int_Tables_number   1
_chemical_formula_structural   CdNiBi3Sb3O14
_chemical_formula_sum   'Cd1 Ni1 Bi3 Sb3 O14'
_cell_volume   294.30499120
_cell_formula_units_Z   1
loop_
 _symmetry_equiv_pos_site_id
 _symmetry_equiv_pos_as_xyz
  1  'x, y, z'
loop_
 _atom_site_type_symbol
 _atom_site_label
 _atom_site_symmetry_multiplicity
 _atom_site_fract_x
 _atom_site_fract_y
 _atom_site_fract_z
 _atom_site_occupancy
  Cd  Cd0  1  0.499994  0.999965  0.500057  1
  Ni  Ni1  1  0.000060  0.500055  0.000004  1
  Bi  Bi2  1  0.999996  0.000047  0.499984  1
  Bi  Bi3  1  0.500017  0.000036  0.000006  1
  Bi  Bi4  1  0.500023  0.499992  0.499991  1
  Sb  Sb5  1  0.499966  0.499994  0.000002  1
  Sb  Sb6  1  0.999998  0.500001  0.499964  1
  Sb  Sb7  1  0.999998  0.999973  0.000008  1
  O  O8  1  0.619577  0.119575  0.619595  1
  O  O9  1  0.380420  0.880420  0.380436  1
  O  O10  1  0.075462  0.178493  0.678495  1
  O  O11  1  0.678482  0.178482  0.075487  1
  O  O12  1  0.678499  0.575461  0.678499  1
  O  O13  1  0.924531  0.821511  0.321521  1
  O  O14  1  0.321503  0.821500  0.924552  1
  O  O15  1  0.321515  0.424529  0.321525  1
  O  O16  1  0.659385  0.584126  0.084127  1
  O  O17  1  0.084165  0.584167  0.659341  1
  O  O18  1  0.084125  0.159392  0.084108  1
  O  O19  1  0.340607  0.415831  0.915851  1
  O  O20  1  0.915853  0.415840  0.340595  1
  O  O21  1  0.915822  0.840610  0.915853  1
