# generated using pymatgen
data_Ac3(OsO5)2
_symmetry_space_group_name_H-M   'P 1'
_cell_length_a   5.79151364
_cell_length_b   5.79151259
_cell_length_c   7.16650865
_cell_angle_alpha   71.83932474
_cell_angle_beta   71.83932586
_cell_angle_gamma   90.79373319
_symmetry_Int_Tables_number   1
_chemical_formula_structural   Ac3(OsO5)2
_chemical_formula_sum   'Ac3 Os2 O10'
_cell_volume   215.37830510
_cell_formula_units_Z   1
loop_
 _symmetry_equiv_pos_site_id
 _symmetry_equiv_pos_as_xyz
  1  'x, y, z'
loop_
 _atom_site_type_symbol
 _atom_site_label
 _atom_site_symmetry_multiplicity
 _atom_site_fract_x
 _atom_site_fract_y
 _atom_site_fract_z
 _atom_site_occupancy
  Ac  Ac0  1  0.500000  0.500000  0.000000  1
  Ac  Ac1  1  0.756503  0.243497  0.500000  1
  Ac  Ac2  1  0.243497  0.756503  0.500000  1
  Os  Os3  1  0.130897  0.130897  0.825014  1
  Os  Os4  1  0.869103  0.869103  0.174986  1
  O  O5  1  0.824164  0.824164  0.470253  1
  O  O6  1  0.175836  0.175836  0.529747  1
  O  O7  1  0.601562  0.601562  0.280665  1
  O  O8  1  0.398438  0.398438  0.719335  1
  O  O9  1  0.370584  0.904318  0.792322  1
  O  O10  1  0.861705  0.861705  0.897383  1
  O  O11  1  0.138295  0.138295  0.102617  1
  O  O12  1  0.904318  0.370584  0.792323  1
  O  O13  1  0.629416  0.095682  0.207678  1
  O  O14  1  0.095682  0.629416  0.207677  1
