# generated using pymatgen
data_Ho20BiOs4Au7
_symmetry_space_group_name_H-M   'P 1'
_cell_length_a   7.56805508
_cell_length_b   9.09020907
_cell_length_c   11.83957009
_cell_angle_alpha   90.25984860
_cell_angle_beta   89.96538869
_cell_angle_gamma   89.89465447
_symmetry_Int_Tables_number   1
_chemical_formula_structural   Ho20BiOs4Au7
_chemical_formula_sum   'Ho20 Bi1 Os4 Au7'
_cell_volume   814.49572074
_cell_formula_units_Z   1
loop_
 _symmetry_equiv_pos_site_id
 _symmetry_equiv_pos_as_xyz
  1  'x, y, z'
loop_
 _atom_site_type_symbol
 _atom_site_label
 _atom_site_symmetry_multiplicity
 _atom_site_fract_x
 _atom_site_fract_y
 _atom_site_fract_z
 _atom_site_occupancy
  Ho  Ho0  1  0.834757  0.742031  0.782038  1
  Ho  Ho1  1  0.163583  0.247532  0.219876  1
  Ho  Ho2  1  0.341688  0.261722  0.722050  1
  Ho  Ho3  1  0.662521  0.751320  0.276100  1
  Ho  Ho4  1  0.374375  0.739440  0.694989  1
  Ho  Ho5  1  0.639410  0.248965  0.308628  1
  Ho  Ho6  1  0.853121  0.253708  0.811912  1
  Ho  Ho7  1  0.139671  0.749016  0.192964  1
  Ho  Ho8  1  0.954572  0.746536  0.491056  1
  Ho  Ho9  1  0.042137  0.257098  0.495426  1
  Ho  Ho10  1  0.453896  0.250746  0.002825  1
  Ho  Ho11  1  0.543632  0.748507  0.998874  1
  Ho  Ho12  1  0.666705  0.031519  0.582077  1
  Ho  Ho13  1  0.325352  0.969385  0.414764  1
  Ho  Ho14  1  0.178575  0.966696  0.930404  1
  Ho  Ho15  1  0.327506  0.533309  0.416188  1
  Ho  Ho16  1  0.819119  0.032083  0.080190  1
  Ho  Ho17  1  0.678244  0.467407  0.580008  1
  Ho  Ho18  1  0.822361  0.467864  0.083664  1
  Ho  Ho19  1  0.172064  0.530832  0.919141  1
  Bi  Bi20  1  0.076393  0.993960  0.667125  1
  Os  Os21  1  0.571386  0.750309  0.502241  1
  Os  Os22  1  0.427077  0.252156  0.494514  1
  Os  Os23  1  0.066776  0.250763  0.996909  1
  Os  Os24  1  0.927498  0.749221  0.007727  1
  Au  Au25  1  0.568874  0.493033  0.835821  1
  Au  Au26  1  0.433610  0.506441  0.164258  1
  Au  Au27  1  0.068225  0.509210  0.662901  1
  Au  Au28  1  0.432080  0.992709  0.162530  1
  Au  Au29  1  0.935117  0.492669  0.333903  1
  Au  Au30  1  0.566054  0.005737  0.836689  1
  Au  Au31  1  0.933623  0.008077  0.332206  1
