# generated using pymatgen
data_Tb4MoWC4
_symmetry_space_group_name_H-M   'P 1'
_cell_length_a   5.75383400
_cell_length_b   5.75395000
_cell_length_c   9.95403200
_cell_angle_alpha   90.00000000
_cell_angle_beta   90.00000000
_cell_angle_gamma   90.00000000
_symmetry_Int_Tables_number   1
_chemical_formula_structural   Tb4MoWC4
_chemical_formula_sum   'Tb8 Mo2 W2 C8'
_cell_volume   329.55085631
_cell_formula_units_Z   2
loop_
 _symmetry_equiv_pos_site_id
 _symmetry_equiv_pos_as_xyz
  1  'x, y, z'
loop_
 _atom_site_type_symbol
 _atom_site_label
 _atom_site_symmetry_multiplicity
 _atom_site_fract_x
 _atom_site_fract_y
 _atom_site_fract_z
 _atom_site_occupancy
  Tb  Tb0  1  0.200932  0.800559  0.156668  1
  Tb  Tb1  1  0.800800  0.200638  0.843064  1
  Tb  Tb2  1  0.200932  0.800559  0.843332  1
  Tb  Tb3  1  0.299068  0.300559  0.343332  1
  Tb  Tb4  1  0.699200  0.700638  0.343064  1
  Tb  Tb5  1  0.299068  0.300559  0.656668  1
  Tb  Tb6  1  0.800800  0.200638  0.156936  1
  Tb  Tb7  1  0.699200  0.700638  0.656936  1
  Mo  Mo8  1  0.677611  0.677087  0.000000  1
  Mo  Mo9  1  0.822389  0.177087  0.500000  1
  W  W10  1  0.323720  0.323235  0.000000  1
  W  W11  1  0.176280  0.823235  0.500000  1
  C  C12  1  0.000427  0.501370  0.500000  1
  C  C13  1  0.001308  0.998345  0.347422  1
  C  C14  1  0.499573  0.001370  0.000000  1
  C  C15  1  0.001308  0.998345  0.652578  1
  C  C16  1  0.498692  0.498345  0.847422  1
  C  C17  1  0.498692  0.498345  0.152578  1
  C  C18  1  0.498689  0.999225  0.500000  1
  C  C19  1  0.001311  0.499225  0.000000  1
