# generated using pymatgen
data_Zr18Fe2Re5Mo3
_symmetry_space_group_name_H-M   'P 1'
_cell_length_a   8.70287016
_cell_length_b   8.71349076
_cell_length_c   8.51380400
_cell_angle_alpha   90.00000000
_cell_angle_beta   90.00000000
_cell_angle_gamma   120.04038161
_symmetry_Int_Tables_number   1
_chemical_formula_structural   Zr18Fe2Re5Mo3
_chemical_formula_sum   'Zr18 Fe2 Re5 Mo3'
_cell_volume   558.89740813
_cell_formula_units_Z   1
loop_
 _symmetry_equiv_pos_site_id
 _symmetry_equiv_pos_as_xyz
  1  'x, y, z'
loop_
 _atom_site_type_symbol
 _atom_site_label
 _atom_site_symmetry_multiplicity
 _atom_site_fract_x
 _atom_site_fract_y
 _atom_site_fract_z
 _atom_site_occupancy
  Zr  Zr0  1  0.200738  0.799376  0.441634  1
  Zr  Zr1  1  0.200738  0.401362  0.441634  1
  Zr  Zr2  1  0.598240  0.799120  0.440413  1
  Zr  Zr3  1  0.799247  0.201639  0.556425  1
  Zr  Zr4  1  0.799247  0.597608  0.556425  1
  Zr  Zr5  1  0.401562  0.200781  0.558184  1
  Zr  Zr6  1  0.799247  0.201639  0.943575  1
  Zr  Zr7  1  0.799247  0.597608  0.943575  1
  Zr  Zr8  1  0.401562  0.200781  0.941816  1
  Zr  Zr9  1  0.200738  0.799376  0.058366  1
  Zr  Zr10  1  0.200738  0.401362  0.058366  1
  Zr  Zr11  1  0.598240  0.799120  0.059587  1
  Zr  Zr12  1  0.540963  0.457816  0.250000  1
  Zr  Zr13  1  0.540963  0.083147  0.250000  1
  Zr  Zr14  1  0.917475  0.458738  0.250000  1
  Zr  Zr15  1  0.456758  0.539924  0.750000  1
  Zr  Zr16  1  0.456758  0.916835  0.750000  1
  Zr  Zr17  1  0.082184  0.541092  0.750000  1
  Fe  Fe18  1  0.332876  0.666438  0.250000  1
  Fe  Fe19  1  0.667472  0.333736  0.750000  1
  Re  Re20  1  0.890562  0.109754  0.250000  1
  Re  Re21  1  0.890562  0.780809  0.250000  1
  Re  Re22  1  0.218318  0.109159  0.250000  1
  Re  Re23  1  0.111375  0.890807  0.750000  1
  Re  Re24  1  0.111375  0.220568  0.750000  1
  Mo  Mo25  1  0.781102  0.890551  0.750000  1
  Mo  Mo26  1  0.000856  0.000428  0.500513  1
  Mo  Mo27  1  0.000856  0.000428  0.999487  1
