# generated using pymatgen
data_La8HoLu(In3Br)2
_symmetry_space_group_name_H-M   'P 1'
_cell_length_a   9.68607400
_cell_length_b   9.68607387
_cell_length_c   6.87227500
_cell_angle_alpha   90.00000000
_cell_angle_beta   90.00000000
_cell_angle_gamma   120.00000043
_symmetry_Int_Tables_number   1
_chemical_formula_structural   La8HoLu(In3Br)2
_chemical_formula_sum   'La8 Ho1 Lu1 In6 Br2'
_cell_volume   558.37596913
_cell_formula_units_Z   1
loop_
 _symmetry_equiv_pos_site_id
 _symmetry_equiv_pos_as_xyz
  1  'x, y, z'
loop_
 _atom_site_type_symbol
 _atom_site_label
 _atom_site_symmetry_multiplicity
 _atom_site_fract_x
 _atom_site_fract_y
 _atom_site_fract_z
 _atom_site_occupancy
  La  La0  1  0.732135  0.732548  0.253217  1
  La  La1  1  0.000413  0.732548  0.746783  1
  La  La2  1  0.732135  0.999587  0.746783  1
  La  La3  1  0.267452  0.267865  0.746783  1
  La  La4  1  0.000413  0.267865  0.253217  1
  La  La5  1  0.267452  0.999587  0.253217  1
  La  La6  1  0.333333  0.666667  0.000000  1
  La  La7  1  0.666667  0.333333  0.000000  1
  Ho  Ho8  1  0.666667  0.333333  0.500000  1
  Lu  Lu9  1  0.333333  0.666667  0.500000  1
  In  In10  1  0.392857  0.999572  0.744130  1
  In  In11  1  0.000428  0.607143  0.255870  1
  In  In12  1  0.606715  0.999572  0.255870  1
  In  In13  1  0.000428  0.393285  0.744130  1
  In  In14  1  0.392857  0.393285  0.255870  1
  In  In15  1  0.606715  0.607143  0.744130  1
  Br  Br16  1  0.000000  0.000000  0.500000  1
  Br  Br17  1  0.000000  0.000000  0.000000  1
