# generated using pymatgen
data_LiY7HoInRh2
_symmetry_space_group_name_H-M   'P 1'
_cell_length_a   9.68119669
_cell_length_b   9.68832491
_cell_length_c   9.70681837
_cell_angle_alpha   59.80060571
_cell_angle_beta   59.77502152
_cell_angle_gamma   59.77142992
_symmetry_Int_Tables_number   1
_chemical_formula_structural   LiY7HoInRh2
_chemical_formula_sum   'Li2 Y14 Ho2 In2 Rh4'
_cell_volume   640.60196356
_cell_formula_units_Z   2
loop_
 _symmetry_equiv_pos_site_id
 _symmetry_equiv_pos_as_xyz
  1  'x, y, z'
loop_
 _atom_site_type_symbol
 _atom_site_label
 _atom_site_symmetry_multiplicity
 _atom_site_fract_x
 _atom_site_fract_y
 _atom_site_fract_z
 _atom_site_occupancy
  Li  Li0  1  0.822498  0.822696  0.824875  1
  Li  Li1  1  0.822839  0.823018  0.528016  1
  Y  Y2  1  0.186275  0.185764  0.813643  1
  Y  Y3  1  0.599583  0.599666  0.198882  1
  Y  Y4  1  0.439325  0.060497  0.439745  1
  Y  Y5  1  0.442080  0.442237  0.056815  1
  Y  Y6  1  0.813523  0.187847  0.813375  1
  Y  Y7  1  0.186259  0.813615  0.186915  1
  Y  Y8  1  0.438158  0.062835  0.059711  1
  Y  Y9  1  0.187687  0.813871  0.813742  1
  Y  Y10  1  0.062892  0.437878  0.060106  1
  Y  Y11  1  0.811246  0.811262  0.189363  1
  Y  Y12  1  0.207181  0.598039  0.598892  1
  Y  Y13  1  0.060522  0.439125  0.439534  1
  Y  Y14  1  0.065766  0.066019  0.432462  1
  Y  Y15  1  0.813274  0.186308  0.187523  1
  Ho  Ho16  1  0.596700  0.210343  0.598064  1
  Ho  Ho17  1  0.597638  0.597716  0.601291  1
  In  In18  1  0.504689  0.833732  0.829065  1
  In  In19  1  0.833820  0.504636  0.829068  1
  Rh  Rh20  1  0.396456  0.822222  0.392656  1
  Rh  Rh21  1  0.394764  0.391915  0.391504  1
  Rh  Rh22  1  0.820745  0.395298  0.394010  1
  Rh  Rh23  1  0.396082  0.393461  0.820745  1
