# generated using pymatgen
data_Ac12Ni6Hg
_symmetry_space_group_name_H-M   'P 1'
_cell_length_a   9.23804678
_cell_length_b   9.23804759
_cell_length_c   9.23804700
_cell_angle_alpha   109.47121935
_cell_angle_beta   109.47122113
_cell_angle_gamma   109.47122457
_symmetry_Int_Tables_number   1
_chemical_formula_structural   Ac12Ni6Hg
_chemical_formula_sum   'Ac12 Ni6 Hg1'
_cell_volume   606.90206031
_cell_formula_units_Z   1
loop_
 _symmetry_equiv_pos_site_id
 _symmetry_equiv_pos_as_xyz
  1  'x, y, z'
loop_
 _atom_site_type_symbol
 _atom_site_label
 _atom_site_symmetry_multiplicity
 _atom_site_fract_x
 _atom_site_fract_y
 _atom_site_fract_z
 _atom_site_occupancy
  Ac  Ac0  1  0.816044  0.689678  0.505722  1
  Ac  Ac1  1  0.183956  0.310322  0.494278  1
  Ac  Ac2  1  0.183956  0.689678  0.873634  1
  Ac  Ac3  1  0.816044  0.310322  0.126366  1
  Ac  Ac4  1  0.689678  0.505722  0.816044  1
  Ac  Ac5  1  0.310322  0.494278  0.183956  1
  Ac  Ac6  1  0.689678  0.873634  0.183956  1
  Ac  Ac7  1  0.310322  0.126366  0.816044  1
  Ac  Ac8  1  0.505722  0.816044  0.689678  1
  Ac  Ac9  1  0.494278  0.183956  0.310322  1
  Ac  Ac10  1  0.126366  0.816044  0.310322  1
  Ac  Ac11  1  0.873634  0.183956  0.689678  1
  Ni  Ni12  1  0.881269  0.381269  0.500000  1
  Ni  Ni13  1  0.118731  0.618731  0.500000  1
  Ni  Ni14  1  0.381269  0.500000  0.881269  1
  Ni  Ni15  1  0.618731  0.500000  0.118731  1
  Ni  Ni16  1  0.500000  0.881269  0.381269  1
  Ni  Ni17  1  0.500000  0.118731  0.618731  1
  Hg  Hg18  1  0.000000  0.000000  0.000000  1
