# generated using pymatgen
data_Tb5Ho7Co4BiOs
_symmetry_space_group_name_H-M   'P 1'
_cell_length_a   8.31235654
_cell_length_b   8.31286419
_cell_length_c   8.31231529
_cell_angle_alpha   111.31872218
_cell_angle_beta   110.35485715
_cell_angle_gamma   106.77271652
_symmetry_Int_Tables_number   1
_chemical_formula_structural   Tb5Ho7Co4BiOs
_chemical_formula_sum   'Tb5 Ho7 Co4 Bi1 Os1'
_cell_volume   441.40333659
_cell_formula_units_Z   1
loop_
 _symmetry_equiv_pos_site_id
 _symmetry_equiv_pos_as_xyz
  1  'x, y, z'
loop_
 _atom_site_type_symbol
 _atom_site_label
 _atom_site_symmetry_multiplicity
 _atom_site_fract_x
 _atom_site_fract_y
 _atom_site_fract_z
 _atom_site_occupancy
  Tb  Tb0  1  0.819009  0.717954  0.536588  1
  Tb  Tb1  1  0.180814  0.282213  0.463241  1
  Tb  Tb2  1  0.181362  0.717944  0.898932  1
  Tb  Tb3  1  0.818965  0.282209  0.101386  1
  Tb  Tb4  1  0.687773  0.378814  0.691056  1
  Ho  Ho5  1  0.312403  0.621697  0.309315  1
  Ho  Ho6  1  0.687608  0.996636  0.309040  1
  Ho  Ho7  1  0.312230  0.002957  0.690748  1
  Ho  Ho8  1  0.590473  0.786953  0.803770  1
  Ho  Ho9  1  0.409321  0.213108  0.195913  1
  Ho  Ho10  1  0.983147  0.786930  0.196458  1
  Ho  Ho11  1  0.017160  0.213087  0.803773  1
  Co  Co12  1  0.624152  0.999668  0.624211  1
  Co  Co13  1  0.375477  0.999675  0.375533  1
  Co  Co14  1  0.111095  0.611151  0.500049  1
  Co  Co15  1  0.889124  0.388985  0.499865  1
  Bi  Bi16  1  0.499903  0.500029  0.000127  1
  Os  Os17  1  0.999984  0.999989  0.999997  1
