# generated using pymatgen
data_ZrNb5(AlCo2)6
_symmetry_space_group_name_H-M   'P 1'
_cell_length_a   4.23184400
_cell_length_b   5.98280200
_cell_length_c   12.75604400
_cell_angle_alpha   89.99951803
_cell_angle_beta   89.99966659
_cell_angle_gamma   89.99996731
_symmetry_Int_Tables_number   1
_chemical_formula_structural   ZrNb5(AlCo2)6
_chemical_formula_sum   'Zr1 Nb5 Al6 Co12'
_cell_volume   322.96115423
_cell_formula_units_Z   1
loop_
 _symmetry_equiv_pos_site_id
 _symmetry_equiv_pos_as_xyz
  1  'x, y, z'
loop_
 _atom_site_type_symbol
 _atom_site_label
 _atom_site_symmetry_multiplicity
 _atom_site_fract_x
 _atom_site_fract_y
 _atom_site_fract_z
 _atom_site_occupancy
  Zr  Zr0  1  0.499751  0.499976  0.833337  1
  Nb  Nb1  1  0.000009  0.999996  0.000369  1
  Nb  Nb2  1  0.500248  0.500001  0.166933  1
  Nb  Nb3  1  0.000262  0.999996  0.333344  1
  Nb  Nb4  1  0.499989  0.500005  0.499726  1
  Nb  Nb5  1  0.999734  0.000008  0.666291  1
  Al  Al6  1  0.999979  0.500004  0.001711  1
  Al  Al7  1  0.500279  0.999992  0.168090  1
  Al  Al8  1  0.000246  0.500002  0.333346  1
  Al  Al9  1  0.499998  0.000045  0.498575  1
  Al  Al10  1  0.999744  0.499942  0.664944  1
  Al  Al11  1  0.499763  0.000017  0.833331  1
  Co  Co12  1  0.500001  0.244982  0.004224  1
  Co  Co13  1  0.500002  0.755018  0.004221  1
  Co  Co14  1  0.000290  0.249736  0.167490  1
  Co  Co15  1  0.000290  0.750265  0.167490  1
  Co  Co16  1  0.500293  0.250225  0.333338  1
  Co  Co17  1  0.500292  0.749773  0.333341  1
  Co  Co18  1  0.999990  0.249767  0.499192  1
  Co  Co19  1  0.999991  0.750236  0.499185  1
  Co  Co20  1  0.499700  0.244996  0.662445  1
  Co  Co21  1  0.499700  0.755021  0.662434  1
  Co  Co22  1  0.999727  0.238751  0.833322  1
  Co  Co23  1  0.999726  0.761243  0.833320  1
