# generated using pymatgen
data_Sm3Y(B4Mo)4
_symmetry_space_group_name_H-M   'P 1'
_cell_length_a   3.66463900
_cell_length_b   6.07164193
_cell_length_c   11.74011479
_cell_angle_alpha   90.06333687
_cell_angle_beta   90.00000000
_cell_angle_gamma   90.00000000
_symmetry_Int_Tables_number   1
_chemical_formula_structural   Sm3Y(B4Mo)4
_chemical_formula_sum   'Sm3 Y1 B16 Mo4'
_cell_volume   261.22180650
_cell_formula_units_Z   1
loop_
 _symmetry_equiv_pos_site_id
 _symmetry_equiv_pos_as_xyz
  1  'x, y, z'
loop_
 _atom_site_type_symbol
 _atom_site_label
 _atom_site_symmetry_multiplicity
 _atom_site_fract_x
 _atom_site_fract_y
 _atom_site_fract_z
 _atom_site_occupancy
  Sm  Sm0  1  0.000000  0.126458  0.150194  1
  Sm  Sm1  1  0.000000  0.873561  0.849455  1
  Sm  Sm2  1  0.000000  0.626284  0.350069  1
  Y  Y3  1  0.000000  0.373493  0.649758  1
  B  B4  1  0.500000  0.024943  0.692356  1
  B  B5  1  0.500000  0.976331  0.308165  1
  B  B6  1  0.500000  0.522742  0.806480  1
  B  B7  1  0.500000  0.476245  0.192180  1
  B  B8  1  0.500000  0.114323  0.547802  1
  B  B9  1  0.500000  0.887675  0.453847  1
  B  B10  1  0.500000  0.612440  0.952724  1
  B  B11  1  0.500000  0.387119  0.046498  1
  B  B12  1  0.500000  0.284597  0.315048  1
  B  B13  1  0.500000  0.713326  0.685162  1
  B  B14  1  0.500000  0.784657  0.185433  1
  B  B15  1  0.500000  0.215614  0.813532  1
  B  B16  1  0.500000  0.365478  0.469071  1
  B  B17  1  0.500000  0.634191  0.532720  1
  B  B18  1  0.500000  0.865033  0.031813  1
  B  B19  1  0.500000  0.135237  0.967636  1
  Mo  Mo20  1  0.000000  0.129162  0.417510  1
  Mo  Mo21  1  0.000000  0.871298  0.583628  1
  Mo  Mo22  1  0.000000  0.628657  0.082924  1
  Mo  Mo23  1  0.000000  0.371138  0.915995  1
