# generated using pymatgen
data_MnNi2Ag4PtO8
_symmetry_space_group_name_H-M   'P 1'
_cell_length_a   5.29723991
_cell_length_b   6.15772724
_cell_length_c   7.20440320
_cell_angle_alpha   64.62513298
_cell_angle_beta   104.07451487
_cell_angle_gamma   90.00322100
_symmetry_Int_Tables_number   1
_chemical_formula_structural   MnNi2Ag4PtO8
_chemical_formula_sum   'Mn1 Ni2 Ag4 Pt1 O8'
_cell_volume   204.49439506
_cell_formula_units_Z   1
loop_
 _symmetry_equiv_pos_site_id
 _symmetry_equiv_pos_as_xyz
  1  'x, y, z'
loop_
 _atom_site_type_symbol
 _atom_site_label
 _atom_site_symmetry_multiplicity
 _atom_site_fract_x
 _atom_site_fract_y
 _atom_site_fract_z
 _atom_site_occupancy
  Mn  Mn0  1  0.500059  0.745528  0.500036  1
  Ni  Ni1  1  0.500007  0.256841  0.500001  1
  Ni  Ni2  1  0.999927  0.496467  0.499987  1
  Ag  Ag3  1  0.004806  0.999720  0.998017  1
  Ag  Ag4  1  0.502023  0.252600  0.997786  1
  Ag  Ag5  1  0.995168  0.497799  0.001956  1
  Ag  Ag6  1  0.498015  0.750561  0.002234  1
  Pt  Pt7  1  0.999999  0.996867  0.499994  1
  O  O8  1  0.872777  0.670566  0.663121  1
  O  O9  1  0.389628  0.907930  0.661833  1
  O  O10  1  0.889504  0.161173  0.663017  1
  O  O11  1  0.396215  0.435913  0.662529  1
  O  O12  1  0.127234  0.834194  0.336851  1
  O  O13  1  0.610365  0.070254  0.338212  1
  O  O14  1  0.110472  0.324665  0.336990  1
  O  O15  1  0.603805  0.598923  0.337434  1
