# generated using pymatgen
data_TmLu2ThCdCo
_symmetry_space_group_name_H-M   'P 1'
_cell_length_a   9.44927823
_cell_length_b   9.44847071
_cell_length_c   9.44847007
_cell_angle_alpha   60.01016132
_cell_angle_beta   59.99658626
_cell_angle_gamma   59.99656819
_symmetry_Int_Tables_number   1
_chemical_formula_structural   TmLu2ThCdCo
_chemical_formula_sum   'Tm4 Lu8 Th4 Cd4 Co4'
_cell_volume   596.50971108
_cell_formula_units_Z   4
loop_
 _symmetry_equiv_pos_site_id
 _symmetry_equiv_pos_as_xyz
  1  'x, y, z'
loop_
 _atom_site_type_symbol
 _atom_site_label
 _atom_site_symmetry_multiplicity
 _atom_site_fract_x
 _atom_site_fract_y
 _atom_site_fract_z
 _atom_site_occupancy
  Tm  Tm0  1  0.564654  0.935370  0.564604  1
  Tm  Tm1  1  0.935349  0.564646  0.935350  1
  Tm  Tm2  1  0.564654  0.564604  0.935370  1
  Tm  Tm3  1  0.935349  0.935350  0.564646  1
  Lu  Lu4  1  0.814414  0.185577  0.185577  1
  Lu  Lu5  1  0.185567  0.814437  0.814437  1
  Lu  Lu6  1  0.185644  0.814354  0.185640  1
  Lu  Lu7  1  0.814355  0.185647  0.814366  1
  Lu  Lu8  1  0.185644  0.185640  0.814354  1
  Lu  Lu9  1  0.814355  0.814366  0.185647  1
  Lu  Lu10  1  0.935770  0.564232  0.564232  1
  Lu  Lu11  1  0.564230  0.935791  0.935791  1
  Th  Th12  1  0.346913  0.347125  0.347125  1
  Th  Th13  1  0.347110  0.346879  0.958870  1
  Th  Th14  1  0.347110  0.958870  0.346879  1
  Th  Th15  1  0.958874  0.347116  0.347116  1
  Cd  Cd16  1  0.582875  0.582441  0.582441  1
  Cd  Cd17  1  0.582484  0.582808  0.252282  1
  Cd  Cd18  1  0.582484  0.252282  0.582808  1
  Cd  Cd19  1  0.252241  0.582457  0.582457  1
  Co  Co20  1  0.143993  0.143541  0.143541  1
  Co  Co21  1  0.143523  0.144026  0.568909  1
  Co  Co22  1  0.143523  0.568909  0.144026  1
  Co  Co23  1  0.568884  0.143533  0.143533  1
