# generated using pymatgen
data_Li2ZrV2Ni9As7
_symmetry_space_group_name_H-M   'P 1'
_cell_length_a   9.39470326
_cell_length_b   9.43159074
_cell_length_c   3.73758500
_cell_angle_alpha   90.00000000
_cell_angle_beta   90.00000000
_cell_angle_gamma   120.02494135
_symmetry_Int_Tables_number   1
_chemical_formula_structural   Li2ZrV2Ni9As7
_chemical_formula_sum   'Li2 Zr1 V2 Ni9 As7'
_cell_volume   286.73487582
_cell_formula_units_Z   1
loop_
 _symmetry_equiv_pos_site_id
 _symmetry_equiv_pos_as_xyz
  1  'x, y, z'
loop_
 _atom_site_type_symbol
 _atom_site_label
 _atom_site_symmetry_multiplicity
 _atom_site_fract_x
 _atom_site_fract_y
 _atom_site_fract_z
 _atom_site_occupancy
  Li  Li0  1  0.786416  0.226759  0.500000  1
  Li  Li1  1  0.999310  0.000306  0.500000  1
  Zr  Zr2  1  0.330417  0.667294  0.000000  1
  V  V3  1  0.760121  0.549771  0.500000  1
  V  V4  1  0.449462  0.216891  0.500000  1
  Ni  Ni5  1  0.282541  0.382429  0.500000  1
  Ni  Ni6  1  0.618420  0.899537  0.500000  1
  Ni  Ni7  1  0.100872  0.719240  0.500000  1
  Ni  Ni8  1  0.502629  0.455663  0.000000  1
  Ni  Ni9  1  0.548903  0.050716  0.000000  1
  Ni  Ni10  1  0.951440  0.495315  0.000000  1
  Ni  Ni11  1  0.719494  0.762911  0.000000  1
  Ni  Ni12  1  0.237005  0.958069  0.000000  1
  Ni  Ni13  1  0.044200  0.279686  0.000000  1
  As  As14  1  0.959903  0.752142  0.000000  1
  As  As15  1  0.246433  0.206772  0.000000  1
  As  As16  1  0.793797  0.035064  0.000000  1
  As  As17  1  0.666877  0.334438  0.000000  1
  As  As18  1  0.542388  0.623625  0.500000  1
  As  As19  1  0.376994  0.923906  0.500000  1
  As  As20  1  0.082377  0.459466  0.500000  1
