# generated using pymatgen
data_CaCe5(TiAs5)2
_symmetry_space_group_name_H-M   'P 1'
_cell_length_a   8.74228400
_cell_length_b   8.74614277
_cell_length_c   5.84310900
_cell_angle_alpha   90.00000000
_cell_angle_beta   90.00000000
_cell_angle_gamma   119.98539885
_symmetry_Int_Tables_number   1
_chemical_formula_structural   CaCe5(TiAs5)2
_chemical_formula_sum   'Ca1 Ce5 Ti2 As10'
_cell_volume   386.97238301
_cell_formula_units_Z   1
loop_
 _symmetry_equiv_pos_site_id
 _symmetry_equiv_pos_as_xyz
  1  'x, y, z'
loop_
 _atom_site_type_symbol
 _atom_site_label
 _atom_site_symmetry_multiplicity
 _atom_site_fract_x
 _atom_site_fract_y
 _atom_site_fract_z
 _atom_site_occupancy
  Ca  Ca0  1  0.618886  0.000000  0.250000  1
  Ce  Ce1  1  0.385570  0.000000  0.750000  1
  Ce  Ce2  1  0.000858  0.618111  0.250000  1
  Ce  Ce3  1  0.997601  0.378084  0.750000  1
  Ce  Ce4  1  0.382747  0.381889  0.250000  1
  Ce  Ce5  1  0.619518  0.621916  0.750000  1
  Ti  Ti6  1  0.997193  0.000000  0.003207  1
  Ti  Ti7  1  0.997193  0.000000  0.496793  1
  As  As8  1  0.252063  0.000000  0.250000  1
  As  As9  1  0.749192  0.000000  0.750000  1
  As  As10  1  0.001782  0.255298  0.250000  1
  As  As11  1  0.001344  0.748317  0.750000  1
  As  As12  1  0.746484  0.744702  0.250000  1
  As  As13  1  0.253027  0.251683  0.750000  1
  As  As14  1  0.331804  0.665337  0.998875  1
  As  As15  1  0.666468  0.334663  0.998875  1
  As  As16  1  0.666468  0.334663  0.501125  1
  As  As17  1  0.331804  0.665337  0.501125  1
