# generated using pymatgen
data_Ho2Mn5Cr(Fe2P3)2
_symmetry_space_group_name_H-M   'P 1'
_cell_length_a   3.64380000
_cell_length_b   10.39109000
_cell_length_c   12.06045800
_cell_angle_alpha   90.00000000
_cell_angle_beta   90.00000000
_cell_angle_gamma   90.00000000
_symmetry_Int_Tables_number   1
_chemical_formula_structural   Ho2Mn5Cr(Fe2P3)2
_chemical_formula_sum   'Ho4 Mn10 Cr2 Fe8 P12'
_cell_volume   456.64576941
_cell_formula_units_Z   2
loop_
 _symmetry_equiv_pos_site_id
 _symmetry_equiv_pos_as_xyz
  1  'x, y, z'
loop_
 _atom_site_type_symbol
 _atom_site_label
 _atom_site_symmetry_multiplicity
 _atom_site_fract_x
 _atom_site_fract_y
 _atom_site_fract_z
 _atom_site_occupancy
  Ho  Ho0  1  0.250000  0.581614  0.709706  1
  Ho  Ho1  1  0.250000  0.918386  0.209706  1
  Ho  Ho2  1  0.750000  0.419457  0.290766  1
  Ho  Ho3  1  0.750000  0.080543  0.790766  1
  Mn  Mn4  1  0.750000  0.293876  0.011511  1
  Mn  Mn5  1  0.750000  0.206124  0.511511  1
  Mn  Mn6  1  0.250000  0.405889  0.492986  1
  Mn  Mn7  1  0.250000  0.094111  0.992986  1
  Mn  Mn8  1  0.750000  0.591044  0.507778  1
  Mn  Mn9  1  0.750000  0.908956  0.007778  1
  Mn  Mn10  1  0.250000  0.219794  0.172665  1
  Mn  Mn11  1  0.250000  0.280206  0.672665  1
  Mn  Mn12  1  0.750000  0.780847  0.824538  1
  Mn  Mn13  1  0.750000  0.719153  0.324538  1
  Cr  Cr14  1  0.250000  0.704914  0.988828  1
  Cr  Cr15  1  0.250000  0.795086  0.488828  1
  Fe  Fe16  1  0.250000  0.874006  0.699470  1
  Fe  Fe17  1  0.250000  0.625994  0.199470  1
  Fe  Fe18  1  0.750000  0.125885  0.301329  1
  Fe  Fe19  1  0.750000  0.374115  0.801329  1
  Fe  Fe20  1  0.250000  0.461055  0.934732  1
  Fe  Fe21  1  0.250000  0.038945  0.434732  1
  Fe  Fe22  1  0.750000  0.535492  0.065763  1
  Fe  Fe23  1  0.750000  0.964508  0.565763  1
  P  P24  1  0.250000  0.427333  0.113554  1
  P  P25  1  0.250000  0.072667  0.613554  1
  P  P26  1  0.750000  0.573587  0.887943  1
  P  P27  1  0.750000  0.926413  0.387943  1
  P  P28  1  0.250000  0.266320  0.866827  1
  P  P29  1  0.250000  0.233680  0.366827  1
  P  P30  1  0.750000  0.733054  0.129699  1
  P  P31  1  0.750000  0.766946  0.629699  1
  P  P32  1  0.250000  0.596389  0.387187  1
  P  P33  1  0.250000  0.903611  0.887187  1
  P  P34  1  0.750000  0.404158  0.614720  1
  P  P35  1  0.750000  0.095842  0.114720  1
