# generated using pymatgen
data_Sm3Gd3(RuI3)2
_symmetry_space_group_name_H-M   'P 1'
_cell_length_a   4.26559900
_cell_length_b   8.97380741
_cell_length_c   12.41563800
_cell_angle_alpha   86.25617506
_cell_angle_beta   90.00000000
_cell_angle_gamma   90.00000000
_symmetry_Int_Tables_number   1
_chemical_formula_structural   Sm3Gd3(RuI3)2
_chemical_formula_sum   'Sm3 Gd3 Ru2 I6'
_cell_volume   474.23982602
_cell_formula_units_Z   1
loop_
 _symmetry_equiv_pos_site_id
 _symmetry_equiv_pos_as_xyz
  1  'x, y, z'
loop_
 _atom_site_type_symbol
 _atom_site_label
 _atom_site_symmetry_multiplicity
 _atom_site_fract_x
 _atom_site_fract_y
 _atom_site_fract_z
 _atom_site_occupancy
  Sm  Sm0  1  0.250000  0.902641  0.318382  1
  Sm  Sm1  1  0.250000  0.269756  0.897671  1
  Sm  Sm2  1  0.750000  0.730983  0.101621  1
  Gd  Gd3  1  0.750000  0.129216  0.123900  1
  Gd  Gd4  1  0.250000  0.871411  0.875884  1
  Gd  Gd5  1  0.750000  0.097176  0.683441  1
  Ru  Ru6  1  0.750000  0.056082  0.906429  1
  Ru  Ru7  1  0.250000  0.943937  0.093980  1
  I  I8  1  0.250000  0.350149  0.636617  1
  I  I9  1  0.750000  0.645911  0.362449  1
  I  I10  1  0.750000  0.147152  0.392228  1
  I  I11  1  0.250000  0.856216  0.608462  1
  I  I12  1  0.250000  0.423937  0.134341  1
  I  I13  1  0.750000  0.575433  0.864596  1
