# generated using pymatgen
data_Yb(P3Os)4
_symmetry_space_group_name_H-M   'P 1'
_cell_length_a   7.02355485
_cell_length_b   7.02355549
_cell_length_c   7.02355500
_cell_angle_alpha   109.47121922
_cell_angle_beta   109.47122106
_cell_angle_gamma   109.47122244
_symmetry_Int_Tables_number   1
_chemical_formula_structural   Yb(P3Os)4
_chemical_formula_sum   'Yb1 P12 Os4'
_cell_volume   266.71601197
_cell_formula_units_Z   1
loop_
 _symmetry_equiv_pos_site_id
 _symmetry_equiv_pos_as_xyz
  1  'x, y, z'
loop_
 _atom_site_type_symbol
 _atom_site_label
 _atom_site_symmetry_multiplicity
 _atom_site_fract_x
 _atom_site_fract_y
 _atom_site_fract_z
 _atom_site_occupancy
  Yb  Yb0  1  0.000000  0.000000  0.000000  1
  P  P1  1  0.858009  0.642139  0.500148  1
  P  P2  1  0.141991  0.357861  0.499852  1
  P  P3  1  0.141991  0.642139  0.784131  1
  P  P4  1  0.858009  0.357861  0.215869  1
  P  P5  1  0.642139  0.500148  0.858009  1
  P  P6  1  0.357861  0.499852  0.141991  1
  P  P7  1  0.642139  0.784131  0.141991  1
  P  P8  1  0.357861  0.215869  0.858009  1
  P  P9  1  0.500148  0.858009  0.642139  1
  P  P10  1  0.499852  0.141991  0.357861  1
  P  P11  1  0.784131  0.141991  0.642139  1
  P  P12  1  0.215869  0.858009  0.357861  1
  Os  Os13  1  0.500000  0.500000  0.500000  1
  Os  Os14  1  0.500000  0.000000  0.000000  1
  Os  Os15  1  0.000000  0.500000  0.000000  1
  Os  Os16  1  0.000000  0.000000  0.500000  1
