# generated using pymatgen
data_Y5Ho15(GaBi2)4
_symmetry_space_group_name_H-M   'P 1'
_cell_length_a   8.08166517
_cell_length_b   9.30710406
_cell_length_c   12.03236528
_cell_angle_alpha   90.01156522
_cell_angle_beta   90.02197884
_cell_angle_gamma   89.99312774
_symmetry_Int_Tables_number   1
_chemical_formula_structural   Y5Ho15(GaBi2)4
_chemical_formula_sum   'Y5 Ho15 Ga4 Bi8'
_cell_volume   905.03710888
_cell_formula_units_Z   1
loop_
 _symmetry_equiv_pos_site_id
 _symmetry_equiv_pos_as_xyz
  1  'x, y, z'
loop_
 _atom_site_type_symbol
 _atom_site_label
 _atom_site_symmetry_multiplicity
 _atom_site_fract_x
 _atom_site_fract_y
 _atom_site_fract_z
 _atom_site_occupancy
  Y  Y0  1  0.818597  0.552664  0.062748  1
  Y  Y1  1  0.173500  0.750204  0.216379  1
  Y  Y2  1  0.326796  0.750054  0.715925  1
  Y  Y3  1  0.826467  0.250062  0.783795  1
  Y  Y4  1  0.673119  0.249946  0.284103  1
  Ho  Ho5  1  0.680415  0.946388  0.562374  1
  Ho  Ho6  1  0.180498  0.053748  0.937420  1
  Ho  Ho7  1  0.319646  0.446408  0.437722  1
  Ho  Ho8  1  0.180952  0.446352  0.937286  1
  Ho  Ho9  1  0.319642  0.053631  0.437663  1
  Ho  Ho10  1  0.819711  0.946265  0.062412  1
  Ho  Ho11  1  0.680433  0.553609  0.562350  1
  Ho  Ho12  1  0.462908  0.750389  0.003149  1
  Ho  Ho13  1  0.036390  0.750056  0.503197  1
  Ho  Ho14  1  0.536427  0.249720  0.996769  1
  Ho  Ho15  1  0.963559  0.250038  0.496818  1
  Ho  Ho16  1  0.645099  0.750334  0.294844  1
  Ho  Ho17  1  0.854979  0.750187  0.794189  1
  Ho  Ho18  1  0.354828  0.250007  0.705405  1
  Ho  Ho19  1  0.145114  0.250093  0.205611  1
  Ga  Ga20  1  0.405836  0.750016  0.474311  1
  Ga  Ga21  1  0.094273  0.750175  0.973930  1
  Ga  Ga22  1  0.594016  0.249974  0.525935  1
  Ga  Ga23  1  0.906571  0.249114  0.025455  1
  Bi  Bi24  1  0.937732  0.509643  0.325306  1
  Bi  Bi25  1  0.562550  0.990368  0.824775  1
  Bi  Bi26  1  0.062578  0.009707  0.674936  1
  Bi  Bi27  1  0.437116  0.490486  0.175209  1
  Bi  Bi28  1  0.062587  0.490406  0.674985  1
  Bi  Bi29  1  0.437483  0.009700  0.175178  1
  Bi  Bi30  1  0.937586  0.990529  0.325003  1
  Bi  Bi31  1  0.562592  0.509726  0.824818  1
