# generated using pymatgen
data_La4TbTh2Ir3
_symmetry_space_group_name_H-M   'P 1'
_cell_length_a   6.43173597
_cell_length_b   10.17592756
_cell_length_c   10.17592629
_cell_angle_alpha   120.89683274
_cell_angle_beta   90.30154794
_cell_angle_gamma   89.69844417
_symmetry_Int_Tables_number   1
_chemical_formula_structural   La4TbTh2Ir3
_chemical_formula_sum   'La8 Tb2 Th4 Ir6'
_cell_volume   571.48222313
_cell_formula_units_Z   2
loop_
 _symmetry_equiv_pos_site_id
 _symmetry_equiv_pos_as_xyz
  1  'x, y, z'
loop_
 _atom_site_type_symbol
 _atom_site_label
 _atom_site_symmetry_multiplicity
 _atom_site_fract_x
 _atom_site_fract_y
 _atom_site_fract_z
 _atom_site_occupancy
  La  La0  1  0.741093  0.252845  0.126389  1
  La  La1  1  0.741093  0.873611  0.747155  1
  La  La2  1  0.438859  0.536551  0.463449  1
  La  La3  1  0.441811  0.926157  0.461590  1
  La  La4  1  0.441811  0.538410  0.073843  1
  La  La5  1  0.938262  0.460705  0.539295  1
  La  La6  1  0.939648  0.078053  0.539271  1
  La  La7  1  0.939648  0.460729  0.921947  1
  Tb  Tb8  1  0.465343  0.333825  0.666175  1
  Tb  Tb9  1  0.976536  0.667404  0.332596  1
  Th  Th10  1  0.248579  0.127219  0.872781  1
  Th  Th11  1  0.245678  0.746598  0.873060  1
  Th  Th12  1  0.245678  0.126940  0.253402  1
  Th  Th13  1  0.743936  0.872281  0.127719  1
  Ir  Ir14  1  0.192390  0.818317  0.181683  1
  Ir  Ir15  1  0.202393  0.364393  0.181546  1
  Ir  Ir16  1  0.202393  0.818454  0.635607  1
  Ir  Ir17  1  0.679595  0.188260  0.811740  1
  Ir  Ir18  1  0.688627  0.631668  0.822424  1
  Ir  Ir19  1  0.688627  0.177576  0.368332  1
