# generated using pymatgen
data_Dy6Y9Th(AlNi)4
_symmetry_space_group_name_H-M   'P 1'
_cell_length_a   9.50544182
_cell_length_b   9.49828260
_cell_length_c   9.51535953
_cell_angle_alpha   59.79208721
_cell_angle_beta   59.97897855
_cell_angle_gamma   60.06348954
_symmetry_Int_Tables_number   1
_chemical_formula_structural   Dy6Y9Th(AlNi)4
_chemical_formula_sum   'Dy6 Y9 Th1 Al4 Ni4'
_cell_volume   606.70691511
_cell_formula_units_Z   1
loop_
 _symmetry_equiv_pos_site_id
 _symmetry_equiv_pos_as_xyz
  1  'x, y, z'
loop_
 _atom_site_type_symbol
 _atom_site_label
 _atom_site_symmetry_multiplicity
 _atom_site_fract_x
 _atom_site_fract_y
 _atom_site_fract_z
 _atom_site_occupancy
  Dy  Dy0  1  0.598947  0.600455  0.195975  1
  Dy  Dy1  1  0.599037  0.196086  0.600024  1
  Dy  Dy2  1  0.196991  0.598628  0.599224  1
  Dy  Dy3  1  0.060112  0.441454  0.441507  1
  Dy  Dy4  1  0.443724  0.058581  0.058581  1
  Dy  Dy5  1  0.440818  0.060410  0.441650  1
  Y  Y6  1  0.058125  0.444938  0.057967  1
  Y  Y7  1  0.442246  0.441067  0.059778  1
  Y  Y8  1  0.057888  0.058165  0.444745  1
  Y  Y9  1  0.186654  0.813167  0.812893  1
  Y  Y10  1  0.813067  0.187102  0.187424  1
  Y  Y11  1  0.812991  0.186040  0.813562  1
  Y  Y12  1  0.186805  0.813675  0.186785  1
  Y  Y13  1  0.812618  0.813761  0.186596  1
  Y  Y14  1  0.187220  0.186751  0.813405  1
  Th  Th15  1  0.597582  0.597226  0.596286  1
  Al  Al16  1  0.830115  0.829118  0.829130  1
  Al  Al17  1  0.828017  0.827680  0.518232  1
  Al  Al18  1  0.827773  0.518416  0.827705  1
  Al  Al19  1  0.517946  0.827328  0.827613  1
  Ni  Ni20  1  0.392088  0.392758  0.395099  1
  Ni  Ni21  1  0.394445  0.391736  0.819844  1
  Ni  Ni22  1  0.395121  0.820626  0.391689  1
  Ni  Ni23  1  0.819668  0.394836  0.394289  1
