# generated using pymatgen
data_YbTm3(TcB4)4
_symmetry_space_group_name_H-M   'P 1'
_cell_length_a   3.57380500
_cell_length_b   5.93796209
_cell_length_c   11.48484362
_cell_angle_alpha   90.02926748
_cell_angle_beta   90.00000000
_cell_angle_gamma   90.00000000
_symmetry_Int_Tables_number   1
_chemical_formula_structural   YbTm3(TcB4)4
_chemical_formula_sum   'Yb1 Tm3 Tc4 B16'
_cell_volume   243.72119701
_cell_formula_units_Z   1
loop_
 _symmetry_equiv_pos_site_id
 _symmetry_equiv_pos_as_xyz
  1  'x, y, z'
loop_
 _atom_site_type_symbol
 _atom_site_label
 _atom_site_symmetry_multiplicity
 _atom_site_fract_x
 _atom_site_fract_y
 _atom_site_fract_z
 _atom_site_occupancy
  Yb  Yb0  1  0.500000  0.128613  0.150061  1
  Tm  Tm1  1  0.500000  0.872463  0.850363  1
  Tm  Tm2  1  0.500000  0.628929  0.349171  1
  Tm  Tm3  1  0.500000  0.371493  0.650076  1
  Tc  Tc4  1  0.500000  0.134910  0.414164  1
  Tc  Tc5  1  0.500000  0.866030  0.587440  1
  Tc  Tc6  1  0.500000  0.632343  0.084944  1
  Tc  Tc7  1  0.500000  0.368228  0.913244  1
  B  B8  1  0.000000  0.479324  0.192919  1
  B  B9  1  0.000000  0.521103  0.806555  1
  B  B10  1  0.000000  0.977503  0.307112  1
  B  B11  1  0.000000  0.021749  0.693505  1
  B  B12  1  0.000000  0.288045  0.314809  1
  B  B13  1  0.000000  0.711060  0.685619  1
  B  B14  1  0.000000  0.787804  0.185063  1
  B  B15  1  0.000000  0.210547  0.815024  1
  B  B16  1  0.000000  0.365459  0.469026  1
  B  B17  1  0.000000  0.634829  0.531450  1
  B  B18  1  0.000000  0.865470  0.031372  1
  B  B19  1  0.000000  0.134552  0.967974  1
  B  B20  1  0.000000  0.385620  0.047489  1
  B  B21  1  0.000000  0.613820  0.952098  1
  B  B22  1  0.000000  0.886202  0.452392  1
  B  B23  1  0.000000  0.113901  0.548131  1
