# generated using pymatgen
data_Yb3TmMgRu
_symmetry_space_group_name_H-M   'P 1'
_cell_length_a   9.88927939
_cell_length_b   9.88927939
_cell_length_c   9.88928000
_cell_angle_alpha   59.99999797
_cell_angle_beta   59.99999796
_cell_angle_gamma   60.00000444
_symmetry_Int_Tables_number   1
_chemical_formula_structural   Yb3TmMgRu
_chemical_formula_sum   'Yb12 Tm4 Mg4 Ru4'
_cell_volume   683.87853113
_cell_formula_units_Z   4
loop_
 _symmetry_equiv_pos_site_id
 _symmetry_equiv_pos_as_xyz
  1  'x, y, z'
loop_
 _atom_site_type_symbol
 _atom_site_label
 _atom_site_symmetry_multiplicity
 _atom_site_fract_x
 _atom_site_fract_y
 _atom_site_fract_z
 _atom_site_occupancy
  Yb  Yb0  1  0.954170  0.545830  0.545830  1
  Yb  Yb1  1  0.545830  0.954170  0.954170  1
  Yb  Yb2  1  0.545830  0.954170  0.545830  1
  Yb  Yb3  1  0.954170  0.545830  0.954170  1
  Yb  Yb4  1  0.545830  0.545830  0.954170  1
  Yb  Yb5  1  0.954170  0.954170  0.545830  1
  Yb  Yb6  1  0.807942  0.192058  0.192058  1
  Yb  Yb7  1  0.192058  0.807942  0.807942  1
  Yb  Yb8  1  0.192058  0.807942  0.192058  1
  Yb  Yb9  1  0.807942  0.192058  0.807942  1
  Yb  Yb10  1  0.192058  0.192058  0.807942  1
  Yb  Yb11  1  0.807942  0.807942  0.192058  1
  Tm  Tm12  1  0.337299  0.337299  0.337299  1
  Tm  Tm13  1  0.337299  0.337299  0.988102  1
  Tm  Tm14  1  0.337299  0.988102  0.337299  1
  Tm  Tm15  1  0.988102  0.337299  0.337299  1
  Mg  Mg16  1  0.577650  0.577650  0.577650  1
  Mg  Mg17  1  0.577650  0.577650  0.267050  1
  Mg  Mg18  1  0.577650  0.267050  0.577650  1
  Mg  Mg19  1  0.267050  0.577650  0.577650  1
  Ru  Ru20  1  0.139585  0.139585  0.139585  1
  Ru  Ru21  1  0.139585  0.139585  0.581244  1
  Ru  Ru22  1  0.139585  0.581244  0.139585  1
  Ru  Ru23  1  0.581244  0.139585  0.139585  1
