# generated using pymatgen
data_Mo2RhBr12
_symmetry_space_group_name_H-M   'P 1'
_cell_length_a   9.23539728
_cell_length_b   9.23539799
_cell_length_c   7.08777059
_cell_angle_alpha   69.00854581
_cell_angle_beta   69.00855217
_cell_angle_gamma   81.94000623
_symmetry_Int_Tables_number   1
_chemical_formula_structural   Mo2RhBr12
_chemical_formula_sum   'Mo2 Rh1 Br12'
_cell_volume   526.90668701
_cell_formula_units_Z   1
loop_
 _symmetry_equiv_pos_site_id
 _symmetry_equiv_pos_as_xyz
  1  'x, y, z'
loop_
 _atom_site_type_symbol
 _atom_site_label
 _atom_site_symmetry_multiplicity
 _atom_site_fract_x
 _atom_site_fract_y
 _atom_site_fract_z
 _atom_site_occupancy
  Mo  Mo0  1  0.272119  0.272119  0.732062  1
  Mo  Mo1  1  0.727881  0.727881  0.267938  1
  Rh  Rh2  1  0.000000  0.000000  0.000000  1
  Br  Br3  1  0.981328  0.264134  0.739534  1
  Br  Br4  1  0.264134  0.981328  0.739534  1
  Br  Br5  1  0.018672  0.735866  0.260466  1
  Br  Br6  1  0.735866  0.018672  0.260466  1
  Br  Br7  1  0.226234  0.524981  0.775036  1
  Br  Br8  1  0.524981  0.226234  0.775036  1
  Br  Br9  1  0.773766  0.475019  0.224964  1
  Br  Br10  1  0.475019  0.773766  0.224964  1
  Br  Br11  1  0.130934  0.130934  0.149105  1
  Br  Br12  1  0.869066  0.869066  0.850895  1
  Br  Br13  1  0.634084  0.634084  0.657067  1
  Br  Br14  1  0.365916  0.365916  0.342933  1
