# generated using pymatgen
data_Tb11Pr8NdPb16
_symmetry_space_group_name_H-M   'P 1'
_cell_length_a   8.30792370
_cell_length_b   8.39768824
_cell_length_c   15.88070100
_cell_angle_alpha   89.92194028
_cell_angle_beta   90.05407564
_cell_angle_gamma   89.72690134
_symmetry_Int_Tables_number   1
_chemical_formula_structural   Tb11Pr8NdPb16
_chemical_formula_sum   'Tb11 Pr8 Nd1 Pb16'
_cell_volume   1107.94036054
_cell_formula_units_Z   1
loop_
 _symmetry_equiv_pos_site_id
 _symmetry_equiv_pos_as_xyz
  1  'x, y, z'
loop_
 _atom_site_type_symbol
 _atom_site_label
 _atom_site_symmetry_multiplicity
 _atom_site_fract_x
 _atom_site_fract_y
 _atom_site_fract_z
 _atom_site_occupancy
  Tb  Tb0  1  0.138432  0.341513  0.878563  1
  Tb  Tb1  1  0.360883  0.840859  0.122786  1
  Tb  Tb2  1  0.862809  0.658529  0.375161  1
  Tb  Tb3  1  0.361034  0.841427  0.377263  1
  Tb  Tb4  1  0.860895  0.658287  0.122641  1
  Tb  Tb5  1  0.639352  0.158687  0.877664  1
  Tb  Tb6  1  0.139390  0.340616  0.623699  1
  Tb  Tb7  1  0.806069  0.496217  0.750633  1
  Tb  Tb8  1  0.304927  0.004921  0.750861  1
  Tb  Tb9  1  0.195058  0.504015  0.249983  1
  Tb  Tb10  1  0.694662  0.995048  0.249032  1
  Pr  Pr11  1  0.479287  0.678000  0.597166  1
  Pr  Pr12  1  0.980225  0.821220  0.903662  1
  Pr  Pr13  1  0.520589  0.322017  0.097112  1
  Pr  Pr14  1  0.019962  0.177443  0.402247  1
  Pr  Pr15  1  0.521591  0.322612  0.401265  1
  Pr  Pr16  1  0.020897  0.177749  0.096852  1
  Pr  Pr17  1  0.479416  0.678253  0.904581  1
  Pr  Pr18  1  0.978649  0.821035  0.597464  1
  Nd  Nd19  1  0.636981  0.160495  0.620567  1
  Pb  Pb20  1  0.702684  0.956539  0.454009  1
  Pb  Pb21  1  0.201774  0.541026  0.043738  1
  Pb  Pb22  1  0.299058  0.040653  0.957018  1
  Pb  Pb23  1  0.801747  0.464288  0.542203  1
  Pb  Pb24  1  0.290954  0.038335  0.542793  1
  Pb  Pb25  1  0.797829  0.458985  0.957183  1
  Pb  Pb26  1  0.701832  0.959148  0.043030  1
  Pb  Pb27  1  0.202352  0.540136  0.457052  1
  Pb  Pb28  1  0.442262  0.375114  0.751846  1
  Pb  Pb29  1  0.944592  0.128245  0.752016  1
  Pb  Pb30  1  0.555856  0.628069  0.249759  1
  Pb  Pb31  1  0.056811  0.872468  0.249023  1
  Pb  Pb32  1  0.669568  0.848108  0.751541  1
  Pb  Pb33  1  0.170480  0.650280  0.750718  1
  Pb  Pb34  1  0.330793  0.150353  0.249613  1
  Pb  Pb35  1  0.830301  0.349310  0.249254  1
