# generated using pymatgen
data_ZnSn4(BIr3)2
_symmetry_space_group_name_H-M   'P 1'
_cell_length_a   6.63449439
_cell_length_b   6.60331205
_cell_length_c   5.63132200
_cell_angle_alpha   90.00000000
_cell_angle_beta   90.00000000
_cell_angle_gamma   119.84464577
_symmetry_Int_Tables_number   1
_chemical_formula_structural   ZnSn4(BIr3)2
_chemical_formula_sum   'Zn1 Sn4 B2 Ir6'
_cell_volume   213.98749058
_cell_formula_units_Z   1
loop_
 _symmetry_equiv_pos_site_id
 _symmetry_equiv_pos_as_xyz
  1  'x, y, z'
loop_
 _atom_site_type_symbol
 _atom_site_label
 _atom_site_symmetry_multiplicity
 _atom_site_fract_x
 _atom_site_fract_y
 _atom_site_fract_z
 _atom_site_occupancy
  Zn  Zn0  1  0.000000  0.595411  0.000000  1
  Sn  Sn1  1  0.671757  0.337871  0.500000  1
  Sn  Sn2  1  0.400199  0.406547  0.000000  1
  Sn  Sn3  1  0.599801  0.006348  0.000000  1
  Sn  Sn4  1  0.328243  0.666115  0.500000  1
  B  B5  1  0.000000  0.002047  0.500000  1
  B  B6  1  0.000000  0.988568  0.000000  1
  Ir  Ir7  1  0.000000  0.255996  0.744789  1
  Ir  Ir8  1  0.000000  0.255996  0.255211  1
  Ir  Ir9  1  0.744472  0.743511  0.255727  1
  Ir  Ir10  1  0.255528  0.999039  0.744273  1
  Ir  Ir11  1  0.255528  0.999039  0.255727  1
  Ir  Ir12  1  0.744472  0.743511  0.744273  1
