# generated using pymatgen
data_ErLu4(Hg2Pt)2
_symmetry_space_group_name_H-M   'P 1'
_cell_length_a   3.54997600
_cell_length_b   7.89728400
_cell_length_c   18.07385400
_cell_angle_alpha   90.00000000
_cell_angle_beta   90.00000000
_cell_angle_gamma   90.00000000
_symmetry_Int_Tables_number   1
_chemical_formula_structural   ErLu4(Hg2Pt)2
_chemical_formula_sum   'Er2 Lu8 Hg8 Pt4'
_cell_volume   506.70354532
_cell_formula_units_Z   2
loop_
 _symmetry_equiv_pos_site_id
 _symmetry_equiv_pos_as_xyz
  1  'x, y, z'
loop_
 _atom_site_type_symbol
 _atom_site_label
 _atom_site_symmetry_multiplicity
 _atom_site_fract_x
 _atom_site_fract_y
 _atom_site_fract_z
 _atom_site_occupancy
  Er  Er0  1  0.000000  0.000000  0.000000  1
  Er  Er1  1  0.000000  0.500000  0.500000  1
  Lu  Lu2  1  0.000000  0.113283  0.413957  1
  Lu  Lu3  1  0.000000  0.886717  0.586043  1
  Lu  Lu4  1  0.000000  0.386717  0.913957  1
  Lu  Lu5  1  0.000000  0.613283  0.086043  1
  Lu  Lu6  1  0.000000  0.242047  0.216378  1
  Lu  Lu7  1  0.000000  0.757953  0.783622  1
  Lu  Lu8  1  0.000000  0.257953  0.716378  1
  Lu  Lu9  1  0.000000  0.742047  0.283622  1
  Hg  Hg10  1  0.500000  0.422776  0.354585  1
  Hg  Hg11  1  0.500000  0.577224  0.645415  1
  Hg  Hg12  1  0.500000  0.077224  0.854585  1
  Hg  Hg13  1  0.500000  0.922776  0.145415  1
  Hg  Hg14  1  0.500000  0.290359  0.062128  1
  Hg  Hg15  1  0.500000  0.709641  0.937872  1
  Hg  Hg16  1  0.500000  0.209641  0.562128  1
  Hg  Hg17  1  0.500000  0.790359  0.437872  1
  Pt  Pt18  1  0.500000  0.028710  0.302576  1
  Pt  Pt19  1  0.500000  0.971290  0.697424  1
  Pt  Pt20  1  0.500000  0.471290  0.802576  1
  Pt  Pt21  1  0.500000  0.528710  0.197424  1
