# generated using pymatgen
data_Rb6DyErF12
_symmetry_space_group_name_H-M   'P 1'
_cell_length_a   6.86060616
_cell_length_b   6.61940869
_cell_length_c   11.50132000
_cell_angle_alpha   55.24975911
_cell_angle_beta   90.01154210
_cell_angle_gamma   89.99962165
_symmetry_Int_Tables_number   1
_chemical_formula_structural   Rb6DyErF12
_chemical_formula_sum   'Rb6 Dy1 Er1 F12'
_cell_volume   429.15416575
_cell_formula_units_Z   1
loop_
 _symmetry_equiv_pos_site_id
 _symmetry_equiv_pos_as_xyz
  1  'x, y, z'
loop_
 _atom_site_type_symbol
 _atom_site_label
 _atom_site_symmetry_multiplicity
 _atom_site_fract_x
 _atom_site_fract_y
 _atom_site_fract_z
 _atom_site_occupancy
  Rb  Rb0  1  0.500000  0.500000  0.000000  1
  Rb  Rb1  1  0.000000  0.500000  0.500000  1
  Rb  Rb2  1  0.050123  0.733297  0.753290  1
  Rb  Rb3  1  0.949877  0.266703  0.246710  1
  Rb  Rb4  1  0.550079  0.266431  0.747264  1
  Rb  Rb5  1  0.449921  0.733569  0.252736  1
  Dy  Dy6  1  0.000000  0.000000  0.000000  1
  Er  Er7  1  0.500000  0.000000  0.500000  1
  F  F8  1  0.762191  0.774582  0.564491  1
  F  F9  1  0.237809  0.225418  0.435509  1
  F  F10  1  0.264244  0.227650  0.935722  1
  F  F11  1  0.735756  0.772350  0.064278  1
  F  F12  1  0.449496  0.888729  0.715579  1
  F  F13  1  0.550504  0.111271  0.284421  1
  F  F14  1  0.949461  0.112672  0.782394  1
  F  F15  1  0.050539  0.887328  0.217606  1
  F  F16  1  0.330726  0.684656  0.546891  1
  F  F17  1  0.669274  0.315344  0.453109  1
  F  F18  1  0.828342  0.317205  0.953302  1
  F  F19  1  0.171658  0.682795  0.046698  1
