# generated using pymatgen
data_TbTi2Zn3Au
_symmetry_space_group_name_H-M   'P 1'
_cell_length_a   5.57873171
_cell_length_b   5.57873182
_cell_length_c   5.55759576
_cell_angle_alpha   101.41968669
_cell_angle_beta   101.41968808
_cell_angle_gamma   127.26568623
_symmetry_Int_Tables_number   1
_chemical_formula_structural   TbTi2Zn3Au
_chemical_formula_sum   'Tb1 Ti2 Zn3 Au1'
_cell_volume   123.21581096
_cell_formula_units_Z   1
loop_
 _symmetry_equiv_pos_site_id
 _symmetry_equiv_pos_as_xyz
  1  'x, y, z'
loop_
 _atom_site_type_symbol
 _atom_site_label
 _atom_site_symmetry_multiplicity
 _atom_site_fract_x
 _atom_site_fract_y
 _atom_site_fract_z
 _atom_site_occupancy
  Tb  Tb0  1  0.998370  0.998370  0.996741  1
  Ti  Ti1  1  0.248667  0.748667  0.497334  1
  Ti  Ti2  1  0.748667  0.248667  0.497334  1
  Zn  Zn3  1  0.691258  0.691258  0.382516  1
  Zn  Zn4  1  0.696266  0.306985  0.003250  1
  Zn  Zn5  1  0.306985  0.696266  0.003250  1
  Au  Au6  1  0.309788  0.309788  0.619575  1
