# generated using pymatgen
data_Er3Tm2FeBi2
_symmetry_space_group_name_H-M   'P 1'
_cell_length_a   7.86224700
_cell_length_b   8.86799200
_cell_length_c   12.33245100
_cell_angle_alpha   90.00000000
_cell_angle_beta   90.00000000
_cell_angle_gamma   90.00000000
_symmetry_Int_Tables_number   1
_chemical_formula_structural   Er3Tm2FeBi2
_chemical_formula_sum   'Er12 Tm8 Fe4 Bi8'
_cell_volume   859.84738479
_cell_formula_units_Z   4
loop_
 _symmetry_equiv_pos_site_id
 _symmetry_equiv_pos_as_xyz
  1  'x, y, z'
loop_
 _atom_site_type_symbol
 _atom_site_label
 _atom_site_symmetry_multiplicity
 _atom_site_fract_x
 _atom_site_fract_y
 _atom_site_fract_z
 _atom_site_occupancy
  Er  Er0  1  0.847351  0.750000  0.799967  1
  Er  Er1  1  0.152649  0.250000  0.200033  1
  Er  Er2  1  0.347351  0.250000  0.700033  1
  Er  Er3  1  0.652649  0.750000  0.299967  1
  Er  Er4  1  0.381438  0.750000  0.685224  1
  Er  Er5  1  0.618562  0.250000  0.314776  1
  Er  Er6  1  0.881438  0.250000  0.814776  1
  Er  Er7  1  0.118562  0.750000  0.185224  1
  Er  Er8  1  0.945096  0.750000  0.505576  1
  Er  Er9  1  0.054904  0.250000  0.494424  1
  Er  Er10  1  0.445096  0.250000  0.994424  1
  Er  Er11  1  0.554904  0.750000  0.005576  1
  Tm  Tm12  1  0.672833  0.034961  0.562955  1
  Tm  Tm13  1  0.327167  0.965039  0.437045  1
  Tm  Tm14  1  0.172833  0.965039  0.937045  1
  Tm  Tm15  1  0.327167  0.534961  0.437045  1
  Tm  Tm16  1  0.827167  0.034961  0.062955  1
  Tm  Tm17  1  0.672833  0.465039  0.562955  1
  Tm  Tm18  1  0.827167  0.465039  0.062955  1
  Tm  Tm19  1  0.172833  0.534961  0.937045  1
  Fe  Fe20  1  0.566944  0.750000  0.507639  1
  Fe  Fe21  1  0.433056  0.250000  0.492361  1
  Fe  Fe22  1  0.066944  0.250000  0.992361  1
  Fe  Fe23  1  0.933056  0.750000  0.007639  1
  Bi  Bi24  1  0.567323  0.494086  0.826438  1
  Bi  Bi25  1  0.432677  0.505914  0.173562  1
  Bi  Bi26  1  0.067323  0.505914  0.673562  1
  Bi  Bi27  1  0.432677  0.994086  0.173562  1
  Bi  Bi28  1  0.932677  0.494086  0.326438  1
  Bi  Bi29  1  0.567323  0.005914  0.826438  1
  Bi  Bi30  1  0.932677  0.005914  0.326438  1
  Bi  Bi31  1  0.067323  0.994086  0.673562  1
