# generated using pymatgen
data_LaTb5(SbO7)2
_symmetry_space_group_name_H-M   'P 1'
_cell_length_a   6.53565260
_cell_length_b   6.53565253
_cell_length_c   7.61444133
_cell_angle_alpha   89.97237178
_cell_angle_beta   90.02763234
_cell_angle_gamma   109.13986935
_symmetry_Int_Tables_number   1
_chemical_formula_structural   LaTb5(SbO7)2
_chemical_formula_sum   'La1 Tb5 Sb2 O14'
_cell_volume   307.26949514
_cell_formula_units_Z   1
loop_
 _symmetry_equiv_pos_site_id
 _symmetry_equiv_pos_as_xyz
  1  'x, y, z'
loop_
 _atom_site_type_symbol
 _atom_site_label
 _atom_site_symmetry_multiplicity
 _atom_site_fract_x
 _atom_site_fract_y
 _atom_site_fract_z
 _atom_site_occupancy
  La  La0  1  0.500000  0.500000  0.500000  1
  Tb  Tb1  1  0.500000  0.500000  0.000000  1
  Tb  Tb2  1  0.531386  0.000400  0.752721  1
  Tb  Tb3  1  0.000400  0.531386  0.247279  1
  Tb  Tb4  1  0.468614  0.999600  0.247279  1
  Tb  Tb5  1  0.999600  0.468614  0.752721  1
  Sb  Sb6  1  0.000000  0.000000  0.500000  1
  Sb  Sb7  1  0.000000  0.000000  0.000000  1
  O  O8  1  0.680777  0.934476  0.469949  1
  O  O9  1  0.934476  0.680777  0.530051  1
  O  O10  1  0.680284  0.928407  0.029499  1
  O  O11  1  0.928407  0.680284  0.970501  1
  O  O12  1  0.319223  0.065524  0.530051  1
  O  O13  1  0.065524  0.319223  0.469949  1
  O  O14  1  0.319716  0.071593  0.970501  1
  O  O15  1  0.071593  0.319716  0.029499  1
  O  O16  1  0.931408  0.068592  0.749834  1
  O  O17  1  0.068592  0.931408  0.250166  1
  O  O18  1  0.366402  0.633598  0.760548  1
  O  O19  1  0.633598  0.366402  0.239452  1
  O  O20  1  0.639822  0.360178  0.758760  1
  O  O21  1  0.360178  0.639822  0.241240  1
