# generated using pymatgen
data_PrTh3Al13Ga5Ir6
_symmetry_space_group_name_H-M   'P 1'
_cell_length_a   7.64743192
_cell_length_b   7.64666394
_cell_length_c   9.60983200
_cell_angle_alpha   90.00000000
_cell_angle_beta   90.00000000
_cell_angle_gamma   119.61608919
_symmetry_Int_Tables_number   1
_chemical_formula_structural   PrTh3Al13Ga5Ir6
_chemical_formula_sum   'Pr1 Th3 Al13 Ga5 Ir6'
_cell_volume   488.54117264
_cell_formula_units_Z   1
loop_
 _symmetry_equiv_pos_site_id
 _symmetry_equiv_pos_as_xyz
  1  'x, y, z'
loop_
 _atom_site_type_symbol
 _atom_site_label
 _atom_site_symmetry_multiplicity
 _atom_site_fract_x
 _atom_site_fract_y
 _atom_site_fract_z
 _atom_site_occupancy
  Pr  Pr0  1  0.329985  0.004770  0.750000  1
  Th  Th1  1  0.997504  0.672584  0.250000  1
  Th  Th2  1  0.004716  0.330225  0.750000  1
  Th  Th3  1  0.669369  0.993247  0.250000  1
  Al  Al4  1  0.004026  0.335020  0.073403  1
  Al  Al5  1  0.997743  0.667518  0.926474  1
  Al  Al6  1  0.997743  0.667518  0.573526  1
  Al  Al7  1  0.335499  0.004761  0.429230  1
  Al  Al8  1  0.004026  0.335020  0.426597  1
  Al  Al9  1  0.662776  0.995644  0.573441  1
  Al  Al10  1  0.662776  0.995644  0.926559  1
  Al  Al11  1  0.335499  0.004761  0.070770  1
  Al  Al12  1  0.336265  0.334496  0.550228  1
  Al  Al13  1  0.663410  0.662846  0.449484  1
  Al  Al14  1  0.663410  0.662846  0.050516  1
  Al  Al15  1  0.336265  0.334496  0.949772  1
  Al  Al16  1  0.544725  0.339731  0.250000  1
  Ga  Ga17  1  0.135565  0.135335  0.250000  1
  Ga  Ga18  1  0.868632  0.868130  0.750000  1
  Ga  Ga19  1  0.340466  0.542033  0.250000  1
  Ga  Ga20  1  0.658660  0.453260  0.750000  1
  Ga  Ga21  1  0.455019  0.659760  0.750000  1
  Ir  Ir22  1  0.673095  0.329797  0.003927  1
  Ir  Ir23  1  0.327674  0.671011  0.001495  1
  Ir  Ir24  1  0.327674  0.671011  0.498505  1
  Ir  Ir25  1  0.673095  0.329797  0.496073  1
  Ir  Ir26  1  0.997192  0.999370  0.002017  1
  Ir  Ir27  1  0.997192  0.999370  0.497983  1
