# generated using pymatgen
data_Sm8SiRhI12
_symmetry_space_group_name_H-M   'P 1'
_cell_length_a   4.27081100
_cell_length_b   14.33962562
_cell_length_c   15.08145312
_cell_angle_alpha   89.88929998
_cell_angle_beta   90.00000000
_cell_angle_gamma   90.00000000
_symmetry_Int_Tables_number   1
_chemical_formula_structural   Sm8SiRhI12
_chemical_formula_sum   'Sm8 Si1 Rh1 I12'
_cell_volume   923.61407635
_cell_formula_units_Z   1
loop_
 _symmetry_equiv_pos_site_id
 _symmetry_equiv_pos_as_xyz
  1  'x, y, z'
loop_
 _atom_site_type_symbol
 _atom_site_label
 _atom_site_symmetry_multiplicity
 _atom_site_fract_x
 _atom_site_fract_y
 _atom_site_fract_z
 _atom_site_occupancy
  Sm  Sm0  1  0.500000  0.113035  0.349090  1
  Sm  Sm1  1  0.500000  0.886965  0.650910  1
  Sm  Sm2  1  0.500000  0.614292  0.153350  1
  Sm  Sm3  1  0.500000  0.385708  0.846650  1
  Sm  Sm4  1  0.000000  0.109720  0.573711  1
  Sm  Sm5  1  0.000000  0.890280  0.426289  1
  Sm  Sm6  1  0.000000  0.612576  0.924353  1
  Sm  Sm7  1  0.000000  0.387424  0.075647  1
  Si  Si8  1  0.500000  0.500000  0.000000  1
  Rh  Rh9  1  0.500000  0.000000  0.500000  1
  I  I10  1  0.500000  0.244355  0.162915  1
  I  I11  1  0.500000  0.755645  0.837085  1
  I  I12  1  0.500000  0.743776  0.336882  1
  I  I13  1  0.500000  0.256224  0.663118  1
  I  I14  1  0.000000  0.260901  0.413768  1
  I  I15  1  0.000000  0.739099  0.586232  1
  I  I16  1  0.000000  0.758174  0.084986  1
  I  I17  1  0.000000  0.241826  0.915014  1
  I  I18  1  0.000000  0.998698  0.237923  1
  I  I19  1  0.000000  0.001302  0.762077  1
  I  I20  1  0.000000  0.498215  0.259459  1
  I  I21  1  0.000000  0.501785  0.740541  1
