# generated using pymatgen
data_Pr4Co7As12Ru13
_symmetry_space_group_name_H-M   'P 1'
_cell_length_a   3.95940700
_cell_length_b   11.11519269
_cell_length_c   12.68419834
_cell_angle_alpha   90.17273927
_cell_angle_beta   90.00000000
_cell_angle_gamma   90.00000000
_symmetry_Int_Tables_number   1
_chemical_formula_structural   Pr4Co7As12Ru13
_chemical_formula_sum   'Pr4 Co7 As12 Ru13'
_cell_volume   558.22359995
_cell_formula_units_Z   1
loop_
 _symmetry_equiv_pos_site_id
 _symmetry_equiv_pos_as_xyz
  1  'x, y, z'
loop_
 _atom_site_type_symbol
 _atom_site_label
 _atom_site_symmetry_multiplicity
 _atom_site_fract_x
 _atom_site_fract_y
 _atom_site_fract_z
 _atom_site_occupancy
  Pr  Pr0  1  0.250000  0.585022  0.705491  1
  Pr  Pr1  1  0.250000  0.914130  0.204587  1
  Pr  Pr2  1  0.750000  0.413987  0.295152  1
  Pr  Pr3  1  0.750000  0.085373  0.795360  1
  Co  Co4  1  0.250000  0.612589  0.195260  1
  Co  Co5  1  0.750000  0.113886  0.304229  1
  Co  Co6  1  0.750000  0.386075  0.805255  1
  Co  Co7  1  0.250000  0.465878  0.935226  1
  Co  Co8  1  0.250000  0.034481  0.432052  1
  Co  Co9  1  0.750000  0.532865  0.066032  1
  Co  Co10  1  0.750000  0.967576  0.560849  1
  As  As11  1  0.250000  0.422906  0.111280  1
  As  As12  1  0.250000  0.080958  0.607333  1
  As  As13  1  0.750000  0.575449  0.890024  1
  As  As14  1  0.750000  0.922832  0.386851  1
  As  As15  1  0.250000  0.274537  0.872927  1
  As  As16  1  0.250000  0.225642  0.371887  1
  As  As17  1  0.750000  0.724424  0.127929  1
  As  As18  1  0.750000  0.774757  0.627314  1
  As  As19  1  0.250000  0.601563  0.387876  1
  As  As20  1  0.250000  0.897468  0.892677  1
  As  As21  1  0.750000  0.398393  0.611480  1
  As  As22  1  0.750000  0.102522  0.112388  1
  Ru  Ru23  1  0.250000  0.702247  0.989511  1
  Ru  Ru24  1  0.250000  0.797387  0.482123  1
  Ru  Ru25  1  0.750000  0.296456  0.014164  1
  Ru  Ru26  1  0.750000  0.204629  0.512751  1
  Ru  Ru27  1  0.250000  0.405168  0.487850  1
  Ru  Ru28  1  0.250000  0.095754  0.989574  1
  Ru  Ru29  1  0.750000  0.595211  0.511589  1
  Ru  Ru30  1  0.750000  0.904360  0.013043  1
  Ru  Ru31  1  0.250000  0.220876  0.179474  1
  Ru  Ru32  1  0.250000  0.281456  0.679607  1
  Ru  Ru33  1  0.750000  0.776939  0.824784  1
  Ru  Ru34  1  0.750000  0.719173  0.320306  1
  Ru  Ru35  1  0.250000  0.887034  0.695765  1
