# generated using pymatgen
data_Ba8TiRe3O20
_symmetry_space_group_name_H-M   'P 1'
_cell_length_a   5.82016300
_cell_length_b   7.50327205
_cell_length_c   11.67706587
_cell_angle_alpha   89.13375519
_cell_angle_beta   90.00000000
_cell_angle_gamma   90.00000000
_symmetry_Int_Tables_number   1
_chemical_formula_structural   Ba8TiRe3O20
_chemical_formula_sum   'Ba8 Ti1 Re3 O20'
_cell_volume   509.88229722
_cell_formula_units_Z   1
loop_
 _symmetry_equiv_pos_site_id
 _symmetry_equiv_pos_as_xyz
  1  'x, y, z'
loop_
 _atom_site_type_symbol
 _atom_site_label
 _atom_site_symmetry_multiplicity
 _atom_site_fract_x
 _atom_site_fract_y
 _atom_site_fract_z
 _atom_site_occupancy
  Ba  Ba0  1  0.750000  0.469130  0.277598  1
  Ba  Ba1  1  0.250000  0.525383  0.720930  1
  Ba  Ba2  1  0.750000  0.981756  0.204909  1
  Ba  Ba3  1  0.250000  0.032985  0.797342  1
  Ba  Ba4  1  0.750000  0.167163  0.593810  1
  Ba  Ba5  1  0.250000  0.826384  0.417789  1
  Ba  Ba6  1  0.750000  0.679706  0.918748  1
  Ba  Ba7  1  0.250000  0.340108  0.066293  1
  Ti  Ti8  1  0.750000  0.198743  0.924185  1
  Re  Re9  1  0.250000  0.829971  0.066502  1
  Re  Re10  1  0.750000  0.672396  0.558935  1
  Re  Re11  1  0.250000  0.327626  0.439896  1
  O  O12  1  0.483731  0.176289  0.391934  1
  O  O13  1  0.982511  0.823777  0.608154  1
  O  O14  1  0.015092  0.673733  0.116340  1
  O  O15  1  0.503313  0.331233  0.875392  1
  O  O16  1  0.517489  0.823777  0.608154  1
  O  O17  1  0.016269  0.176289  0.391934  1
  O  O18  1  0.996687  0.331233  0.875392  1
  O  O19  1  0.484908  0.673733  0.116340  1
  O  O20  1  0.498570  0.499973  0.499008  1
  O  O21  1  0.001430  0.499973  0.499008  1
  O  O22  1  0.020229  0.989184  0.007966  1
  O  O23  1  0.479771  0.989184  0.007966  1
  O  O24  1  0.750000  0.275944  0.089038  1
  O  O25  1  0.250000  0.715914  0.915176  1
  O  O26  1  0.750000  0.765931  0.406002  1
  O  O27  1  0.250000  0.231331  0.592438  1
  O  O28  1  0.750000  0.020543  0.811220  1
  O  O29  1  0.250000  0.953540  0.204768  1
  O  O30  1  0.750000  0.525859  0.686522  1
  O  O31  1  0.250000  0.471211  0.310311  1
