# generated using pymatgen
data_Gd4Ho(FeB3)2
_symmetry_space_group_name_H-M   'P 1'
_cell_length_a   8.20561904
_cell_length_b   8.20561941
_cell_length_c   8.20561800
_cell_angle_alpha   38.38823163
_cell_angle_beta   38.38823961
_cell_angle_gamma   38.38822948
_symmetry_Int_Tables_number   1
_chemical_formula_structural   Gd4Ho(FeB3)2
_chemical_formula_sum   'Gd4 Ho1 Fe2 B6'
_cell_volume   191.38802112
_cell_formula_units_Z   1
loop_
 _symmetry_equiv_pos_site_id
 _symmetry_equiv_pos_as_xyz
  1  'x, y, z'
loop_
 _atom_site_type_symbol
 _atom_site_label
 _atom_site_symmetry_multiplicity
 _atom_site_fract_x
 _atom_site_fract_y
 _atom_site_fract_z
 _atom_site_occupancy
  Gd  Gd0  1  0.585283  0.585283  0.585283  1
  Gd  Gd1  1  0.414717  0.414717  0.414717  1
  Gd  Gd2  1  0.747127  0.747127  0.747127  1
  Gd  Gd3  1  0.252873  0.252873  0.252873  1
  Ho  Ho4  1  0.000000  0.000000  0.000000  1
  Fe  Fe5  1  0.881864  0.881864  0.881864  1
  Fe  Fe6  1  0.118136  0.118136  0.118136  1
  B  B7  1  0.500000  0.832011  0.167989  1
  B  B8  1  0.167989  0.500000  0.832011  1
  B  B9  1  0.832011  0.167989  0.500000  1
  B  B10  1  0.500000  0.167989  0.832011  1
  B  B11  1  0.832011  0.500000  0.167989  1
  B  B12  1  0.167989  0.832011  0.500000  1
