# generated using pymatgen
data_Tb4LuZn2Sb
_symmetry_space_group_name_H-M   'P 1'
_cell_length_a   8.51868415
_cell_length_b   8.51868394
_cell_length_c   8.51868542
_cell_angle_alpha   123.39215112
_cell_angle_beta   123.39215211
_cell_angle_gamma   84.21864298
_symmetry_Int_Tables_number   1
_chemical_formula_structural   Tb4LuZn2Sb
_chemical_formula_sum   'Tb8 Lu2 Zn4 Sb2'
_cell_volume   412.41294521
_cell_formula_units_Z   2
loop_
 _symmetry_equiv_pos_site_id
 _symmetry_equiv_pos_as_xyz
  1  'x, y, z'
loop_
 _atom_site_type_symbol
 _atom_site_label
 _atom_site_symmetry_multiplicity
 _atom_site_fract_x
 _atom_site_fract_y
 _atom_site_fract_z
 _atom_site_occupancy
  Tb  Tb0  1  0.511931  0.700347  0.500000  1
  Tb  Tb1  1  0.011931  0.511931  0.811583  1
  Tb  Tb2  1  0.700347  0.200347  0.188417  1
  Tb  Tb3  1  0.988069  0.488069  0.188417  1
  Tb  Tb4  1  0.200347  0.011931  0.500000  1
  Tb  Tb5  1  0.488069  0.299653  0.500000  1
  Tb  Tb6  1  0.799653  0.988069  0.500000  1
  Tb  Tb7  1  0.299653  0.799653  0.811583  1
  Lu  Lu8  1  0.000000  0.000000  0.000000  1
  Lu  Lu9  1  0.500000  0.500000  0.000000  1
  Zn  Zn10  1  0.362869  0.862869  0.225737  1
  Zn  Zn11  1  0.862869  0.637131  0.500000  1
  Zn  Zn12  1  0.637131  0.137131  0.774263  1
  Zn  Zn13  1  0.137131  0.362869  0.500000  1
  Sb  Sb14  1  0.750000  0.750000  0.000000  1
  Sb  Sb15  1  0.250000  0.250000  0.000000  1
