# generated using pymatgen
data_Dy2Co2NiP7Ru9
_symmetry_space_group_name_H-M   'P 1'
_cell_length_a   9.31137886
_cell_length_b   9.38209989
_cell_length_c   3.82805100
_cell_angle_alpha   90.00000000
_cell_angle_beta   90.00000000
_cell_angle_gamma   120.17021597
_symmetry_Int_Tables_number   1
_chemical_formula_structural   Dy2Co2NiP7Ru9
_chemical_formula_sum   'Dy2 Co2 Ni1 P7 Ru9'
_cell_volume   289.11786821
_cell_formula_units_Z   1
loop_
 _symmetry_equiv_pos_site_id
 _symmetry_equiv_pos_as_xyz
  1  'x, y, z'
loop_
 _atom_site_type_symbol
 _atom_site_label
 _atom_site_symmetry_multiplicity
 _atom_site_fract_x
 _atom_site_fract_y
 _atom_site_fract_z
 _atom_site_occupancy
  Dy  Dy0  1  0.334328  0.664955  0.000000  1
  Dy  Dy1  1  0.666456  0.334045  0.500000  1
  Co  Co2  1  0.111228  0.270754  0.000000  1
  Co  Co3  1  0.728787  0.841778  0.000000  1
  Ni  Ni4  1  0.158882  0.889293  0.000000  1
  P  P5  1  0.413494  0.112766  0.000000  1
  P  P6  1  0.889701  0.301655  0.000000  1
  P  P7  1  0.699723  0.591212  0.000000  1
  P  P8  1  0.113774  0.709841  0.500000  1
  P  P9  1  0.285701  0.401529  0.500000  1
  P  P10  1  0.598578  0.883636  0.500000  1
  P  P11  1  0.998553  0.001914  0.000000  1
  Ru  Ru12  1  0.426639  0.364167  0.000000  1
  Ru  Ru13  1  0.635863  0.061500  0.000000  1
  Ru  Ru14  1  0.938951  0.574691  0.000000  1
  Ru  Ru15  1  0.381623  0.946767  0.500000  1
  Ru  Ru16  1  0.050856  0.432829  0.500000  1
  Ru  Ru17  1  0.564696  0.617468  0.500000  1
  Ru  Ru18  1  0.207967  0.123874  0.500000  1
  Ru  Ru19  1  0.880254  0.083701  0.500000  1
  Ru  Ru20  1  0.913945  0.791625  0.500000  1
