# generated using pymatgen
data_Er3Tm9GaCo4Sn
_symmetry_space_group_name_H-M   'P 1'
_cell_length_a   8.22391330
_cell_length_b   8.21340484
_cell_length_c   8.21340448
_cell_angle_alpha   111.99005616
_cell_angle_beta   109.42569715
_cell_angle_gamma   106.98797388
_symmetry_Int_Tables_number   1
_chemical_formula_structural   Er3Tm9GaCo4Sn
_chemical_formula_sum   'Er3 Tm9 Ga1 Co4 Sn1'
_cell_volume   426.51537434
_cell_formula_units_Z   1
loop_
 _symmetry_equiv_pos_site_id
 _symmetry_equiv_pos_as_xyz
  1  'x, y, z'
loop_
 _atom_site_type_symbol
 _atom_site_label
 _atom_site_symmetry_multiplicity
 _atom_site_fract_x
 _atom_site_fract_y
 _atom_site_fract_z
 _atom_site_occupancy
  Er  Er0  1  0.566656  0.267645  0.299010  1
  Er  Er1  1  0.180750  0.219246  0.400686  1
  Er  Er2  1  0.180750  0.780064  0.961506  1
  Tm  Tm3  1  0.675339  0.488499  0.814276  1
  Tm  Tm4  1  0.675339  0.861063  0.186840  1
  Tm  Tm5  1  0.967969  0.265538  0.702431  1
  Tm  Tm6  1  0.031291  0.732873  0.298418  1
  Tm  Tm7  1  0.324379  0.138002  0.812594  1
  Tm  Tm8  1  0.324379  0.511785  0.186377  1
  Tm  Tm9  1  0.819019  0.219285  0.037648  1
  Tm  Tm10  1  0.819019  0.781370  0.599734  1
  Tm  Tm11  1  0.436663  0.734165  0.702499  1
  Ga  Ga12  1  0.001299  0.501027  0.500272  1
  Co  Co13  1  0.883447  0.884479  0.998968  1
  Co  Co14  1  0.341679  0.499778  0.841901  1
  Co  Co15  1  0.659186  0.500432  0.158755  1
  Co  Co16  1  0.112895  0.115187  0.997709  1
  Sn  Sn17  1  0.499939  0.999563  0.500376  1
