# generated using pymatgen
data_DyY3Ta5TiSi8
_symmetry_space_group_name_H-M   'P 1'
_cell_length_a   7.05523514
_cell_length_b   7.05524240
_cell_length_c   12.99370201
_cell_angle_alpha   89.94532168
_cell_angle_beta   90.05138553
_cell_angle_gamma   90.00361690
_symmetry_Int_Tables_number   1
_chemical_formula_structural   DyY3Ta5TiSi8
_chemical_formula_sum   'Dy2 Y6 Ta10 Ti2 Si16'
_cell_volume   646.77907577
_cell_formula_units_Z   2
loop_
 _symmetry_equiv_pos_site_id
 _symmetry_equiv_pos_as_xyz
  1  'x, y, z'
loop_
 _atom_site_type_symbol
 _atom_site_label
 _atom_site_symmetry_multiplicity
 _atom_site_fract_x
 _atom_site_fract_y
 _atom_site_fract_z
 _atom_site_occupancy
  Dy  Dy0  1  0.497856  0.841420  0.718003  1
  Dy  Dy1  1  0.341268  0.001953  0.468009  1
  Y  Y2  1  0.998434  0.658067  0.032490  1
  Y  Y3  1  0.002083  0.341178  0.531969  1
  Y  Y4  1  0.658060  0.998437  0.967500  1
  Y  Y5  1  0.159592  0.503125  0.782250  1
  Y  Y6  1  0.841365  0.497819  0.281976  1
  Y  Y7  1  0.503069  0.159498  0.217746  1
  Ta  Ta8  1  0.346290  0.508617  0.375952  1
  Ta  Ta9  1  0.847249  0.992187  0.374665  1
  Ta  Ta10  1  0.008283  0.152982  0.126267  1
  Ta  Ta11  1  0.992373  0.847297  0.625294  1
  Ta  Ta12  1  0.508636  0.346212  0.624014  1
  Ta  Ta13  1  0.153082  0.008274  0.873699  1
  Ta  Ta14  1  0.672057  0.672360  0.500026  1
  Ta  Ta15  1  0.829245  0.170267  0.750042  1
  Ta  Ta16  1  0.170432  0.829401  0.249998  1
  Ta  Ta17  1  0.326185  0.326186  0.999998  1
  Ti  Ti18  1  0.492487  0.652948  0.124129  1
  Ti  Ti19  1  0.652895  0.492585  0.875858  1
  Si  Si20  1  0.045699  0.705760  0.435965  1
  Si  Si21  1  0.952594  0.295036  0.935810  1
  Si  Si22  1  0.705447  0.045490  0.564076  1
  Si  Si23  1  0.208107  0.455253  0.185321  1
  Si  Si24  1  0.793487  0.545415  0.687328  1
  Si  Si25  1  0.455300  0.208032  0.814671  1
  Si  Si26  1  0.545256  0.793709  0.312761  1
  Si  Si27  1  0.295023  0.952597  0.064210  1
  Si  Si28  1  0.795105  0.865358  0.181824  1
  Si  Si29  1  0.296907  0.633606  0.568360  1
  Si  Si30  1  0.701081  0.368529  0.066247  1
  Si  Si31  1  0.633299  0.296699  0.431674  1
  Si  Si32  1  0.368592  0.701088  0.933699  1
  Si  Si33  1  0.133733  0.204012  0.317797  1
  Si  Si34  1  0.204225  0.133494  0.682224  1
  Si  Si35  1  0.865209  0.795114  0.818148  1
