# generated using pymatgen
data_Ho3In4NiPt
_symmetry_space_group_name_H-M   'P 1'
_cell_length_a   7.83869100
_cell_length_b   7.83869078
_cell_length_c   3.77256700
_cell_angle_alpha   90.00000000
_cell_angle_beta   90.00000000
_cell_angle_gamma   120.00000513
_symmetry_Int_Tables_number   1
_chemical_formula_structural   Ho3In4NiPt
_chemical_formula_sum   'Ho3 In4 Ni1 Pt1'
_cell_volume   200.74958154
_cell_formula_units_Z   1
loop_
 _symmetry_equiv_pos_site_id
 _symmetry_equiv_pos_as_xyz
  1  'x, y, z'
loop_
 _atom_site_type_symbol
 _atom_site_label
 _atom_site_symmetry_multiplicity
 _atom_site_fract_x
 _atom_site_fract_y
 _atom_site_fract_z
 _atom_site_occupancy
  Ho  Ho0  1  0.302438  0.255604  0.500000  1
  Ho  Ho1  1  0.744396  0.046832  0.500000  1
  Ho  Ho2  1  0.953168  0.697562  0.500000  1
  In  In3  1  0.082164  0.421253  0.000000  1
  In  In4  1  0.578747  0.660910  0.000000  1
  In  In5  1  0.339090  0.917836  0.000000  1
  In  In6  1  0.666667  0.333333  0.000000  1
  Ni  Ni7  1  0.333333  0.666667  0.500000  1
  Pt  Pt8  1  0.000000  0.000000  0.000000  1
