# generated using pymatgen
data_LiNb2(SiRu2)3
_symmetry_space_group_name_H-M   'P 1'
_cell_length_a   4.29154800
_cell_length_b   6.07357100
_cell_length_c   12.77408000
_cell_angle_alpha   90.00000000
_cell_angle_beta   90.00000000
_cell_angle_gamma   90.00000000
_symmetry_Int_Tables_number   1
_chemical_formula_structural   LiNb2(SiRu2)3
_chemical_formula_sum   'Li2 Nb4 Si6 Ru12'
_cell_volume   332.95666956
_cell_formula_units_Z   2
loop_
 _symmetry_equiv_pos_site_id
 _symmetry_equiv_pos_as_xyz
  1  'x, y, z'
loop_
 _atom_site_type_symbol
 _atom_site_label
 _atom_site_symmetry_multiplicity
 _atom_site_fract_x
 _atom_site_fract_y
 _atom_site_fract_z
 _atom_site_occupancy
  Li  Li0  1  0.000330  0.000000  0.666716  1
  Li  Li1  1  0.500330  0.500000  0.833284  1
  Nb  Nb2  1  0.999962  0.000000  0.986852  1
  Nb  Nb3  1  0.499754  0.500000  0.163722  1
  Nb  Nb4  1  0.999754  0.000000  0.336278  1
  Nb  Nb5  1  0.499962  0.500000  0.513148  1
  Si  Si6  1  0.999994  0.500000  0.980709  1
  Si  Si7  1  0.499746  0.000000  0.159786  1
  Si  Si8  1  0.999746  0.500000  0.340214  1
  Si  Si9  1  0.499994  0.000000  0.519291  1
  Si  Si10  1  0.000130  0.500000  0.672572  1
  Si  Si11  1  0.500131  0.000000  0.827428  1
  Ru  Ru12  1  0.499993  0.252199  0.998904  1
  Ru  Ru13  1  0.499993  0.747800  0.998904  1
  Ru  Ru14  1  0.999799  0.249281  0.165775  1
  Ru  Ru15  1  0.999799  0.750720  0.165775  1
  Ru  Ru16  1  0.499799  0.250721  0.334224  1
  Ru  Ru17  1  0.499799  0.749281  0.334224  1
  Ru  Ru18  1  0.999993  0.247801  0.501096  1
  Ru  Ru19  1  0.999993  0.752200  0.501096  1
  Ru  Ru20  1  0.500251  0.248918  0.671808  1
  Ru  Ru21  1  0.500251  0.751084  0.671808  1
  Ru  Ru22  1  0.000251  0.251084  0.828192  1
  Ru  Ru23  1  0.000251  0.748917  0.828192  1
