# generated using pymatgen
data_HoEr19(Bi2Ru)4
_symmetry_space_group_name_H-M   'P 1'
_cell_length_a   7.90522708
_cell_length_b   8.97162800
_cell_length_c   12.36669512
_cell_angle_alpha   90.00000000
_cell_angle_beta   90.01597737
_cell_angle_gamma   90.00000000
_symmetry_Int_Tables_number   1
_chemical_formula_structural   HoEr19(Bi2Ru)4
_chemical_formula_sum   'Ho1 Er19 Bi8 Ru4'
_cell_volume   877.08007372
_cell_formula_units_Z   1
loop_
 _symmetry_equiv_pos_site_id
 _symmetry_equiv_pos_as_xyz
  1  'x, y, z'
loop_
 _atom_site_type_symbol
 _atom_site_label
 _atom_site_symmetry_multiplicity
 _atom_site_fract_x
 _atom_site_fract_y
 _atom_site_fract_z
 _atom_site_occupancy
  Ho  Ho0  1  0.660637  0.750000  0.708271  1
  Er  Er1  1  0.339319  0.250000  0.291631  1
  Er  Er2  1  0.160361  0.250000  0.791959  1
  Er  Er3  1  0.839132  0.750000  0.208261  1
  Er  Er4  1  0.124290  0.750000  0.809707  1
  Er  Er5  1  0.875735  0.250000  0.190370  1
  Er  Er6  1  0.624308  0.250000  0.690294  1
  Er  Er7  1  0.375851  0.750000  0.309546  1
  Er  Er8  1  0.555584  0.750000  0.996006  1
  Er  Er9  1  0.444396  0.250000  0.004246  1
  Er  Er10  1  0.055640  0.250000  0.503926  1
  Er  Er11  1  0.944872  0.750000  0.495684  1
  Er  Er12  1  0.826274  0.457189  0.935172  1
  Er  Er13  1  0.173787  0.542797  0.065005  1
  Er  Er14  1  0.326066  0.542534  0.564839  1
  Er  Er15  1  0.173787  0.957203  0.065005  1
  Er  Er16  1  0.673674  0.457178  0.434859  1
  Er  Er17  1  0.826274  0.042811  0.935172  1
  Er  Er18  1  0.673674  0.042822  0.434859  1
  Er  Er19  1  0.326066  0.957466  0.564839  1
  Bi  Bi20  1  0.933261  0.007278  0.672158  1
  Bi  Bi21  1  0.067049  0.992887  0.327705  1
  Bi  Bi22  1  0.432647  0.993210  0.827950  1
  Bi  Bi23  1  0.067049  0.507113  0.327705  1
  Bi  Bi24  1  0.567161  0.007098  0.172292  1
  Bi  Bi25  1  0.933261  0.492722  0.672158  1
  Bi  Bi26  1  0.567161  0.492902  0.172292  1
  Bi  Bi27  1  0.432647  0.506790  0.827950  1
  Ru  Ru28  1  0.925744  0.750000  0.989933  1
  Ru  Ru29  1  0.074637  0.250000  0.010147  1
  Ru  Ru30  1  0.425551  0.250000  0.510048  1
  Ru  Ru31  1  0.574107  0.750000  0.490009  1
