# generated using pymatgen
data_Tb4CuSi2Pd27
_symmetry_space_group_name_H-M   'P 1'
_cell_length_a   8.90423971
_cell_length_b   8.90423971
_cell_length_c   7.08300660
_cell_angle_alpha   90.19711480
_cell_angle_beta   90.19711480
_cell_angle_gamma   89.36078782
_symmetry_Int_Tables_number   1
_chemical_formula_structural   Tb4CuSi2Pd27
_chemical_formula_sum   'Tb4 Cu1 Si2 Pd27'
_cell_volume   561.53809173
_cell_formula_units_Z   1
loop_
 _symmetry_equiv_pos_site_id
 _symmetry_equiv_pos_as_xyz
  1  'x, y, z'
loop_
 _atom_site_type_symbol
 _atom_site_label
 _atom_site_symmetry_multiplicity
 _atom_site_fract_x
 _atom_site_fract_y
 _atom_site_fract_z
 _atom_site_occupancy
  Tb  Tb0  1  0.502705  0.002705  0.934178  1
  Tb  Tb1  1  0.997295  0.497295  0.065822  1
  Tb  Tb2  1  0.001029  0.998971  0.500000  1
  Tb  Tb3  1  0.498971  0.501029  0.500000  1
  Cu  Cu4  1  0.250000  0.750000  0.000000  1
  Si  Si5  1  0.500284  0.000284  0.446981  1
  Si  Si6  1  0.999716  0.499716  0.553019  1
  Pd  Pd7  1  0.334443  0.834443  0.614076  1
  Pd  Pd8  1  0.333457  0.165291  0.617844  1
  Pd  Pd9  1  0.665291  0.833457  0.617844  1
  Pd  Pd10  1  0.665503  0.165503  0.615335  1
  Pd  Pd11  1  0.165557  0.665557  0.385924  1
  Pd  Pd12  1  0.166543  0.334709  0.382156  1
  Pd  Pd13  1  0.834709  0.666543  0.382156  1
  Pd  Pd14  1  0.834497  0.334497  0.384665  1
  Pd  Pd15  1  0.498409  0.770056  0.254073  1
  Pd  Pd16  1  0.498105  0.231061  0.256176  1
  Pd  Pd17  1  0.270056  0.998409  0.254073  1
  Pd  Pd18  1  0.731061  0.998105  0.256176  1
  Pd  Pd19  1  0.001591  0.729944  0.745927  1
  Pd  Pd20  1  0.001895  0.268939  0.743824  1
  Pd  Pd21  1  0.229944  0.501591  0.745927  1
  Pd  Pd22  1  0.768939  0.501895  0.743824  1
  Pd  Pd23  1  0.498854  0.351264  0.852745  1
  Pd  Pd24  1  0.493876  0.656732  0.858635  1
  Pd  Pd25  1  0.851264  0.998854  0.852745  1
  Pd  Pd26  1  0.156732  0.993876  0.858635  1
  Pd  Pd27  1  0.001146  0.148736  0.147255  1
  Pd  Pd28  1  0.006124  0.843268  0.141365  1
  Pd  Pd29  1  0.648736  0.501146  0.147255  1
  Pd  Pd30  1  0.343268  0.506124  0.141365  1
  Pd  Pd31  1  0.250000  0.250000  0.000000  1
  Pd  Pd32  1  0.750000  0.750000  0.000000  1
  Pd  Pd33  1  0.750000  0.250000  0.000000  1
