# generated using pymatgen
data_Tm8Be(Si4Ni)3
_symmetry_space_group_name_H-M   'P 1'
_cell_length_a   7.87124500
_cell_length_b   7.87124514
_cell_length_c   7.93502500
_cell_angle_alpha   90.00000000
_cell_angle_beta   90.00000000
_cell_angle_gamma   120.00000362
_symmetry_Int_Tables_number   1
_chemical_formula_structural   Tm8Be(Si4Ni)3
_chemical_formula_sum   'Tm8 Be1 Si12 Ni3'
_cell_volume   425.76090829
_cell_formula_units_Z   1
loop_
 _symmetry_equiv_pos_site_id
 _symmetry_equiv_pos_as_xyz
  1  'x, y, z'
loop_
 _atom_site_type_symbol
 _atom_site_label
 _atom_site_symmetry_multiplicity
 _atom_site_fract_x
 _atom_site_fract_y
 _atom_site_fract_z
 _atom_site_occupancy
  Tm  Tm0  1  0.500807  0.001613  0.250808  1
  Tm  Tm1  1  0.499853  0.999706  0.749175  1
  Tm  Tm2  1  0.998387  0.499193  0.250808  1
  Tm  Tm3  1  0.000294  0.500147  0.749175  1
  Tm  Tm4  1  0.500807  0.499193  0.250808  1
  Tm  Tm5  1  0.499853  0.500147  0.749175  1
  Tm  Tm6  1  0.000000  0.000000  0.250669  1
  Tm  Tm7  1  0.000000  0.000000  0.749268  1
  Be  Be8  1  0.333333  0.666667  0.002012  1
  Si  Si9  1  0.171546  0.343092  0.000404  1
  Si  Si10  1  0.828008  0.656016  0.999523  1
  Si  Si11  1  0.656908  0.828454  0.000404  1
  Si  Si12  1  0.828798  0.657597  0.500555  1
  Si  Si13  1  0.343984  0.171992  0.999523  1
  Si  Si14  1  0.170848  0.341697  0.499384  1
  Si  Si15  1  0.171546  0.828454  0.000404  1
  Si  Si16  1  0.342403  0.171202  0.500555  1
  Si  Si17  1  0.828008  0.171992  0.999523  1
  Si  Si18  1  0.658303  0.829152  0.499384  1
  Si  Si19  1  0.828798  0.171202  0.500555  1
  Si  Si20  1  0.170848  0.829152  0.499384  1
  Ni  Ni21  1  0.666667  0.333333  0.998772  1
  Ni  Ni22  1  0.666667  0.333333  0.501298  1
  Ni  Ni23  1  0.333333  0.666667  0.498435  1
