# generated using pymatgen
data_Lu2MgB2Rh5
_symmetry_space_group_name_H-M   'P 1'
_cell_length_a   9.53765500
_cell_length_b   9.53765500
_cell_length_c   3.16193900
_cell_angle_alpha   90.00000000
_cell_angle_beta   90.00000000
_cell_angle_gamma   90.00000000
_symmetry_Int_Tables_number   1
_chemical_formula_structural   Lu2MgB2Rh5
_chemical_formula_sum   'Lu4 Mg2 B4 Rh10'
_cell_volume   287.63167151
_cell_formula_units_Z   2
loop_
 _symmetry_equiv_pos_site_id
 _symmetry_equiv_pos_as_xyz
  1  'x, y, z'
loop_
 _atom_site_type_symbol
 _atom_site_label
 _atom_site_symmetry_multiplicity
 _atom_site_fract_x
 _atom_site_fract_y
 _atom_site_fract_z
 _atom_site_occupancy
  Lu  Lu0  1  0.824974  0.324974  0.000000  1
  Lu  Lu1  1  0.324974  0.175026  0.000000  1
  Lu  Lu2  1  0.675026  0.824974  0.000000  1
  Lu  Lu3  1  0.175026  0.675026  0.000000  1
  Mg  Mg4  1  0.000000  0.000000  0.000000  1
  Mg  Mg5  1  0.500000  0.500000  0.000000  1
  B  B6  1  0.623701  0.123701  0.000000  1
  B  B7  1  0.123701  0.376299  0.000000  1
  B  B8  1  0.876299  0.623701  0.000000  1
  B  B9  1  0.376299  0.876299  0.000000  1
  Rh  Rh10  1  0.071419  0.222175  0.500000  1
  Rh  Rh11  1  0.222175  0.928581  0.500000  1
  Rh  Rh12  1  0.777825  0.071419  0.500000  1
  Rh  Rh13  1  0.928581  0.777825  0.500000  1
  Rh  Rh14  1  0.428581  0.722175  0.500000  1
  Rh  Rh15  1  0.571419  0.277825  0.500000  1
  Rh  Rh16  1  0.722175  0.571419  0.500000  1
  Rh  Rh17  1  0.277825  0.428581  0.500000  1
  Rh  Rh18  1  0.500000  0.000000  0.500000  1
  Rh  Rh19  1  0.000000  0.500000  0.500000  1
