# generated using pymatgen
data_GaNi11As5P2
_symmetry_space_group_name_H-M   'P 1'
_cell_length_a   6.78084743
_cell_length_b   6.78084642
_cell_length_c   11.13686309
_cell_angle_alpha   81.60556040
_cell_angle_beta   81.60556132
_cell_angle_gamma   90.01931600
_symmetry_Int_Tables_number   1
_chemical_formula_structural   GaNi11As5P2
_chemical_formula_sum   'Ga2 Ni22 As10 P4'
_cell_volume   501.03567510
_cell_formula_units_Z   2
loop_
 _symmetry_equiv_pos_site_id
 _symmetry_equiv_pos_as_xyz
  1  'x, y, z'
loop_
 _atom_site_type_symbol
 _atom_site_label
 _atom_site_symmetry_multiplicity
 _atom_site_fract_x
 _atom_site_fract_y
 _atom_site_fract_z
 _atom_site_occupancy
  Ga  Ga0  1  0.073851  0.926149  0.750000  1
  Ga  Ga1  1  0.926149  0.073851  0.250000  1
  Ni  Ni2  1  0.462065  0.155802  0.910299  1
  Ni  Ni3  1  0.844198  0.537935  0.589701  1
  Ni  Ni4  1  0.537935  0.844198  0.089701  1
  Ni  Ni5  1  0.155802  0.462065  0.410299  1
  Ni  Ni6  1  0.081708  0.633616  0.914301  1
  Ni  Ni7  1  0.366384  0.918292  0.585699  1
  Ni  Ni8  1  0.918292  0.366384  0.085699  1
  Ni  Ni9  1  0.633616  0.081708  0.414301  1
  Ni  Ni10  1  0.459549  0.640402  0.914398  1
  Ni  Ni11  1  0.359598  0.540451  0.585602  1
  Ni  Ni12  1  0.540451  0.359598  0.085602  1
  Ni  Ni13  1  0.640402  0.459549  0.414398  1
  Ni  Ni14  1  0.800180  0.677355  0.791508  1
  Ni  Ni15  1  0.322645  0.199820  0.708492  1
  Ni  Ni16  1  0.199820  0.322645  0.208492  1
  Ni  Ni17  1  0.677355  0.800180  0.291508  1
  Ni  Ni18  1  0.084808  0.162094  0.910290  1
  Ni  Ni19  1  0.837906  0.915192  0.589710  1
  Ni  Ni20  1  0.162094  0.084808  0.410290  1
  Ni  Ni21  1  0.915192  0.837906  0.089710  1
  Ni  Ni22  1  0.807905  0.192095  0.750000  1
  Ni  Ni23  1  0.192095  0.807905  0.250000  1
  As  As24  1  0.874143  0.244690  0.507444  1
  As  As25  1  0.755310  0.125857  0.992556  1
  As  As26  1  0.125857  0.755310  0.492556  1
  As  As27  1  0.244691  0.874143  0.007444  1
  As  As28  1  0.554101  0.445899  0.750000  1
  As  As29  1  0.445899  0.554101  0.250000  1
  As  As30  1  0.553201  0.931090  0.752802  1
  As  As31  1  0.068910  0.446799  0.747198  1
  As  As32  1  0.446799  0.068910  0.247198  1
  As  As33  1  0.931090  0.553201  0.252802  1
  P  P34  1  0.750692  0.624013  0.996722  1
  P  P35  1  0.375987  0.249308  0.503278  1
  P  P36  1  0.249308  0.375987  0.003278  1
  P  P37  1  0.624013  0.750692  0.496722  1
