# generated using pymatgen
data_LiTa3Co4SbAs3
_symmetry_space_group_name_H-M   'P 1'
_cell_length_a   7.05230523
_cell_length_b   7.05230549
_cell_length_c   7.05230499
_cell_angle_alpha   131.48775635
_cell_angle_beta   132.17346244
_cell_angle_gamma   70.49814701
_symmetry_Int_Tables_number   1
_chemical_formula_structural   LiTa3Co4SbAs3
_chemical_formula_sum   'Li1 Ta3 Co4 Sb1 As3'
_cell_volume   190.79679798
_cell_formula_units_Z   1
loop_
 _symmetry_equiv_pos_site_id
 _symmetry_equiv_pos_as_xyz
  1  'x, y, z'
loop_
 _atom_site_type_symbol
 _atom_site_label
 _atom_site_symmetry_multiplicity
 _atom_site_fract_x
 _atom_site_fract_y
 _atom_site_fract_z
 _atom_site_occupancy
  Li  Li0  1  0.500000  0.500000  0.000000  1
  Ta  Ta1  1  0.000000  0.000000  0.000000  1
  Ta  Ta2  1  0.747864  0.247864  0.500000  1
  Ta  Ta3  1  0.252136  0.752136  0.500000  1
  Co  Co4  1  0.890795  0.366016  0.992090  1
  Co  Co5  1  0.373926  0.898705  0.007910  1
  Co  Co6  1  0.109206  0.101296  0.475221  1
  Co  Co7  1  0.626075  0.633985  0.524779  1
  Sb  Sb8  1  0.000000  0.500000  0.500000  1
  As  As9  1  0.258182  0.258182  0.000000  1
  As  As10  1  0.741819  0.741819  0.000000  1
  As  As11  1  0.500000  0.000000  0.500000  1
