# generated using pymatgen
data_Hg2PbSO6
_symmetry_space_group_name_H-M   'P 1'
_cell_length_a   7.05715494
_cell_length_b   7.58676282
_cell_length_c   7.82291089
_cell_angle_alpha   72.46280991
_cell_angle_beta   68.94426373
_cell_angle_gamma   64.40035790
_symmetry_Int_Tables_number   1
_chemical_formula_structural   Hg2PbSO6
_chemical_formula_sum   'Hg4 Pb2 S2 O12'
_cell_volume   347.15850131
_cell_formula_units_Z   2
loop_
 _symmetry_equiv_pos_site_id
 _symmetry_equiv_pos_as_xyz
  1  'x, y, z'
loop_
 _atom_site_type_symbol
 _atom_site_label
 _atom_site_symmetry_multiplicity
 _atom_site_fract_x
 _atom_site_fract_y
 _atom_site_fract_z
 _atom_site_occupancy
  Hg  Hg0  1  0.147547  0.363316  0.786865  1
  Hg  Hg1  1  0.351103  0.633170  0.214501  1
  Hg  Hg2  1  0.648897  0.366830  0.785499  1
  Hg  Hg3  1  0.852453  0.636684  0.213135  1
  Pb  Pb4  1  0.670077  0.869851  0.758285  1
  Pb  Pb5  1  0.329923  0.130149  0.241715  1
  S  S6  1  0.203901  0.848924  0.719737  1
  S  S7  1  0.796099  0.151076  0.280263  1
  O  O8  1  0.022881  0.121051  0.157376  1
  O  O9  1  0.977119  0.878949  0.842624  1
  O  O10  1  0.568681  0.780869  0.126062  1
  O  O11  1  0.355760  0.759708  0.844697  1
  O  O12  1  0.431319  0.219131  0.873938  1
  O  O13  1  0.780338  0.954754  0.385690  1
  O  O14  1  0.851537  0.520163  0.726885  1
  O  O15  1  0.219662  0.045246  0.614310  1
  O  O16  1  0.148463  0.479837  0.273115  1
  O  O17  1  0.732464  0.287695  0.409032  1
  O  O18  1  0.267536  0.712305  0.590968  1
  O  O19  1  0.644240  0.240292  0.155303  1
