# generated using pymatgen
data_DyTm3(CuO3)4
_symmetry_space_group_name_H-M   'P 1'
_cell_length_a   3.72609300
_cell_length_b   11.98928600
_cell_length_c   5.19966100
_cell_angle_alpha   90.00000000
_cell_angle_beta   90.00000000
_cell_angle_gamma   90.93869260
_symmetry_Int_Tables_number   1
_chemical_formula_structural   DyTm3(CuO3)4
_chemical_formula_sum   'Dy1 Tm3 Cu4 O12'
_cell_volume   232.25429447
_cell_formula_units_Z   1
loop_
 _symmetry_equiv_pos_site_id
 _symmetry_equiv_pos_as_xyz
  1  'x, y, z'
loop_
 _atom_site_type_symbol
 _atom_site_label
 _atom_site_symmetry_multiplicity
 _atom_site_fract_x
 _atom_site_fract_y
 _atom_site_fract_z
 _atom_site_occupancy
  Dy  Dy0  1  0.739012  0.918173  0.749999  1
  Tm  Tm1  1  0.254641  0.083044  0.250000  1
  Tm  Tm2  1  0.746412  0.579886  0.250000  1
  Tm  Tm3  1  0.257596  0.418840  0.749999  1
  Cu  Cu4  1  0.922179  0.326805  0.250000  1
  Cu  Cu5  1  0.075613  0.825478  0.250000  1
  Cu  Cu6  1  0.922001  0.175103  0.749999  1
  Cu  Cu7  1  0.081199  0.672037  0.749999  1
  O  O8  1  0.178108  0.251628  0.000463  1
  O  O9  1  0.825145  0.746775  0.000426  1
  O  O10  1  0.744364  0.419334  0.006145  1
  O  O11  1  0.251445  0.920987  0.009810  1
  O  O12  1  0.744364  0.419334  0.493856  1
  O  O13  1  0.251445  0.920987  0.490191  1
  O  O14  1  0.178108  0.251628  0.499538  1
  O  O15  1  0.825145  0.746775  0.499575  1
  O  O16  1  0.742205  0.082153  0.505024  1
  O  O17  1  0.259404  0.579439  0.506370  1
  O  O18  1  0.742205  0.082153  0.994977  1
  O  O19  1  0.259404  0.579439  0.993631  1
