# generated using pymatgen
data_Pr4Cd3Au10
_symmetry_space_group_name_H-M   'P 1'
_cell_length_a   8.79926900
_cell_length_b   8.79926960
_cell_length_c   10.40986800
_cell_angle_alpha   90.00000000
_cell_angle_beta   90.00000000
_cell_angle_gamma   108.45351612
_symmetry_Int_Tables_number   1
_chemical_formula_structural   Pr4Cd3Au10
_chemical_formula_sum   'Pr8 Cd6 Au20'
_cell_volume   764.56208654
_cell_formula_units_Z   2
loop_
 _symmetry_equiv_pos_site_id
 _symmetry_equiv_pos_as_xyz
  1  'x, y, z'
loop_
 _atom_site_type_symbol
 _atom_site_label
 _atom_site_symmetry_multiplicity
 _atom_site_fract_x
 _atom_site_fract_y
 _atom_site_fract_z
 _atom_site_occupancy
  Pr  Pr0  1  0.701648  0.298352  0.000000  1
  Pr  Pr1  1  0.298352  0.701648  0.000000  1
  Pr  Pr2  1  0.798352  0.201648  0.500000  1
  Pr  Pr3  1  0.201648  0.798352  0.500000  1
  Pr  Pr4  1  0.301426  0.301426  0.206066  1
  Pr  Pr5  1  0.698574  0.698574  0.793934  1
  Pr  Pr6  1  0.198574  0.198574  0.706066  1
  Pr  Pr7  1  0.801426  0.801426  0.293934  1
  Cd  Cd8  1  0.018229  0.518229  0.250000  1
  Cd  Cd9  1  0.981771  0.481771  0.750000  1
  Cd  Cd10  1  0.481771  0.981771  0.750000  1
  Cd  Cd11  1  0.518229  0.018229  0.250000  1
  Cd  Cd12  1  0.000000  0.000000  0.000000  1
  Cd  Cd13  1  0.500000  0.500000  0.500000  1
  Au  Au14  1  0.096859  0.096859  0.406057  1
  Au  Au15  1  0.903141  0.903141  0.593943  1
  Au  Au16  1  0.403141  0.403141  0.906057  1
  Au  Au17  1  0.596859  0.596859  0.093943  1
  Au  Au18  1  0.886627  0.165790  0.209061  1
  Au  Au19  1  0.113373  0.834210  0.790939  1
  Au  Au20  1  0.613373  0.334210  0.709061  1
  Au  Au21  1  0.665790  0.386627  0.290939  1
  Au  Au22  1  0.386627  0.665790  0.290939  1
  Au  Au23  1  0.334210  0.613373  0.709061  1
  Au  Au24  1  0.834210  0.113373  0.790939  1
  Au  Au25  1  0.165790  0.886627  0.209061  1
  Au  Au26  1  0.930455  0.655276  0.018505  1
  Au  Au27  1  0.069545  0.344724  0.981495  1
  Au  Au28  1  0.569545  0.844724  0.518505  1
  Au  Au29  1  0.155276  0.430455  0.481495  1
  Au  Au30  1  0.430455  0.155276  0.481495  1
  Au  Au31  1  0.844724  0.569545  0.518505  1
  Au  Au32  1  0.344724  0.069545  0.981495  1
  Au  Au33  1  0.655276  0.930455  0.018505  1
