# generated using pymatgen
data_Rb4Lu(USe4)3
_symmetry_space_group_name_H-M   'P 1'
_cell_length_a   7.68749860
_cell_length_b   7.68626239
_cell_length_c   10.88339704
_cell_angle_alpha   89.91047297
_cell_angle_beta   90.04415623
_cell_angle_gamma   89.99724499
_symmetry_Int_Tables_number   1
_chemical_formula_structural   Rb4Lu(USe4)3
_chemical_formula_sum   'Rb4 Lu1 U3 Se12'
_cell_volume   643.07861676
_cell_formula_units_Z   1
loop_
 _symmetry_equiv_pos_site_id
 _symmetry_equiv_pos_as_xyz
  1  'x, y, z'
loop_
 _atom_site_type_symbol
 _atom_site_label
 _atom_site_symmetry_multiplicity
 _atom_site_fract_x
 _atom_site_fract_y
 _atom_site_fract_z
 _atom_site_occupancy
  Rb  Rb0  1  0.996999  0.013142  0.240646  1
  Rb  Rb1  1  0.495970  0.486802  0.759532  1
  Rb  Rb2  1  0.504030  0.513198  0.240468  1
  Rb  Rb3  1  0.003001  0.986858  0.759354  1
  Lu  Lu4  1  0.500000  0.000000  0.000000  1
  U  U5  1  0.000000  0.500000  0.000000  1
  U  U6  1  0.000000  0.500000  0.500000  1
  U  U7  1  0.500000  0.000000  0.500000  1
  Se  Se8  1  0.732992  0.275459  0.486241  1
  Se  Se9  1  0.224469  0.232740  0.514285  1
  Se  Se10  1  0.778455  0.765396  0.012405  1
  Se  Se11  1  0.265236  0.721762  0.987064  1
  Se  Se12  1  0.267008  0.724541  0.513759  1
  Se  Se13  1  0.775531  0.767260  0.485715  1
  Se  Se14  1  0.221545  0.234604  0.987595  1
  Se  Se15  1  0.734764  0.278238  0.012936  1
  Se  Se16  1  0.027449  0.500758  0.253154  1
  Se  Se17  1  0.526093  0.998225  0.744924  1
  Se  Se18  1  0.473907  0.001775  0.255076  1
  Se  Se19  1  0.972551  0.499242  0.746846  1
