# generated using pymatgen
data_Tb15Mg5Pb16
_symmetry_space_group_name_H-M   'P 1'
_cell_length_a   7.84559100
_cell_length_b   8.36732623
_cell_length_c   15.58348527
_cell_angle_alpha   89.98889679
_cell_angle_beta   89.84396776
_cell_angle_gamma   90.01479102
_symmetry_Int_Tables_number   1
_chemical_formula_structural   Tb15Mg5Pb16
_chemical_formula_sum   'Tb15 Mg5 Pb16'
_cell_volume   1022.99927977
_cell_formula_units_Z   1
loop_
 _symmetry_equiv_pos_site_id
 _symmetry_equiv_pos_as_xyz
  1  'x, y, z'
loop_
 _atom_site_type_symbol
 _atom_site_label
 _atom_site_symmetry_multiplicity
 _atom_site_fract_x
 _atom_site_fract_y
 _atom_site_fract_z
 _atom_site_occupancy
  Tb  Tb0  1  0.837329  0.662189  0.628497  1
  Tb  Tb1  1  0.660341  0.162903  0.372323  1
  Tb  Tb2  1  0.161119  0.339754  0.124311  1
  Tb  Tb3  1  0.655360  0.163431  0.128215  1
  Tb  Tb4  1  0.158459  0.334408  0.371847  1
  Tb  Tb5  1  0.347291  0.833963  0.629635  1
  Tb  Tb6  1  0.835170  0.663453  0.872650  1
  Tb  Tb7  1  0.502821  0.313865  0.910416  1
  Tb  Tb8  1  0.010819  0.186626  0.592372  1
  Tb  Tb9  1  0.499920  0.682116  0.411897  1
  Tb  Tb10  1  0.989330  0.812078  0.090892  1
  Tb  Tb11  1  0.491043  0.685976  0.085621  1
  Tb  Tb12  1  0.996831  0.815087  0.408393  1
  Tb  Tb13  1  0.504729  0.310769  0.589224  1
  Tb  Tb14  1  0.008067  0.187327  0.904586  1
  Mg  Mg15  1  0.344812  0.854373  0.873370  1
  Mg  Mg16  1  0.158679  0.502693  0.748921  1
  Mg  Mg17  1  0.668985  0.995996  0.752602  1
  Mg  Mg18  1  0.835440  0.495399  0.251212  1
  Mg  Mg19  1  0.334786  0.002723  0.251779  1
  Pb  Pb20  1  0.308695  0.035257  0.039728  1
  Pb  Pb21  1  0.812169  0.457750  0.461559  1
  Pb  Pb22  1  0.697248  0.961206  0.541535  1
  Pb  Pb23  1  0.188608  0.549142  0.953249  1
  Pb  Pb24  1  0.687663  0.964417  0.959799  1
  Pb  Pb25  1  0.193430  0.539964  0.539920  1
  Pb  Pb26  1  0.310679  0.037233  0.460373  1
  Pb  Pb27  1  0.809369  0.458661  0.039689  1
  Pb  Pb28  1  0.516761  0.596959  0.757739  1
  Pb  Pb29  1  0.034293  0.894490  0.752002  1
  Pb  Pb30  1  0.473132  0.404567  0.249875  1
  Pb  Pb31  1  0.974524  0.096843  0.247823  1
  Pb  Pb32  1  0.314439  0.161620  0.750410  1
  Pb  Pb33  1  0.805856  0.339599  0.749165  1
  Pb  Pb34  1  0.684152  0.835519  0.249201  1
  Pb  Pb35  1  0.187651  0.661642  0.249172  1
