# generated using pymatgen
data_Ba2ErLu3(SeO3)8
_symmetry_space_group_name_H-M   'P 1'
_cell_length_a   5.55883575
_cell_length_b   10.76901687
_cell_length_c   14.85897441
_cell_angle_alpha   49.57523427
_cell_angle_beta   90.04271867
_cell_angle_gamma   90.00239542
_symmetry_Int_Tables_number   1
_chemical_formula_structural   Ba2ErLu3(SeO3)8
_chemical_formula_sum   'Ba2 Er1 Lu3 Se8 O24'
_cell_volume   677.14310595
_cell_formula_units_Z   1
loop_
 _symmetry_equiv_pos_site_id
 _symmetry_equiv_pos_as_xyz
  1  'x, y, z'
loop_
 _atom_site_type_symbol
 _atom_site_label
 _atom_site_symmetry_multiplicity
 _atom_site_fract_x
 _atom_site_fract_y
 _atom_site_fract_z
 _atom_site_occupancy
  Ba  Ba0  1  0.049886  0.998712  0.750581  1
  Ba  Ba1  1  0.950114  0.001288  0.249419  1
  Er  Er2  1  0.000000  0.500000  0.000000  1
  Lu  Lu3  1  0.000000  0.500000  0.500000  1
  Lu  Lu4  1  0.500000  0.000000  0.000000  1
  Lu  Lu5  1  0.500000  0.000000  0.500000  1
  Se  Se6  1  0.497419  0.323959  0.186572  1
  Se  Se7  1  0.013937  0.742898  0.594928  1
  Se  Se8  1  0.014567  0.255844  0.904180  1
  Se  Se9  1  0.986063  0.257102  0.405072  1
  Se  Se10  1  0.502926  0.323637  0.686202  1
  Se  Se11  1  0.502581  0.676041  0.813428  1
  Se  Se12  1  0.497074  0.676363  0.313798  1
  Se  Se13  1  0.985433  0.744156  0.095820  1
  O  O14  1  0.219716  0.713667  0.345824  1
  O  O15  1  0.274383  0.802949  0.042534  1
  O  O16  1  0.778015  0.714720  0.845349  1
  O  O17  1  0.820729  0.900793  0.971261  1
  O  O18  1  0.725486  0.803327  0.541005  1
  O  O19  1  0.312292  0.338189  0.588197  1
  O  O20  1  0.179271  0.099207  0.028739  1
  O  O21  1  0.686082  0.335056  0.089761  1
  O  O22  1  0.780284  0.286333  0.654176  1
  O  O23  1  0.584837  0.131630  0.312854  1
  O  O24  1  0.687708  0.661811  0.411803  1
  O  O25  1  0.274514  0.196673  0.458995  1
  O  O26  1  0.585698  0.869762  0.188021  1
  O  O27  1  0.821538  0.098981  0.528686  1
  O  O28  1  0.414302  0.130238  0.811979  1
  O  O29  1  0.056916  0.415969  0.901064  1
  O  O30  1  0.725617  0.197051  0.957466  1
  O  O31  1  0.943362  0.416503  0.402961  1
  O  O32  1  0.056638  0.583497  0.597039  1
  O  O33  1  0.415163  0.868370  0.687146  1
  O  O34  1  0.313918  0.664944  0.910239  1
  O  O35  1  0.178462  0.901019  0.471314  1
  O  O36  1  0.943084  0.584031  0.098936  1
  O  O37  1  0.221985  0.285280  0.154651  1
