# generated using pymatgen
data_La20In3Si8Ag
_symmetry_space_group_name_H-M   'P 1'
_cell_length_a   8.03728900
_cell_length_b   8.03728900
_cell_length_c   15.02783100
_cell_angle_alpha   90.00000000
_cell_angle_beta   90.00000000
_cell_angle_gamma   90.00000000
_symmetry_Int_Tables_number   1
_chemical_formula_structural   La20In3Si8Ag
_chemical_formula_sum   'La20 In3 Si8 Ag1'
_cell_volume   970.76804438
_cell_formula_units_Z   1
loop_
 _symmetry_equiv_pos_site_id
 _symmetry_equiv_pos_as_xyz
  1  'x, y, z'
loop_
 _atom_site_type_symbol
 _atom_site_label
 _atom_site_symmetry_multiplicity
 _atom_site_fract_x
 _atom_site_fract_y
 _atom_site_fract_z
 _atom_site_occupancy
  La  La0  1  0.817872  0.832937  0.612107  1
  La  La1  1  0.183974  0.828801  0.112673  1
  La  La2  1  0.168725  0.814976  0.389105  1
  La  La3  1  0.000000  0.500000  0.724228  1
  La  La4  1  0.831275  0.185024  0.389105  1
  La  La5  1  0.685024  0.668725  0.389105  1
  La  La6  1  0.667063  0.317872  0.612107  1
  La  La7  1  0.332937  0.682128  0.612107  1
  La  La8  1  0.000000  0.500000  0.227825  1
  La  La9  1  0.671199  0.683974  0.112673  1
  La  La10  1  0.682072  0.328146  0.888118  1
  La  La11  1  0.828146  0.817928  0.888118  1
  La  La12  1  0.314976  0.331275  0.389105  1
  La  La13  1  0.182128  0.167063  0.612107  1
  La  La14  1  0.816026  0.171199  0.112673  1
  La  La15  1  0.317928  0.671854  0.888118  1
  La  La16  1  0.328801  0.316026  0.112673  1
  La  La17  1  0.500000  0.000000  0.268847  1
  La  La18  1  0.171854  0.182072  0.888118  1
  La  La19  1  0.500000  0.000000  0.768030  1
  In  In20  1  0.500000  0.000000  0.495596  1
  In  In21  1  0.500000  0.000000  0.996315  1
  In  In22  1  0.000000  0.500000  0.003513  1
  Si  Si23  1  0.612779  0.386846  0.250084  1
  Si  Si24  1  0.112845  0.885631  0.751001  1
  Si  Si25  1  0.385631  0.387155  0.751001  1
  Si  Si26  1  0.387221  0.613154  0.250084  1
  Si  Si27  1  0.886846  0.887221  0.250084  1
  Si  Si28  1  0.614369  0.612845  0.751001  1
  Si  Si29  1  0.887155  0.114369  0.751001  1
  Si  Si30  1  0.113154  0.112779  0.250084  1
  Ag  Ag31  1  0.000000  0.500000  0.503295  1
