# generated using pymatgen
data_Nd19Sm(SnSb)8
_symmetry_space_group_name_H-M   'P 1'
_cell_length_a   8.34806600
_cell_length_b   8.40286569
_cell_length_c   15.96528300
_cell_angle_alpha   90.00000000
_cell_angle_beta   90.00000000
_cell_angle_gamma   89.94628306
_symmetry_Int_Tables_number   1
_chemical_formula_structural   Nd19Sm(SnSb)8
_chemical_formula_sum   'Nd19 Sm1 Sn8 Sb8'
_cell_volume   1119.92702919
_cell_formula_units_Z   1
loop_
 _symmetry_equiv_pos_site_id
 _symmetry_equiv_pos_as_xyz
  1  'x, y, z'
loop_
 _atom_site_type_symbol
 _atom_site_label
 _atom_site_symmetry_multiplicity
 _atom_site_fract_x
 _atom_site_fract_y
 _atom_site_fract_z
 _atom_site_occupancy
  Nd  Nd0  1  0.393980  0.836419  0.883238  1
  Nd  Nd1  1  0.894265  0.663921  0.617435  1
  Nd  Nd2  1  0.606489  0.163231  0.382439  1
  Nd  Nd3  1  0.106300  0.336737  0.117731  1
  Nd  Nd4  1  0.606489  0.163231  0.117561  1
  Nd  Nd5  1  0.106300  0.336737  0.382269  1
  Nd  Nd6  1  0.393980  0.836419  0.616762  1
  Nd  Nd7  1  0.894265  0.663921  0.882565  1
  Nd  Nd8  1  0.553632  0.327498  0.892945  1
  Nd  Nd9  1  0.053541  0.172677  0.606586  1
  Nd  Nd10  1  0.445978  0.671994  0.392759  1
  Nd  Nd11  1  0.946036  0.827824  0.107157  1
  Nd  Nd12  1  0.445978  0.671994  0.107241  1
  Nd  Nd13  1  0.946036  0.827824  0.392843  1
  Nd  Nd14  1  0.553632  0.327498  0.607055  1
  Nd  Nd15  1  0.053541  0.172677  0.893414  1
  Nd  Nd16  1  0.223005  0.497226  0.750000  1
  Nd  Nd17  1  0.722892  0.002841  0.750000  1
  Nd  Nd18  1  0.776946  0.502936  0.250000  1
  Sm  Sm19  1  0.276301  0.997524  0.250000  1
  Sn  Sn20  1  0.593239  0.624466  0.750000  1
  Sn  Sn21  1  0.093886  0.876288  0.750000  1
  Sn  Sn22  1  0.406254  0.374086  0.250000  1
  Sn  Sn23  1  0.907931  0.123971  0.250000  1
  Sn  Sn24  1  0.355174  0.136672  0.750000  1
  Sn  Sn25  1  0.855639  0.362828  0.750000  1
  Sn  Sn26  1  0.642213  0.862831  0.250000  1
  Sn  Sn27  1  0.144701  0.639445  0.250000  1
  Sb  Sb28  1  0.266362  0.016357  0.049111  1
  Sb  Sb29  1  0.765904  0.482698  0.452876  1
  Sb  Sb30  1  0.734329  0.982977  0.547180  1
  Sb  Sb31  1  0.234096  0.517108  0.952941  1
  Sb  Sb32  1  0.734329  0.982977  0.952820  1
  Sb  Sb33  1  0.234096  0.517108  0.547059  1
  Sb  Sb34  1  0.266362  0.016357  0.450889  1
  Sb  Sb35  1  0.765904  0.482698  0.047124  1
