# generated using pymatgen
data_Sr20SiBi8P3
_symmetry_space_group_name_H-M   'P 1'
_cell_length_a   8.72054616
_cell_length_b   9.98796800
_cell_length_c   13.52847860
_cell_angle_alpha   90.00000000
_cell_angle_beta   90.67004622
_cell_angle_gamma   90.00000000
_symmetry_Int_Tables_number   1
_chemical_formula_structural   Sr20SiBi8P3
_chemical_formula_sum   'Sr20 Si1 Bi8 P3'
_cell_volume   1178.25716245
_cell_formula_units_Z   1
loop_
 _symmetry_equiv_pos_site_id
 _symmetry_equiv_pos_as_xyz
  1  'x, y, z'
loop_
 _atom_site_type_symbol
 _atom_site_label
 _atom_site_symmetry_multiplicity
 _atom_site_fract_x
 _atom_site_fract_y
 _atom_site_fract_z
 _atom_site_occupancy
  Sr  Sr0  1  0.819630  0.533476  0.073743  1
  Sr  Sr1  1  0.678269  0.970591  0.573371  1
  Sr  Sr2  1  0.180793  0.034822  0.927214  1
  Sr  Sr3  1  0.319415  0.463769  0.424936  1
  Sr  Sr4  1  0.180793  0.465178  0.927214  1
  Sr  Sr5  1  0.319415  0.036231  0.424936  1
  Sr  Sr6  1  0.819630  0.966524  0.073743  1
  Sr  Sr7  1  0.678269  0.529409  0.573371  1
  Sr  Sr8  1  0.166994  0.750000  0.212960  1
  Sr  Sr9  1  0.337226  0.750000  0.711508  1
  Sr  Sr10  1  0.836754  0.250000  0.791569  1
  Sr  Sr11  1  0.660737  0.250000  0.290379  1
  Sr  Sr12  1  0.450489  0.750000  0.000671  1
  Sr  Sr13  1  0.053245  0.750000  0.498692  1
  Sr  Sr14  1  0.548474  0.250000  0.998694  1
  Sr  Sr15  1  0.950678  0.250000  0.499818  1
  Sr  Sr16  1  0.636385  0.750000  0.298602  1
  Sr  Sr17  1  0.866032  0.750000  0.805570  1
  Sr  Sr18  1  0.365523  0.250000  0.698088  1
  Sr  Sr19  1  0.134157  0.250000  0.196998  1
  Si  Si20  1  0.434526  0.750000  0.488328  1
  Bi  Bi21  1  0.935471  0.507202  0.327719  1
  Bi  Bi22  1  0.567172  0.990497  0.829926  1
  Bi  Bi23  1  0.060555  0.008719  0.672213  1
  Bi  Bi24  1  0.433216  0.488287  0.168154  1
  Bi  Bi25  1  0.060555  0.491281  0.672213  1
  Bi  Bi26  1  0.433216  0.011713  0.168154  1
  Bi  Bi27  1  0.935471  0.992798  0.327719  1
  Bi  Bi28  1  0.567172  0.509503  0.829926  1
  P  P29  1  0.069694  0.750000  0.989457  1
  P  P30  1  0.569842  0.250000  0.512258  1
  P  P31  1  0.930203  0.250000  0.011857  1
