# generated using pymatgen
data_La7Nd9AlCd3Ir4
_symmetry_space_group_name_H-M   'P 1'
_cell_length_a   10.00226398
_cell_length_b   10.00700693
_cell_length_c   10.04647371
_cell_angle_alpha   59.73831626
_cell_angle_beta   60.10637025
_cell_angle_gamma   60.30068240
_symmetry_Int_Tables_number   1
_chemical_formula_structural   La7Nd9AlCd3Ir4
_chemical_formula_sum   'La7 Nd9 Al1 Cd3 Ir4'
_cell_volume   711.79735307
_cell_formula_units_Z   1
loop_
 _symmetry_equiv_pos_site_id
 _symmetry_equiv_pos_as_xyz
  1  'x, y, z'
loop_
 _atom_site_type_symbol
 _atom_site_label
 _atom_site_symmetry_multiplicity
 _atom_site_fract_x
 _atom_site_fract_y
 _atom_site_fract_z
 _atom_site_occupancy
  La  La0  1  0.345550  0.346640  0.348967  1
  La  La1  1  0.350193  0.347434  0.955158  1
  La  La2  1  0.351822  0.954255  0.348182  1
  La  La3  1  0.955086  0.350585  0.349867  1
  La  La4  1  0.810523  0.189445  0.187230  1
  La  La5  1  0.188651  0.809828  0.807790  1
  La  La6  1  0.189249  0.810671  0.188940  1
  Nd  Nd7  1  0.805548  0.193251  0.805681  1
  Nd  Nd8  1  0.190428  0.192543  0.807210  1
  Nd  Nd9  1  0.803657  0.805590  0.192678  1
  Nd  Nd10  1  0.934616  0.563493  0.565830  1
  Nd  Nd11  1  0.563544  0.936738  0.935614  1
  Nd  Nd12  1  0.563620  0.935983  0.564291  1
  Nd  Nd13  1  0.937125  0.562405  0.936829  1
  Nd  Nd14  1  0.563644  0.562336  0.936146  1
  Nd  Nd15  1  0.936846  0.937973  0.563300  1
  Al  Al16  1  0.582859  0.579441  0.579071  1
  Cd  Cd17  1  0.581332  0.580717  0.261703  1
  Cd  Cd18  1  0.579655  0.261562  0.581654  1
  Cd  Cd19  1  0.261553  0.578555  0.581177  1
  Ir  Ir20  1  0.139285  0.139958  0.143831  1
  Ir  Ir21  1  0.143157  0.138405  0.576520  1
  Ir  Ir22  1  0.144792  0.578029  0.139191  1
  Ir  Ir23  1  0.577266  0.144161  0.143138  1
