# generated using pymatgen
data_Nd2Zr4Sn6Ir5Rh
_symmetry_space_group_name_H-M   'P 1'
_cell_length_a   7.50181051
_cell_length_b   7.52541181
_cell_length_c   7.59106600
_cell_angle_alpha   90.00000000
_cell_angle_beta   90.00000000
_cell_angle_gamma   119.95055367
_symmetry_Int_Tables_number   1
_chemical_formula_structural   Nd2Zr4Sn6Ir5Rh
_chemical_formula_sum   'Nd2 Zr4 Sn6 Ir5 Rh1'
_cell_volume   371.31794066
_cell_formula_units_Z   1
loop_
 _symmetry_equiv_pos_site_id
 _symmetry_equiv_pos_as_xyz
  1  'x, y, z'
loop_
 _atom_site_type_symbol
 _atom_site_label
 _atom_site_symmetry_multiplicity
 _atom_site_fract_x
 _atom_site_fract_y
 _atom_site_fract_z
 _atom_site_occupancy
  Nd  Nd0  1  0.591069  0.999187  0.250000  1
  Nd  Nd1  1  0.410669  0.406558  0.250000  1
  Zr  Zr2  1  0.611312  0.004475  0.750000  1
  Zr  Zr3  1  0.387359  0.393766  0.750000  1
  Zr  Zr4  1  0.001019  0.605626  0.750000  1
  Zr  Zr5  1  0.005077  0.599026  0.250000  1
  Sn  Sn6  1  0.264932  0.999560  0.988884  1
  Sn  Sn7  1  0.735351  0.733165  0.510469  1
  Sn  Sn8  1  0.999192  0.266785  0.495964  1
  Sn  Sn9  1  0.999192  0.266785  0.004036  1
  Sn  Sn10  1  0.735351  0.733165  0.989531  1
  Sn  Sn11  1  0.264932  0.999560  0.511116  1
  Ir  Ir12  1  0.672592  0.338106  0.963129  1
  Ir  Ir13  1  0.672592  0.338106  0.536871  1
  Ir  Ir14  1  0.324852  0.665149  0.967448  1
  Ir  Ir15  1  0.324852  0.665149  0.532552  1
  Ir  Ir16  1  0.999299  0.005634  0.750000  1
  Rh  Rh17  1  0.000360  0.980199  0.250000  1
