# generated using pymatgen
data_Tb9YCd6(InNi2)2
_symmetry_space_group_name_H-M   'P 1'
_cell_length_a   3.57680200
_cell_length_b   7.95474097
_cell_length_c   18.26008734
_cell_angle_alpha   89.66366272
_cell_angle_beta   90.00000000
_cell_angle_gamma   90.00000000
_symmetry_Int_Tables_number   1
_chemical_formula_structural   Tb9YCd6(InNi2)2
_chemical_formula_sum   'Tb9 Y1 Cd6 In2 Ni4'
_cell_volume   519.53679369
_cell_formula_units_Z   1
loop_
 _symmetry_equiv_pos_site_id
 _symmetry_equiv_pos_as_xyz
  1  'x, y, z'
loop_
 _atom_site_type_symbol
 _atom_site_label
 _atom_site_symmetry_multiplicity
 _atom_site_fract_x
 _atom_site_fract_y
 _atom_site_fract_z
 _atom_site_occupancy
  Tb  Tb0  1  0.000000  0.500000  0.500000  1
  Tb  Tb1  1  0.000000  0.749408  0.279184  1
  Tb  Tb2  1  0.000000  0.250592  0.720816  1
  Tb  Tb3  1  0.000000  0.746361  0.777977  1
  Tb  Tb4  1  0.000000  0.253639  0.222023  1
  Tb  Tb5  1  0.000000  0.614743  0.088699  1
  Tb  Tb6  1  0.000000  0.385257  0.911301  1
  Tb  Tb7  1  0.000000  0.886394  0.588195  1
  Tb  Tb8  1  0.000000  0.113606  0.411805  1
  Y  Y9  1  0.000000  0.000000  0.000000  1
  Cd  Cd10  1  0.500000  0.709574  0.930081  1
  Cd  Cd11  1  0.500000  0.290426  0.069919  1
  Cd  Cd12  1  0.500000  0.788682  0.429476  1
  Cd  Cd13  1  0.500000  0.211318  0.570524  1
  Cd  Cd14  1  0.500000  0.567525  0.650418  1
  Cd  Cd15  1  0.500000  0.432475  0.349582  1
  In  In16  1  0.500000  0.934588  0.151262  1
  In  In17  1  0.500000  0.065412  0.848738  1
  Ni  Ni18  1  0.500000  0.530270  0.196475  1
  Ni  Ni19  1  0.500000  0.469730  0.803525  1
  Ni  Ni20  1  0.500000  0.970707  0.697038  1
  Ni  Ni21  1  0.500000  0.029293  0.302962  1
