# generated using pymatgen
data_Tm4Lu2MgCo17P12
_symmetry_space_group_name_H-M   'P 1'
_cell_length_a   3.68635400
_cell_length_b   10.51492200
_cell_length_c   12.15271200
_cell_angle_alpha   90.00000000
_cell_angle_beta   90.00000000
_cell_angle_gamma   90.00000000
_symmetry_Int_Tables_number   1
_chemical_formula_structural   Tm4Lu2MgCo17P12
_chemical_formula_sum   'Tm4 Lu2 Mg1 Co17 P12'
_cell_volume   471.06007781
_cell_formula_units_Z   1
loop_
 _symmetry_equiv_pos_site_id
 _symmetry_equiv_pos_as_xyz
  1  'x, y, z'
loop_
 _atom_site_type_symbol
 _atom_site_label
 _atom_site_symmetry_multiplicity
 _atom_site_fract_x
 _atom_site_fract_y
 _atom_site_fract_z
 _atom_site_occupancy
  Tm  Tm0  1  0.000000  0.500000  0.525832  1
  Tm  Tm1  1  0.500000  0.000000  0.477399  1
  Tm  Tm2  1  0.000000  0.682097  0.794372  1
  Tm  Tm3  1  0.000000  0.317903  0.794372  1
  Lu  Lu4  1  0.500000  0.822490  0.207719  1
  Lu  Lu5  1  0.500000  0.177510  0.207719  1
  Mg  Mg6  1  0.500000  0.500000  0.154217  1
  Co  Co7  1  0.000000  0.000000  0.837576  1
  Co  Co8  1  0.500000  0.500000  0.704262  1
  Co  Co9  1  0.000000  0.000000  0.295932  1
  Co  Co10  1  0.000000  0.500000  0.986328  1
  Co  Co11  1  0.500000  0.000000  0.012656  1
  Co  Co12  1  0.500000  0.328931  0.993020  1
  Co  Co13  1  0.500000  0.671069  0.993020  1
  Co  Co14  1  0.000000  0.163186  0.001912  1
  Co  Co15  1  0.000000  0.836814  0.001912  1
  Co  Co16  1  0.500000  0.295799  0.433193  1
  Co  Co17  1  0.500000  0.704201  0.433193  1
  Co  Co18  1  0.000000  0.201952  0.570142  1
  Co  Co19  1  0.000000  0.798048  0.570142  1
  Co  Co20  1  0.500000  0.879346  0.707907  1
  Co  Co21  1  0.500000  0.120654  0.707907  1
  Co  Co22  1  0.000000  0.623932  0.293291  1
  Co  Co23  1  0.000000  0.376068  0.293291  1
  P  P24  1  0.500000  0.500000  0.882986  1
  P  P25  1  0.000000  0.000000  0.117241  1
  P  P26  1  0.500000  0.500000  0.355555  1
  P  P27  1  0.000000  0.000000  0.653309  1
  P  P28  1  0.500000  0.310949  0.617765  1
  P  P29  1  0.500000  0.689051  0.617765  1
  P  P30  1  0.000000  0.187701  0.384858  1
  P  P31  1  0.000000  0.812299  0.384858  1
  P  P32  1  0.500000  0.849175  0.889071  1
  P  P33  1  0.500000  0.150825  0.889071  1
  P  P34  1  0.000000  0.664108  0.105103  1
  P  P35  1  0.000000  0.335892  0.105103  1
