# generated using pymatgen
data_Na2BiSb(PS3)4
_symmetry_space_group_name_H-M   'P 1'
_cell_length_a   6.64257084
_cell_length_b   7.64874497
_cell_length_c   9.50449896
_cell_angle_alpha   89.68526936
_cell_angle_beta   92.58406860
_cell_angle_gamma   89.79500545
_symmetry_Int_Tables_number   1
_chemical_formula_structural   Na2BiSb(PS3)4
_chemical_formula_sum   'Na2 Bi1 Sb1 P4 S12'
_cell_volume   482.39636511
_cell_formula_units_Z   1
loop_
 _symmetry_equiv_pos_site_id
 _symmetry_equiv_pos_as_xyz
  1  'x, y, z'
loop_
 _atom_site_type_symbol
 _atom_site_label
 _atom_site_symmetry_multiplicity
 _atom_site_fract_x
 _atom_site_fract_y
 _atom_site_fract_z
 _atom_site_occupancy
  Na  Na0  1  0.307116  0.954342  0.493385  1
  Na  Na1  1  0.694685  0.455109  0.505520  1
  Bi  Bi2  1  0.197624  0.229816  0.017549  1
  Sb  Sb3  1  0.810254  0.743031  0.983201  1
  P  P4  1  0.311602  0.666655  0.181093  1
  P  P5  1  0.185501  0.453288  0.317035  1
  P  P6  1  0.811458  0.952948  0.682469  1
  P  P7  1  0.689483  0.168120  0.816011  1
  S  S8  1  0.655593  0.051052  0.013599  1
  S  S9  1  0.089402  0.859849  0.173674  1
  S  S10  1  0.937603  0.375899  0.194496  1
  S  S11  1  0.567765  0.758150  0.271792  1
  S  S12  1  0.398877  0.262116  0.303798  1
  S  S13  1  0.872123  0.053909  0.498084  1
  S  S14  1  0.130308  0.554960  0.501668  1
  S  S15  1  0.602247  0.762190  0.699321  1
  S  S16  1  0.426484  0.254097  0.729042  1
  S  S17  1  0.058823  0.874986  0.810442  1
  S  S18  1  0.904576  0.359894  0.822289  1
  S  S19  1  0.348479  0.556192  0.985537  1
