# generated using pymatgen
data_Tb3LuMg2Rh3
_symmetry_space_group_name_H-M   'P 1'
_cell_length_a   7.46545100
_cell_length_b   7.43136478
_cell_length_c   4.09146300
_cell_angle_alpha   90.00000000
_cell_angle_beta   90.00000000
_cell_angle_gamma   120.15184216
_symmetry_Int_Tables_number   1
_chemical_formula_structural   Tb3LuMg2Rh3
_chemical_formula_sum   'Tb3 Lu1 Mg2 Rh3'
_cell_volume   196.27607111
_cell_formula_units_Z   1
loop_
 _symmetry_equiv_pos_site_id
 _symmetry_equiv_pos_as_xyz
  1  'x, y, z'
loop_
 _atom_site_type_symbol
 _atom_site_label
 _atom_site_symmetry_multiplicity
 _atom_site_fract_x
 _atom_site_fract_y
 _atom_site_fract_z
 _atom_site_occupancy
  Tb  Tb0  1  0.983246  0.568654  0.500000  1
  Tb  Tb1  1  0.414594  0.431346  0.500000  1
  Tb  Tb2  1  0.605824  0.000000  0.500000  1
  Lu  Lu3  1  0.246986  0.000000  0.000000  1
  Mg  Mg4  1  0.754058  0.752834  0.000000  1
  Mg  Mg5  1  0.001224  0.247166  0.000000  1
  Rh  Rh6  1  0.332057  0.673328  0.000000  1
  Rh  Rh7  1  0.003279  0.000000  0.500000  1
  Rh  Rh8  1  0.658730  0.326672  0.000000  1
