# generated using pymatgen
data_DyAl3Pt8
_symmetry_space_group_name_H-M   'P 1'
_cell_length_a   16.62961100
_cell_length_b   4.04792600
_cell_length_c   5.63862500
_cell_angle_alpha   90.00000000
_cell_angle_beta   90.00000000
_cell_angle_gamma   90.00000000
_symmetry_Int_Tables_number   1
_chemical_formula_structural   DyAl3Pt8
_chemical_formula_sum   'Dy2 Al6 Pt16'
_cell_volume   379.56649319
_cell_formula_units_Z   2
loop_
 _symmetry_equiv_pos_site_id
 _symmetry_equiv_pos_as_xyz
  1  'x, y, z'
loop_
 _atom_site_type_symbol
 _atom_site_label
 _atom_site_symmetry_multiplicity
 _atom_site_fract_x
 _atom_site_fract_y
 _atom_site_fract_z
 _atom_site_occupancy
  Dy  Dy0  1  0.250000  0.000000  0.800154  1
  Dy  Dy1  1  0.750000  0.000000  0.199847  1
  Al  Al2  1  0.091600  0.000000  0.313099  1
  Al  Al3  1  0.408400  0.000000  0.313099  1
  Al  Al4  1  0.591600  0.000000  0.686901  1
  Al  Al5  1  0.908399  0.000000  0.686901  1
  Al  Al6  1  0.000000  0.499999  0.000000  1
  Al  Al7  1  0.500000  0.499999  0.000000  1
  Pt  Pt8  1  0.250000  0.000000  0.290419  1
  Pt  Pt9  1  0.750000  0.000000  0.709582  1
  Pt  Pt10  1  0.163891  0.499999  0.545818  1
  Pt  Pt11  1  0.336109  0.499999  0.545818  1
  Pt  Pt12  1  0.663890  0.499999  0.454181  1
  Pt  Pt13  1  0.836110  0.499999  0.454181  1
  Pt  Pt14  1  0.152460  0.499999  0.055296  1
  Pt  Pt15  1  0.347541  0.499999  0.055296  1
  Pt  Pt16  1  0.652460  0.499999  0.944703  1
  Pt  Pt17  1  0.847541  0.499999  0.944703  1
  Pt  Pt18  1  0.000000  0.499999  0.499999  1
  Pt  Pt19  1  0.500000  0.499999  0.499999  1
  Pt  Pt20  1  0.065729  0.000000  0.794734  1
  Pt  Pt21  1  0.434271  0.000000  0.794734  1
  Pt  Pt22  1  0.565728  0.000000  0.205266  1
  Pt  Pt23  1  0.934271  0.000000  0.205266  1
