# generated using pymatgen
data_BeNb10Ga2P3
_symmetry_space_group_name_H-M   'P 1'
_cell_length_a   7.54693129
_cell_length_b   7.54693013
_cell_length_c   7.55689800
_cell_angle_alpha   128.21877364
_cell_angle_beta   128.21876669
_cell_angle_gamma   76.17447866
_symmetry_Int_Tables_number   1
_chemical_formula_structural   BeNb10Ga2P3
_chemical_formula_sum   'Be1 Nb10 Ga2 P3'
_cell_volume   258.36466345
_cell_formula_units_Z   1
loop_
 _symmetry_equiv_pos_site_id
 _symmetry_equiv_pos_as_xyz
  1  'x, y, z'
loop_
 _atom_site_type_symbol
 _atom_site_label
 _atom_site_symmetry_multiplicity
 _atom_site_fract_x
 _atom_site_fract_y
 _atom_site_fract_z
 _atom_site_occupancy
  Be  Be0  1  0.373704  0.126296  0.500000  1
  Nb  Nb1  1  0.023800  0.191583  0.500000  1
  Nb  Nb2  1  0.695142  0.517431  0.500000  1
  Nb  Nb3  1  0.514922  0.019351  0.824435  1
  Nb  Nb4  1  0.190488  0.694916  0.175565  1
  Nb  Nb5  1  0.982569  0.804858  0.500000  1
  Nb  Nb6  1  0.308417  0.476200  0.500000  1
  Nb  Nb7  1  0.480649  0.985078  0.175565  1
  Nb  Nb8  1  0.805084  0.309512  0.824435  1
  Nb  Nb9  1  0.001714  0.999294  0.001008  1
  Nb  Nb10  1  0.500706  0.498286  0.998992  1
  Ga  Ga11  1  0.748807  0.751193  0.000000  1
  Ga  Ga12  1  0.248807  0.251193  0.000000  1
  P  P13  1  0.621422  0.878578  0.500000  1
  P  P14  1  0.865074  0.361303  0.226376  1
  P  P15  1  0.138697  0.634926  0.773624  1
