# generated using pymatgen
data_Dy5Ho3Re(TcB8)3
_symmetry_space_group_name_H-M   'P 1'
_cell_length_a   3.68270200
_cell_length_b   9.15655013
_cell_length_c   11.53916800
_cell_angle_alpha   90.02728167
_cell_angle_beta   90.00000000
_cell_angle_gamma   90.00000000
_symmetry_Int_Tables_number   1
_chemical_formula_structural   Dy5Ho3Re(TcB8)3
_chemical_formula_sum   'Dy5 Ho3 Re1 Tc3 B24'
_cell_volume   389.11045701
_cell_formula_units_Z   1
loop_
 _symmetry_equiv_pos_site_id
 _symmetry_equiv_pos_as_xyz
  1  'x, y, z'
loop_
 _atom_site_type_symbol
 _atom_site_label
 _atom_site_symmetry_multiplicity
 _atom_site_fract_x
 _atom_site_fract_y
 _atom_site_fract_z
 _atom_site_occupancy
  Dy  Dy0  1  0.000000  0.324152  0.414141  1
  Dy  Dy1  1  0.000000  0.676122  0.585913  1
  Dy  Dy2  1  0.000000  0.823795  0.085884  1
  Dy  Dy3  1  0.000000  0.176470  0.914210  1
  Dy  Dy4  1  0.000000  0.942637  0.369135  1
  Ho  Ho5  1  0.000000  0.058030  0.630262  1
  Ho  Ho6  1  0.000000  0.442642  0.130912  1
  Ho  Ho7  1  0.000000  0.556306  0.869552  1
  Re  Re8  1  0.000000  0.861249  0.820551  1
  Tc  Tc9  1  0.000000  0.638444  0.320308  1
  Tc  Tc10  1  0.000000  0.361239  0.679702  1
  Tc  Tc11  1  0.000000  0.139205  0.179444  1
  B  B12  1  0.500000  0.553335  0.432798  1
  B  B13  1  0.500000  0.446613  0.567336  1
  B  B14  1  0.500000  0.053565  0.067192  1
  B  B15  1  0.500000  0.946698  0.932921  1
  B  B16  1  0.500000  0.748534  0.418301  1
  B  B17  1  0.500000  0.251239  0.581668  1
  B  B18  1  0.500000  0.249132  0.081614  1
  B  B19  1  0.500000  0.750546  0.918474  1
  B  B20  1  0.500000  0.791364  0.265106  1
  B  B21  1  0.500000  0.208205  0.734641  1
  B  B22  1  0.500000  0.292016  0.234774  1
  B  B23  1  0.500000  0.707810  0.765350  1
  B  B24  1  0.500000  0.630404  0.185453  1
  B  B25  1  0.500000  0.369217  0.814459  1
  B  B26  1  0.500000  0.131030  0.314298  1
  B  B27  1  0.500000  0.869556  0.685437  1
  B  B28  1  0.500000  0.982587  0.211445  1
  B  B29  1  0.500000  0.017981  0.788047  1
  B  B30  1  0.500000  0.482189  0.288202  1
  B  B31  1  0.500000  0.517621  0.711922  1
  B  B32  1  0.500000  0.599321  0.027859  1
  B  B33  1  0.500000  0.400094  0.972327  1
  B  B34  1  0.500000  0.100336  0.472182  1
  B  B35  1  0.500000  0.900316  0.528181  1
