# generated using pymatgen
data_Er6Al24FeRu2Rh5
_symmetry_space_group_name_H-M   'P 1'
_cell_length_a   8.76301300
_cell_length_b   8.79209527
_cell_length_c   9.43118725
_cell_angle_alpha   90.12752906
_cell_angle_beta   90.00000000
_cell_angle_gamma   119.89063613
_symmetry_Int_Tables_number   1
_chemical_formula_structural   Er6Al24FeRu2Rh5
_chemical_formula_sum   'Er6 Al24 Fe1 Ru2 Rh5'
_cell_volume   629.96867888
_cell_formula_units_Z   1
loop_
 _symmetry_equiv_pos_site_id
 _symmetry_equiv_pos_as_xyz
  1  'x, y, z'
loop_
 _atom_site_type_symbol
 _atom_site_label
 _atom_site_symmetry_multiplicity
 _atom_site_fract_x
 _atom_site_fract_y
 _atom_site_fract_z
 _atom_site_occupancy
  Er  Er0  1  0.192838  0.385676  0.250005  1
  Er  Er1  1  0.807162  0.614324  0.749995  1
  Er  Er2  1  0.613017  0.808626  0.250237  1
  Er  Er3  1  0.386983  0.191374  0.749763  1
  Er  Er4  1  0.195609  0.808626  0.250237  1
  Er  Er5  1  0.804391  0.191374  0.749763  1
  Al  Al6  1  0.333359  0.666720  0.028290  1
  Al  Al7  1  0.666641  0.333280  0.971710  1
  Al  Al8  1  0.665719  0.331438  0.524616  1
  Al  Al9  1  0.334281  0.668562  0.475384  1
  Al  Al10  1  0.159416  0.318833  0.576521  1
  Al  Al11  1  0.840584  0.681167  0.423479  1
  Al  Al12  1  0.679804  0.841151  0.575827  1
  Al  Al13  1  0.838080  0.676158  0.077360  1
  Al  Al14  1  0.320196  0.158849  0.424173  1
  Al  Al15  1  0.161920  0.323842  0.922640  1
  Al  Al16  1  0.161347  0.841151  0.575827  1
  Al  Al17  1  0.324987  0.163077  0.076616  1
  Al  Al18  1  0.838653  0.158849  0.424173  1
  Al  Al19  1  0.675013  0.836923  0.923384  1
  Al  Al20  1  0.838091  0.163077  0.076616  1
  Al  Al21  1  0.161909  0.836923  0.923384  1
  Al  Al22  1  0.562215  0.124431  0.250648  1
  Al  Al23  1  0.437785  0.875569  0.749352  1
  Al  Al24  1  0.876967  0.439046  0.249627  1
  Al  Al25  1  0.123033  0.560954  0.750373  1
  Al  Al26  1  0.562077  0.439046  0.249627  1
  Al  Al27  1  0.437923  0.560954  0.750373  1
  Al  Al28  1  0.000525  0.001049  0.255526  1
  Al  Al29  1  0.999475  0.998951  0.744474  1
  Fe  Fe30  1  0.000000  0.000000  0.500000  1
  Ru  Ru31  1  0.500000  0.000000  0.500000  1
  Ru  Ru32  1  0.000000  0.000000  0.000000  1
  Rh  Rh33  1  0.500000  0.000000  0.000000  1
  Rh  Rh34  1  0.000000  0.500000  0.000000  1
  Rh  Rh35  1  0.500000  0.500000  0.000000  1
  Rh  Rh36  1  0.000000  0.500000  0.500000  1
  Rh  Rh37  1  0.500000  0.500000  0.500000  1
