# generated using pymatgen
data_Ac8Ni6Ag
_symmetry_space_group_name_H-M   'P 1'
_cell_length_a   7.74434737
_cell_length_b   7.74434704
_cell_length_c   7.74434669
_cell_angle_alpha   74.21987687
_cell_angle_beta   74.21987396
_cell_angle_gamma   74.21988529
_symmetry_Int_Tables_number   1
_chemical_formula_structural   Ac8Ni6Ag
_chemical_formula_sum   'Ac8 Ni6 Ag1'
_cell_volume   420.17126190
_cell_formula_units_Z   1
loop_
 _symmetry_equiv_pos_site_id
 _symmetry_equiv_pos_as_xyz
  1  'x, y, z'
loop_
 _atom_site_type_symbol
 _atom_site_label
 _atom_site_symmetry_multiplicity
 _atom_site_fract_x
 _atom_site_fract_y
 _atom_site_fract_z
 _atom_site_occupancy
  Ac  Ac0  1  0.300508  0.300508  0.300508  1
  Ac  Ac1  1  0.699492  0.699492  0.699492  1
  Ac  Ac2  1  0.814794  0.334502  0.137295  1
  Ac  Ac3  1  0.334502  0.137295  0.814794  1
  Ac  Ac4  1  0.137295  0.814794  0.334502  1
  Ac  Ac5  1  0.185206  0.665498  0.862705  1
  Ac  Ac6  1  0.665498  0.862705  0.185206  1
  Ac  Ac7  1  0.862705  0.185206  0.665498  1
  Ni  Ni8  1  0.465792  0.636108  0.080242  1
  Ni  Ni9  1  0.636108  0.080242  0.465792  1
  Ni  Ni10  1  0.080242  0.465792  0.636108  1
  Ni  Ni11  1  0.534208  0.363892  0.919758  1
  Ni  Ni12  1  0.363892  0.919758  0.534208  1
  Ni  Ni13  1  0.919758  0.534208  0.363892  1
  Ag  Ag14  1  0.500000  0.500000  0.500000  1
