# generated using pymatgen
data_Dy3Er7(GaBi2)2
_symmetry_space_group_name_H-M   'P 1'
_cell_length_a   8.04529422
_cell_length_b   9.23942800
_cell_length_c   12.03651833
_cell_angle_alpha   90.00000000
_cell_angle_beta   90.02675768
_cell_angle_gamma   90.00000000
_symmetry_Int_Tables_number   1
_chemical_formula_structural   Dy3Er7(GaBi2)2
_chemical_formula_sum   'Dy6 Er14 Ga4 Bi8'
_cell_volume   894.72145293
_cell_formula_units_Z   2
loop_
 _symmetry_equiv_pos_site_id
 _symmetry_equiv_pos_as_xyz
  1  'x, y, z'
loop_
 _atom_site_type_symbol
 _atom_site_label
 _atom_site_symmetry_multiplicity
 _atom_site_fract_x
 _atom_site_fract_y
 _atom_site_fract_z
 _atom_site_occupancy
  Dy  Dy0  1  0.668340  0.750000  0.715563  1
  Dy  Dy1  1  0.331660  0.250000  0.284437  1
  Dy  Dy2  1  0.168547  0.250000  0.784342  1
  Dy  Dy3  1  0.831453  0.750000  0.215658  1
  Dy  Dy4  1  0.143647  0.750000  0.794587  1
  Dy  Dy5  1  0.856353  0.250000  0.205413  1
  Er  Er6  1  0.643582  0.250000  0.705391  1
  Er  Er7  1  0.356418  0.750000  0.294609  1
  Er  Er8  1  0.539879  0.750000  0.002615  1
  Er  Er9  1  0.460121  0.250000  0.997385  1
  Er  Er10  1  0.040018  0.250000  0.497581  1
  Er  Er11  1  0.959982  0.750000  0.502419  1
  Er  Er12  1  0.819169  0.446545  0.936119  1
  Er  Er13  1  0.180831  0.553455  0.063881  1
  Er  Er14  1  0.319371  0.553482  0.563566  1
  Er  Er15  1  0.180831  0.946545  0.063881  1
  Er  Er16  1  0.680629  0.446518  0.436434  1
  Er  Er17  1  0.819169  0.053455  0.936119  1
  Er  Er18  1  0.680629  0.053482  0.436434  1
  Er  Er19  1  0.319371  0.946518  0.563566  1
  Ga  Ga20  1  0.908306  0.750000  0.975351  1
  Ga  Ga21  1  0.091694  0.250000  0.024649  1
  Ga  Ga22  1  0.409034  0.250000  0.525244  1
  Ga  Ga23  1  0.590966  0.750000  0.474756  1
  Bi  Bi24  1  0.934993  0.008959  0.673699  1
  Bi  Bi25  1  0.065007  0.991041  0.326301  1
  Bi  Bi26  1  0.435812  0.991593  0.826083  1
  Bi  Bi27  1  0.065007  0.508959  0.326301  1
  Bi  Bi28  1  0.564188  0.008407  0.173917  1
  Bi  Bi29  1  0.934993  0.491041  0.673699  1
  Bi  Bi30  1  0.564188  0.491593  0.173917  1
  Bi  Bi31  1  0.435812  0.508407  0.826083  1
