# generated using pymatgen
data_KLaEr2(Ge4N7)2
_symmetry_space_group_name_H-M   'P 1'
_cell_length_a   6.29860600
_cell_length_b   6.29861844
_cell_length_c   10.25265100
_cell_angle_alpha   90.00027773
_cell_angle_beta   89.99996526
_cell_angle_gamma   120.00003787
_symmetry_Int_Tables_number   1
_chemical_formula_structural   KLaEr2(Ge4N7)2
_chemical_formula_sum   'K1 La1 Er2 Ge8 N14'
_cell_volume   352.25436502
_cell_formula_units_Z   1
loop_
 _symmetry_equiv_pos_site_id
 _symmetry_equiv_pos_as_xyz
  1  'x, y, z'
loop_
 _atom_site_type_symbol
 _atom_site_label
 _atom_site_symmetry_multiplicity
 _atom_site_fract_x
 _atom_site_fract_y
 _atom_site_fract_z
 _atom_site_occupancy
  K  K0  1  0.666663  0.333333  0.579327  1
  La  La1  1  0.333334  0.666674  0.077258  1
  Er  Er2  1  0.666667  0.333331  0.946473  1
  Er  Er3  1  0.333333  0.666665  0.455812  1
  Ge  Ge4  1  0.174070  0.348143  0.761458  1
  Ge  Ge5  1  0.827180  0.172821  0.260128  1
  Ge  Ge6  1  0.345643  0.172819  0.260123  1
  Ge  Ge7  1  0.651848  0.825927  0.761454  1
  Ge  Ge8  1  0.174079  0.825925  0.761453  1
  Ge  Ge9  1  0.827176  0.654348  0.260167  1
  Ge  Ge10  1  0.000004  0.000003  0.021829  1
  Ge  Ge11  1  0.000002  0.999996  0.529522  1
  N  N12  1  0.000001  0.999998  0.832379  1
  N  N13  1  0.999999  0.999999  0.334443  1
  N  N14  1  0.841285  0.682562  0.080308  1
  N  N15  1  0.160473  0.839522  0.583185  1
  N  N16  1  0.679038  0.839519  0.583199  1
  N  N17  1  0.317443  0.158718  0.080322  1
  N  N18  1  0.841276  0.158716  0.080322  1
  N  N19  1  0.160480  0.320960  0.583202  1
  N  N20  1  0.488047  0.511960  0.832255  1
  N  N21  1  0.003386  0.501697  0.305506  1
  N  N22  1  0.498309  0.996618  0.305512  1
  N  N23  1  0.488038  0.976082  0.832249  1
  N  N24  1  0.498313  0.501700  0.305505  1
  N  N25  1  0.023914  0.511961  0.832251  1
