# generated using pymatgen
data_Sc2Pa2Ge6Ru7
_symmetry_space_group_name_H-M   'P 1'
_cell_length_a   7.16714329
_cell_length_b   7.17534943
_cell_length_c   7.17534949
_cell_angle_alpha   109.39737721
_cell_angle_beta   109.53139569
_cell_angle_gamma   109.53139723
_symmetry_Int_Tables_number   1
_chemical_formula_structural   Sc2Pa2Ge6Ru7
_chemical_formula_sum   'Sc2 Pa2 Ge6 Ru7'
_cell_volume   283.89660089
_cell_formula_units_Z   1
loop_
 _symmetry_equiv_pos_site_id
 _symmetry_equiv_pos_as_xyz
  1  'x, y, z'
loop_
 _atom_site_type_symbol
 _atom_site_label
 _atom_site_symmetry_multiplicity
 _atom_site_fract_x
 _atom_site_fract_y
 _atom_site_fract_z
 _atom_site_occupancy
  Sc  Sc0  1  0.000000  0.000000  0.500000  1
  Sc  Sc1  1  0.000000  0.500000  0.000000  1
  Pa  Pa2  1  0.500000  0.000000  0.000000  1
  Pa  Pa3  1  0.500000  0.500000  0.500000  1
  Ge  Ge4  1  0.699183  0.689525  0.009658  1
  Ge  Ge5  1  0.300817  0.990342  0.310475  1
  Ge  Ge6  1  0.000000  0.311162  0.311162  1
  Ge  Ge7  1  0.300817  0.310475  0.990342  1
  Ge  Ge8  1  0.699182  0.009658  0.689525  1
  Ge  Ge9  1  0.000000  0.688838  0.688838  1
  Ru  Ru10  1  0.747980  0.249710  0.498269  1
  Ru  Ru11  1  0.747980  0.498269  0.249710  1
  Ru  Ru12  1  0.500000  0.250000  0.750000  1
  Ru  Ru13  1  0.252020  0.501731  0.750290  1
  Ru  Ru14  1  0.252020  0.750290  0.501731  1
  Ru  Ru15  1  0.500000  0.750000  0.250000  1
  Ru  Ru16  1  0.000000  0.000000  0.000000  1
