# generated using pymatgen
data_Hf18BeRe8As
_symmetry_space_group_name_H-M   'P 1'
_cell_length_a   8.55589521
_cell_length_b   8.55589538
_cell_length_c   8.64870800
_cell_angle_alpha   90.00000000
_cell_angle_beta   90.00000000
_cell_angle_gamma   119.98510278
_symmetry_Int_Tables_number   1
_chemical_formula_structural   Hf18BeRe8As
_chemical_formula_sum   'Hf18 Be1 Re8 As1'
_cell_volume   548.37539833
_cell_formula_units_Z   1
loop_
 _symmetry_equiv_pos_site_id
 _symmetry_equiv_pos_as_xyz
  1  'x, y, z'
loop_
 _atom_site_type_symbol
 _atom_site_label
 _atom_site_symmetry_multiplicity
 _atom_site_fract_x
 _atom_site_fract_y
 _atom_site_fract_z
 _atom_site_occupancy
  Hf  Hf0  1  0.801845  0.603775  0.552921  1
  Hf  Hf1  1  0.801679  0.198321  0.552687  1
  Hf  Hf2  1  0.396225  0.198155  0.552921  1
  Hf  Hf3  1  0.193311  0.386616  0.453669  1
  Hf  Hf4  1  0.193531  0.806469  0.453913  1
  Hf  Hf5  1  0.613384  0.806689  0.453669  1
  Hf  Hf6  1  0.193311  0.386616  0.046331  1
  Hf  Hf7  1  0.193531  0.806469  0.046087  1
  Hf  Hf8  1  0.613384  0.806689  0.046331  1
  Hf  Hf9  1  0.801845  0.603775  0.947079  1
  Hf  Hf10  1  0.801679  0.198321  0.947313  1
  Hf  Hf11  1  0.396225  0.198155  0.947079  1
  Hf  Hf12  1  0.460337  0.920432  0.750000  1
  Hf  Hf13  1  0.460090  0.539910  0.750000  1
  Hf  Hf14  1  0.079568  0.539663  0.750000  1
  Hf  Hf15  1  0.541682  0.083561  0.250000  1
  Hf  Hf16  1  0.541847  0.458153  0.250000  1
  Hf  Hf17  1  0.916439  0.458318  0.250000  1
  Be  Be18  1  0.666570  0.333430  0.750000  1
  Re  Re19  1  0.109396  0.219012  0.750000  1
  Re  Re20  1  0.109456  0.890544  0.750000  1
  Re  Re21  1  0.780988  0.890604  0.750000  1
  Re  Re22  1  0.890177  0.780089  0.250000  1
  Re  Re23  1  0.890053  0.109947  0.250000  1
  Re  Re24  1  0.219911  0.109823  0.250000  1
  Re  Re25  1  0.000021  0.999979  0.500315  1
  Re  Re26  1  0.000021  0.999979  0.999685  1
  As  As27  1  0.333491  0.666509  0.250000  1
