# generated using pymatgen
data_La4Pr3(NdIr2)3
_symmetry_space_group_name_H-M   'P 1'
_cell_length_a   11.36013148
_cell_length_b   11.37658463
_cell_length_c   6.65452900
_cell_angle_alpha   90.00000000
_cell_angle_beta   90.00000000
_cell_angle_gamma   89.90010433
_symmetry_Int_Tables_number   1
_chemical_formula_structural   La4Pr3(NdIr2)3
_chemical_formula_sum   'La8 Pr6 Nd6 Ir12'
_cell_volume   860.02667443
_cell_formula_units_Z   2
loop_
 _symmetry_equiv_pos_site_id
 _symmetry_equiv_pos_as_xyz
  1  'x, y, z'
loop_
 _atom_site_type_symbol
 _atom_site_label
 _atom_site_symmetry_multiplicity
 _atom_site_fract_x
 _atom_site_fract_y
 _atom_site_fract_z
 _atom_site_occupancy
  La  La0  1  0.291550  0.091312  0.390078  1
  La  La1  1  0.708450  0.908688  0.390078  1
  La  La2  1  0.408821  0.209882  0.888750  1
  La  La3  1  0.708942  0.092279  0.889622  1
  La  La4  1  0.291058  0.907721  0.889622  1
  La  La5  1  0.591179  0.790118  0.888750  1
  La  La6  1  0.089731  0.706600  0.609742  1
  La  La7  1  0.910269  0.293400  0.609742  1
  Pr  Pr8  1  0.091113  0.292676  0.111891  1
  Pr  Pr9  1  0.791293  0.411357  0.113024  1
  Pr  Pr10  1  0.208707  0.588643  0.113024  1
  Pr  Pr11  1  0.908887  0.707324  0.111891  1
  Pr  Pr12  1  0.409553  0.790657  0.387076  1
  Pr  Pr13  1  0.590447  0.209343  0.387076  1
  Nd  Nd14  1  0.208845  0.410484  0.612005  1
  Nd  Nd15  1  0.791155  0.589516  0.612005  1
  Nd  Nd16  1  0.000000  0.000000  0.001439  1
  Nd  Nd17  1  0.500000  0.500000  0.999612  1
  Nd  Nd18  1  0.500000  0.500000  0.499202  1
  Nd  Nd19  1  0.000000  0.000000  0.499947  1
  Ir  Ir20  1  0.152734  0.846417  0.249612  1
  Ir  Ir21  1  0.348345  0.346057  0.249891  1
  Ir  Ir22  1  0.651655  0.653943  0.249891  1
  Ir  Ir23  1  0.847266  0.153583  0.249612  1
  Ir  Ir24  1  0.346055  0.651642  0.748466  1
  Ir  Ir25  1  0.154167  0.152868  0.748273  1
  Ir  Ir26  1  0.845833  0.847132  0.748273  1
  Ir  Ir27  1  0.653945  0.348358  0.748466  1
  Ir  Ir28  1  0.000000  0.500000  0.380143  1
  Ir  Ir29  1  0.500000  0.000000  0.121631  1
  Ir  Ir30  1  0.500000  0.000000  0.625078  1
  Ir  Ir31  1  0.000000  0.500000  0.876089  1
