# generated using pymatgen
data_Nb6AlAu3N2
_symmetry_space_group_name_H-M   'P 1'
_cell_length_a   7.15475950
_cell_length_b   7.15053300
_cell_length_c   7.14117452
_cell_angle_alpha   90.00000000
_cell_angle_beta   89.92558216
_cell_angle_gamma   90.00000000
_symmetry_Int_Tables_number   1
_chemical_formula_structural   Nb6AlAu3N2
_chemical_formula_sum   'Nb12 Al2 Au6 N4'
_cell_volume   365.34463594
_cell_formula_units_Z   2
loop_
 _symmetry_equiv_pos_site_id
 _symmetry_equiv_pos_as_xyz
  1  'x, y, z'
loop_
 _atom_site_type_symbol
 _atom_site_label
 _atom_site_symmetry_multiplicity
 _atom_site_fract_x
 _atom_site_fract_y
 _atom_site_fract_z
 _atom_site_occupancy
  Nb  Nb0  1  0.786144  0.956745  0.373845  1
  Nb  Nb1  1  0.708211  0.041643  0.876234  1
  Nb  Nb2  1  0.213856  0.456745  0.126155  1
  Nb  Nb3  1  0.291789  0.541643  0.623766  1
  Nb  Nb4  1  0.954987  0.379566  0.786102  1
  Nb  Nb5  1  0.045013  0.879566  0.713898  1
  Nb  Nb6  1  0.460125  0.128401  0.207915  1
  Nb  Nb7  1  0.539875  0.628401  0.292085  1
  Nb  Nb8  1  0.374036  0.788342  0.956231  1
  Nb  Nb9  1  0.873093  0.709732  0.040138  1
  Nb  Nb10  1  0.126907  0.209732  0.459862  1
  Nb  Nb11  1  0.625964  0.288342  0.543769  1
  Al  Al12  1  0.931330  0.569400  0.425758  1
  Al  Al13  1  0.068670  0.069400  0.074242  1
  Au  Au14  1  0.167827  0.816694  0.311850  1
  Au  Au15  1  0.303379  0.179313  0.828565  1
  Au  Au16  1  0.832173  0.316694  0.188150  1
  Au  Au17  1  0.696621  0.679313  0.671435  1
  Au  Au18  1  0.568781  0.432955  0.934391  1
  Au  Au19  1  0.431219  0.932955  0.565609  1
  N  N20  1  0.873073  0.122561  0.624752  1
  N  N21  1  0.619545  0.874649  0.123570  1
  N  N22  1  0.126927  0.622561  0.875248  1
  N  N23  1  0.380455  0.374649  0.376430  1
