# generated using pymatgen
data_CuTe2(PdO4)3
_symmetry_space_group_name_H-M   'P 1'
_cell_length_a   4.70596057
_cell_length_b   5.35049452
_cell_length_c   8.80825162
_cell_angle_alpha   89.86580193
_cell_angle_beta   90.01545648
_cell_angle_gamma   89.64574327
_symmetry_Int_Tables_number   1
_chemical_formula_structural   CuTe2(PdO4)3
_chemical_formula_sum   'Cu1 Te2 Pd3 O12'
_cell_volume   221.78001582
_cell_formula_units_Z   1
loop_
 _symmetry_equiv_pos_site_id
 _symmetry_equiv_pos_as_xyz
  1  'x, y, z'
loop_
 _atom_site_type_symbol
 _atom_site_label
 _atom_site_symmetry_multiplicity
 _atom_site_fract_x
 _atom_site_fract_y
 _atom_site_fract_z
 _atom_site_occupancy
  Cu  Cu0  1  0.997780  0.498726  0.810514  1
  Te  Te1  1  0.500938  0.499134  0.503604  1
  Te  Te2  1  0.999433  0.000323  0.995360  1
  Pd  Pd3  1  0.499383  0.998896  0.682692  1
  Pd  Pd4  1  0.000880  0.500732  0.179965  1
  Pd  Pd5  1  0.501893  0.999868  0.316395  1
  O  O6  1  0.715746  0.173884  0.500053  1
  O  O7  1  0.202910  0.320860  0.003273  1
  O  O8  1  0.286696  0.824599  0.499024  1
  O  O9  1  0.793171  0.683025  0.006430  1
  O  O10  1  0.761076  0.171927  0.158306  1
  O  O11  1  0.269350  0.334585  0.661354  1
  O  O12  1  0.234536  0.831650  0.838581  1
  O  O13  1  0.741688  0.669045  0.343121  1
  O  O14  1  0.760701  0.168095  0.839064  1
  O  O15  1  0.263074  0.331169  0.341800  1
  O  O16  1  0.240157  0.830199  0.158243  1
  O  O17  1  0.730588  0.663283  0.662221  1
