# generated using pymatgen
data_Y4Al17GaPtRh5
_symmetry_space_group_name_H-M   'P 1'
_cell_length_a   7.55489966
_cell_length_b   7.55622432
_cell_length_c   9.48253123
_cell_angle_alpha   89.98483608
_cell_angle_beta   89.97918807
_cell_angle_gamma   119.43413011
_symmetry_Int_Tables_number   1
_chemical_formula_structural   Y4Al17GaPtRh5
_chemical_formula_sum   'Y4 Al17 Ga1 Pt1 Rh5'
_cell_volume   471.45106264
_cell_formula_units_Z   1
loop_
 _symmetry_equiv_pos_site_id
 _symmetry_equiv_pos_as_xyz
  1  'x, y, z'
loop_
 _atom_site_type_symbol
 _atom_site_label
 _atom_site_symmetry_multiplicity
 _atom_site_fract_x
 _atom_site_fract_y
 _atom_site_fract_z
 _atom_site_occupancy
  Y  Y0  1  0.993413  0.670942  0.250037  1
  Y  Y1  1  0.004081  0.328464  0.750271  1
  Y  Y2  1  0.672999  0.995768  0.249708  1
  Y  Y3  1  0.330390  0.006351  0.749972  1
  Al  Al4  1  0.873116  0.872236  0.749630  1
  Al  Al5  1  0.005163  0.335651  0.076520  1
  Al  Al6  1  0.002596  0.668527  0.923717  1
  Al  Al7  1  0.000555  0.664929  0.574501  1
  Al  Al8  1  0.335405  0.999536  0.425456  1
  Al  Al9  1  0.001264  0.335291  0.425039  1
  Al  Al10  1  0.665075  0.998933  0.574863  1
  Al  Al11  1  0.664537  0.994984  0.923623  1
  Al  Al12  1  0.331691  0.997510  0.076386  1
  Al  Al13  1  0.332556  0.332527  0.550580  1
  Al  Al14  1  0.667258  0.667278  0.450556  1
  Al  Al15  1  0.666123  0.669411  0.052440  1
  Al  Al16  1  0.330334  0.333675  0.946411  1
  Al  Al17  1  0.340025  0.551728  0.250502  1
  Al  Al18  1  0.660154  0.453977  0.746594  1
  Al  Al19  1  0.546609  0.339338  0.253440  1
  Al  Al20  1  0.449100  0.659572  0.749541  1
  Ga  Ga21  1  0.129410  0.128344  0.250284  1
  Pt  Pt22  1  0.671600  0.327379  0.000228  1
  Rh  Rh23  1  0.327924  0.671123  0.000339  1
  Rh  Rh24  1  0.328190  0.670839  0.499695  1
  Rh  Rh25  1  0.671550  0.327463  0.499680  1
  Rh  Rh26  1  0.999324  0.999290  0.997734  1
  Rh  Rh27  1  0.999556  0.998935  0.502252  1
