# generated using pymatgen
data_K(ScBr3)2
_symmetry_space_group_name_H-M   'P 1'
_cell_length_a   7.72327200
_cell_length_b   7.72327171
_cell_length_c   12.98922600
_cell_angle_alpha   90.00000000
_cell_angle_beta   90.00000000
_cell_angle_gamma   119.99999266
_symmetry_Int_Tables_number   1
_chemical_formula_structural   K(ScBr3)2
_chemical_formula_sum   'K2 Sc4 Br12'
_cell_volume   670.99082436
_cell_formula_units_Z   2
loop_
 _symmetry_equiv_pos_site_id
 _symmetry_equiv_pos_as_xyz
  1  'x, y, z'
loop_
 _atom_site_type_symbol
 _atom_site_label
 _atom_site_symmetry_multiplicity
 _atom_site_fract_x
 _atom_site_fract_y
 _atom_site_fract_z
 _atom_site_occupancy
  K  K0  1  0.333333  0.666667  0.872859  1
  K  K1  1  0.666667  0.333333  0.372859  1
  Sc  Sc2  1  0.000000  0.000000  0.125763  1
  Sc  Sc3  1  0.000000  0.000000  0.375836  1
  Sc  Sc4  1  0.000000  0.000000  0.625763  1
  Sc  Sc5  1  0.000000  0.000000  0.875836  1
  Br  Br6  1  0.981291  0.710223  0.001278  1
  Br  Br7  1  0.266842  0.974001  0.250479  1
  Br  Br8  1  0.025999  0.292842  0.250479  1
  Br  Br9  1  0.289777  0.271069  0.001278  1
  Br  Br10  1  0.271069  0.289777  0.501278  1
  Br  Br11  1  0.728931  0.018709  0.001278  1
  Br  Br12  1  0.292842  0.025999  0.750479  1
  Br  Br13  1  0.707158  0.733158  0.250479  1
  Br  Br14  1  0.733158  0.707158  0.750479  1
  Br  Br15  1  0.018709  0.728931  0.501278  1
  Br  Br16  1  0.710223  0.981291  0.501278  1
  Br  Br17  1  0.974001  0.266842  0.750479  1
