# generated using pymatgen
data_Li3Cd2Pb
_symmetry_space_group_name_H-M   'P 1'
_cell_length_a   4.83285809
_cell_length_b   4.83285852
_cell_length_c   5.87324818
_cell_angle_alpha   91.62655486
_cell_angle_beta   91.62655666
_cell_angle_gamma   58.84666189
_symmetry_Int_Tables_number   1
_chemical_formula_structural   Li3Cd2Pb
_chemical_formula_sum   'Li3 Cd2 Pb1'
_cell_volume   117.33318215
_cell_formula_units_Z   1
loop_
 _symmetry_equiv_pos_site_id
 _symmetry_equiv_pos_as_xyz
  1  'x, y, z'
loop_
 _atom_site_type_symbol
 _atom_site_label
 _atom_site_symmetry_multiplicity
 _atom_site_fract_x
 _atom_site_fract_y
 _atom_site_fract_z
 _atom_site_occupancy
  Li  Li0  1  0.500000  0.500000  0.000000  1
  Li  Li1  1  0.166607  0.166607  0.335367  1
  Li  Li2  1  0.833393  0.833393  0.664631  1
  Cd  Cd3  1  0.832100  0.832100  0.156796  1
  Cd  Cd4  1  0.167900  0.167900  0.843205  1
  Pb  Pb5  1  0.500000  0.500000  0.500000  1
