# generated using pymatgen
data_Er10Tm6Cd4Ir3Ru
_symmetry_space_group_name_H-M   'P 1'
_cell_length_a   9.55508382
_cell_length_b   9.55657542
_cell_length_c   9.55657732
_cell_angle_alpha   59.64462170
_cell_angle_beta   59.67268510
_cell_angle_gamma   59.67268540
_symmetry_Int_Tables_number   1
_chemical_formula_structural   Er10Tm6Cd4Ir3Ru
_chemical_formula_sum   'Er10 Tm6 Cd4 Ir3 Ru1'
_cell_volume   612.33538423
_cell_formula_units_Z   1
loop_
 _symmetry_equiv_pos_site_id
 _symmetry_equiv_pos_as_xyz
  1  'x, y, z'
loop_
 _atom_site_type_symbol
 _atom_site_label
 _atom_site_symmetry_multiplicity
 _atom_site_fract_x
 _atom_site_fract_y
 _atom_site_fract_z
 _atom_site_occupancy
  Er  Er0  1  0.438833  0.061891  0.438672  1
  Er  Er1  1  0.060063  0.438290  0.060104  1
  Er  Er2  1  0.438833  0.438672  0.061891  1
  Er  Er3  1  0.060063  0.060104  0.438290  1
  Er  Er4  1  0.188963  0.811641  0.811641  1
  Er  Er5  1  0.809973  0.188241  0.188241  1
  Er  Er6  1  0.811633  0.189009  0.811642  1
  Er  Er7  1  0.188308  0.809964  0.188309  1
  Er  Er8  1  0.811633  0.811642  0.189009  1
  Er  Er9  1  0.188308  0.188309  0.809964  1
  Tm  Tm10  1  0.598898  0.598880  0.598880  1
  Tm  Tm11  1  0.598426  0.598741  0.205820  1
  Tm  Tm12  1  0.598426  0.205820  0.598741  1
  Tm  Tm13  1  0.205777  0.598460  0.598460  1
  Tm  Tm14  1  0.061662  0.438912  0.438912  1
  Tm  Tm15  1  0.438525  0.059920  0.059920  1
  Cd  Cd16  1  0.829963  0.830023  0.830023  1
  Cd  Cd17  1  0.830805  0.830614  0.506713  1
  Cd  Cd18  1  0.830805  0.506713  0.830614  1
  Cd  Cd19  1  0.506747  0.830707  0.830707  1
  Ir  Ir20  1  0.393189  0.392827  0.825684  1
  Ir  Ir21  1  0.393189  0.825684  0.392827  1
  Ir  Ir22  1  0.825595  0.393311  0.393311  1
  Ru  Ru23  1  0.391378  0.391623  0.391623  1
