# generated using pymatgen
data_Tb4PdSe7
_symmetry_space_group_name_H-M   'P 1'
_cell_length_a   3.96797205
_cell_length_b   8.12139100
_cell_length_c   8.50769300
_cell_angle_alpha   90.00000000
_cell_angle_beta   89.99074424
_cell_angle_gamma   90.00000000
_symmetry_Int_Tables_number   1
_chemical_formula_structural   Tb4PdSe7
_chemical_formula_sum   'Tb4 Pd1 Se7'
_cell_volume   274.16425316
_cell_formula_units_Z   1
loop_
 _symmetry_equiv_pos_site_id
 _symmetry_equiv_pos_as_xyz
  1  'x, y, z'
loop_
 _atom_site_type_symbol
 _atom_site_label
 _atom_site_symmetry_multiplicity
 _atom_site_fract_x
 _atom_site_fract_y
 _atom_site_fract_z
 _atom_site_occupancy
  Tb  Tb0  1  0.000284  0.750000  0.703781  1
  Tb  Tb1  1  0.001691  0.250000  0.749043  1
  Tb  Tb2  1  0.499624  0.007827  0.272000  1
  Tb  Tb3  1  0.499624  0.492173  0.272000  1
  Pd  Pd4  1  0.498192  0.750000  0.002218  1
  Se  Se5  1  0.998900  0.950022  0.998263  1
  Se  Se6  1  0.998900  0.549978  0.998263  1
  Se  Se7  1  0.501484  0.250000  0.003939  1
  Se  Se8  1  0.999864  0.750000  0.362945  1
  Se  Se9  1  0.999995  0.250000  0.375057  1
  Se  Se10  1  0.500719  0.003079  0.631708  1
  Se  Se11  1  0.500719  0.496921  0.631708  1
