# generated using pymatgen
data_TmLu2Bi5O14
_symmetry_space_group_name_H-M   'P 1'
_cell_length_a   6.57744100
_cell_length_b   6.69832941
_cell_length_c   7.74002300
_cell_angle_alpha   106.70229136
_cell_angle_beta   89.48084623
_cell_angle_gamma   99.05889314
_symmetry_Int_Tables_number   1
_chemical_formula_structural   TmLu2Bi5O14
_chemical_formula_sum   'Tm1 Lu2 Bi5 O14'
_cell_volume   322.31194680
_cell_formula_units_Z   1
loop_
 _symmetry_equiv_pos_site_id
 _symmetry_equiv_pos_as_xyz
  1  'x, y, z'
loop_
 _atom_site_type_symbol
 _atom_site_label
 _atom_site_symmetry_multiplicity
 _atom_site_fract_x
 _atom_site_fract_y
 _atom_site_fract_z
 _atom_site_occupancy
  Tm  Tm0  1  0.264759  0.538205  0.885356  1
  Lu  Lu1  1  0.463321  0.002851  0.252549  1
  Lu  Lu2  1  0.536848  0.993454  0.751313  1
  Bi  Bi3  1  0.003219  0.007800  0.502931  1
  Bi  Bi4  1  0.004268  0.001447  0.998951  1
  Bi  Bi5  1  0.736115  0.474100  0.114043  1
  Bi  Bi6  1  0.721748  0.463257  0.614932  1
  Bi  Bi7  1  0.267051  0.529795  0.390359  1
  O  O8  1  0.448259  0.657769  0.164283  1
  O  O9  1  0.533954  0.337477  0.823270  1
  O  O10  1  0.306960  0.921080  0.949445  1
  O  O11  1  0.695123  0.052553  0.050858  1
  O  O12  1  0.304174  0.924998  0.515973  1
  O  O13  1  0.697648  0.078574  0.486765  1
  O  O14  1  0.530128  0.350256  0.347928  1
  O  O15  1  0.456598  0.646973  0.662765  1
  O  O16  1  0.939806  0.666143  0.954563  1
  O  O17  1  0.085770  0.328276  0.032283  1
  O  O18  1  0.095245  0.338071  0.627405  1
  O  O19  1  0.907165  0.679413  0.373148  1
  O  O20  1  0.869313  0.929448  0.732289  1
  O  O21  1  0.132523  0.078061  0.268586  1
