# generated using pymatgen
data_CsReF7
_symmetry_space_group_name_H-M   'P 1'
_cell_length_a   7.27523500
_cell_length_b   8.21828266
_cell_length_c   10.98976200
_cell_angle_alpha   87.34878658
_cell_angle_beta   90.00000000
_cell_angle_gamma   90.00000000
_symmetry_Int_Tables_number   1
_chemical_formula_structural   CsReF7
_chemical_formula_sum   'Cs4 Re4 F28'
_cell_volume   656.37386450
_cell_formula_units_Z   4
loop_
 _symmetry_equiv_pos_site_id
 _symmetry_equiv_pos_as_xyz
  1  'x, y, z'
loop_
 _atom_site_type_symbol
 _atom_site_label
 _atom_site_symmetry_multiplicity
 _atom_site_fract_x
 _atom_site_fract_y
 _atom_site_fract_z
 _atom_site_occupancy
  Cs  Cs0  1  0.254685  0.237598  0.001185  1
  Cs  Cs1  1  0.745315  0.762402  0.998815  1
  Cs  Cs2  1  0.754685  0.762402  0.498815  1
  Cs  Cs3  1  0.245315  0.237598  0.501185  1
  Re  Re4  1  0.217942  0.730786  0.268112  1
  Re  Re5  1  0.282058  0.730786  0.768112  1
  Re  Re6  1  0.782058  0.269214  0.731888  1
  Re  Re7  1  0.717942  0.269214  0.231888  1
  F  F8  1  0.239086  0.577280  0.146293  1
  F  F9  1  0.760914  0.422720  0.853707  1
  F  F10  1  0.260914  0.577280  0.646293  1
  F  F11  1  0.739086  0.422720  0.353707  1
  F  F12  1  0.952374  0.737836  0.245260  1
  F  F13  1  0.452374  0.262164  0.254740  1
  F  F14  1  0.448605  0.826155  0.213885  1
  F  F15  1  0.662435  0.101658  0.354987  1
  F  F16  1  0.547626  0.737836  0.745260  1
  F  F17  1  0.162435  0.898342  0.145013  1
  F  F18  1  0.337565  0.898342  0.645013  1
  F  F19  1  0.910772  0.370453  0.135039  1
  F  F20  1  0.190122  0.885538  0.390872  1
  F  F21  1  0.047626  0.262164  0.754740  1
  F  F22  1  0.891300  0.435364  0.624208  1
  F  F23  1  0.410772  0.629547  0.364961  1
  F  F24  1  0.551395  0.173845  0.786115  1
  F  F25  1  0.837565  0.101658  0.854987  1
  F  F26  1  0.589228  0.370453  0.635039  1
  F  F27  1  0.108700  0.564636  0.375792  1
  F  F28  1  0.690122  0.114462  0.109128  1
  F  F29  1  0.051395  0.826155  0.713885  1
  F  F30  1  0.809878  0.114462  0.609128  1
  F  F31  1  0.391300  0.564636  0.875792  1
  F  F32  1  0.309878  0.885538  0.890872  1
  F  F33  1  0.089228  0.629547  0.864961  1
  F  F34  1  0.608700  0.435364  0.124208  1
  F  F35  1  0.948605  0.173845  0.286115  1
