# generated using pymatgen
data_WI10Br
_symmetry_space_group_name_H-M   'P 1'
_cell_length_a   8.55205701
_cell_length_b   8.66807092
_cell_length_c   9.21378101
_cell_angle_alpha   86.66004009
_cell_angle_beta   88.56885588
_cell_angle_gamma   109.98385740
_symmetry_Int_Tables_number   1
_chemical_formula_structural   WI10Br
_chemical_formula_sum   'W1 I10 Br1'
_cell_volume   640.06684902
_cell_formula_units_Z   1
loop_
 _symmetry_equiv_pos_site_id
 _symmetry_equiv_pos_as_xyz
  1  'x, y, z'
loop_
 _atom_site_type_symbol
 _atom_site_label
 _atom_site_symmetry_multiplicity
 _atom_site_fract_x
 _atom_site_fract_y
 _atom_site_fract_z
 _atom_site_occupancy
  W  W0  1  0.999227  0.498259  0.500368  1
  I  I1  1  0.000320  0.002438  0.002351  1
  I  I2  1  0.681125  0.765503  0.926805  1
  I  I3  1  0.320411  0.238822  0.078455  1
  I  I4  1  0.707507  0.227161  0.541873  1
  I  I5  1  0.289466  0.772284  0.460463  1
  I  I6  1  0.484196  0.759671  0.193613  1
  I  I7  1  0.519427  0.241822  0.813971  1
  I  I8  1  0.830853  0.707073  0.546017  1
  I  I9  1  0.174006  0.294356  0.456996  1
  I  I10  1  0.945377  0.513071  0.215028  1
  Br  Br11  1  0.048085  0.479538  0.764055  1
