# generated using pymatgen
data_Sr3PrV2O8
_symmetry_space_group_name_H-M   'P 1'
_cell_length_a   6.89730323
_cell_length_b   6.89730276
_cell_length_c   5.53500000
_cell_angle_alpha   90.00000000
_cell_angle_beta   90.00000000
_cell_angle_gamma   132.76629019
_symmetry_Int_Tables_number   1
_chemical_formula_structural   Sr3PrV2O8
_chemical_formula_sum   'Sr3 Pr1 V2 O8'
_cell_volume   193.30758794
_cell_formula_units_Z   1
loop_
 _symmetry_equiv_pos_site_id
 _symmetry_equiv_pos_as_xyz
  1  'x, y, z'
loop_
 _atom_site_type_symbol
 _atom_site_label
 _atom_site_symmetry_multiplicity
 _atom_site_fract_x
 _atom_site_fract_y
 _atom_site_fract_z
 _atom_site_occupancy
  Sr  Sr0  1  0.644282  0.355718  0.000000  1
  Sr  Sr1  1  0.356564  0.643436  0.000000  1
  Sr  Sr2  1  0.854585  0.145415  0.500000  1
  Pr  Pr3  1  0.140292  0.859708  0.500000  1
  V  V4  1  0.499544  0.500456  0.500000  1
  V  V5  1  0.996768  0.003232  0.000000  1
  O  O6  1  0.845275  0.154725  0.000000  1
  O  O7  1  0.324651  0.675349  0.500000  1
  O  O8  1  0.665308  0.334692  0.500000  1
  O  O9  1  0.159929  0.840071  0.000000  1
  O  O10  1  0.758195  0.751793  0.748405  1
  O  O11  1  0.248207  0.241805  0.251595  1
  O  O12  1  0.248207  0.241805  0.748405  1
  O  O13  1  0.758195  0.751793  0.251595  1
