# generated using pymatgen
data_Tb2Ho3Er11(CdNi)4
_symmetry_space_group_name_H-M   'P 1'
_cell_length_a   9.49513909
_cell_length_b   9.48820800
_cell_length_c   9.48962004
_cell_angle_alpha   59.98866961
_cell_angle_beta   60.00932317
_cell_angle_gamma   60.09327576
_symmetry_Int_Tables_number   1
_chemical_formula_structural   Tb2Ho3Er11(CdNi)4
_chemical_formula_sum   'Tb2 Ho3 Er11 Cd4 Ni4'
_cell_volume   604.94785487
_cell_formula_units_Z   1
loop_
 _symmetry_equiv_pos_site_id
 _symmetry_equiv_pos_as_xyz
  1  'x, y, z'
loop_
 _atom_site_type_symbol
 _atom_site_label
 _atom_site_symmetry_multiplicity
 _atom_site_fract_x
 _atom_site_fract_y
 _atom_site_fract_z
 _atom_site_occupancy
  Tb  Tb0  1  0.348131  0.348509  0.348542  1
  Tb  Tb1  1  0.348400  0.348437  0.954664  1
  Ho  Ho2  1  0.350556  0.950285  0.349616  1
  Ho  Ho3  1  0.950489  0.350620  0.349590  1
  Ho  Ho4  1  0.812406  0.188310  0.188234  1
  Er  Er5  1  0.188298  0.812304  0.811148  1
  Er  Er6  1  0.188614  0.812041  0.188184  1
  Er  Er7  1  0.812357  0.188297  0.810855  1
  Er  Er8  1  0.188983  0.188631  0.811045  1
  Er  Er9  1  0.812212  0.811920  0.187799  1
  Er  Er10  1  0.935962  0.564182  0.564475  1
  Er  Er11  1  0.564164  0.935974  0.935438  1
  Er  Er12  1  0.564062  0.935904  0.564542  1
  Er  Er13  1  0.936084  0.564291  0.935324  1
  Er  Er14  1  0.564801  0.565045  0.934988  1
  Er  Er15  1  0.936957  0.936783  0.563261  1
  Cd  Cd16  1  0.581737  0.581614  0.581014  1
  Cd  Cd17  1  0.581695  0.581724  0.255573  1
  Cd  Cd18  1  0.581943  0.255446  0.581374  1
  Cd  Cd19  1  0.255524  0.581930  0.581258  1
  Ni  Ni20  1  0.141648  0.141046  0.144703  1
  Ni  Ni21  1  0.141412  0.141647  0.572692  1
  Ni  Ni22  1  0.139286  0.575059  0.142879  1
  Ni  Ni23  1  0.574281  0.140005  0.142805  1
