# generated using pymatgen
data_Ho3MgZn(InAu)2
_symmetry_space_group_name_H-M   'P 1'
_cell_length_a   7.76781953
_cell_length_b   7.76781832
_cell_length_c   3.91044300
_cell_angle_alpha   90.00000000
_cell_angle_beta   90.00000000
_cell_angle_gamma   120.22910089
_symmetry_Int_Tables_number   1
_chemical_formula_structural   Ho3MgZn(InAu)2
_chemical_formula_sum   'Ho3 Mg1 Zn1 In2 Au2'
_cell_volume   203.86728588
_cell_formula_units_Z   1
loop_
 _symmetry_equiv_pos_site_id
 _symmetry_equiv_pos_as_xyz
  1  'x, y, z'
loop_
 _atom_site_type_symbol
 _atom_site_label
 _atom_site_symmetry_multiplicity
 _atom_site_fract_x
 _atom_site_fract_y
 _atom_site_fract_z
 _atom_site_occupancy
  Ho  Ho0  1  0.406597  0.406597  0.500000  1
  Ho  Ho1  1  0.592819  0.002106  0.500000  1
  Ho  Ho2  1  0.002106  0.592819  0.500000  1
  Mg  Mg3  1  0.747864  0.747864  0.000000  1
  Zn  Zn4  1  0.990586  0.990586  0.500000  1
  In  In5  1  0.249441  0.996953  0.000000  1
  In  In6  1  0.996953  0.249441  0.000000  1
  Au  Au7  1  0.668237  0.345397  0.000000  1
  Au  Au8  1  0.345397  0.668237  0.000000  1
