# generated using pymatgen
data_Y20Si12F
_symmetry_space_group_name_H-M   'P 1'
_cell_length_a   14.70379200
_cell_length_b   6.37393612
_cell_length_c   8.44071198
_cell_angle_alpha   89.96243391
_cell_angle_beta   90.00000000
_cell_angle_gamma   90.00000000
_symmetry_Int_Tables_number   1
_chemical_formula_structural   Y20Si12F
_chemical_formula_sum   'Y20 Si12 F1'
_cell_volume   791.07205908
_cell_formula_units_Z   1
loop_
 _symmetry_equiv_pos_site_id
 _symmetry_equiv_pos_as_xyz
  1  'x, y, z'
loop_
 _atom_site_type_symbol
 _atom_site_label
 _atom_site_symmetry_multiplicity
 _atom_site_fract_x
 _atom_site_fract_y
 _atom_site_fract_z
 _atom_site_occupancy
  Y  Y0  1  0.667226  0.500000  0.500000  1
  Y  Y1  1  0.167961  0.500000  0.000000  1
  Y  Y2  1  0.832039  0.500000  0.000000  1
  Y  Y3  1  0.332774  0.500000  0.500000  1
  Y  Y4  1  0.833279  0.000000  0.000000  1
  Y  Y5  1  0.333511  0.000000  0.500000  1
  Y  Y6  1  0.666489  0.000000  0.500000  1
  Y  Y7  1  0.166721  0.000000  0.000000  1
  Y  Y8  1  0.500000  0.249094  0.755607  1
  Y  Y9  1  0.000000  0.250316  0.251909  1
  Y  Y10  1  0.620987  0.250075  0.123111  1
  Y  Y11  1  0.123009  0.244282  0.624493  1
  Y  Y12  1  0.876991  0.244282  0.624493  1
  Y  Y13  1  0.379013  0.250075  0.123111  1
  Y  Y14  1  0.000000  0.749684  0.748091  1
  Y  Y15  1  0.500000  0.750906  0.244393  1
  Y  Y16  1  0.876991  0.755718  0.375507  1
  Y  Y17  1  0.379013  0.749925  0.876889  1
  Y  Y18  1  0.620987  0.749925  0.876889  1
  Y  Y19  1  0.123009  0.755718  0.375507  1
  Si  Si20  1  0.000000  0.251303  0.893837  1
  Si  Si21  1  0.500000  0.249617  0.394584  1
  Si  Si22  1  0.803296  0.247725  0.303888  1
  Si  Si23  1  0.302529  0.248577  0.803042  1
  Si  Si24  1  0.697471  0.248577  0.803042  1
  Si  Si25  1  0.196704  0.247725  0.303888  1
  Si  Si26  1  0.500000  0.750383  0.605416  1
  Si  Si27  1  0.000000  0.748697  0.106163  1
  Si  Si28  1  0.697471  0.751423  0.196958  1
  Si  Si29  1  0.196704  0.752275  0.696112  1
  Si  Si30  1  0.803296  0.752275  0.696112  1
  Si  Si31  1  0.302529  0.751423  0.196958  1
  F  F32  1  0.000000  0.500000  0.500000  1
