# generated using pymatgen
data_Ho6TaCo17P12
_symmetry_space_group_name_H-M   'P 1'
_cell_length_a   3.69807900
_cell_length_b   10.57638400
_cell_length_c   12.25924900
_cell_angle_alpha   90.00000000
_cell_angle_beta   90.00000000
_cell_angle_gamma   90.00000000
_symmetry_Int_Tables_number   1
_chemical_formula_structural   Ho6TaCo17P12
_chemical_formula_sum   'Ho6 Ta1 Co17 P12'
_cell_volume   479.48746838
_cell_formula_units_Z   1
loop_
 _symmetry_equiv_pos_site_id
 _symmetry_equiv_pos_as_xyz
  1  'x, y, z'
loop_
 _atom_site_type_symbol
 _atom_site_label
 _atom_site_symmetry_multiplicity
 _atom_site_fract_x
 _atom_site_fract_y
 _atom_site_fract_z
 _atom_site_occupancy
  Ho  Ho0  1  0.000000  0.500000  0.526700  1
  Ho  Ho1  1  0.500000  0.000000  0.477769  1
  Ho  Ho2  1  0.500000  0.820084  0.207104  1
  Ho  Ho3  1  0.500000  0.179916  0.207104  1
  Ho  Ho4  1  0.000000  0.682558  0.796007  1
  Ho  Ho5  1  0.000000  0.317442  0.796007  1
  Ta  Ta6  1  0.500000  0.500000  0.154436  1
  Co  Co7  1  0.000000  0.500000  0.985309  1
  Co  Co8  1  0.500000  0.000000  0.014252  1
  Co  Co9  1  0.500000  0.295278  0.432294  1
  Co  Co10  1  0.500000  0.704722  0.432294  1
  Co  Co11  1  0.000000  0.202756  0.569447  1
  Co  Co12  1  0.000000  0.797244  0.569447  1
  Co  Co13  1  0.500000  0.879391  0.708277  1
  Co  Co14  1  0.500000  0.120609  0.708277  1
  Co  Co15  1  0.000000  0.622531  0.293145  1
  Co  Co16  1  0.000000  0.377469  0.293145  1
  Co  Co17  1  0.500000  0.330400  0.990051  1
  Co  Co18  1  0.500000  0.669600  0.990051  1
  Co  Co19  1  0.000000  0.163964  0.004441  1
  Co  Co20  1  0.000000  0.836036  0.004441  1
  Co  Co21  1  0.000000  0.000000  0.839037  1
  Co  Co22  1  0.500000  0.500000  0.701675  1
  Co  Co23  1  0.000000  0.000000  0.296890  1
  P  P24  1  0.500000  0.310088  0.616973  1
  P  P25  1  0.500000  0.689912  0.616973  1
  P  P26  1  0.000000  0.188144  0.385384  1
  P  P27  1  0.000000  0.811856  0.385384  1
  P  P28  1  0.500000  0.500000  0.880376  1
  P  P29  1  0.000000  0.000000  0.117364  1
  P  P30  1  0.500000  0.850854  0.890226  1
  P  P31  1  0.500000  0.149146  0.890226  1
  P  P32  1  0.000000  0.661164  0.103593  1
  P  P33  1  0.000000  0.338836  0.103593  1
  P  P34  1  0.500000  0.500000  0.356449  1
  P  P35  1  0.000000  0.000000  0.655860  1
