# generated using pymatgen
data_Lu12Mn2InTcAu
_symmetry_space_group_name_H-M   'P 1'
_cell_length_a   8.14265692
_cell_length_b   8.14185994
_cell_length_c   8.14265560
_cell_angle_alpha   110.51464540
_cell_angle_beta   106.69981010
_cell_angle_gamma   111.23938785
_symmetry_Int_Tables_number   1
_chemical_formula_structural   Lu12Mn2InTcAu
_chemical_formula_sum   'Lu12 Mn2 In1 Tc1 Au1'
_cell_volume   414.79554722
_cell_formula_units_Z   1
loop_
 _symmetry_equiv_pos_site_id
 _symmetry_equiv_pos_as_xyz
  1  'x, y, z'
loop_
 _atom_site_type_symbol
 _atom_site_label
 _atom_site_symmetry_multiplicity
 _atom_site_fract_x
 _atom_site_fract_y
 _atom_site_fract_z
 _atom_site_occupancy
  Lu  Lu0  1  0.309021  0.307586  0.616678  1
  Lu  Lu1  1  0.690979  0.692414  0.383322  1
  Lu  Lu2  1  0.690909  0.307586  0.998566  1
  Lu  Lu3  1  0.309091  0.692414  0.001434  1
  Lu  Lu4  1  0.192114  0.444200  0.252086  1
  Lu  Lu5  1  0.807886  0.555800  0.747914  1
  Lu  Lu6  1  0.192073  0.940063  0.747991  1
  Lu  Lu7  1  0.959448  0.191250  0.768299  1
  Lu  Lu8  1  0.807927  0.059937  0.252009  1
  Lu  Lu9  1  0.040552  0.808750  0.231701  1
  Lu  Lu10  1  0.422951  0.191250  0.231802  1
  Lu  Lu11  1  0.577049  0.808750  0.768198  1
  Mn  Mn12  1  0.382534  0.382579  0.000046  1
  Mn  Mn13  1  0.617466  0.617421  0.999954  1
  In  In14  1  0.500000  0.000000  0.500000  1
  Tc  Tc15  1  0.000000  0.000000  0.000000  1
  Au  Au16  1  0.000000  0.500000  0.500000  1
