# generated using pymatgen
data_Cs3NaCaI6
_symmetry_space_group_name_H-M   'P 1'
_cell_length_a   10.25223099
_cell_length_b   10.25223138
_cell_length_c   10.25223281
_cell_angle_alpha   93.28099965
_cell_angle_beta   93.28100228
_cell_angle_gamma   93.28100108
_symmetry_Int_Tables_number   1
_chemical_formula_structural   Cs3NaCaI6
_chemical_formula_sum   'Cs6 Na2 Ca2 I12'
_cell_volume   1072.08340626
_cell_formula_units_Z   2
loop_
 _symmetry_equiv_pos_site_id
 _symmetry_equiv_pos_as_xyz
  1  'x, y, z'
loop_
 _atom_site_type_symbol
 _atom_site_label
 _atom_site_symmetry_multiplicity
 _atom_site_fract_x
 _atom_site_fract_y
 _atom_site_fract_z
 _atom_site_occupancy
  Cs  Cs0  1  0.868037  0.631963  0.250000  1
  Cs  Cs1  1  0.631963  0.250000  0.868037  1
  Cs  Cs2  1  0.250000  0.868037  0.631963  1
  Cs  Cs3  1  0.131963  0.368037  0.750000  1
  Cs  Cs4  1  0.368037  0.750000  0.131963  1
  Cs  Cs5  1  0.750000  0.131963  0.368037  1
  Na  Na6  1  0.250000  0.250000  0.250000  1
  Na  Na7  1  0.750000  0.750000  0.750000  1
  Ca  Ca8  1  0.000000  0.000000  0.000000  1
  Ca  Ca9  1  0.500000  0.500000  0.500000  1
  I  I10  1  0.204427  0.537019  0.415063  1
  I  I11  1  0.037019  0.704427  0.915063  1
  I  I12  1  0.915063  0.037019  0.704427  1
  I  I13  1  0.795573  0.462981  0.584937  1
  I  I14  1  0.704427  0.915063  0.037019  1
  I  I15  1  0.462981  0.584937  0.795573  1
  I  I16  1  0.584937  0.795573  0.462981  1
  I  I17  1  0.537019  0.415063  0.204427  1
  I  I18  1  0.084937  0.962981  0.295573  1
  I  I19  1  0.962981  0.295573  0.084937  1
  I  I20  1  0.295573  0.084937  0.962981  1
  I  I21  1  0.415063  0.204427  0.537019  1
