# generated using pymatgen
data_Tm5Hf3(Si4Ru3)4
_symmetry_space_group_name_H-M   'P 1'
_cell_length_a   10.07898880
_cell_length_b   10.08680302
_cell_length_c   13.55284634
_cell_angle_alpha   53.37144980
_cell_angle_beta   53.29734262
_cell_angle_gamma   31.01556783
_symmetry_Int_Tables_number   1
_chemical_formula_structural   Tm5Hf3(Si4Ru3)4
_chemical_formula_sum   'Tm5 Hf3 Si16 Ru12'
_cell_volume   557.20352880
_cell_formula_units_Z   1
loop_
 _symmetry_equiv_pos_site_id
 _symmetry_equiv_pos_as_xyz
  1  'x, y, z'
loop_
 _atom_site_type_symbol
 _atom_site_label
 _atom_site_symmetry_multiplicity
 _atom_site_fract_x
 _atom_site_fract_y
 _atom_site_fract_z
 _atom_site_occupancy
  Tm  Tm0  1  0.295487  0.559803  0.645130  1
  Tm  Tm1  1  0.438543  0.705595  0.855360  1
  Tm  Tm2  1  0.704540  0.440194  0.354278  1
  Tm  Tm3  1  0.561337  0.294170  0.145336  1
  Tm  Tm4  1  0.037198  0.291332  0.640431  1
  Hf  Hf5  1  0.703811  0.960233  0.865158  1
  Hf  Hf6  1  0.960984  0.704889  0.364116  1
  Hf  Hf7  1  0.295602  0.039216  0.135413  1
  Si  Si8  1  0.878030  0.121337  0.250355  1
  Si  Si9  1  0.123024  0.874310  0.750375  1
  Si  Si10  1  0.378050  0.622942  0.249417  1
  Si  Si11  1  0.618659  0.377828  0.751061  1
  Si  Si12  1  0.975925  0.253089  0.893516  1
  Si  Si13  1  0.750672  0.020503  0.609703  1
  Si  Si14  1  0.022152  0.747439  0.109999  1
  Si  Si15  1  0.251206  0.979069  0.390443  1
  Si  Si16  1  0.572908  0.082337  0.065152  1
  Si  Si17  1  0.917763  0.427692  0.431989  1
  Si  Si18  1  0.427294  0.917173  0.934698  1
  Si  Si19  1  0.082127  0.575013  0.565455  1
  Si  Si20  1  0.386506  0.141969  0.397013  1
  Si  Si21  1  0.856473  0.614404  0.102123  1
  Si  Si22  1  0.615588  0.860223  0.601181  1
  Si  Si23  1  0.143816  0.385093  0.897345  1
  Ru  Ru24  1  0.647383  0.833938  0.281091  1
  Ru  Ru25  1  0.166690  0.352464  0.215910  1
  Ru  Ru26  1  0.758862  0.485746  0.070898  1
  Ru  Ru27  1  0.832936  0.648459  0.783188  1
  Ru  Ru28  1  0.897702  0.141905  0.586422  1
  Ru  Ru29  1  0.857063  0.100499  0.913939  1
  Ru  Ru30  1  0.101807  0.859084  0.412685  1
  Ru  Ru31  1  0.142912  0.897427  0.087106  1
  Ru  Ru32  1  0.241103  0.512803  0.929850  1
  Ru  Ru33  1  0.490945  0.755289  0.567684  1
  Ru  Ru34  1  0.509214  0.248034  0.427583  1
  Ru  Ru35  1  0.355688  0.168498  0.718598  1
