# generated using pymatgen
data_Nd3ZnSi5
_symmetry_space_group_name_H-M   'P 1'
_cell_length_a   4.24243820
_cell_length_b   4.19988398
_cell_length_c   21.37893100
_cell_angle_alpha   84.39610506
_cell_angle_beta   95.68839699
_cell_angle_gamma   89.97940174
_symmetry_Int_Tables_number   1
_chemical_formula_structural   Nd3ZnSi5
_chemical_formula_sum   'Nd6 Zn2 Si10'
_cell_volume   377.21766565
_cell_formula_units_Z   2
loop_
 _symmetry_equiv_pos_site_id
 _symmetry_equiv_pos_as_xyz
  1  'x, y, z'
loop_
 _atom_site_type_symbol
 _atom_site_label
 _atom_site_symmetry_multiplicity
 _atom_site_fract_x
 _atom_site_fract_y
 _atom_site_fract_z
 _atom_site_occupancy
  Nd  Nd0  1  0.371980  0.878289  0.245476  1
  Nd  Nd1  1  0.040770  0.209864  0.580798  1
  Nd  Nd2  1  0.709762  0.541363  0.916894  1
  Nd  Nd3  1  0.289195  0.459031  0.081516  1
  Nd  Nd4  1  0.959099  0.790741  0.418816  1
  Nd  Nd5  1  0.628525  0.122471  0.754496  1
  Zn  Zn6  1  0.903031  0.347738  0.306240  1
  Zn  Zn7  1  0.570850  0.679613  0.641041  1
  Si  Si8  1  0.235933  0.013507  0.972262  1
  Si  Si9  1  0.763589  0.986635  0.027162  1
  Si  Si10  1  0.430664  0.319221  0.360683  1
  Si  Si11  1  0.098182  0.651314  0.695127  1
  Si  Si12  1  0.843895  0.402611  0.193303  1
  Si  Si13  1  0.514564  0.735225  0.527978  1
  Si  Si14  1  0.180858  0.069361  0.861675  1
  Si  Si15  1  0.818455  0.930781  0.138233  1
  Si  Si16  1  0.485763  0.264578  0.472044  1
  Si  Si17  1  0.154891  0.597655  0.806255  1
