# generated using pymatgen
data_Sm3Gd3(CBr5)2
_symmetry_space_group_name_H-M   'P 1'
_cell_length_a   7.57565622
_cell_length_b   9.13491529
_cell_length_c   9.24809700
_cell_angle_alpha   107.72330664
_cell_angle_beta   96.65971451
_cell_angle_gamma   105.29232978
_symmetry_Int_Tables_number   1
_chemical_formula_structural   Sm3Gd3(CBr5)2
_chemical_formula_sum   'Sm3 Gd3 C2 Br10'
_cell_volume   574.46358431
_cell_formula_units_Z   1
loop_
 _symmetry_equiv_pos_site_id
 _symmetry_equiv_pos_as_xyz
  1  'x, y, z'
loop_
 _atom_site_type_symbol
 _atom_site_label
 _atom_site_symmetry_multiplicity
 _atom_site_fract_x
 _atom_site_fract_y
 _atom_site_fract_z
 _atom_site_occupancy
  Sm  Sm0  1  0.888696  0.955228  0.226717  1
  Sm  Sm1  1  0.112374  0.043307  0.773094  1
  Sm  Sm2  1  0.028388  0.725472  0.918107  1
  Gd  Gd3  1  0.971664  0.273109  0.081678  1
  Gd  Gd4  1  0.617246  0.856348  0.806928  1
  Gd  Gd5  1  0.383248  0.144251  0.193048  1
  C  C6  1  0.906999  0.968463  0.955370  1
  C  C7  1  0.093063  0.033686  0.045202  1
  Br  Br8  1  0.754411  0.916676  0.543400  1
  Br  Br9  1  0.246620  0.084838  0.456879  1
  Br  Br10  1  0.458599  0.821564  0.084901  1
  Br  Br11  1  0.542509  0.179481  0.915658  1
  Br  Br12  1  0.809453  0.260488  0.346814  1
  Br  Br13  1  0.192419  0.739461  0.651075  1
  Br  Br14  1  0.911540  0.630132  0.171976  1
  Br  Br15  1  0.086391  0.368020  0.829999  1
  Br  Br16  1  0.657008  0.545293  0.726571  1
  Br  Br17  1  0.339371  0.454184  0.272584  1
