# generated using pymatgen
data_Th2Ge2BOs2
_symmetry_space_group_name_H-M   'P 1'
_cell_length_a   4.24540193
_cell_length_b   6.14121808
_cell_length_c   6.11066900
_cell_angle_alpha   73.40648923
_cell_angle_beta   69.67307861
_cell_angle_gamma   69.77862940
_symmetry_Int_Tables_number   1
_chemical_formula_structural   Th2Ge2BOs2
_chemical_formula_sum   'Th2 Ge2 B1 Os2'
_cell_volume   137.68530803
_cell_formula_units_Z   1
loop_
 _symmetry_equiv_pos_site_id
 _symmetry_equiv_pos_as_xyz
  1  'x, y, z'
loop_
 _atom_site_type_symbol
 _atom_site_label
 _atom_site_symmetry_multiplicity
 _atom_site_fract_x
 _atom_site_fract_y
 _atom_site_fract_z
 _atom_site_occupancy
  Th  Th0  1  0.442212  0.821247  0.294328  1
  Th  Th1  1  0.557788  0.178753  0.705672  1
  Ge  Ge2  1  0.836748  0.624342  0.702164  1
  Ge  Ge3  1  0.163252  0.375658  0.297836  1
  B  B4  1  0.000000  0.000000  0.000000  1
  Os  Os5  1  0.798183  0.317013  0.086622  1
  Os  Os6  1  0.201817  0.682987  0.913378  1
