# generated using pymatgen
data_Ba2Cd(PdO2)3
_symmetry_space_group_name_H-M   'P 1'
_cell_length_a   9.57977371
_cell_length_b   8.85356274
_cell_length_c   7.29077154
_cell_angle_alpha   72.05822656
_cell_angle_beta   61.55200031
_cell_angle_gamma   46.38976496
_symmetry_Int_Tables_number   1
_chemical_formula_structural   Ba2Cd(PdO2)3
_chemical_formula_sum   'Ba4 Cd2 Pd6 O12'
_cell_volume   393.46050268
_cell_formula_units_Z   2
loop_
 _symmetry_equiv_pos_site_id
 _symmetry_equiv_pos_as_xyz
  1  'x, y, z'
loop_
 _atom_site_type_symbol
 _atom_site_label
 _atom_site_symmetry_multiplicity
 _atom_site_fract_x
 _atom_site_fract_y
 _atom_site_fract_z
 _atom_site_occupancy
  Ba  Ba0  1  0.750000  0.750000  0.750000  1
  Ba  Ba1  1  0.250000  0.250000  0.250000  1
  Ba  Ba2  1  0.233453  0.766547  0.233453  1
  Ba  Ba3  1  0.766547  0.233453  0.766547  1
  Cd  Cd4  1  0.671439  0.671439  0.328561  1
  Cd  Cd5  1  0.328561  0.328561  0.671439  1
  Pd  Pd6  1  0.690094  0.006340  0.309906  1
  Pd  Pd7  1  0.993660  0.309906  0.006340  1
  Pd  Pd8  1  0.006340  0.690094  0.993660  1
  Pd  Pd9  1  0.309906  0.993660  0.690094  1
  Pd  Pd10  1  0.324769  0.675231  0.675231  1
  Pd  Pd11  1  0.675231  0.324769  0.324769  1
  O  O12  1  0.328623  0.468661  0.906646  1
  O  O13  1  0.296071  0.906646  0.468661  1
  O  O14  1  0.906646  0.296071  0.328623  1
  O  O15  1  0.468661  0.328623  0.296071  1
  O  O16  1  0.671377  0.531339  0.093354  1
  O  O17  1  0.703929  0.093354  0.531339  1
  O  O18  1  0.687338  0.923584  0.076416  1
  O  O19  1  0.531339  0.671377  0.703929  1
  O  O20  1  0.923584  0.687338  0.312662  1
  O  O21  1  0.076416  0.312662  0.687338  1
  O  O22  1  0.312662  0.076416  0.923584  1
  O  O23  1  0.093354  0.703929  0.671377  1
