# generated using pymatgen
data_Ho7Se8
_symmetry_space_group_name_H-M   'P 1'
_cell_length_a   8.10250700
_cell_length_b   8.10250775
_cell_length_c   8.10250700
_cell_angle_alpha   120.00000101
_cell_angle_beta   90.00000000
_cell_angle_gamma   120.00000101
_symmetry_Int_Tables_number   1
_chemical_formula_structural   Ho7Se8
_chemical_formula_sum   'Ho7 Se8'
_cell_volume   376.13459009
_cell_formula_units_Z   1
loop_
 _symmetry_equiv_pos_site_id
 _symmetry_equiv_pos_as_xyz
  1  'x, y, z'
loop_
 _atom_site_type_symbol
 _atom_site_label
 _atom_site_symmetry_multiplicity
 _atom_site_fract_x
 _atom_site_fract_y
 _atom_site_fract_z
 _atom_site_occupancy
  Ho  Ho0  1  0.249982  0.000000  0.249982  1
  Ho  Ho1  1  0.249982  0.499964  0.249982  1
  Ho  Ho2  1  0.750018  0.000000  0.249983  1
  Ho  Ho3  1  0.250001  0.500001  0.750002  1
  Ho  Ho4  1  0.249983  0.000000  0.750018  1
  Ho  Ho5  1  0.750018  0.000000  0.750018  1
  Ho  Ho6  1  0.750018  0.500035  0.750018  1
  Se  Se7  1  0.000000  0.000000  0.000000  1
  Se  Se8  1  0.500000  0.000000  0.500000  1
  Se  Se9  1  0.997473  0.994948  0.497475  1
  Se  Se10  1  0.997473  0.500001  0.497475  1
  Se  Se11  1  0.502528  0.500001  0.497475  1
  Se  Se12  1  0.997475  0.500001  0.002527  1
  Se  Se13  1  0.502526  0.500001  0.002527  1
  Se  Se14  1  0.502526  0.005051  0.002527  1
