# generated using pymatgen
data_Sc5Al16BiIr7
_symmetry_space_group_name_H-M   'P 1'
_cell_length_a   8.76618884
_cell_length_b   8.80164511
_cell_length_c   8.80164610
_cell_angle_alpha   59.73366943
_cell_angle_beta   60.13317563
_cell_angle_gamma   60.13317561
_symmetry_Int_Tables_number   1
_chemical_formula_structural   Sc5Al16BiIr7
_chemical_formula_sum   'Sc5 Al16 Bi1 Ir7'
_cell_volume   480.18612710
_cell_formula_units_Z   1
loop_
 _symmetry_equiv_pos_site_id
 _symmetry_equiv_pos_as_xyz
  1  'x, y, z'
loop_
 _atom_site_type_symbol
 _atom_site_label
 _atom_site_symmetry_multiplicity
 _atom_site_fract_x
 _atom_site_fract_y
 _atom_site_fract_z
 _atom_site_occupancy
  Sc  Sc0  1  0.787447  0.212553  0.212553  1
  Sc  Sc1  1  0.772207  0.227793  0.764743  1
  Sc  Sc2  1  0.772207  0.764743  0.227793  1
  Sc  Sc3  1  0.235257  0.764743  0.227793  1
  Sc  Sc4  1  0.235257  0.227793  0.764743  1
  Al  Al5  1  0.864797  0.834450  0.834450  1
  Al  Al6  1  0.849601  0.823783  0.477017  1
  Al  Al7  1  0.466304  0.834450  0.834450  1
  Al  Al8  1  0.849601  0.477017  0.823783  1
  Al  Al9  1  0.176217  0.150399  0.150399  1
  Al  Al10  1  0.165550  0.135203  0.533696  1
  Al  Al11  1  0.165550  0.533696  0.135203  1
  Al  Al12  1  0.522983  0.150399  0.150399  1
  Al  Al13  1  0.605140  0.624387  0.624387  1
  Al  Al14  1  0.632626  0.616544  0.118204  1
  Al  Al15  1  0.146085  0.624387  0.624387  1
  Al  Al16  1  0.632626  0.118204  0.616544  1
  Al  Al17  1  0.383456  0.367374  0.367374  1
  Al  Al18  1  0.375613  0.394860  0.853915  1
  Al  Al19  1  0.375613  0.853915  0.394860  1
  Al  Al20  1  0.881796  0.367374  0.367374  1
  Bi  Bi21  1  0.029041  0.970959  0.970959  1
  Ir  Ir22  1  0.512451  0.487549  0.487549  1
  Ir  Ir23  1  0.011451  0.488549  0.488549  1
  Ir  Ir24  1  0.511451  0.988549  0.988549  1
  Ir  Ir25  1  0.514718  0.994882  0.485282  1
  Ir  Ir26  1  0.514718  0.485282  0.994882  1
  Ir  Ir27  1  0.005118  0.485282  0.994882  1
  Ir  Ir28  1  0.005118  0.994882  0.485282  1
