# generated using pymatgen
data_Nd2Tc3Ni7P6
_symmetry_space_group_name_H-M   'P 1'
_cell_length_a   3.78511100
_cell_length_b   10.73312600
_cell_length_c   12.11216700
_cell_angle_alpha   90.00000000
_cell_angle_beta   90.00000000
_cell_angle_gamma   90.00000000
_symmetry_Int_Tables_number   1
_chemical_formula_structural   Nd2Tc3Ni7P6
_chemical_formula_sum   'Nd4 Tc6 Ni14 P12'
_cell_volume   492.06978421
_cell_formula_units_Z   2
loop_
 _symmetry_equiv_pos_site_id
 _symmetry_equiv_pos_as_xyz
  1  'x, y, z'
loop_
 _atom_site_type_symbol
 _atom_site_label
 _atom_site_symmetry_multiplicity
 _atom_site_fract_x
 _atom_site_fract_y
 _atom_site_fract_z
 _atom_site_occupancy
  Nd  Nd0  1  0.250000  0.589597  0.706198  1
  Nd  Nd1  1  0.250000  0.910403  0.206198  1
  Nd  Nd2  1  0.750000  0.414177  0.291356  1
  Nd  Nd3  1  0.750000  0.085823  0.791356  1
  Tc  Tc4  1  0.250000  0.708569  0.986870  1
  Tc  Tc5  1  0.250000  0.791431  0.486870  1
  Tc  Tc6  1  0.750000  0.292220  0.012886  1
  Tc  Tc7  1  0.750000  0.207780  0.512886  1
  Tc  Tc8  1  0.250000  0.409978  0.493901  1
  Tc  Tc9  1  0.250000  0.090022  0.993901  1
  Ni  Ni10  1  0.750000  0.601518  0.507946  1
  Ni  Ni11  1  0.750000  0.898482  0.007946  1
  Ni  Ni12  1  0.250000  0.226221  0.181594  1
  Ni  Ni13  1  0.250000  0.273779  0.681594  1
  Ni  Ni14  1  0.750000  0.778311  0.821256  1
  Ni  Ni15  1  0.750000  0.721689  0.321256  1
  Ni  Ni16  1  0.250000  0.883379  0.701257  1
  Ni  Ni17  1  0.250000  0.616621  0.201257  1
  Ni  Ni18  1  0.750000  0.114405  0.297398  1
  Ni  Ni19  1  0.750000  0.385595  0.797398  1
  Ni  Ni20  1  0.250000  0.465014  0.930665  1
  Ni  Ni21  1  0.250000  0.034986  0.430665  1
  Ni  Ni22  1  0.750000  0.536049  0.066361  1
  Ni  Ni23  1  0.750000  0.963951  0.566361  1
  P  P24  1  0.250000  0.421912  0.110270  1
  P  P25  1  0.250000  0.078088  0.610270  1
  P  P26  1  0.750000  0.582118  0.889124  1
  P  P27  1  0.750000  0.917882  0.389124  1
  P  P28  1  0.250000  0.271313  0.874198  1
  P  P29  1  0.250000  0.228687  0.374198  1
  P  P30  1  0.750000  0.727060  0.127890  1
  P  P31  1  0.750000  0.772940  0.627890  1
  P  P32  1  0.250000  0.602151  0.390352  1
  P  P33  1  0.250000  0.897849  0.890352  1
  P  P34  1  0.750000  0.397580  0.610477  1
  P  P35  1  0.750000  0.102420  0.110477  1
