# generated using pymatgen
data_Dy4Ga4PtAu3
_symmetry_space_group_name_H-M   'P 1'
_cell_length_a   4.49590500
_cell_length_b   7.12503992
_cell_length_c   7.77175711
_cell_angle_alpha   89.86085042
_cell_angle_beta   90.00000000
_cell_angle_gamma   90.00000000
_symmetry_Int_Tables_number   1
_chemical_formula_structural   Dy4Ga4PtAu3
_chemical_formula_sum   'Dy4 Ga4 Pt1 Au3'
_cell_volume   248.95586726
_cell_formula_units_Z   1
loop_
 _symmetry_equiv_pos_site_id
 _symmetry_equiv_pos_as_xyz
  1  'x, y, z'
loop_
 _atom_site_type_symbol
 _atom_site_label
 _atom_site_symmetry_multiplicity
 _atom_site_fract_x
 _atom_site_fract_y
 _atom_site_fract_z
 _atom_site_occupancy
  Dy  Dy0  1  0.250000  0.003428  0.294678  1
  Dy  Dy1  1  0.250000  0.492688  0.212768  1
  Dy  Dy2  1  0.750000  0.009474  0.700913  1
  Dy  Dy3  1  0.750000  0.501460  0.788194  1
  Ga  Ga4  1  0.250000  0.312164  0.579822  1
  Ga  Ga5  1  0.250000  0.811726  0.916131  1
  Ga  Ga6  1  0.750000  0.678879  0.416453  1
  Ga  Ga7  1  0.750000  0.195886  0.089208  1
  Pt  Pt8  1  0.750000  0.282224  0.414598  1
  Au  Au9  1  0.250000  0.211831  0.912554  1
  Au  Au10  1  0.250000  0.716510  0.586949  1
  Au  Au11  1  0.750000  0.783730  0.087733  1
