# generated using pymatgen
data_Dy3Ho16ErBi12
_symmetry_space_group_name_H-M   'P 1'
_cell_length_a   8.23969444
_cell_length_b   9.50699100
_cell_length_c   12.00814902
_cell_angle_alpha   90.00000000
_cell_angle_beta   90.02230235
_cell_angle_gamma   90.00000000
_symmetry_Int_Tables_number   1
_chemical_formula_structural   Dy3Ho16ErBi12
_chemical_formula_sum   'Dy3 Ho16 Er1 Bi12'
_cell_volume   940.65469030
_cell_formula_units_Z   1
loop_
 _symmetry_equiv_pos_site_id
 _symmetry_equiv_pos_as_xyz
  1  'x, y, z'
loop_
 _atom_site_type_symbol
 _atom_site_label
 _atom_site_symmetry_multiplicity
 _atom_site_fract_x
 _atom_site_fract_y
 _atom_site_fract_z
 _atom_site_occupancy
  Dy  Dy0  1  0.812939  0.250000  0.281664  1
  Dy  Dy1  1  0.686894  0.750000  0.781794  1
  Dy  Dy2  1  0.186737  0.750000  0.718302  1
  Ho  Ho3  1  0.353041  0.750000  0.216636  1
  Ho  Ho4  1  0.852991  0.750000  0.283280  1
  Ho  Ho5  1  0.646906  0.250000  0.783614  1
  Ho  Ho6  1  0.147164  0.250000  0.716559  1
  Ho  Ho7  1  0.692379  0.564896  0.059105  1
  Ho  Ho8  1  0.192007  0.935108  0.440787  1
  Ho  Ho9  1  0.307809  0.064923  0.940999  1
  Ho  Ho10  1  0.808073  0.435064  0.559083  1
  Ho  Ho11  1  0.307809  0.435077  0.940999  1
  Ho  Ho12  1  0.808073  0.064936  0.559083  1
  Ho  Ho13  1  0.692379  0.935104  0.059105  1
  Ho  Ho14  1  0.192007  0.564892  0.440787  1
  Ho  Ho15  1  0.475936  0.250000  0.488310  1
  Ho  Ho16  1  0.975994  0.250000  0.011809  1
  Ho  Ho17  1  0.524007  0.750000  0.511475  1
  Ho  Ho18  1  0.312710  0.250000  0.217835  1
  Er  Er19  1  0.024129  0.750000  0.988573  1
  Bi  Bi20  1  0.405654  0.750000  0.958055  1
  Bi  Bi21  1  0.905579  0.750000  0.541938  1
  Bi  Bi22  1  0.593818  0.250000  0.042570  1
  Bi  Bi23  1  0.094759  0.250000  0.457681  1
  Bi  Bi24  1  0.565200  0.995464  0.325572  1
  Bi  Bi25  1  0.066423  0.504650  0.174182  1
  Bi  Bi26  1  0.434291  0.495118  0.674117  1
  Bi  Bi27  1  0.934189  0.004942  0.826105  1
  Bi  Bi28  1  0.434291  0.004882  0.674117  1
  Bi  Bi29  1  0.934189  0.495058  0.826105  1
  Bi  Bi30  1  0.565200  0.504536  0.325572  1
  Bi  Bi31  1  0.066423  0.995350  0.174182  1
