# generated using pymatgen
data_HoSc7Ti11Si16Ru
_symmetry_space_group_name_H-M   'P 1'
_cell_length_a   6.86519301
_cell_length_b   6.86883223
_cell_length_c   12.58322689
_cell_angle_alpha   89.96360497
_cell_angle_beta   89.97780464
_cell_angle_gamma   89.85606700
_symmetry_Int_Tables_number   1
_chemical_formula_structural   HoSc7Ti11Si16Ru
_chemical_formula_sum   'Ho1 Sc7 Ti11 Si16 Ru1'
_cell_volume   593.37083752
_cell_formula_units_Z   1
loop_
 _symmetry_equiv_pos_site_id
 _symmetry_equiv_pos_as_xyz
  1  'x, y, z'
loop_
 _atom_site_type_symbol
 _atom_site_label
 _atom_site_symmetry_multiplicity
 _atom_site_fract_x
 _atom_site_fract_y
 _atom_site_fract_z
 _atom_site_occupancy
  Ho  Ho0  1  0.996402  0.659171  0.031192  1
  Sc  Sc1  1  0.341435  0.002701  0.467594  1
  Sc  Sc2  1  0.497579  0.841852  0.717518  1
  Sc  Sc3  1  0.499792  0.157991  0.216489  1
  Sc  Sc4  1  0.841671  0.497445  0.282554  1
  Sc  Sc5  1  0.158393  0.499578  0.784213  1
  Sc  Sc6  1  0.656853  0.000204  0.967648  1
  Sc  Sc7  1  0.002768  0.341476  0.532567  1
  Ti  Ti8  1  0.174345  0.828738  0.249081  1
  Ti  Ti9  1  0.827304  0.173394  0.750850  1
  Ti  Ti10  1  0.673019  0.673109  0.499938  1
  Ti  Ti11  1  0.150421  0.000308  0.872911  1
  Ti  Ti12  1  0.494553  0.654080  0.124625  1
  Ti  Ti13  1  0.504828  0.351638  0.627233  1
  Ti  Ti14  1  0.653498  0.492483  0.874566  1
  Ti  Ti15  1  0.352158  0.504809  0.373600  1
  Ti  Ti16  1  0.851137  0.996228  0.375930  1
  Ti  Ti17  1  0.001002  0.149861  0.126430  1
  Ti  Ti18  1  0.995584  0.851339  0.624468  1
  Si  Si19  1  0.204129  0.138028  0.680609  1
  Si  Si20  1  0.371600  0.704847  0.927997  1
  Si  Si21  1  0.636816  0.295034  0.430790  1
  Si  Si22  1  0.698368  0.363066  0.070011  1
  Si  Si23  1  0.294951  0.636879  0.569604  1
  Si  Si24  1  0.791448  0.867048  0.183492  1
  Si  Si25  1  0.137940  0.203785  0.319809  1
  Si  Si26  1  0.861342  0.796232  0.817307  1
  Si  Si27  1  0.295817  0.959776  0.064613  1
  Si  Si28  1  0.545026  0.798318  0.316626  1
  Si  Si29  1  0.450907  0.203885  0.817587  1
  Si  Si30  1  0.798455  0.546060  0.683645  1
  Si  Si31  1  0.207635  0.448279  0.184127  1
  Si  Si32  1  0.701922  0.047378  0.565782  1
  Si  Si33  1  0.954593  0.287059  0.934275  1
  Si  Si34  1  0.047303  0.702175  0.434301  1
  Ru  Ru35  1  0.329006  0.325746  0.000017  1
