# generated using pymatgen
data_Li13Ga4Hg
_symmetry_space_group_name_H-M   'P 1'
_cell_length_a   4.54120800
_cell_length_b   4.54120944
_cell_length_c   16.22505900
_cell_angle_alpha   90.00000000
_cell_angle_beta   90.00000000
_cell_angle_gamma   120.00001865
_symmetry_Int_Tables_number   1
_chemical_formula_structural   Li13Ga4Hg
_chemical_formula_sum   'Li13 Ga4 Hg1'
_cell_volume   289.77423038
_cell_formula_units_Z   1
loop_
 _symmetry_equiv_pos_site_id
 _symmetry_equiv_pos_as_xyz
  1  'x, y, z'
loop_
 _atom_site_type_symbol
 _atom_site_label
 _atom_site_symmetry_multiplicity
 _atom_site_fract_x
 _atom_site_fract_y
 _atom_site_fract_z
 _atom_site_occupancy
  Li  Li0  1  0.000000  0.000000  0.500000  1
  Li  Li1  1  0.000000  0.000000  0.670653  1
  Li  Li2  1  0.000000  0.000000  0.329347  1
  Li  Li3  1  0.000000  0.000000  0.831886  1
  Li  Li4  1  0.000000  0.000000  0.168114  1
  Li  Li5  1  0.333333  0.666667  0.941917  1
  Li  Li6  1  0.666667  0.333333  0.058083  1
  Li  Li7  1  0.333333  0.666667  0.448038  1
  Li  Li8  1  0.666667  0.333333  0.551962  1
  Li  Li9  1  0.333333  0.666667  0.284109  1
  Li  Li10  1  0.666667  0.333333  0.715891  1
  Li  Li11  1  0.333333  0.666667  0.118482  1
  Li  Li12  1  0.666667  0.333333  0.881518  1
  Ga  Ga13  1  0.333333  0.666667  0.776857  1
  Ga  Ga14  1  0.666667  0.333333  0.223143  1
  Ga  Ga15  1  0.333333  0.666667  0.616287  1
  Ga  Ga16  1  0.666667  0.333333  0.383713  1
  Hg  Hg17  1  0.000000  0.000000  0.000000  1
