# generated using pymatgen
data_Ho12ZnGaCo4
_symmetry_space_group_name_H-M   'P 1'
_cell_length_a   8.20663032
_cell_length_b   8.20663002
_cell_length_c   8.20663031
_cell_angle_alpha   111.92617839
_cell_angle_beta   109.67572525
_cell_angle_gamma   106.85148411
_symmetry_Int_Tables_number   1
_chemical_formula_structural   Ho12ZnGaCo4
_chemical_formula_sum   'Ho12 Zn1 Ga1 Co4'
_cell_volume   424.63830824
_cell_formula_units_Z   1
loop_
 _symmetry_equiv_pos_site_id
 _symmetry_equiv_pos_as_xyz
  1  'x, y, z'
loop_
 _atom_site_type_symbol
 _atom_site_label
 _atom_site_symmetry_multiplicity
 _atom_site_fract_x
 _atom_site_fract_y
 _atom_site_fract_z
 _atom_site_occupancy
  Ho  Ho0  1  0.957990  0.262372  0.695618  1
  Ho  Ho1  1  0.042010  0.737628  0.304382  1
  Ho  Ho2  1  0.673667  0.862635  0.188968  1
  Ho  Ho3  1  0.326333  0.515303  0.188968  1
  Ho  Ho4  1  0.326333  0.137365  0.811032  1
  Ho  Ho5  1  0.673667  0.484697  0.811032  1
  Ho  Ho6  1  0.566754  0.262372  0.304382  1
  Ho  Ho7  1  0.433246  0.737628  0.695618  1
  Ho  Ho8  1  0.179969  0.779906  0.959875  1
  Ho  Ho9  1  0.820031  0.779906  0.599938  1
  Ho  Ho10  1  0.179969  0.220094  0.400062  1
  Ho  Ho11  1  0.820031  0.220094  0.040125  1
  Zn  Zn12  1  0.000000  0.500000  0.500000  1
  Ga  Ga13  1  0.500000  0.000000  0.500000  1
  Co  Co14  1  0.115207  0.115207  0.000000  1
  Co  Co15  1  0.884793  0.884793  0.000000  1
  Co  Co16  1  0.663684  0.500000  0.163684  1
  Co  Co17  1  0.336316  0.500000  0.836316  1
