# generated using pymatgen
data_Li6Zr5Rh12W
_symmetry_space_group_name_H-M   'P 1'
_cell_length_a   4.44031500
_cell_length_b   6.21205200
_cell_length_c   13.32707600
_cell_angle_alpha   90.00000000
_cell_angle_beta   89.99899804
_cell_angle_gamma   90.00000000
_symmetry_Int_Tables_number   1
_chemical_formula_structural   Li6Zr5Rh12W
_chemical_formula_sum   'Li6 Zr5 Rh12 W1'
_cell_volume   367.60697004
_cell_formula_units_Z   1
loop_
 _symmetry_equiv_pos_site_id
 _symmetry_equiv_pos_as_xyz
  1  'x, y, z'
loop_
 _atom_site_type_symbol
 _atom_site_label
 _atom_site_symmetry_multiplicity
 _atom_site_fract_x
 _atom_site_fract_y
 _atom_site_fract_z
 _atom_site_occupancy
  Li  Li0  1  0.000000  0.000000  0.000000  1
  Li  Li1  1  0.499879  0.500000  0.165369  1
  Li  Li2  1  0.999884  0.000000  0.332096  1
  Li  Li3  1  0.500001  0.500000  0.500000  1
  Li  Li4  1  0.000116  0.000000  0.667904  1
  Li  Li5  1  0.500120  0.500000  0.834631  1
  Zr  Zr6  1  0.499900  0.000000  0.165073  1
  Zr  Zr7  1  0.999885  0.500000  0.331257  1
  Zr  Zr8  1  0.500001  0.000000  0.500000  1
  Zr  Zr9  1  0.000117  0.500000  0.668743  1
  Zr  Zr10  1  0.500100  0.000000  0.834927  1
  Rh  Rh11  1  0.499999  0.265987  0.000000  1
  Rh  Rh12  1  0.499999  0.734014  0.000000  1
  Rh  Rh13  1  0.999916  0.255836  0.158213  1
  Rh  Rh14  1  0.999916  0.744163  0.158213  1
  Rh  Rh15  1  0.499887  0.250726  0.331224  1
  Rh  Rh16  1  0.499887  0.749274  0.331224  1
  Rh  Rh17  1  0.000000  0.250887  0.500000  1
  Rh  Rh18  1  0.000000  0.749114  0.500000  1
  Rh  Rh19  1  0.500113  0.250726  0.668775  1
  Rh  Rh20  1  0.500113  0.749274  0.668775  1
  Rh  Rh21  1  0.000084  0.255836  0.841787  1
  Rh  Rh22  1  0.000084  0.744163  0.841787  1
  W  W23  1  0.000000  0.500000  0.000000  1
