# generated using pymatgen
data_TbPa3(TaN2)4
_symmetry_space_group_name_H-M   'P 1'
_cell_length_a   3.30656400
_cell_length_b   5.70946222
_cell_length_c   10.97601976
_cell_angle_alpha   90.09082608
_cell_angle_beta   90.00000000
_cell_angle_gamma   90.00000000
_symmetry_Int_Tables_number   1
_chemical_formula_structural   TbPa3(TaN2)4
_chemical_formula_sum   'Tb1 Pa3 Ta4 N8'
_cell_volume   207.21274845
_cell_formula_units_Z   1
loop_
 _symmetry_equiv_pos_site_id
 _symmetry_equiv_pos_as_xyz
  1  'x, y, z'
loop_
 _atom_site_type_symbol
 _atom_site_label
 _atom_site_symmetry_multiplicity
 _atom_site_fract_x
 _atom_site_fract_y
 _atom_site_fract_z
 _atom_site_occupancy
  Tb  Tb0  1  0.250000  0.578750  0.855197  1
  Pa  Pa1  1  0.750000  0.424401  0.139020  1
  Pa  Pa2  1  0.750000  0.922103  0.357191  1
  Pa  Pa3  1  0.250000  0.079517  0.645515  1
  Ta  Ta4  1  0.250000  0.922035  0.099784  1
  Ta  Ta5  1  0.750000  0.072369  0.902478  1
  Ta  Ta6  1  0.750000  0.577008  0.601255  1
  Ta  Ta7  1  0.250000  0.424176  0.399771  1
  N  N8  1  0.250000  0.661411  0.246649  1
  N  N9  1  0.750000  0.332501  0.751331  1
  N  N10  1  0.750000  0.843202  0.744677  1
  N  N11  1  0.250000  0.160239  0.254550  1
  N  N12  1  0.250000  0.758839  0.506810  1
  N  N13  1  0.750000  0.242866  0.494699  1
  N  N14  1  0.750000  0.740820  0.005119  1
  N  N15  1  0.250000  0.259763  0.995954  1
