# generated using pymatgen
data_Sm6C2Br7
_symmetry_space_group_name_H-M   'P 1'
_cell_length_a   10.81995294
_cell_length_b   10.81995293
_cell_length_c   12.58958433
_cell_angle_alpha   57.41243883
_cell_angle_beta   57.41243807
_cell_angle_gamma   20.83133582
_symmetry_Int_Tables_number   1
_chemical_formula_structural   Sm6C2Br7
_chemical_formula_sum   'Sm6 C2 Br7'
_cell_volume   438.56389772
_cell_formula_units_Z   1
loop_
 _symmetry_equiv_pos_site_id
 _symmetry_equiv_pos_as_xyz
  1  'x, y, z'
loop_
 _atom_site_type_symbol
 _atom_site_label
 _atom_site_symmetry_multiplicity
 _atom_site_fract_x
 _atom_site_fract_y
 _atom_site_fract_z
 _atom_site_occupancy
  Sm  Sm0  1  0.234022  0.234022  0.822791  1
  Sm  Sm1  1  0.312940  0.312940  0.367791  1
  Sm  Sm2  1  0.128678  0.128678  0.449436  1
  Sm  Sm3  1  0.871322  0.871322  0.550564  1
  Sm  Sm4  1  0.687060  0.687060  0.632209  1
  Sm  Sm5  1  0.765978  0.765978  0.177209  1
  C  C6  1  0.281634  0.281634  0.601171  1
  C  C7  1  0.718366  0.718366  0.398829  1
  Br  Br8  1  0.161456  0.161456  0.180322  1
  Br  Br9  1  0.838544  0.838544  0.819678  1
  Br  Br10  1  0.059198  0.059198  0.718367  1
  Br  Br11  1  0.940802  0.940802  0.281633  1
  Br  Br12  1  0.500000  0.500000  0.500000  1
  Br  Br13  1  0.385096  0.385096  0.078104  1
  Br  Br14  1  0.614904  0.614904  0.921896  1
