# generated using pymatgen
data_Be2Nb3B2W3
_symmetry_space_group_name_H-M   'P 1'
_cell_length_a   6.25721037
_cell_length_b   6.24579949
_cell_length_c   3.27205400
_cell_angle_alpha   90.00000000
_cell_angle_beta   90.00000000
_cell_angle_gamma   90.31375038
_symmetry_Int_Tables_number   1
_chemical_formula_structural   Be2Nb3B2W3
_chemical_formula_sum   'Be2 Nb3 B2 W3'
_cell_volume   127.87414576
_cell_formula_units_Z   1
loop_
 _symmetry_equiv_pos_site_id
 _symmetry_equiv_pos_as_xyz
  1  'x, y, z'
loop_
 _atom_site_type_symbol
 _atom_site_label
 _atom_site_symmetry_multiplicity
 _atom_site_fract_x
 _atom_site_fract_y
 _atom_site_fract_z
 _atom_site_occupancy
  Be  Be0  1  0.116267  0.615959  0.000000  1
  Be  Be1  1  0.609608  0.886053  0.000000  1
  Nb  Nb2  1  0.821811  0.672808  0.500000  1
  Nb  Nb3  1  0.179626  0.317474  0.500000  1
  Nb  Nb4  1  0.677011  0.181084  0.500000  1
  B  B5  1  0.384006  0.110258  0.000000  1
  B  B6  1  0.885335  0.383740  0.000000  1
  W  W7  1  0.003142  0.003358  0.000000  1
  W  W8  1  0.500114  0.498718  0.000000  1
  W  W9  1  0.323080  0.830548  0.500000  1
