# generated using pymatgen
data_NdHo9(SnPb)4
_symmetry_space_group_name_H-M   'P 1'
_cell_length_a   8.17893780
_cell_length_b   8.22700400
_cell_length_c   15.57253400
_cell_angle_alpha   90.00000000
_cell_angle_beta   89.15483792
_cell_angle_gamma   90.00000000
_symmetry_Int_Tables_number   1
_chemical_formula_structural   NdHo9(SnPb)4
_chemical_formula_sum   'Nd2 Ho18 Sn8 Pb8'
_cell_volume   1047.73306891
_cell_formula_units_Z   2
loop_
 _symmetry_equiv_pos_site_id
 _symmetry_equiv_pos_as_xyz
  1  'x, y, z'
loop_
 _atom_site_type_symbol
 _atom_site_label
 _atom_site_symmetry_multiplicity
 _atom_site_fract_x
 _atom_site_fract_y
 _atom_site_fract_z
 _atom_site_occupancy
  Nd  Nd0  1  0.966754  0.823079  0.602328  1
  Nd  Nd1  1  0.533246  0.323079  0.397672  1
  Ho  Ho2  1  0.040975  0.173970  0.393592  1
  Ho  Ho3  1  0.387428  0.835956  0.120396  1
  Ho  Ho4  1  0.118673  0.338549  0.623449  1
  Ho  Ho5  1  0.451952  0.672131  0.892739  1
  Ho  Ho6  1  0.888672  0.663324  0.121108  1
  Ho  Ho7  1  0.112572  0.335956  0.879604  1
  Ho  Ho8  1  0.214522  0.502876  0.249122  1
  Ho  Ho9  1  0.715318  0.997156  0.248360  1
  Ho  Ho10  1  0.459025  0.673970  0.606408  1
  Ho  Ho11  1  0.285478  0.002876  0.750878  1
  Ho  Ho12  1  0.620928  0.161340  0.623984  1
  Ho  Ho13  1  0.784682  0.497156  0.751640  1
  Ho  Ho14  1  0.879072  0.661340  0.376016  1
  Ho  Ho15  1  0.048048  0.172131  0.107261  1
  Ho  Ho16  1  0.949928  0.828048  0.891222  1
  Ho  Ho17  1  0.611328  0.163324  0.878892  1
  Ho  Ho18  1  0.550072  0.328048  0.108778  1
  Ho  Ho19  1  0.381327  0.838549  0.376551  1
  Sn  Sn20  1  0.648567  0.853166  0.750383  1
  Sn  Sn21  1  0.851433  0.353166  0.249617  1
  Sn  Sn22  1  0.579965  0.626565  0.248756  1
  Sn  Sn23  1  0.419817  0.374068  0.750711  1
  Sn  Sn24  1  0.152409  0.644420  0.752204  1
  Sn  Sn25  1  0.920035  0.126565  0.751244  1
  Sn  Sn26  1  0.347591  0.144420  0.247796  1
  Sn  Sn27  1  0.080183  0.874068  0.249289  1
  Pb  Pb28  1  0.779616  0.469858  0.543386  1
  Pb  Pb29  1  0.720384  0.969858  0.456614  1
  Pb  Pb30  1  0.212700  0.537293  0.459641  1
  Pb  Pb31  1  0.271773  0.020525  0.957858  1
  Pb  Pb32  1  0.772784  0.477677  0.958597  1
  Pb  Pb33  1  0.228227  0.520525  0.042142  1
  Pb  Pb34  1  0.287300  0.037293  0.540359  1
  Pb  Pb35  1  0.727216  0.977677  0.041403  1
