# generated using pymatgen
data_ScAl4IrAu
_symmetry_space_group_name_H-M   'P 1'
_cell_length_a   4.31371400
_cell_length_b   4.31371400
_cell_length_c   6.43095200
_cell_angle_alpha   90.00000000
_cell_angle_beta   90.00000000
_cell_angle_gamma   90.00000000
_symmetry_Int_Tables_number   1
_chemical_formula_structural   ScAl4IrAu
_chemical_formula_sum   'Sc1 Al4 Ir1 Au1'
_cell_volume   119.66798102
_cell_formula_units_Z   1
loop_
 _symmetry_equiv_pos_site_id
 _symmetry_equiv_pos_as_xyz
  1  'x, y, z'
loop_
 _atom_site_type_symbol
 _atom_site_label
 _atom_site_symmetry_multiplicity
 _atom_site_fract_x
 _atom_site_fract_y
 _atom_site_fract_z
 _atom_site_occupancy
  Sc  Sc0  1  0.000000  0.000000  0.000000  1
  Al  Al1  1  0.499999  0.000000  0.289717  1
  Al  Al2  1  0.000000  0.499999  0.289717  1
  Al  Al3  1  0.499999  0.000000  0.710283  1
  Al  Al4  1  0.000000  0.499999  0.710283  1
  Ir  Ir5  1  0.000000  0.000000  0.499999  1
  Au  Au6  1  0.499999  0.499999  0.000000  1
