# generated using pymatgen
data_Ho5Tm6LuIn2FeTc2
_symmetry_space_group_name_H-M   'P 1'
_cell_length_a   8.34051845
_cell_length_b   8.33345777
_cell_length_c   8.33833506
_cell_angle_alpha   108.68389707
_cell_angle_beta   108.71505678
_cell_angle_gamma   111.03304599
_symmetry_Int_Tables_number   1
_chemical_formula_structural   Ho5Tm6LuIn2FeTc2
_chemical_formula_sum   'Ho5 Tm6 Lu1 In2 Fe1 Tc2'
_cell_volume   445.85752848
_cell_formula_units_Z   1
loop_
 _symmetry_equiv_pos_site_id
 _symmetry_equiv_pos_as_xyz
  1  'x, y, z'
loop_
 _atom_site_type_symbol
 _atom_site_label
 _atom_site_symmetry_multiplicity
 _atom_site_fract_x
 _atom_site_fract_y
 _atom_site_fract_z
 _atom_site_occupancy
  Ho  Ho0  1  0.303642  0.303610  0.609867  1
  Ho  Ho1  1  0.694457  0.694078  0.391035  1
  Ho  Ho2  1  0.692818  0.302340  0.998692  1
  Ho  Ho3  1  0.303181  0.693690  0.998390  1
  Ho  Ho4  1  0.190825  0.432382  0.241958  1
  Tm  Tm5  1  0.806755  0.570678  0.763301  1
  Tm  Tm6  1  0.190241  0.949432  0.759590  1
  Tm  Tm7  1  0.949424  0.188907  0.759846  1
  Tm  Tm8  1  0.806179  0.043543  0.236726  1
  Tm  Tm9  1  0.043730  0.807778  0.236455  1
  Tm  Tm10  1  0.430245  0.189449  0.240126  1
  Lu  Lu11  1  0.572491  0.808272  0.764727  1
  In  In12  1  0.996704  0.497533  0.500450  1
  In  In13  1  0.497550  0.996646  0.499890  1
  Fe  Fe14  1  0.631907  0.632443  0.999036  1
  Tc  Tc15  1  0.389252  0.388788  0.999875  1
  Tc  Tc16  1  0.000599  0.000431  0.000036  1
