# generated using pymatgen
data_Hf6Ti3Ge6MoC2
_symmetry_space_group_name_H-M   'P 1'
_cell_length_a   7.82362800
_cell_length_b   7.82362971
_cell_length_c   5.41757700
_cell_angle_alpha   90.00000000
_cell_angle_beta   90.00000000
_cell_angle_gamma   120.00000121
_symmetry_Int_Tables_number   1
_chemical_formula_structural   Hf6Ti3Ge6MoC2
_chemical_formula_sum   'Hf6 Ti3 Ge6 Mo1 C2'
_cell_volume   287.17868259
_cell_formula_units_Z   1
loop_
 _symmetry_equiv_pos_site_id
 _symmetry_equiv_pos_as_xyz
  1  'x, y, z'
loop_
 _atom_site_type_symbol
 _atom_site_label
 _atom_site_symmetry_multiplicity
 _atom_site_fract_x
 _atom_site_fract_y
 _atom_site_fract_z
 _atom_site_occupancy
  Hf  Hf0  1  0.764707  0.999581  0.750055  1
  Hf  Hf1  1  0.764707  0.765126  0.249945  1
  Hf  Hf2  1  0.000419  0.235293  0.249945  1
  Hf  Hf3  1  0.000419  0.765126  0.750055  1
  Hf  Hf4  1  0.234874  0.235293  0.750055  1
  Hf  Hf5  1  0.234874  0.999581  0.249945  1
  Ti  Ti6  1  0.666667  0.333333  0.000000  1
  Ti  Ti7  1  0.333333  0.666667  0.500000  1
  Ti  Ti8  1  0.666667  0.333333  0.500000  1
  Ge  Ge9  1  0.407202  0.000102  0.750132  1
  Ge  Ge10  1  0.407202  0.407100  0.249868  1
  Ge  Ge11  1  0.999898  0.592798  0.249868  1
  Ge  Ge12  1  0.999898  0.407100  0.750132  1
  Ge  Ge13  1  0.592900  0.592798  0.750132  1
  Ge  Ge14  1  0.592900  0.000102  0.249868  1
  Mo  Mo15  1  0.333333  0.666667  0.000000  1
  C  C16  1  0.000000  0.000000  0.500000  1
  C  C17  1  0.000000  0.000000  0.000000  1
