# generated using pymatgen
data_LiZr3Ge6Ir7
_symmetry_space_group_name_H-M   'P 1'
_cell_length_a   7.06926146
_cell_length_b   7.06926174
_cell_length_c   7.06926276
_cell_angle_alpha   109.09239201
_cell_angle_beta   109.09240629
_cell_angle_gamma   109.09240134
_symmetry_Int_Tables_number   1
_chemical_formula_structural   LiZr3Ge6Ir7
_chemical_formula_sum   'Li1 Zr3 Ge6 Ir7'
_cell_volume   275.70541223
_cell_formula_units_Z   1
loop_
 _symmetry_equiv_pos_site_id
 _symmetry_equiv_pos_as_xyz
  1  'x, y, z'
loop_
 _atom_site_type_symbol
 _atom_site_label
 _atom_site_symmetry_multiplicity
 _atom_site_fract_x
 _atom_site_fract_y
 _atom_site_fract_z
 _atom_site_occupancy
  Li  Li0  1  0.500000  0.500000  0.500000  1
  Zr  Zr1  1  0.000000  0.000000  0.500000  1
  Zr  Zr2  1  0.000000  0.500000  0.000000  1
  Zr  Zr3  1  0.500000  0.000000  0.000000  1
  Ge  Ge4  1  0.680165  0.680165  0.983472  1
  Ge  Ge5  1  0.319835  0.016528  0.319835  1
  Ge  Ge6  1  0.016528  0.319835  0.319835  1
  Ge  Ge7  1  0.319835  0.319835  0.016528  1
  Ge  Ge8  1  0.680165  0.983472  0.680165  1
  Ge  Ge9  1  0.983472  0.680165  0.680165  1
  Ir  Ir10  1  0.750816  0.249184  0.500000  1
  Ir  Ir11  1  0.750816  0.500000  0.249184  1
  Ir  Ir12  1  0.500000  0.249184  0.750816  1
  Ir  Ir13  1  0.249184  0.500000  0.750816  1
  Ir  Ir14  1  0.249184  0.750816  0.500000  1
  Ir  Ir15  1  0.500000  0.750816  0.249184  1
  Ir  Ir16  1  0.000000  0.000000  0.000000  1
