# generated using pymatgen
data_La2Zn3Ga5
_symmetry_space_group_name_H-M   'P 1'
_cell_length_a   6.07763936
_cell_length_b   6.07764008
_cell_length_c   6.20789621
_cell_angle_alpha   89.97565322
_cell_angle_beta   90.02434414
_cell_angle_gamma   118.38362048
_symmetry_Int_Tables_number   1
_chemical_formula_structural   La2Zn3Ga5
_chemical_formula_sum   'La2 Zn3 Ga5'
_cell_volume   201.73934495
_cell_formula_units_Z   1
loop_
 _symmetry_equiv_pos_site_id
 _symmetry_equiv_pos_as_xyz
  1  'x, y, z'
loop_
 _atom_site_type_symbol
 _atom_site_label
 _atom_site_symmetry_multiplicity
 _atom_site_fract_x
 _atom_site_fract_y
 _atom_site_fract_z
 _atom_site_occupancy
  La  La0  1  0.252105  0.747872  0.752477  1
  La  La1  1  0.747872  0.252105  0.247523  1
  Zn  Zn2  1  0.758341  0.758341  0.500000  1
  Zn  Zn3  1  0.242987  0.242987  0.000000  1
  Zn  Zn4  1  0.241025  0.241025  0.500000  1
  Ga  Ga5  1  0.868086  0.139562  0.747935  1
  Ga  Ga6  1  0.139562  0.868086  0.252065  1
  Ga  Ga7  1  0.621918  0.371073  0.746771  1
  Ga  Ga8  1  0.371073  0.621918  0.253229  1
  Ga  Ga9  1  0.757030  0.757030  0.000000  1
