# generated using pymatgen
data_Dy5Nb3Co16As11P
_symmetry_space_group_name_H-M   'P 1'
_cell_length_a   12.56449676
_cell_length_b   12.57042513
_cell_length_c   3.82255400
_cell_angle_alpha   90.00000000
_cell_angle_beta   90.00000000
_cell_angle_gamma   120.02433504
_symmetry_Int_Tables_number   1
_chemical_formula_structural   Dy5Nb3Co16As11P
_chemical_formula_sum   'Dy5 Nb3 Co16 As11 P1'
_cell_volume   522.72440521
_cell_formula_units_Z   1
loop_
 _symmetry_equiv_pos_site_id
 _symmetry_equiv_pos_as_xyz
  1  'x, y, z'
loop_
 _atom_site_type_symbol
 _atom_site_label
 _atom_site_symmetry_multiplicity
 _atom_site_fract_x
 _atom_site_fract_y
 _atom_site_fract_z
 _atom_site_occupancy
  Dy  Dy0  1  0.816408  0.000508  0.500000  1
  Dy  Dy1  1  0.000104  0.816145  0.500000  1
  Dy  Dy2  1  0.182770  0.183448  0.500000  1
  Dy  Dy3  1  0.332968  0.666485  0.000000  1
  Dy  Dy4  1  0.672330  0.332602  0.000000  1
  Nb  Nb5  1  0.442033  0.000780  0.000000  1
  Nb  Nb6  1  0.994712  0.438072  0.000000  1
  Nb  Nb7  1  0.559264  0.558888  0.000000  1
  Co  Co8  1  0.282777  0.000498  0.500000  1
  Co  Co9  1  0.993971  0.281984  0.500000  1
  Co  Co10  1  0.718321  0.717662  0.500000  1
  Co  Co11  1  0.625548  0.802479  0.000000  1
  Co  Co12  1  0.198455  0.823735  0.000000  1
  Co  Co13  1  0.175033  0.374939  0.000000  1
  Co  Co14  1  0.374977  0.176642  0.000000  1
  Co  Co15  1  0.802172  0.624087  0.000000  1
  Co  Co16  1  0.822945  0.203853  0.000000  1
  Co  Co17  1  0.521698  0.876117  0.500000  1
  Co  Co18  1  0.123596  0.645293  0.500000  1
  Co  Co19  1  0.354218  0.479243  0.500000  1
  Co  Co20  1  0.479581  0.354433  0.500000  1
  Co  Co21  1  0.871872  0.509801  0.500000  1
  Co  Co22  1  0.652363  0.132304  0.500000  1
  Co  Co23  1  0.000007  0.000814  0.000000  1
  As  As24  1  0.177750  0.000147  0.000000  1
  As  As25  1  0.998689  0.178419  0.000000  1
  As  As26  1  0.822410  0.822051  0.000000  1
  As  As27  1  0.517107  0.686617  0.500000  1
  As  As28  1  0.313720  0.830589  0.500000  1
  As  As29  1  0.167964  0.482401  0.500000  1
  As  As30  1  0.484687  0.170710  0.500000  1
  As  As31  1  0.687221  0.515944  0.500000  1
  As  As32  1  0.645269  0.001810  0.000000  1
  As  As33  1  0.999951  0.643569  0.000000  1
  As  As34  1  0.355296  0.355904  0.000000  1
  P  P35  1  0.831813  0.311026  0.500000  1
