# generated using pymatgen
data_Tm3ZnNiSn3Rh
_symmetry_space_group_name_H-M   'P 1'
_cell_length_a   7.38115100
_cell_length_b   7.38115015
_cell_length_c   3.95097300
_cell_angle_alpha   90.00000000
_cell_angle_beta   90.00000000
_cell_angle_gamma   120.00000831
_symmetry_Int_Tables_number   1
_chemical_formula_structural   Tm3ZnNiSn3Rh
_chemical_formula_sum   'Tm3 Zn1 Ni1 Sn3 Rh1'
_cell_volume   186.41582915
_cell_formula_units_Z   1
loop_
 _symmetry_equiv_pos_site_id
 _symmetry_equiv_pos_as_xyz
  1  'x, y, z'
loop_
 _atom_site_type_symbol
 _atom_site_label
 _atom_site_symmetry_multiplicity
 _atom_site_fract_x
 _atom_site_fract_y
 _atom_site_fract_z
 _atom_site_occupancy
  Tm  Tm0  1  0.015704  0.408082  0.000000  1
  Tm  Tm1  1  0.591918  0.607622  0.000000  1
  Tm  Tm2  1  0.392378  0.984296  0.000000  1
  Zn  Zn3  1  0.666667  0.333333  0.500000  1
  Ni  Ni4  1  0.000000  0.000000  0.000000  1
  Sn  Sn5  1  0.253776  0.251079  0.500000  1
  Sn  Sn6  1  0.997303  0.746224  0.500000  1
  Sn  Sn7  1  0.748921  0.002697  0.500000  1
  Rh  Rh8  1  0.333333  0.666667  0.500000  1
