# generated using pymatgen
data_Tm3Lu9Fe2Co3Bi
_symmetry_space_group_name_H-M   'P 1'
_cell_length_a   8.14137231
_cell_length_b   8.13809612
_cell_length_c   8.14166233
_cell_angle_alpha   111.11470276
_cell_angle_beta   111.81900020
_cell_angle_gamma   105.56487681
_symmetry_Int_Tables_number   1
_chemical_formula_structural   Tm3Lu9Fe2Co3Bi
_chemical_formula_sum   'Tm3 Lu9 Fe2 Co3 Bi1'
_cell_volume   413.72147781
_cell_formula_units_Z   1
loop_
 _symmetry_equiv_pos_site_id
 _symmetry_equiv_pos_as_xyz
  1  'x, y, z'
loop_
 _atom_site_type_symbol
 _atom_site_label
 _atom_site_symmetry_multiplicity
 _atom_site_fract_x
 _atom_site_fract_y
 _atom_site_fract_z
 _atom_site_occupancy
  Tm  Tm0  1  0.790199  0.593555  0.803302  1
  Tm  Tm1  1  0.209858  0.013155  0.803242  1
  Tm  Tm2  1  0.789652  0.987108  0.197498  1
  Lu  Lu3  1  0.282607  0.184345  0.466576  1
  Lu  Lu4  1  0.716061  0.815101  0.531555  1
  Lu  Lu5  1  0.283580  0.815231  0.099188  1
  Lu  Lu6  1  0.717725  0.184228  0.901575  1
  Lu  Lu7  1  0.619221  0.311344  0.308528  1
  Lu  Lu8  1  0.380210  0.688407  0.691054  1
  Lu  Lu9  1  0.002814  0.311284  0.692061  1
  Lu  Lu10  1  0.997332  0.688432  0.308258  1
  Lu  Lu11  1  0.210250  0.407750  0.197536  1
  Fe  Fe12  1  0.000577  0.381722  0.380529  1
  Fe  Fe13  1  0.999562  0.617791  0.618924  1
  Co  Co14  1  0.388206  0.887426  0.499212  1
  Co  Co15  1  0.611694  0.111407  0.499708  1
  Co  Co16  1  0.000728  0.002026  0.001296  1
  Bi  Bi17  1  0.499726  0.499687  0.999958  1
