# generated using pymatgen
data_La9Yb11Pb16
_symmetry_space_group_name_H-M   'P 1'
_cell_length_a   8.08155701
_cell_length_b   8.63172311
_cell_length_c   16.24737700
_cell_angle_alpha   90.04638505
_cell_angle_beta   90.09459076
_cell_angle_gamma   89.98517422
_symmetry_Int_Tables_number   1
_chemical_formula_structural   La9Yb11Pb16
_chemical_formula_sum   'La9 Yb11 Pb16'
_cell_volume   1133.37871209
_cell_formula_units_Z   1
loop_
 _symmetry_equiv_pos_site_id
 _symmetry_equiv_pos_as_xyz
  1  'x, y, z'
loop_
 _atom_site_type_symbol
 _atom_site_label
 _atom_site_symmetry_multiplicity
 _atom_site_fract_x
 _atom_site_fract_y
 _atom_site_fract_z
 _atom_site_occupancy
  La  La0  1  0.501025  0.682983  0.595040  1
  La  La1  1  0.002887  0.814003  0.907297  1
  La  La2  1  0.498504  0.313925  0.095529  1
  La  La3  1  0.998749  0.184884  0.403633  1
  La  La4  1  0.496520  0.315154  0.402501  1
  La  La5  1  0.998301  0.185579  0.095337  1
  La  La6  1  0.501732  0.685196  0.906011  1
  La  La7  1  0.002986  0.813410  0.593755  1
  La  La8  1  0.665807  0.169583  0.624035  1
  Yb  Yb9  1  0.169010  0.334530  0.878075  1
  Yb  Yb10  1  0.330954  0.834969  0.123043  1
  Yb  Yb11  1  0.833312  0.665632  0.375300  1
  Yb  Yb12  1  0.329535  0.834462  0.375661  1
  Yb  Yb13  1  0.831026  0.665074  0.123078  1
  Yb  Yb14  1  0.668996  0.164699  0.878153  1
  Yb  Yb15  1  0.168517  0.334483  0.622463  1
  Yb  Yb16  1  0.839524  0.495636  0.752004  1
  Yb  Yb17  1  0.338090  0.003130  0.751621  1
  Yb  Yb18  1  0.161892  0.506398  0.249483  1
  Yb  Yb19  1  0.661489  0.993701  0.249320  1
  Pb  Pb20  1  0.675320  0.959147  0.457026  1
  Pb  Pb21  1  0.176467  0.538302  0.041230  1
  Pb  Pb22  1  0.325117  0.038301  0.959149  1
  Pb  Pb23  1  0.826153  0.465156  0.539389  1
  Pb  Pb24  1  0.321096  0.036630  0.540132  1
  Pb  Pb25  1  0.823833  0.461437  0.959418  1
  Pb  Pb26  1  0.675861  0.961491  0.041415  1
  Pb  Pb27  1  0.178094  0.539348  0.458677  1
  Pb  Pb28  1  0.468221  0.391553  0.751744  1
  Pb  Pb29  1  0.972878  0.110493  0.751525  1
  Pb  Pb30  1  0.528851  0.610938  0.249611  1
  Pb  Pb31  1  0.028957  0.889569  0.248998  1
  Pb  Pb32  1  0.708522  0.853388  0.750159  1
  Pb  Pb33  1  0.205775  0.646542  0.750223  1
  Pb  Pb34  1  0.292606  0.145499  0.249823  1
  Pb  Pb35  1  0.793390  0.354776  0.250139  1
