# generated using pymatgen
data_LaPr5Y4(Sn5Rh2)4
_symmetry_space_group_name_H-M   'P 1'
_cell_length_a   14.21616400
_cell_length_b   14.21616400
_cell_length_c   4.59894400
_cell_angle_alpha   90.00000000
_cell_angle_beta   90.00000000
_cell_angle_gamma   89.99952442
_symmetry_Int_Tables_number   1
_chemical_formula_structural   LaPr5Y4(Sn5Rh2)4
_chemical_formula_sum   'La1 Pr5 Y4 Sn20 Rh8'
_cell_volume   929.44344993
_cell_formula_units_Z   1
loop_
 _symmetry_equiv_pos_site_id
 _symmetry_equiv_pos_as_xyz
  1  'x, y, z'
loop_
 _atom_site_type_symbol
 _atom_site_label
 _atom_site_symmetry_multiplicity
 _atom_site_fract_x
 _atom_site_fract_y
 _atom_site_fract_z
 _atom_site_occupancy
  La  La0  1  0.888260  0.388260  0.500000  1
  Pr  Pr1  1  0.500004  0.500032  0.000000  1
  Pr  Pr2  1  0.000032  0.000004  0.000000  1
  Pr  Pr3  1  0.111695  0.611695  0.500000  1
  Pr  Pr4  1  0.388105  0.111883  0.500000  1
  Pr  Pr5  1  0.611883  0.888105  0.500000  1
  Y  Y6  1  0.677078  0.177078  0.500000  1
  Y  Y7  1  0.322904  0.822904  0.500000  1
  Y  Y8  1  0.176996  0.322997  0.500000  1
  Y  Y9  1  0.822997  0.676996  0.500000  1
  Sn  Sn10  1  0.570177  0.070177  0.000000  1
  Sn  Sn11  1  0.429842  0.929842  0.000000  1
  Sn  Sn12  1  0.070556  0.429895  0.000000  1
  Sn  Sn13  1  0.929895  0.570556  0.000000  1
  Sn  Sn14  1  0.654455  0.698103  0.000000  1
  Sn  Sn15  1  0.345488  0.301919  0.000000  1
  Sn  Sn16  1  0.154573  0.802031  0.000000  1
  Sn  Sn17  1  0.845296  0.197726  0.000000  1
  Sn  Sn18  1  0.302031  0.654573  0.000000  1
  Sn  Sn19  1  0.697726  0.345296  0.000000  1
  Sn  Sn20  1  0.198103  0.154455  0.000000  1
  Sn  Sn21  1  0.801919  0.845488  0.000000  1
  Sn  Sn22  1  0.664128  0.505902  0.500000  1
  Sn  Sn23  1  0.335744  0.494148  0.500000  1
  Sn  Sn24  1  0.164228  0.994217  0.500000  1
  Sn  Sn25  1  0.835784  0.005807  0.500000  1
  Sn  Sn26  1  0.494217  0.664228  0.500000  1
  Sn  Sn27  1  0.505807  0.335784  0.500000  1
  Sn  Sn28  1  0.005902  0.164128  0.500000  1
  Sn  Sn29  1  0.994148  0.835744  0.500000  1
  Rh  Rh30  1  0.746884  0.529129  0.000000  1
  Rh  Rh31  1  0.253110  0.470980  0.000000  1
  Rh  Rh32  1  0.247064  0.970804  0.000000  1
  Rh  Rh33  1  0.752923  0.029131  0.000000  1
  Rh  Rh34  1  0.470804  0.747064  0.000000  1
  Rh  Rh35  1  0.529131  0.252923  0.000000  1
  Rh  Rh36  1  0.029129  0.246884  0.000000  1
  Rh  Rh37  1  0.970980  0.753110  0.000000  1
