# generated using pymatgen
data_PrPa3(TcB4)4
_symmetry_space_group_name_H-M   'P 1'
_cell_length_a   3.66680400
_cell_length_b   6.00257554
_cell_length_c   11.60752900
_cell_angle_alpha   89.91775938
_cell_angle_beta   90.00000000
_cell_angle_gamma   90.00000000
_symmetry_Int_Tables_number   1
_chemical_formula_structural   PrPa3(TcB4)4
_chemical_formula_sum   'Pr1 Pa3 Tc4 B16'
_cell_volume   255.48456094
_cell_formula_units_Z   1
loop_
 _symmetry_equiv_pos_site_id
 _symmetry_equiv_pos_as_xyz
  1  'x, y, z'
loop_
 _atom_site_type_symbol
 _atom_site_label
 _atom_site_symmetry_multiplicity
 _atom_site_fract_x
 _atom_site_fract_y
 _atom_site_fract_z
 _atom_site_occupancy
  Pr  Pr0  1  0.000000  0.627570  0.350079  1
  Pa  Pa1  1  0.000000  0.372714  0.649716  1
  Pa  Pa2  1  0.000000  0.127813  0.150379  1
  Pa  Pa3  1  0.000000  0.871657  0.849917  1
  Tc  Tc4  1  0.000000  0.638932  0.089195  1
  Tc  Tc5  1  0.000000  0.360536  0.905263  1
  Tc  Tc6  1  0.000000  0.137570  0.410167  1
  Tc  Tc7  1  0.000000  0.863886  0.596372  1
  B  B8  1  0.500000  0.790729  0.182891  1
  B  B9  1  0.500000  0.210195  0.813268  1
  B  B10  1  0.500000  0.281539  0.312706  1
  B  B11  1  0.500000  0.711084  0.687398  1
  B  B12  1  0.500000  0.866044  0.030864  1
  B  B13  1  0.500000  0.135732  0.967105  1
  B  B14  1  0.500000  0.360564  0.470465  1
  B  B15  1  0.500000  0.637407  0.535154  1
  B  B16  1  0.500000  0.890205  0.455651  1
  B  B17  1  0.500000  0.112603  0.547337  1
  B  B18  1  0.500000  0.386997  0.044889  1
  B  B19  1  0.500000  0.612945  0.953379  1
  B  B20  1  0.500000  0.978072  0.308526  1
  B  B21  1  0.500000  0.027552  0.692447  1
  B  B22  1  0.500000  0.469833  0.188025  1
  B  B23  1  0.500000  0.527821  0.808807  1
