# generated using pymatgen
data_Dy3HoCo4(Ni4P3)4
_symmetry_space_group_name_H-M   'P 1'
_cell_length_a   3.70292400
_cell_length_b   10.35245913
_cell_length_c   11.81923238
_cell_angle_alpha   89.85600579
_cell_angle_beta   90.00000000
_cell_angle_gamma   90.00000000
_symmetry_Int_Tables_number   1
_chemical_formula_structural   Dy3HoCo4(Ni4P3)4
_chemical_formula_sum   'Dy3 Ho1 Co4 Ni16 P12'
_cell_volume   453.08138893
_cell_formula_units_Z   1
loop_
 _symmetry_equiv_pos_site_id
 _symmetry_equiv_pos_as_xyz
  1  'x, y, z'
loop_
 _atom_site_type_symbol
 _atom_site_label
 _atom_site_symmetry_multiplicity
 _atom_site_fract_x
 _atom_site_fract_y
 _atom_site_fract_z
 _atom_site_occupancy
  Dy  Dy0  1  0.250000  0.918434  0.202874  1
  Dy  Dy1  1  0.750000  0.418450  0.297109  1
  Dy  Dy2  1  0.750000  0.081725  0.797140  1
  Ho  Ho3  1  0.250000  0.581444  0.702723  1
  Co  Co4  1  0.250000  0.468652  0.931605  1
  Co  Co5  1  0.250000  0.031428  0.432156  1
  Co  Co6  1  0.750000  0.531696  0.067765  1
  Co  Co7  1  0.750000  0.968167  0.568116  1
  Ni  Ni8  1  0.250000  0.712568  0.992242  1
  Ni  Ni9  1  0.250000  0.786746  0.492427  1
  Ni  Ni10  1  0.750000  0.287420  0.007349  1
  Ni  Ni11  1  0.750000  0.212802  0.508007  1
  Ni  Ni12  1  0.250000  0.404021  0.488251  1
  Ni  Ni13  1  0.250000  0.095986  0.988341  1
  Ni  Ni14  1  0.750000  0.596014  0.512395  1
  Ni  Ni15  1  0.750000  0.904118  0.011803  1
  Ni  Ni16  1  0.250000  0.223957  0.177873  1
  Ni  Ni17  1  0.250000  0.276244  0.678357  1
  Ni  Ni18  1  0.750000  0.776116  0.821747  1
  Ni  Ni19  1  0.750000  0.723664  0.321891  1
  Ni  Ni20  1  0.250000  0.881747  0.700049  1
  Ni  Ni21  1  0.250000  0.617929  0.199693  1
  Ni  Ni22  1  0.750000  0.118171  0.300212  1
  Ni  Ni23  1  0.750000  0.382475  0.799854  1
  P  P24  1  0.250000  0.421334  0.111962  1
  P  P25  1  0.250000  0.078603  0.612151  1
  P  P26  1  0.750000  0.578754  0.887439  1
  P  P27  1  0.750000  0.921248  0.388014  1
  P  P28  1  0.250000  0.271435  0.869946  1
  P  P29  1  0.250000  0.228704  0.370010  1
  P  P30  1  0.750000  0.728681  0.130051  1
  P  P31  1  0.750000  0.770778  0.630279  1
  P  P32  1  0.250000  0.601912  0.393402  1
  P  P33  1  0.250000  0.898220  0.893475  1
  P  P34  1  0.750000  0.398330  0.606706  1
  P  P35  1  0.750000  0.102029  0.106585  1
