# generated using pymatgen
data_CsLi(PrS2)2
_symmetry_space_group_name_H-M   'P 1'
_cell_length_a   4.25124200
_cell_length_b   7.49919446
_cell_length_c   14.46971300
_cell_angle_alpha   90.00000000
_cell_angle_beta   90.00000000
_cell_angle_gamma   106.46600742
_symmetry_Int_Tables_number   1
_chemical_formula_structural   CsLi(PrS2)2
_chemical_formula_sum   'Cs2 Li2 Pr4 S8'
_cell_volume   442.38822959
_cell_formula_units_Z   2
loop_
 _symmetry_equiv_pos_site_id
 _symmetry_equiv_pos_as_xyz
  1  'x, y, z'
loop_
 _atom_site_type_symbol
 _atom_site_label
 _atom_site_symmetry_multiplicity
 _atom_site_fract_x
 _atom_site_fract_y
 _atom_site_fract_z
 _atom_site_occupancy
  Cs  Cs0  1  0.106007  0.212014  0.250000  1
  Cs  Cs1  1  0.893992  0.787985  0.750000  1
  Li  Li2  1  0.830535  0.661071  0.250000  1
  Li  Li3  1  0.169464  0.338929  0.750000  1
  Pr  Pr4  1  0.366334  0.732668  0.058602  1
  Pr  Pr5  1  0.366334  0.732668  0.441398  1
  Pr  Pr6  1  0.633665  0.267332  0.558602  1
  Pr  Pr7  1  0.633665  0.267332  0.941398  1
  S  S8  1  0.000000  0.000000  0.000000  1
  S  S9  1  0.744534  0.489069  0.105481  1
  S  S10  1  0.412386  0.824770  0.250000  1
  S  S11  1  0.744534  0.489069  0.394519  1
  S  S12  1  0.000000  0.000000  0.500000  1
  S  S13  1  0.255466  0.510931  0.605481  1
  S  S14  1  0.587613  0.175229  0.750000  1
  S  S15  1  0.255466  0.510931  0.894519  1
