# generated using pymatgen
data_Th8Ta11Si16Mo
_symmetry_space_group_name_H-M   'P 1'
_cell_length_a   7.02208550
_cell_length_b   7.21310764
_cell_length_c   13.54237611
_cell_angle_alpha   89.99504061
_cell_angle_beta   89.96790884
_cell_angle_gamma   89.99811774
_symmetry_Int_Tables_number   1
_chemical_formula_structural   Th8Ta11Si16Mo
_chemical_formula_sum   'Th8 Ta11 Si16 Mo1'
_cell_volume   685.93557522
_cell_formula_units_Z   1
loop_
 _symmetry_equiv_pos_site_id
 _symmetry_equiv_pos_as_xyz
  1  'x, y, z'
loop_
 _atom_site_type_symbol
 _atom_site_label
 _atom_site_symmetry_multiplicity
 _atom_site_fract_x
 _atom_site_fract_y
 _atom_site_fract_z
 _atom_site_occupancy
  Th  Th0  1  0.500285  0.330838  0.095556  1
  Th  Th1  1  0.999641  0.169704  0.404532  1
  Th  Th2  1  0.500445  0.668845  0.595473  1
  Th  Th3  1  0.000435  0.832193  0.904125  1
  Th  Th4  1  0.500098  0.668353  0.903763  1
  Th  Th5  1  0.999878  0.831062  0.595869  1
  Th  Th6  1  0.499354  0.330700  0.405448  1
  Th  Th7  1  0.000547  0.168738  0.095494  1
  Ta  Ta8  1  0.837021  0.329273  0.624696  1
  Ta  Ta9  1  0.336408  0.172095  0.873773  1
  Ta  Ta10  1  0.163019  0.671573  0.125173  1
  Ta  Ta11  1  0.661662  0.830177  0.375878  1
  Ta  Ta12  1  0.164546  0.671242  0.376066  1
  Ta  Ta13  1  0.663329  0.829036  0.125056  1
  Ta  Ta14  1  0.835776  0.327857  0.874295  1
  Ta  Ta15  1  0.663243  0.008761  0.749762  1
  Ta  Ta16  1  0.162234  0.491103  0.749653  1
  Ta  Ta17  1  0.337402  0.991372  0.250364  1
  Ta  Ta18  1  0.837980  0.508878  0.249999  1
  Si  Si19  1  0.657659  0.044274  0.545537  1
  Si  Si20  1  0.159790  0.457049  0.955401  1
  Si  Si21  1  0.339928  0.956351  0.044097  1
  Si  Si22  1  0.839641  0.544338  0.455888  1
  Si  Si23  1  0.338937  0.957513  0.457046  1
  Si  Si24  1  0.839882  0.543420  0.043695  1
  Si  Si25  1  0.659998  0.042880  0.955490  1
  Si  Si26  1  0.161152  0.453105  0.545896  1
  Si  Si27  1  0.537361  0.367806  0.747674  1
  Si  Si28  1  0.042051  0.130694  0.748902  1
  Si  Si29  1  0.461164  0.629735  0.250470  1
  Si  Si30  1  0.960301  0.869792  0.250567  1
  Si  Si31  1  0.802478  0.616391  0.749948  1
  Si  Si32  1  0.303012  0.885915  0.749274  1
  Si  Si33  1  0.198721  0.383670  0.250229  1
  Si  Si34  1  0.697825  0.116544  0.250216  1
  Mo  Mo35  1  0.336797  0.168716  0.624691  1
