# generated using pymatgen
data_CeEr3Si(PtRh)6
_symmetry_space_group_name_H-M   'P 1'
_cell_length_a   7.22572629
_cell_length_b   7.22572671
_cell_length_c   7.22572659
_cell_angle_alpha   109.54238455
_cell_angle_beta   109.54239150
_cell_angle_gamma   109.54238985
_symmetry_Int_Tables_number   1
_chemical_formula_structural   CeEr3Si(PtRh)6
_chemical_formula_sum   'Ce1 Er3 Si1 Pt6 Rh6'
_cell_volume   289.64967075
_cell_formula_units_Z   1
loop_
 _symmetry_equiv_pos_site_id
 _symmetry_equiv_pos_as_xyz
  1  'x, y, z'
loop_
 _atom_site_type_symbol
 _atom_site_label
 _atom_site_symmetry_multiplicity
 _atom_site_fract_x
 _atom_site_fract_y
 _atom_site_fract_z
 _atom_site_occupancy
  Ce  Ce0  1  0.500000  0.500000  0.500000  1
  Er  Er1  1  0.000000  0.000000  0.500000  1
  Er  Er2  1  0.000000  0.500000  0.000000  1
  Er  Er3  1  0.500000  0.000000  0.000000  1
  Si  Si4  1  0.000000  0.000000  0.000000  1
  Pt  Pt5  1  0.750835  0.249165  0.500000  1
  Pt  Pt6  1  0.750835  0.500000  0.249165  1
  Pt  Pt7  1  0.500000  0.249165  0.750835  1
  Pt  Pt8  1  0.249165  0.500000  0.750835  1
  Pt  Pt9  1  0.249165  0.750835  0.500000  1
  Pt  Pt10  1  0.500000  0.750835  0.249165  1
  Rh  Rh11  1  0.724219  0.724219  0.999584  1
  Rh  Rh12  1  0.275781  0.000416  0.275781  1
  Rh  Rh13  1  0.000416  0.275781  0.275781  1
  Rh  Rh14  1  0.275781  0.275781  0.000416  1
  Rh  Rh15  1  0.724219  0.999584  0.724219  1
  Rh  Rh16  1  0.999584  0.724219  0.724219  1
