# generated using pymatgen
data_Th6Hg7Os
_symmetry_space_group_name_H-M   'P 1'
_cell_length_a   8.45124448
_cell_length_b   8.45124375
_cell_length_c   8.45124486
_cell_angle_alpha   113.39190847
_cell_angle_beta   113.39191154
_cell_angle_gamma   113.39189536
_symmetry_Int_Tables_number   1
_chemical_formula_structural   Th6Hg7Os
_chemical_formula_sum   'Th6 Hg7 Os1'
_cell_volume   382.70068176
_cell_formula_units_Z   1
loop_
 _symmetry_equiv_pos_site_id
 _symmetry_equiv_pos_as_xyz
  1  'x, y, z'
loop_
 _atom_site_type_symbol
 _atom_site_label
 _atom_site_symmetry_multiplicity
 _atom_site_fract_x
 _atom_site_fract_y
 _atom_site_fract_z
 _atom_site_occupancy
  Th  Th0  1  0.011250  0.363252  0.251664  1
  Th  Th1  1  0.363252  0.251664  0.011250  1
  Th  Th2  1  0.748336  0.988750  0.636748  1
  Th  Th3  1  0.251664  0.011250  0.363252  1
  Th  Th4  1  0.636748  0.748336  0.988750  1
  Th  Th5  1  0.988750  0.636748  0.748336  1
  Hg  Hg6  1  0.500000  0.500000  0.500000  1
  Hg  Hg7  1  0.405729  0.900609  0.739014  1
  Hg  Hg8  1  0.900609  0.739014  0.405729  1
  Hg  Hg9  1  0.260986  0.594271  0.099391  1
  Hg  Hg10  1  0.739014  0.405729  0.900609  1
  Hg  Hg11  1  0.099391  0.260986  0.594271  1
  Hg  Hg12  1  0.594271  0.099391  0.260986  1
  Os  Os13  1  0.000000  0.000000  0.000000  1
