# generated using pymatgen
data_HoTm19(CoBi2)4
_symmetry_space_group_name_H-M   'P 1'
_cell_length_a   7.88748517
_cell_length_b   8.83576700
_cell_length_c   12.26703126
_cell_angle_alpha   90.00000000
_cell_angle_beta   89.97633321
_cell_angle_gamma   90.00000000
_symmetry_Int_Tables_number   1
_chemical_formula_structural   HoTm19(CoBi2)4
_chemical_formula_sum   'Ho1 Tm19 Co4 Bi8'
_cell_volume   854.91363867
_cell_formula_units_Z   1
loop_
 _symmetry_equiv_pos_site_id
 _symmetry_equiv_pos_as_xyz
  1  'x, y, z'
loop_
 _atom_site_type_symbol
 _atom_site_label
 _atom_site_symmetry_multiplicity
 _atom_site_fract_x
 _atom_site_fract_y
 _atom_site_fract_z
 _atom_site_occupancy
  Ho  Ho0  1  0.345727  0.750000  0.699872  1
  Tm  Tm1  1  0.654178  0.250000  0.300440  1
  Tm  Tm2  1  0.845851  0.250000  0.800458  1
  Tm  Tm3  1  0.154161  0.750000  0.199540  1
  Tm  Tm4  1  0.885932  0.750000  0.811622  1
  Tm  Tm5  1  0.113889  0.250000  0.188369  1
  Tm  Tm6  1  0.386103  0.250000  0.688355  1
  Tm  Tm7  1  0.613828  0.750000  0.311688  1
  Tm  Tm8  1  0.674589  0.538220  0.562618  1
  Tm  Tm9  1  0.325617  0.461479  0.437208  1
  Tm  Tm10  1  0.174331  0.461511  0.937304  1
  Tm  Tm11  1  0.325617  0.038521  0.437208  1
  Tm  Tm12  1  0.825600  0.538416  0.062717  1
  Tm  Tm13  1  0.674589  0.961780  0.562618  1
  Tm  Tm14  1  0.825600  0.961584  0.062717  1
  Tm  Tm15  1  0.174331  0.038489  0.937304  1
  Tm  Tm16  1  0.054060  0.750000  0.497980  1
  Tm  Tm17  1  0.945609  0.250000  0.501880  1
  Tm  Tm18  1  0.554412  0.250000  0.001861  1
  Tm  Tm19  1  0.445672  0.750000  0.998250  1
  Co  Co20  1  0.067303  0.750000  0.991680  1
  Co  Co21  1  0.932802  0.250000  0.008321  1
  Co  Co22  1  0.567297  0.250000  0.508303  1
  Co  Co23  1  0.432861  0.750000  0.491452  1
  Bi  Bi24  1  0.571351  0.509891  0.826823  1
  Bi  Bi25  1  0.428930  0.489817  0.173340  1
  Bi  Bi26  1  0.070756  0.489554  0.673278  1
  Bi  Bi27  1  0.428930  0.010183  0.173340  1
  Bi  Bi28  1  0.928984  0.510175  0.326676  1
  Bi  Bi29  1  0.571351  0.990109  0.826823  1
  Bi  Bi30  1  0.928984  0.989825  0.326676  1
  Bi  Bi31  1  0.070756  0.010446  0.673278  1
