# generated using pymatgen
data_Li4CoNi8P7Ir
_symmetry_space_group_name_H-M   'P 1'
_cell_length_a   9.05310097
_cell_length_b   9.01972492
_cell_length_c   3.59445800
_cell_angle_alpha   90.00000000
_cell_angle_beta   90.00000000
_cell_angle_gamma   119.79462300
_symmetry_Int_Tables_number   1
_chemical_formula_structural   Li4CoNi8P7Ir
_chemical_formula_sum   'Li4 Co1 Ni8 P7 Ir1'
_cell_volume   254.71221125
_cell_formula_units_Z   1
loop_
 _symmetry_equiv_pos_site_id
 _symmetry_equiv_pos_as_xyz
  1  'x, y, z'
loop_
 _atom_site_type_symbol
 _atom_site_label
 _atom_site_symmetry_multiplicity
 _atom_site_fract_x
 _atom_site_fract_y
 _atom_site_fract_z
 _atom_site_occupancy
  Li  Li0  1  0.894197  0.121609  0.500000  1
  Li  Li1  1  0.225403  0.102734  0.500000  1
  Li  Li2  1  0.330218  0.661205  0.000000  1
  Li  Li3  1  0.660965  0.328226  0.500000  1
  Co  Co4  1  0.712824  0.881699  0.000000  1
  Ni  Ni5  1  0.159609  0.274909  0.000000  1
  Ni  Ni6  1  0.124340  0.836532  0.000000  1
  Ni  Ni7  1  0.631895  0.567870  0.000000  1
  Ni  Ni8  1  0.941637  0.372894  0.000000  1
  Ni  Ni9  1  0.430544  0.057240  0.000000  1
  Ni  Ni10  1  0.565420  0.955565  0.500000  1
  Ni  Ni11  1  0.388804  0.439632  0.500000  1
  Ni  Ni12  1  0.055045  0.613013  0.500000  1
  P  P13  1  0.586830  0.713685  0.500000  1
  P  P14  1  0.126624  0.413451  0.500000  1
  P  P15  1  0.292773  0.872608  0.500000  1
  P  P16  1  0.991160  0.991236  0.000000  1
  P  P17  1  0.879254  0.579668  0.000000  1
  P  P18  1  0.699945  0.123375  0.000000  1
  P  P19  1  0.423074  0.301986  0.000000  1
  Ir  Ir20  1  0.879438  0.790863  0.500000  1
