# generated using pymatgen
data_Dy16In4OsRh3
_symmetry_space_group_name_H-M   'P 1'
_cell_length_a   9.67690939
_cell_length_b   9.67690961
_cell_length_c   9.67690900
_cell_angle_alpha   59.80501409
_cell_angle_beta   59.80501114
_cell_angle_gamma   59.80501476
_symmetry_Int_Tables_number   1
_chemical_formula_structural   Dy16In4OsRh3
_chemical_formula_sum   'Dy16 In4 Os1 Rh3'
_cell_volume   637.92330097
_cell_formula_units_Z   1
loop_
 _symmetry_equiv_pos_site_id
 _symmetry_equiv_pos_as_xyz
  1  'x, y, z'
loop_
 _atom_site_type_symbol
 _atom_site_label
 _atom_site_symmetry_multiplicity
 _atom_site_fract_x
 _atom_site_fract_y
 _atom_site_fract_z
 _atom_site_occupancy
  Dy  Dy0  1  0.689070  0.311034  0.311034  1
  Dy  Dy1  1  0.689920  0.689920  0.313264  1
  Dy  Dy2  1  0.311034  0.689070  0.311034  1
  Dy  Dy3  1  0.937042  0.937042  0.563451  1
  Dy  Dy4  1  0.149871  0.149871  0.547576  1
  Dy  Dy5  1  0.558950  0.943748  0.558950  1
  Dy  Dy6  1  0.151817  0.151817  0.151817  1
  Dy  Dy7  1  0.311034  0.311034  0.689070  1
  Dy  Dy8  1  0.943748  0.558950  0.558950  1
  Dy  Dy9  1  0.558950  0.558950  0.943748  1
  Dy  Dy10  1  0.563451  0.937042  0.937042  1
  Dy  Dy11  1  0.937042  0.563451  0.937042  1
  Dy  Dy12  1  0.149871  0.547576  0.149871  1
  Dy  Dy13  1  0.313264  0.689920  0.689920  1
  Dy  Dy14  1  0.689920  0.313264  0.689920  1
  Dy  Dy15  1  0.547576  0.149871  0.149871  1
  In  In16  1  0.917368  0.917368  0.248706  1
  In  In17  1  0.248706  0.917368  0.917368  1
  In  In18  1  0.917368  0.248706  0.917368  1
  In  In19  1  0.917201  0.917201  0.917201  1
  Os  Os20  1  0.357313  0.357313  0.357313  1
  Rh  Rh21  1  0.924493  0.357495  0.357495  1
  Rh  Rh22  1  0.357495  0.357495  0.924493  1
  Rh  Rh23  1  0.357495  0.924493  0.357495  1
