# generated using pymatgen
data_NiBr9
_symmetry_space_group_name_H-M   'P 1'
_cell_length_a   9.02780211
_cell_length_b   9.02779994
_cell_length_c   9.02779929
_cell_angle_alpha   93.40943872
_cell_angle_beta   93.40944927
_cell_angle_gamma   93.40945177
_symmetry_Int_Tables_number   1
_chemical_formula_structural   NiBr9
_chemical_formula_sum   'Ni2 Br18'
_cell_volume   731.70694830
_cell_formula_units_Z   2
loop_
 _symmetry_equiv_pos_site_id
 _symmetry_equiv_pos_as_xyz
  1  'x, y, z'
loop_
 _atom_site_type_symbol
 _atom_site_label
 _atom_site_symmetry_multiplicity
 _atom_site_fract_x
 _atom_site_fract_y
 _atom_site_fract_z
 _atom_site_occupancy
  Ni  Ni0  1  0.000000  0.000000  0.000000  1
  Ni  Ni1  1  0.500000  0.500000  0.500000  1
  Br  Br2  1  0.270422  0.002971  0.026207  1
  Br  Br3  1  0.026207  0.270422  0.002971  1
  Br  Br4  1  0.002971  0.026207  0.270422  1
  Br  Br5  1  0.729578  0.997029  0.973793  1
  Br  Br6  1  0.973793  0.729578  0.997029  1
  Br  Br7  1  0.997029  0.973793  0.729578  1
  Br  Br8  1  0.633727  0.231413  0.116810  1
  Br  Br9  1  0.116810  0.633727  0.231413  1
  Br  Br10  1  0.231413  0.116810  0.633727  1
  Br  Br11  1  0.366273  0.768587  0.883190  1
  Br  Br12  1  0.883190  0.366273  0.768587  1
  Br  Br13  1  0.768587  0.883190  0.366273  1
  Br  Br14  1  0.464460  0.224574  0.531345  1
  Br  Br15  1  0.531345  0.464460  0.224574  1
  Br  Br16  1  0.224574  0.531345  0.464460  1
  Br  Br17  1  0.535540  0.775426  0.468655  1
  Br  Br18  1  0.468655  0.535540  0.775426  1
  Br  Br19  1  0.775426  0.468655  0.535540  1
