# generated using pymatgen
data_Ta11NbIrOs3
_symmetry_space_group_name_H-M   'P 1'
_cell_length_a   5.17867200
_cell_length_b   5.17877300
_cell_length_c   10.32790200
_cell_angle_alpha   90.00000000
_cell_angle_beta   90.00000000
_cell_angle_gamma   90.00000000
_symmetry_Int_Tables_number   1
_chemical_formula_structural   Ta11NbIrOs3
_chemical_formula_sum   'Ta11 Nb1 Ir1 Os3'
_cell_volume   276.98572570
_cell_formula_units_Z   1
loop_
 _symmetry_equiv_pos_site_id
 _symmetry_equiv_pos_as_xyz
  1  'x, y, z'
loop_
 _atom_site_type_symbol
 _atom_site_label
 _atom_site_symmetry_multiplicity
 _atom_site_fract_x
 _atom_site_fract_y
 _atom_site_fract_z
 _atom_site_occupancy
  Ta  Ta0  1  0.500000  0.000000  0.376545  1
  Ta  Ta1  1  0.500000  0.000000  0.873215  1
  Ta  Ta2  1  0.749966  0.500000  0.999931  1
  Ta  Ta3  1  0.749406  0.500000  0.499766  1
  Ta  Ta4  1  0.000000  0.749620  0.248927  1
  Ta  Ta5  1  0.000000  0.749293  0.751315  1
  Ta  Ta6  1  0.500000  0.000000  0.125664  1
  Ta  Ta7  1  0.250034  0.500000  0.999931  1
  Ta  Ta8  1  0.250594  0.500000  0.499766  1
  Ta  Ta9  1  0.000000  0.250380  0.248927  1
  Ta  Ta10  1  0.000000  0.250707  0.751315  1
  Nb  Nb11  1  0.500000  0.000000  0.624657  1
  Ir  Ir12  1  0.000000  0.000000  0.499529  1
  Os  Os13  1  0.500000  0.500000  0.250689  1
  Os  Os14  1  0.500000  0.500000  0.749889  1
  Os  Os15  1  0.000000  0.000000  0.999935  1
