# generated using pymatgen
data_Ti12ReP8W
_symmetry_space_group_name_H-M   'P 1'
_cell_length_a   7.44222058
_cell_length_b   7.44222204
_cell_length_c   13.50793704
_cell_angle_alpha   76.01181692
_cell_angle_beta   76.01181365
_cell_angle_gamma   26.48570904
_symmetry_Int_Tables_number   1
_chemical_formula_structural   Ti12ReP8W
_chemical_formula_sum   'Ti12 Re1 P8 W1'
_cell_volume   323.20877754
_cell_formula_units_Z   1
loop_
 _symmetry_equiv_pos_site_id
 _symmetry_equiv_pos_as_xyz
  1  'x, y, z'
loop_
 _atom_site_type_symbol
 _atom_site_label
 _atom_site_symmetry_multiplicity
 _atom_site_fract_x
 _atom_site_fract_y
 _atom_site_fract_z
 _atom_site_occupancy
  Ti  Ti0  1  0.431055  0.431055  0.168196  1
  Ti  Ti1  1  0.568945  0.568945  0.831804  1
  Ti  Ti2  1  0.195921  0.195921  0.692129  1
  Ti  Ti3  1  0.804079  0.804079  0.307871  1
  Ti  Ti4  1  0.207876  0.207876  0.204706  1
  Ti  Ti5  1  0.792124  0.792124  0.795294  1
  Ti  Ti6  1  0.341840  0.341840  0.968018  1
  Ti  Ti7  1  0.658160  0.658160  0.031982  1
  Ti  Ti8  1  0.003455  0.003455  0.339118  1
  Ti  Ti9  1  0.996545  0.996545  0.660882  1
  Ti  Ti10  1  0.175714  0.175714  0.459225  1
  Ti  Ti11  1  0.824286  0.824286  0.540775  1
  Re  Re12  1  0.000000  0.000000  0.000000  1
  P  P13  1  0.176936  0.176936  0.890530  1
  P  P14  1  0.823064  0.823064  0.109470  1
  P  P15  1  0.371669  0.371669  0.395737  1
  P  P16  1  0.628331  0.628331  0.604263  1
  P  P17  1  0.368876  0.368876  0.660652  1
  P  P18  1  0.631124  0.631124  0.339348  1
  P  P19  1  0.061460  0.061460  0.151442  1
  P  P20  1  0.938540  0.938540  0.848558  1
  W  W21  1  0.500000  0.500000  0.500000  1
