# generated using pymatgen
data_Tb2(HoBi)3
_symmetry_space_group_name_H-M   'P 1'
_cell_length_a   8.27738800
_cell_length_b   9.50336500
_cell_length_c   12.11396800
_cell_angle_alpha   90.00000000
_cell_angle_beta   90.00000000
_cell_angle_gamma   90.00000000
_symmetry_Int_Tables_number   1
_chemical_formula_structural   Tb2(HoBi)3
_chemical_formula_sum   'Tb8 Ho12 Bi12'
_cell_volume   952.92154220
_cell_formula_units_Z   4
loop_
 _symmetry_equiv_pos_site_id
 _symmetry_equiv_pos_as_xyz
  1  'x, y, z'
loop_
 _atom_site_type_symbol
 _atom_site_label
 _atom_site_symmetry_multiplicity
 _atom_site_fract_x
 _atom_site_fract_y
 _atom_site_fract_z
 _atom_site_occupancy
  Tb  Tb0  1  0.186335  0.750000  0.718974  1
  Tb  Tb1  1  0.686335  0.750000  0.781026  1
  Tb  Tb2  1  0.813665  0.250000  0.281026  1
  Tb  Tb3  1  0.313665  0.250000  0.218974  1
  Tb  Tb4  1  0.353973  0.750000  0.215590  1
  Tb  Tb5  1  0.853973  0.750000  0.284410  1
  Tb  Tb6  1  0.646027  0.250000  0.784410  1
  Tb  Tb7  1  0.146027  0.250000  0.715590  1
  Ho  Ho8  1  0.025928  0.750000  0.988620  1
  Ho  Ho9  1  0.525928  0.750000  0.511380  1
  Ho  Ho10  1  0.974072  0.250000  0.011380  1
  Ho  Ho11  1  0.474072  0.250000  0.488620  1
  Ho  Ho12  1  0.306460  0.436148  0.940146  1
  Ho  Ho13  1  0.806460  0.063852  0.559854  1
  Ho  Ho14  1  0.693540  0.936148  0.059854  1
  Ho  Ho15  1  0.193540  0.563852  0.440146  1
  Ho  Ho16  1  0.693540  0.563852  0.059854  1
  Ho  Ho17  1  0.193540  0.936148  0.440146  1
  Ho  Ho18  1  0.306460  0.063852  0.940146  1
  Ho  Ho19  1  0.806460  0.436148  0.559854  1
  Bi  Bi20  1  0.433695  0.003862  0.673390  1
  Bi  Bi21  1  0.933695  0.496138  0.826610  1
  Bi  Bi22  1  0.566305  0.503862  0.326610  1
  Bi  Bi23  1  0.066305  0.996138  0.173390  1
  Bi  Bi24  1  0.566305  0.996138  0.326610  1
  Bi  Bi25  1  0.066305  0.503862  0.173390  1
  Bi  Bi26  1  0.433695  0.496138  0.673390  1
  Bi  Bi27  1  0.933695  0.003862  0.826610  1
  Bi  Bi28  1  0.408954  0.750000  0.957885  1
  Bi  Bi29  1  0.908954  0.750000  0.542115  1
  Bi  Bi30  1  0.591046  0.250000  0.042115  1
  Bi  Bi31  1  0.091046  0.250000  0.457885  1
