# generated using pymatgen
data_Y6Sc4Sn5Sb
_symmetry_space_group_name_H-M   'P 1'
_cell_length_a   8.81271307
_cell_length_b   8.81271241
_cell_length_c   6.26676100
_cell_angle_alpha   90.00000000
_cell_angle_beta   90.00000000
_cell_angle_gamma   120.01414419
_symmetry_Int_Tables_number   1
_chemical_formula_structural   Y6Sc4Sn5Sb
_chemical_formula_sum   'Y6 Sc4 Sn5 Sb1'
_cell_volume   421.43546084
_cell_formula_units_Z   1
loop_
 _symmetry_equiv_pos_site_id
 _symmetry_equiv_pos_as_xyz
  1  'x, y, z'
loop_
 _atom_site_type_symbol
 _atom_site_label
 _atom_site_symmetry_multiplicity
 _atom_site_fract_x
 _atom_site_fract_y
 _atom_site_fract_z
 _atom_site_occupancy
  Y  Y0  1  0.758719  0.758719  0.250000  1
  Y  Y1  1  0.999732  0.240806  0.250000  1
  Y  Y2  1  0.759212  0.000852  0.750000  1
  Y  Y3  1  0.240806  0.999732  0.250000  1
  Y  Y4  1  0.000852  0.759212  0.750000  1
  Y  Y5  1  0.240737  0.240737  0.750000  1
  Sc  Sc6  1  0.333130  0.666871  0.499799  1
  Sc  Sc7  1  0.666871  0.333130  0.499799  1
  Sc  Sc8  1  0.333130  0.666871  0.000201  1
  Sc  Sc9  1  0.666871  0.333130  0.000201  1
  Sn  Sn10  1  0.399970  0.000076  0.750000  1
  Sn  Sn11  1  0.600052  0.999684  0.250000  1
  Sn  Sn12  1  0.000076  0.399970  0.750000  1
  Sn  Sn13  1  0.399169  0.399169  0.250000  1
  Sn  Sn14  1  0.999684  0.600052  0.250000  1
  Sb  Sb15  1  0.600986  0.600986  0.750000  1
