# generated using pymatgen
data_Ca3Nd(OsO6)2
_symmetry_space_group_name_H-M   'P 1'
_cell_length_a   5.31426576
_cell_length_b   9.16073545
_cell_length_c   9.98478000
_cell_angle_alpha   89.77417460
_cell_angle_beta   89.93187166
_cell_angle_gamma   90.01436073
_symmetry_Int_Tables_number   1
_chemical_formula_structural   Ca3Nd(OsO6)2
_chemical_formula_sum   'Ca6 Nd2 Os4 O24'
_cell_volume   486.08074329
_cell_formula_units_Z   2
loop_
 _symmetry_equiv_pos_site_id
 _symmetry_equiv_pos_as_xyz
  1  'x, y, z'
loop_
 _atom_site_type_symbol
 _atom_site_label
 _atom_site_symmetry_multiplicity
 _atom_site_fract_x
 _atom_site_fract_y
 _atom_site_fract_z
 _atom_site_occupancy
  Ca  Ca0  1  0.025566  0.400719  0.036267  1
  Ca  Ca1  1  0.033622  0.282275  0.630169  1
  Ca  Ca2  1  0.464229  0.718590  0.131932  1
  Ca  Ca3  1  0.471528  0.599746  0.534893  1
  Ca  Ca4  1  0.529693  0.101732  0.965034  1
  Ca  Ca5  1  0.535165  0.223873  0.370056  1
  Nd  Nd6  1  0.968850  0.780463  0.874683  1
  Nd  Nd7  1  0.973901  0.895218  0.463429  1
  Os  Os8  1  0.050538  0.008240  0.145215  1
  Os  Os9  1  0.462121  0.998999  0.644213  1
  Os  Os10  1  0.543486  0.496434  0.853050  1
  Os  Os11  1  0.949678  0.500549  0.362369  1
  O  O12  1  0.068310  0.645937  0.473566  1
  O  O13  1  0.159890  0.556869  0.211402  1
  O  O14  1  0.185370  0.867809  0.681132  1
  O  O15  1  0.179532  0.859846  0.259947  1
  O  O16  1  0.216851  0.390913  0.425616  1
  O  O17  1  0.251274  0.092008  0.505403  1
  O  O18  1  0.251621  0.914011  0.007102  1
  O  O19  1  0.280763  0.610787  0.927545  1
  O  O20  1  0.308820  0.140051  0.762628  1
  O  O21  1  0.308381  0.133094  0.182885  1
  O  O22  1  0.335196  0.441643  0.713744  1
  O  O23  1  0.438633  0.349533  0.974326  1
  O  O24  1  0.557635  0.850006  0.524708  1
  O  O25  1  0.660377  0.943906  0.787926  1
  O  O26  1  0.698345  0.631718  0.320858  1
  O  O27  1  0.683736  0.633853  0.738837  1
  O  O28  1  0.728761  0.107796  0.571580  1
  O  O29  1  0.751744  0.410816  0.491487  1
  O  O30  1  0.748477  0.587243  0.990937  1
  O  O31  1  0.781113  0.888864  0.071050  1
  O  O32  1  0.815960  0.360061  0.238217  1
  O  O33  1  0.816134  0.365211  0.818503  1
  O  O34  1  0.831261  0.056027  0.285888  1
  O  O35  1  0.933438  0.155157  0.023405  1
