# generated using pymatgen
data_Yb(CdAu2)2
_symmetry_space_group_name_H-M   'P 1'
_cell_length_a   5.80744544
_cell_length_b   5.80744473
_cell_length_c   5.80744631
_cell_angle_alpha   103.66134506
_cell_angle_beta   103.66134201
_cell_angle_gamma   121.84578407
_symmetry_Int_Tables_number   1
_chemical_formula_structural   Yb(CdAu2)2
_chemical_formula_sum   'Yb1 Cd2 Au4'
_cell_volume   145.41156043
_cell_formula_units_Z   1
loop_
 _symmetry_equiv_pos_site_id
 _symmetry_equiv_pos_as_xyz
  1  'x, y, z'
loop_
 _atom_site_type_symbol
 _atom_site_label
 _atom_site_symmetry_multiplicity
 _atom_site_fract_x
 _atom_site_fract_y
 _atom_site_fract_z
 _atom_site_occupancy
  Yb  Yb0  1  0.000000  0.000000  0.000000  1
  Cd  Cd1  1  0.250000  0.750000  0.500000  1
  Cd  Cd2  1  0.750000  0.250000  0.500000  1
  Au  Au3  1  0.299860  0.299860  0.599719  1
  Au  Au4  1  0.700140  0.700140  0.400281  1
  Au  Au5  1  0.700140  0.299860  0.000000  1
  Au  Au6  1  0.299860  0.700140  0.000000  1
