# generated using pymatgen
data_La7YGaPd24
_symmetry_space_group_name_H-M   'P 1'
_cell_length_a   8.54338904
_cell_length_b   8.54338904
_cell_length_c   8.54338904
_cell_angle_alpha   89.99169712
_cell_angle_beta   89.99169712
_cell_angle_gamma   89.99169712
_symmetry_Int_Tables_number   1
_chemical_formula_structural   La7YGaPd24
_chemical_formula_sum   'La7 Y1 Ga1 Pd24'
_cell_volume   623.57764405
_cell_formula_units_Z   1
loop_
 _symmetry_equiv_pos_site_id
 _symmetry_equiv_pos_as_xyz
  1  'x, y, z'
loop_
 _atom_site_type_symbol
 _atom_site_label
 _atom_site_symmetry_multiplicity
 _atom_site_fract_x
 _atom_site_fract_y
 _atom_site_fract_z
 _atom_site_occupancy
  La  La0  1  0.748267  0.748267  0.748267  1
  La  La1  1  0.748111  0.748111  0.251820  1
  La  La2  1  0.748111  0.251820  0.748111  1
  La  La3  1  0.251889  0.251889  0.748098  1
  La  La4  1  0.251889  0.748098  0.251889  1
  La  La5  1  0.251820  0.748111  0.748111  1
  La  La6  1  0.748098  0.251889  0.251889  1
  Y  Y7  1  0.251739  0.251739  0.251739  1
  Ga  Ga8  1  0.000130  0.000130  0.000130  1
  Pd  Pd9  1  0.262014  0.498820  0.001277  1
  Pd  Pd10  1  0.737976  0.500058  0.999949  1
  Pd  Pd11  1  0.001277  0.262014  0.498820  1
  Pd  Pd12  1  0.498820  0.262014  0.001277  1
  Pd  Pd13  1  0.999949  0.737976  0.500058  1
  Pd  Pd14  1  0.500058  0.737976  0.999949  1
  Pd  Pd15  1  0.498820  0.001277  0.262014  1
  Pd  Pd16  1  0.262014  0.001277  0.498820  1
  Pd  Pd17  1  0.500058  0.999949  0.737976  1
  Pd  Pd18  1  0.737976  0.999949  0.500058  1
  Pd  Pd19  1  0.001277  0.498820  0.262014  1
  Pd  Pd20  1  0.999949  0.500058  0.737976  1
  Pd  Pd21  1  0.254908  0.498690  0.498690  1
  Pd  Pd22  1  0.745087  0.500057  0.500057  1
  Pd  Pd23  1  0.498690  0.254908  0.498690  1
  Pd  Pd24  1  0.500057  0.745087  0.500057  1
  Pd  Pd25  1  0.498690  0.498690  0.254908  1
  Pd  Pd26  1  0.500057  0.500057  0.745087  1
  Pd  Pd27  1  0.295171  0.001273  0.001273  1
  Pd  Pd28  1  0.704548  0.000001  0.000001  1
  Pd  Pd29  1  0.001273  0.295171  0.001273  1
  Pd  Pd30  1  0.000001  0.704548  0.000001  1
  Pd  Pd31  1  0.001273  0.001273  0.295171  1
  Pd  Pd32  1  0.000001  0.000001  0.704548  1
