# generated using pymatgen
data_PrGd2Tm(MoN3)4
_symmetry_space_group_name_H-M   'P 1'
_cell_length_a   7.28784717
_cell_length_b   7.28784719
_cell_length_c   6.24687131
_cell_angle_alpha   75.24114164
_cell_angle_beta   75.24114726
_cell_angle_gamma   83.04898163
_symmetry_Int_Tables_number   1
_chemical_formula_structural   PrGd2Tm(MoN3)4
_chemical_formula_sum   'Pr1 Gd2 Tm1 Mo4 N12'
_cell_volume   309.69652350
_cell_formula_units_Z   1
loop_
 _symmetry_equiv_pos_site_id
 _symmetry_equiv_pos_as_xyz
  1  'x, y, z'
loop_
 _atom_site_type_symbol
 _atom_site_label
 _atom_site_symmetry_multiplicity
 _atom_site_fract_x
 _atom_site_fract_y
 _atom_site_fract_z
 _atom_site_occupancy
  Pr  Pr0  1  0.694447  0.305553  0.250000  1
  Gd  Gd1  1  0.088799  0.911201  0.250000  1
  Gd  Gd2  1  0.301795  0.698205  0.750000  1
  Tm  Tm3  1  0.915078  0.084922  0.750000  1
  Mo  Mo4  1  0.801244  0.619128  0.754282  1
  Mo  Mo5  1  0.197853  0.380966  0.245588  1
  Mo  Mo6  1  0.619034  0.802147  0.254412  1
  Mo  Mo7  1  0.380872  0.198756  0.745718  1
  N  N8  1  0.217989  0.999635  0.847255  1
  N  N9  1  0.349234  0.365111  0.467003  1
  N  N10  1  0.649647  0.637766  0.533505  1
  N  N11  1  0.621833  0.110919  0.668436  1
  N  N12  1  0.000365  0.782011  0.652745  1
  N  N13  1  0.785388  0.996948  0.141070  1
  N  N14  1  0.106464  0.619300  0.154928  1
  N  N15  1  0.889081  0.378167  0.831564  1
  N  N16  1  0.003052  0.214612  0.358930  1
  N  N17  1  0.362234  0.350353  0.966495  1
  N  N18  1  0.634889  0.650766  0.032997  1
  N  N19  1  0.380700  0.893536  0.345072  1
