# generated using pymatgen
data_Th14ReOs3Rh2
_symmetry_space_group_name_H-M   'P 1'
_cell_length_a   10.04932024
_cell_length_b   10.00042919
_cell_length_c   6.32888312
_cell_angle_alpha   89.99999689
_cell_angle_beta   90.03780221
_cell_angle_gamma   119.83919347
_symmetry_Int_Tables_number   1
_chemical_formula_structural   Th14ReOs3Rh2
_chemical_formula_sum   'Th14 Re1 Os3 Rh2'
_cell_volume   551.71444636
_cell_formula_units_Z   1
loop_
 _symmetry_equiv_pos_site_id
 _symmetry_equiv_pos_as_xyz
  1  'x, y, z'
loop_
 _atom_site_type_symbol
 _atom_site_label
 _atom_site_symmetry_multiplicity
 _atom_site_fract_x
 _atom_site_fract_y
 _atom_site_fract_z
 _atom_site_occupancy
  Th  Th0  1  0.456905  0.538643  0.298315  1
  Th  Th1  1  0.082068  0.541034  0.296466  1
  Th  Th2  1  0.919542  0.459771  0.794235  1
  Th  Th3  1  0.252403  0.126201  0.501601  1
  Th  Th4  1  0.539908  0.079708  0.796518  1
  Th  Th5  1  0.742609  0.871305  0.003194  1
  Th  Th6  1  0.665140  0.332570  0.299035  1
  Th  Th7  1  0.128555  0.875487  0.001825  1
  Th  Th8  1  0.456905  0.918262  0.298315  1
  Th  Th9  1  0.539908  0.460200  0.796518  1
  Th  Th10  1  0.875175  0.124468  0.504124  1
  Th  Th11  1  0.128555  0.253067  0.001825  1
  Th  Th12  1  0.875175  0.750708  0.504124  1
  Th  Th13  1  0.332893  0.666447  0.785187  1
  Re  Re14  1  0.627170  0.813585  0.550072  1
  Os  Os15  1  0.377858  0.188929  0.053016  1
  Os  Os16  1  0.184008  0.372467  0.550940  1
  Os  Os17  1  0.184008  0.811542  0.550940  1
  Rh  Rh18  1  0.815607  0.624918  0.048874  1
  Rh  Rh19  1  0.815607  0.190690  0.048874  1
