# generated using pymatgen
data_Nd6Co16ReMoP12
_symmetry_space_group_name_H-M   'P 1'
_cell_length_a   3.79062000
_cell_length_b   10.69229700
_cell_length_c   12.44778900
_cell_angle_alpha   90.00000000
_cell_angle_beta   90.00000000
_cell_angle_gamma   90.00000000
_symmetry_Int_Tables_number   1
_chemical_formula_structural   Nd6Co16ReMoP12
_chemical_formula_sum   'Nd6 Co16 Re1 Mo1 P12'
_cell_volume   504.51430114
_cell_formula_units_Z   1
loop_
 _symmetry_equiv_pos_site_id
 _symmetry_equiv_pos_as_xyz
  1  'x, y, z'
loop_
 _atom_site_type_symbol
 _atom_site_label
 _atom_site_symmetry_multiplicity
 _atom_site_fract_x
 _atom_site_fract_y
 _atom_site_fract_z
 _atom_site_occupancy
  Nd  Nd0  1  0.000000  0.500000  0.522759  1
  Nd  Nd1  1  0.500000  0.000000  0.477334  1
  Nd  Nd2  1  0.500000  0.818498  0.205581  1
  Nd  Nd3  1  0.500000  0.181502  0.205581  1
  Nd  Nd4  1  0.000000  0.681842  0.794748  1
  Nd  Nd5  1  0.000000  0.318158  0.794748  1
  Co  Co6  1  0.500000  0.500000  0.703607  1
  Co  Co7  1  0.000000  0.000000  0.296008  1
  Co  Co8  1  0.000000  0.500000  0.987423  1
  Co  Co9  1  0.500000  0.000000  0.010890  1
  Co  Co10  1  0.500000  0.331306  0.991209  1
  Co  Co11  1  0.500000  0.668694  0.991209  1
  Co  Co12  1  0.000000  0.166676  0.008100  1
  Co  Co13  1  0.000000  0.833324  0.008100  1
  Co  Co14  1  0.500000  0.295587  0.431092  1
  Co  Co15  1  0.500000  0.704413  0.431092  1
  Co  Co16  1  0.000000  0.203654  0.569961  1
  Co  Co17  1  0.000000  0.796346  0.569961  1
  Co  Co18  1  0.500000  0.881633  0.710313  1
  Co  Co19  1  0.500000  0.118367  0.710313  1
  Co  Co20  1  0.000000  0.619682  0.290996  1
  Co  Co21  1  0.000000  0.380318  0.290996  1
  Re  Re22  1  0.000000  0.000000  0.845434  1
  Mo  Mo23  1  0.500000  0.500000  0.153774  1
  P  P24  1  0.500000  0.500000  0.885609  1
  P  P25  1  0.000000  0.000000  0.114962  1
  P  P26  1  0.500000  0.500000  0.344161  1
  P  P27  1  0.000000  0.000000  0.656322  1
  P  P28  1  0.500000  0.307032  0.614441  1
  P  P29  1  0.500000  0.692968  0.614441  1
  P  P30  1  0.000000  0.192927  0.386052  1
  P  P31  1  0.000000  0.807073  0.386052  1
  P  P32  1  0.500000  0.847874  0.894372  1
  P  P33  1  0.500000  0.152126  0.894372  1
  P  P34  1  0.000000  0.653667  0.103995  1
  P  P35  1  0.000000  0.346333  0.103995  1
