# generated using pymatgen
data_La4CrMo3F28
_symmetry_space_group_name_H-M   'P 1'
_cell_length_a   5.79648884
_cell_length_b   9.32913362
_cell_length_c   12.45689600
_cell_angle_alpha   62.58837972
_cell_angle_beta   90.20148742
_cell_angle_gamma   89.86578069
_symmetry_Int_Tables_number   1
_chemical_formula_structural   La4CrMo3F28
_chemical_formula_sum   'La4 Cr1 Mo3 F28'
_cell_volume   597.97929320
_cell_formula_units_Z   1
loop_
 _symmetry_equiv_pos_site_id
 _symmetry_equiv_pos_as_xyz
  1  'x, y, z'
loop_
 _atom_site_type_symbol
 _atom_site_label
 _atom_site_symmetry_multiplicity
 _atom_site_fract_x
 _atom_site_fract_y
 _atom_site_fract_z
 _atom_site_occupancy
  La  La0  1  0.761213  0.813366  0.250037  1
  La  La1  1  0.265910  0.209821  0.223015  1
  La  La2  1  0.241638  0.169061  0.745155  1
  La  La3  1  0.743772  0.805598  0.783769  1
  Cr  Cr4  1  0.256731  0.725494  0.043800  1
  Mo  Mo5  1  0.245810  0.723929  0.545526  1
  Mo  Mo6  1  0.748193  0.277963  0.950896  1
  Mo  Mo7  1  0.757103  0.270807  0.461713  1
  F  F8  1  0.970457  0.713794  0.458714  1
  F  F9  1  0.453379  0.287042  0.034758  1
  F  F10  1  0.046878  0.283734  0.551711  1
  F  F11  1  0.527625  0.711046  0.956908  1
  F  F12  1  0.052917  0.712462  0.923236  1
  F  F13  1  0.554826  0.289368  0.582155  1
  F  F14  1  0.941426  0.297496  0.074586  1
  F  F15  1  0.442493  0.705107  0.427507  1
  F  F16  1  0.736762  0.515175  0.853141  1
  F  F17  1  0.239112  0.496842  0.636598  1
  F  F18  1  0.263763  0.491460  0.138039  1
  F  F19  1  0.763513  0.509347  0.366091  1
  F  F20  1  0.743930  0.040777  0.041082  1
  F  F21  1  0.242250  0.950232  0.460098  1
  F  F22  1  0.264647  0.959653  0.945801  1
  F  F23  1  0.765834  0.032653  0.555039  1
  F  F24  1  0.048948  0.739876  0.666507  1
  F  F25  1  0.552656  0.265140  0.823745  1
  F  F26  1  0.952697  0.251239  0.338224  1
  F  F27  1  0.454674  0.746402  0.163158  1
  F  F28  1  0.037490  0.277589  0.860473  1
  F  F29  1  0.518237  0.727219  0.635606  1
  F  F30  1  0.993010  0.735435  0.135840  1
  F  F31  1  0.472036  0.259350  0.369187  1
  F  F32  1  0.075180  0.979504  0.237296  1
  F  F33  1  0.573819  0.026149  0.265137  1
  F  F34  1  0.887906  0.039762  0.772788  1
  F  F35  1  0.403165  0.960112  0.722662  1
