# generated using pymatgen
data_CaY(Co3Si2)2
_symmetry_space_group_name_H-M   'P 1'
_cell_length_a   6.27984239
_cell_length_b   6.28223769
_cell_length_c   6.27999474
_cell_angle_alpha   130.35652751
_cell_angle_beta   114.04323135
_cell_angle_gamma   86.84918676
_symmetry_Int_Tables_number   1
_chemical_formula_structural   CaY(Co3Si2)2
_chemical_formula_sum   'Ca1 Y1 Co6 Si4'
_cell_volume   164.46798917
_cell_formula_units_Z   1
loop_
 _symmetry_equiv_pos_site_id
 _symmetry_equiv_pos_as_xyz
  1  'x, y, z'
loop_
 _atom_site_type_symbol
 _atom_site_label
 _atom_site_symmetry_multiplicity
 _atom_site_fract_x
 _atom_site_fract_y
 _atom_site_fract_z
 _atom_site_occupancy
  Ca  Ca0  1  0.750092  0.471892  0.721959  1
  Y  Y1  1  0.249845  0.532262  0.282161  1
  Co  Co2  1  0.002712  0.999029  0.501637  1
  Co  Co3  1  0.497322  0.998854  0.996256  1
  Co  Co4  1  0.721053  0.998853  0.721038  1
  Co  Co5  1  0.222314  0.500023  0.721180  1
  Co  Co6  1  0.277739  0.998529  0.277349  1
  Co  Co7  1  0.778896  0.499578  0.277404  1
  Si  Si8  1  0.078476  0.874499  0.795846  1
  Si  Si9  1  0.918553  0.123013  0.204645  1
  Si  Si10  1  0.581622  0.786062  0.204664  1
  Si  Si11  1  0.421376  0.217408  0.795863  1
