# generated using pymatgen
data_Cs4Na2MgTiSb4
_symmetry_space_group_name_H-M   'P 1'
_cell_length_a   10.25280691
_cell_length_b   10.25280668
_cell_length_c   10.25280540
_cell_angle_alpha   137.34808037
_cell_angle_beta   60.60663984
_cell_angle_gamma   139.05328351
_symmetry_Int_Tables_number   1
_chemical_formula_structural   Cs4Na2MgTiSb4
_chemical_formula_sum   'Cs4 Na2 Mg1 Ti1 Sb4'
_cell_volume   473.45597297
_cell_formula_units_Z   1
loop_
 _symmetry_equiv_pos_site_id
 _symmetry_equiv_pos_as_xyz
  1  'x, y, z'
loop_
 _atom_site_type_symbol
 _atom_site_label
 _atom_site_symmetry_multiplicity
 _atom_site_fract_x
 _atom_site_fract_y
 _atom_site_fract_z
 _atom_site_occupancy
  Cs  Cs0  1  0.815732  0.219179  0.055572  1
  Cs  Cs1  1  0.684267  0.739840  0.403446  1
  Cs  Cs2  1  0.336393  0.280821  0.596553  1
  Cs  Cs3  1  0.163607  0.760161  0.944428  1
  Na  Na4  1  0.250000  0.250000  0.000000  1
  Na  Na5  1  0.750000  0.750000  0.000000  1
  Mg  Mg6  1  0.750000  0.250000  0.500000  1
  Ti  Ti7  1  0.250000  0.749999  0.500000  1
  Sb  Sb8  1  0.393691  0.773877  0.202928  1
  Sb  Sb9  1  0.106309  0.309239  0.380187  1
  Sb  Sb10  1  0.929051  0.726123  0.619812  1
  Sb  Sb11  1  0.570949  0.190761  0.797072  1
