# generated using pymatgen
data_La3Tb2Y(SiPd5)2
_symmetry_space_group_name_H-M   'P 1'
_cell_length_a   8.43476960
_cell_length_b   8.37651941
_cell_length_c   8.37651920
_cell_angle_alpha   127.59492129
_cell_angle_beta   126.16332736
_cell_angle_gamma   78.29592873
_symmetry_Int_Tables_number   1
_chemical_formula_structural   La3Tb2Y(SiPd5)2
_chemical_formula_sum   'La3 Tb2 Y1 Si2 Pd10'
_cell_volume   366.98949448
_cell_formula_units_Z   1
loop_
 _symmetry_equiv_pos_site_id
 _symmetry_equiv_pos_as_xyz
  1  'x, y, z'
loop_
 _atom_site_type_symbol
 _atom_site_label
 _atom_site_symmetry_multiplicity
 _atom_site_fract_x
 _atom_site_fract_y
 _atom_site_fract_z
 _atom_site_occupancy
  La  La0  1  0.379987  0.248880  0.131107  1
  La  La1  1  0.774577  0.549883  0.224693  1
  La  La2  1  0.617632  0.750196  0.867436  1
  Tb  Tb3  1  0.821580  0.048462  0.773118  1
  Tb  Tb4  1  0.217935  0.449573  0.768364  1
  Y  Y5  1  0.177147  0.950478  0.226669  1
  Si  Si6  1  0.214946  0.751072  0.463874  1
  Si  Si7  1  0.786638  0.249396  0.537241  1
  Pd  Pd8  1  0.838160  0.599547  0.647306  1
  Pd  Pd9  1  0.542827  0.303778  0.637395  1
  Pd  Pd10  1  0.452489  0.095157  0.757087  1
  Pd  Pd11  1  0.838160  0.190854  0.238614  1
  Pd  Pd12  1  0.165535  0.401500  0.357805  1
  Pd  Pd13  1  0.452489  0.695402  0.357333  1
  Pd  Pd14  1  0.542827  0.905432  0.239049  1
  Pd  Pd15  1  0.165535  0.807729  0.764035  1
  Pd  Pd16  1  0.005767  0.006905  0.510014  1
  Pd  Pd17  1  0.005767  0.495754  0.998862  1
