# generated using pymatgen
data_Dy3Ho2Si10P2Ir19
_symmetry_space_group_name_H-M   'P 1'
_cell_length_a   12.83851206
_cell_length_b   12.82068174
_cell_length_c   3.95948300
_cell_angle_alpha   90.00000000
_cell_angle_beta   90.00000000
_cell_angle_gamma   119.95368041
_symmetry_Int_Tables_number   1
_chemical_formula_structural   Dy3Ho2Si10P2Ir19
_chemical_formula_sum   'Dy3 Ho2 Si10 P2 Ir19'
_cell_volume   564.67354797
_cell_formula_units_Z   1
loop_
 _symmetry_equiv_pos_site_id
 _symmetry_equiv_pos_as_xyz
  1  'x, y, z'
loop_
 _atom_site_type_symbol
 _atom_site_label
 _atom_site_symmetry_multiplicity
 _atom_site_fract_x
 _atom_site_fract_y
 _atom_site_fract_z
 _atom_site_occupancy
  Dy  Dy0  1  0.333050  0.666512  0.500000  1
  Dy  Dy1  1  0.666947  0.333455  0.500000  1
  Dy  Dy2  1  0.814800  0.001279  0.000000  1
  Ho  Ho3  1  0.000009  0.812866  0.000000  1
  Ho  Ho4  1  0.185211  0.186555  0.000000  1
  Si  Si5  1  0.999999  0.633129  0.500000  1
  Si  Si6  1  0.366812  0.367122  0.500000  1
  Si  Si7  1  0.633076  0.000312  0.500000  1
  Si  Si8  1  0.518757  0.686547  0.000000  1
  Si  Si9  1  0.313620  0.832058  0.000000  1
  Si  Si10  1  0.168249  0.481025  0.000000  1
  Si  Si11  1  0.481232  0.167785  0.000000  1
  Si  Si12  1  0.686371  0.518408  0.000000  1
  Si  Si13  1  0.831770  0.312775  0.000000  1
  Si  Si14  1  0.000112  0.178655  0.500000  1
  P  P15  1  0.820129  0.820328  0.500000  1
  P  P16  1  0.179901  0.000286  0.500000  1
  Ir  Ir17  1  0.512772  0.872558  0.000000  1
  Ir  Ir18  1  0.127262  0.640261  0.000000  1
  Ir  Ir19  1  0.361063  0.487496  0.000000  1
  Ir  Ir20  1  0.487170  0.359725  0.000000  1
  Ir  Ir21  1  0.872736  0.512984  0.000000  1
  Ir  Ir22  1  0.638892  0.126434  0.000000  1
  Ir  Ir23  1  0.000001  0.447878  0.500000  1
  Ir  Ir24  1  0.553580  0.552537  0.500000  1
  Ir  Ir25  1  0.446376  0.998953  0.500000  1
  Ir  Ir26  1  0.000075  0.281956  0.000000  1
  Ir  Ir27  1  0.720752  0.720787  0.000000  1
  Ir  Ir28  1  0.279218  0.000111  0.000000  1
  Ir  Ir29  1  0.626679  0.806557  0.500000  1
  Ir  Ir30  1  0.193333  0.820297  0.500000  1
  Ir  Ir31  1  0.181728  0.375583  0.500000  1
  Ir  Ir32  1  0.373139  0.179879  0.500000  1
  Ir  Ir33  1  0.806692  0.626967  0.500000  1
  Ir  Ir34  1  0.818319  0.194049  0.500000  1
  Ir  Ir35  1  0.000169  0.995887  0.500000  1
