# generated using pymatgen
data_Zr12Al4Pt7RhN4
_symmetry_space_group_name_H-M   'P 1'
_cell_length_a   8.63816661
_cell_length_b   8.63816699
_cell_length_c   8.63816735
_cell_angle_alpha   60.06895986
_cell_angle_beta   60.06895996
_cell_angle_gamma   60.06895851
_symmetry_Int_Tables_number   1
_chemical_formula_structural   Zr12Al4Pt7RhN4
_chemical_formula_sum   'Zr12 Al4 Pt7 Rh1 N4'
_cell_volume   456.48653704
_cell_formula_units_Z   1
loop_
 _symmetry_equiv_pos_site_id
 _symmetry_equiv_pos_as_xyz
  1  'x, y, z'
loop_
 _atom_site_type_symbol
 _atom_site_label
 _atom_site_symmetry_multiplicity
 _atom_site_fract_x
 _atom_site_fract_y
 _atom_site_fract_z
 _atom_site_occupancy
  Zr  Zr0  1  0.811676  0.811676  0.185521  1
  Zr  Zr1  1  0.188723  0.188723  0.811441  1
  Zr  Zr2  1  0.811676  0.185521  0.811676  1
  Zr  Zr3  1  0.188723  0.811441  0.188723  1
  Zr  Zr4  1  0.185521  0.811676  0.811676  1
  Zr  Zr5  1  0.811441  0.188723  0.188723  1
  Zr  Zr6  1  0.439069  0.439069  0.060786  1
  Zr  Zr7  1  0.060275  0.060275  0.440073  1
  Zr  Zr8  1  0.439069  0.060786  0.439069  1
  Zr  Zr9  1  0.060275  0.440073  0.060275  1
  Zr  Zr10  1  0.060786  0.439069  0.439069  1
  Zr  Zr11  1  0.440073  0.060275  0.060275  1
  Al  Al12  1  0.124796  0.625728  0.625728  1
  Al  Al13  1  0.625728  0.124796  0.625728  1
  Al  Al14  1  0.625728  0.625728  0.124796  1
  Al  Al15  1  0.624859  0.624859  0.624859  1
  Pt  Pt16  1  0.761724  0.412963  0.412963  1
  Pt  Pt17  1  0.412963  0.761724  0.412963  1
  Pt  Pt18  1  0.412963  0.412963  0.761724  1
  Pt  Pt19  1  0.412955  0.412955  0.412955  1
  Pt  Pt20  1  0.490010  0.837225  0.837225  1
  Pt  Pt21  1  0.837225  0.490010  0.837225  1
  Pt  Pt22  1  0.837225  0.837225  0.490010  1
  Rh  Rh23  1  0.836118  0.836118  0.836118  1
  N  N24  1  0.625300  0.125103  0.125103  1
  N  N25  1  0.125103  0.625300  0.125103  1
  N  N26  1  0.125103  0.125103  0.625300  1
  N  N27  1  0.124893  0.124893  0.124893  1
