# generated using pymatgen
data_Zr8Fe3Co5Si13As
_symmetry_space_group_name_H-M   'P 1'
_cell_length_a   9.51882741
_cell_length_b   9.51352528
_cell_length_c   9.50607592
_cell_angle_alpha   94.16100188
_cell_angle_beta   94.15948379
_cell_angle_gamma   148.77044307
_symmetry_Int_Tables_number   1
_chemical_formula_structural   Zr8Fe3Co5Si13As
_chemical_formula_sum   'Zr8 Fe3 Co5 Si13 As1'
_cell_volume   429.80582775
_cell_formula_units_Z   1
loop_
 _symmetry_equiv_pos_site_id
 _symmetry_equiv_pos_as_xyz
  1  'x, y, z'
loop_
 _atom_site_type_symbol
 _atom_site_label
 _atom_site_symmetry_multiplicity
 _atom_site_fract_x
 _atom_site_fract_y
 _atom_site_fract_z
 _atom_site_occupancy
  Zr  Zr0  1  0.694083  0.497104  0.196720  1
  Zr  Zr1  1  0.498452  0.696455  0.198768  1
  Zr  Zr2  1  0.498489  0.300892  0.802834  1
  Zr  Zr3  1  0.298296  0.496857  0.800817  1
  Zr  Zr4  1  0.863068  0.862808  0.722393  1
  Zr  Zr5  1  0.140386  0.863409  0.999929  1
  Zr  Zr6  1  0.863347  0.140688  0.000162  1
  Zr  Zr7  1  0.140728  0.140619  0.277448  1
  Fe  Fe8  1  0.396654  0.897137  0.795014  1
  Fe  Fe9  1  0.899201  0.104685  0.501921  1
  Fe  Fe10  1  0.398027  0.601726  0.498352  1
  Co  Co11  1  0.101409  0.897482  0.499974  1
  Co  Co12  1  0.898133  0.397199  0.794740  1
  Co  Co13  1  0.602393  0.102860  0.205901  1
  Co  Co14  1  0.102961  0.602010  0.204278  1
  Co  Co15  1  0.602225  0.396524  0.500167  1
  Si  Si16  1  0.250235  0.250304  0.999873  1
  Si  Si17  1  0.096834  0.505630  0.589296  1
  Si  Si18  1  0.496722  0.087884  0.592689  1
  Si  Si19  1  0.503651  0.910859  0.410986  1
  Si  Si20  1  0.907756  0.500543  0.407580  1
  Si  Si21  1  0.693631  0.996347  0.697291  1
  Si  Si22  1  0.000914  0.697387  0.697500  1
  Si  Si23  1  0.711637  0.712090  0.422087  1
  Si  Si24  1  0.291027  0.712734  0.999519  1
  Si  Si25  1  0.301084  0.997972  0.302925  1
  Si  Si26  1  0.710139  0.288008  0.999527  1
  Si  Si27  1  0.289679  0.290137  0.578024  1
  Si  Si28  1  0.999322  0.301724  0.303433  1
  As  As29  1  0.749518  0.749927  0.999853  1
