# generated using pymatgen
data_Zr10Zn2InBi2Pb3
_symmetry_space_group_name_H-M   'P 1'
_cell_length_a   8.82258800
_cell_length_b   8.83642521
_cell_length_c   5.96170800
_cell_angle_alpha   90.00000000
_cell_angle_beta   90.00000000
_cell_angle_gamma   119.94821301
_symmetry_Int_Tables_number   1
_chemical_formula_structural   Zr10Zn2InBi2Pb3
_chemical_formula_sum   'Zr10 Zn2 In1 Bi2 Pb3'
_cell_volume   402.71734324
_cell_formula_units_Z   1
loop_
 _symmetry_equiv_pos_site_id
 _symmetry_equiv_pos_as_xyz
  1  'x, y, z'
loop_
 _atom_site_type_symbol
 _atom_site_label
 _atom_site_symmetry_multiplicity
 _atom_site_fract_x
 _atom_site_fract_y
 _atom_site_fract_z
 _atom_site_occupancy
  Zr  Zr0  1  0.334596  0.668296  0.002443  1
  Zr  Zr1  1  0.666300  0.331704  0.497557  1
  Zr  Zr2  1  0.666300  0.331704  0.002443  1
  Zr  Zr3  1  0.334596  0.668296  0.497557  1
  Zr  Zr4  1  0.267121  0.000000  0.250000  1
  Zr  Zr5  1  0.264149  0.263082  0.750000  1
  Zr  Zr6  1  0.001068  0.736918  0.750000  1
  Zr  Zr7  1  0.997048  0.263848  0.250000  1
  Zr  Zr8  1  0.733200  0.736152  0.250000  1
  Zr  Zr9  1  0.735847  0.000000  0.750000  1
  Zn  Zn10  1  0.999781  0.000000  0.003188  1
  Zn  Zn11  1  0.999781  0.000000  0.496812  1
  In  In12  1  0.615272  0.000000  0.250000  1
  Bi  Bi13  1  0.614332  0.613922  0.750000  1
  Bi  Bi14  1  0.000410  0.386078  0.750000  1
  Pb  Pb15  1  0.999654  0.616028  0.250000  1
  Pb  Pb16  1  0.383626  0.383972  0.250000  1
  Pb  Pb17  1  0.386923  0.000000  0.750000  1
