# generated using pymatgen
data_Zr3Nb7N12
_symmetry_space_group_name_H-M   'P 1'
_cell_length_a   5.33210100
_cell_length_b   5.33210045
_cell_length_c   10.60695300
_cell_angle_alpha   90.00002155
_cell_angle_beta   89.99995690
_cell_angle_gamma   120.00000960
_symmetry_Int_Tables_number   1
_chemical_formula_structural   Zr3Nb7N12
_chemical_formula_sum   'Zr3 Nb7 N12'
_cell_volume   261.16677356
_cell_formula_units_Z   1
loop_
 _symmetry_equiv_pos_site_id
 _symmetry_equiv_pos_as_xyz
  1  'x, y, z'
loop_
 _atom_site_type_symbol
 _atom_site_label
 _atom_site_symmetry_multiplicity
 _atom_site_fract_x
 _atom_site_fract_y
 _atom_site_fract_z
 _atom_site_occupancy
  Zr  Zr0  1  0.333333  0.666667  0.499996  1
  Zr  Zr1  1  0.666667  0.333333  0.999991  1
  Zr  Zr2  1  0.666667  0.333334  0.500005  1
  Nb  Nb3  1  0.333333  0.666666  0.000017  1
  Nb  Nb4  1  0.677901  0.001096  0.752412  1
  Nb  Nb5  1  0.677922  0.676811  0.247585  1
  Nb  Nb6  1  0.998890  0.322078  0.247585  1
  Nb  Nb7  1  0.998904  0.676805  0.752413  1
  Nb  Nb8  1  0.323196  0.322099  0.752413  1
  Nb  Nb9  1  0.323189  0.001111  0.247585  1
  N  N10  1  0.343120  0.343151  0.370861  1
  N  N11  1  0.656849  0.999969  0.370862  1
  N  N12  1  0.000031  0.656879  0.370861  1
  N  N13  1  0.007324  0.346637  0.876785  1
  N  N14  1  0.653369  0.992679  0.123214  1
  N  N15  1  0.653363  0.660687  0.876784  1
  N  N16  1  0.339312  0.992675  0.876784  1
  N  N17  1  0.656855  0.656886  0.629140  1
  N  N18  1  0.000031  0.343146  0.629140  1
  N  N19  1  0.007321  0.660689  0.123213  1
  N  N20  1  0.343115  0.999970  0.629140  1
  N  N21  1  0.339310  0.346630  0.123214  1
