# generated using pymatgen
data_Er4Ga18IrPtRh4
_symmetry_space_group_name_H-M   'P 1'
_cell_length_a   7.58447749
_cell_length_b   7.58447814
_cell_length_c   9.47418048
_cell_angle_alpha   89.99228327
_cell_angle_beta   89.99228584
_cell_angle_gamma   119.94396085
_symmetry_Int_Tables_number   1
_chemical_formula_structural   Er4Ga18IrPtRh4
_chemical_formula_sum   'Er4 Ga18 Ir1 Pt1 Rh4'
_cell_volume   472.24634353
_cell_formula_units_Z   1
loop_
 _symmetry_equiv_pos_site_id
 _symmetry_equiv_pos_as_xyz
  1  'x, y, z'
loop_
 _atom_site_type_symbol
 _atom_site_label
 _atom_site_symmetry_multiplicity
 _atom_site_fract_x
 _atom_site_fract_y
 _atom_site_fract_z
 _atom_site_occupancy
  Er  Er0  1  0.996587  0.668581  0.750929  1
  Er  Er1  1  0.003800  0.331595  0.249162  1
  Er  Er2  1  0.668405  0.996200  0.750838  1
  Er  Er3  1  0.331419  0.003413  0.249071  1
  Ga  Ga4  1  0.127168  0.126578  0.749661  1
  Ga  Ga5  1  0.873422  0.872832  0.250339  1
  Ga  Ga6  1  0.002082  0.334120  0.581850  1
  Ga  Ga7  1  0.004646  0.669151  0.418282  1
  Ga  Ga8  1  0.001767  0.665478  0.080164  1
  Ga  Ga9  1  0.334522  0.998233  0.919836  1
  Ga  Ga10  1  0.998294  0.334247  0.919478  1
  Ga  Ga11  1  0.665753  0.001706  0.080522  1
  Ga  Ga12  1  0.665880  0.997918  0.418150  1
  Ga  Ga13  1  0.330849  0.995354  0.581718  1
  Ga  Ga14  1  0.332503  0.332463  0.065544  1
  Ga  Ga15  1  0.667537  0.667497  0.934456  1
  Ga  Ga16  1  0.667704  0.671019  0.567633  1
  Ga  Ga17  1  0.328981  0.332296  0.432367  1
  Ga  Ga18  1  0.339666  0.547626  0.750388  1
  Ga  Ga19  1  0.660538  0.454683  0.247187  1
  Ga  Ga20  1  0.545317  0.339462  0.752813  1
  Ga  Ga21  1  0.452374  0.660334  0.249612  1
  Ir  Ir22  1  0.000026  0.999974  0.000000  1
  Pt  Pt23  1  0.671668  0.328332  0.500000  1
  Rh  Rh24  1  0.328702  0.671298  0.500000  1
  Rh  Rh25  1  0.328496  0.671504  0.000000  1
  Rh  Rh26  1  0.671826  0.328174  0.000000  1
  Rh  Rh27  1  0.000065  0.999935  0.500000  1
