# generated using pymatgen
data_Tb5Ho5(Bi3C)2
_symmetry_space_group_name_H-M   'P 1'
_cell_length_a   9.18022599
_cell_length_b   9.17284096
_cell_length_c   6.48221800
_cell_angle_alpha   90.00000000
_cell_angle_beta   90.00000000
_cell_angle_gamma   119.97339743
_symmetry_Int_Tables_number   1
_chemical_formula_structural   Tb5Ho5(Bi3C)2
_chemical_formula_sum   'Tb5 Ho5 Bi6 C2'
_cell_volume   472.85486015
_cell_formula_units_Z   1
loop_
 _symmetry_equiv_pos_site_id
 _symmetry_equiv_pos_as_xyz
  1  'x, y, z'
loop_
 _atom_site_type_symbol
 _atom_site_label
 _atom_site_symmetry_multiplicity
 _atom_site_fract_x
 _atom_site_fract_y
 _atom_site_fract_z
 _atom_site_occupancy
  Tb  Tb0  1  0.666722  0.333461  0.000096  1
  Tb  Tb1  1  0.333278  0.666740  0.000096  1
  Tb  Tb2  1  0.333278  0.666740  0.499904  1
  Tb  Tb3  1  0.666722  0.333461  0.499904  1
  Tb  Tb4  1  0.000000  0.789596  0.250000  1
  Ho  Ho5  1  0.794033  0.794738  0.750000  1
  Ho  Ho6  1  0.205967  0.000706  0.750000  1
  Ho  Ho7  1  0.000000  0.206665  0.750000  1
  Ho  Ho8  1  0.205572  0.205175  0.250000  1
  Ho  Ho9  1  0.794428  0.999603  0.250000  1
  Bi  Bi10  1  0.400048  0.399937  0.750000  1
  Bi  Bi11  1  0.599952  0.999889  0.750000  1
  Bi  Bi12  1  0.000000  0.600913  0.750000  1
  Bi  Bi13  1  0.599442  0.600343  0.250000  1
  Bi  Bi14  1  0.400558  0.000901  0.250000  1
  Bi  Bi15  1  0.000000  0.399046  0.250000  1
  C  C16  1  0.000000  0.001042  0.999440  1
  C  C17  1  0.000000  0.001042  0.500560  1
