# generated using pymatgen
data_La13PrPdAu5
_symmetry_space_group_name_H-M   'P 1'
_cell_length_a   10.64349300
_cell_length_b   10.59207177
_cell_length_c   6.62013230
_cell_angle_alpha   90.08943289
_cell_angle_beta   90.00000000
_cell_angle_gamma   120.16071910
_symmetry_Int_Tables_number   1
_chemical_formula_structural   La13PrPdAu5
_chemical_formula_sum   'La13 Pr1 Pd1 Au5'
_cell_volume   645.29167228
_cell_formula_units_Z   1
loop_
 _symmetry_equiv_pos_site_id
 _symmetry_equiv_pos_as_xyz
  1  'x, y, z'
loop_
 _atom_site_type_symbol
 _atom_site_label
 _atom_site_symmetry_multiplicity
 _atom_site_fract_x
 _atom_site_fract_y
 _atom_site_fract_z
 _atom_site_occupancy
  La  La0  1  0.666417  0.332833  0.934134  1
  La  La1  1  0.128455  0.870931  0.250358  1
  La  La2  1  0.742476  0.870931  0.250358  1
  La  La3  1  0.129618  0.259236  0.257628  1
  La  La4  1  0.879177  0.131325  0.748148  1
  La  La5  1  0.252149  0.131325  0.748148  1
  La  La6  1  0.872398  0.744795  0.749887  1
  La  La7  1  0.536588  0.460863  0.449188  1
  La  La8  1  0.924275  0.460863  0.449188  1
  La  La9  1  0.537210  0.074419  0.451805  1
  La  La10  1  0.456535  0.536571  0.947161  1
  La  La11  1  0.080038  0.536571  0.947161  1
  La  La12  1  0.462918  0.925836  0.951092  1
  Pr  Pr13  1  0.331021  0.662043  0.441963  1
  Pd  Pd14  1  0.188599  0.377195  0.688125  1
  Au  Au15  1  0.811612  0.188505  0.183335  1
  Au  Au16  1  0.376891  0.188505  0.183335  1
  Au  Au17  1  0.810900  0.621801  0.184829  1
  Au  Au18  1  0.189891  0.812725  0.684971  1
  Au  Au19  1  0.622833  0.812725  0.684971  1
