# generated using pymatgen
data_Sr(AsPd3)2
_symmetry_space_group_name_H-M   'P 1'
_cell_length_a   8.80010900
_cell_length_b   8.80010900
_cell_length_c   8.80010900
_cell_angle_alpha   90.00000000
_cell_angle_beta   90.00000000
_cell_angle_gamma   90.00000000
_symmetry_Int_Tables_number   1
_chemical_formula_structural   Sr(AsPd3)2
_chemical_formula_sum   'Sr4 As8 Pd24'
_cell_volume   681.49732319
_cell_formula_units_Z   4
loop_
 _symmetry_equiv_pos_site_id
 _symmetry_equiv_pos_as_xyz
  1  'x, y, z'
loop_
 _atom_site_type_symbol
 _atom_site_label
 _atom_site_symmetry_multiplicity
 _atom_site_fract_x
 _atom_site_fract_y
 _atom_site_fract_z
 _atom_site_occupancy
  Sr  Sr0  1  0.500000  0.500000  0.000000  1
  Sr  Sr1  1  0.500000  0.000000  0.500000  1
  Sr  Sr2  1  0.000000  0.500000  0.500000  1
  Sr  Sr3  1  0.000000  0.000000  0.000000  1
  As  As4  1  0.808042  0.308042  0.191958  1
  As  As5  1  0.191958  0.808042  0.308042  1
  As  As6  1  0.691958  0.691958  0.691958  1
  As  As7  1  0.308042  0.191958  0.808042  1
  As  As8  1  0.191958  0.691958  0.808042  1
  As  As9  1  0.808042  0.191958  0.691958  1
  As  As10  1  0.308042  0.308042  0.308042  1
  As  As11  1  0.691958  0.808042  0.191958  1
  Pd  Pd12  1  0.418526  0.846170  0.151478  1
  Pd  Pd13  1  0.581474  0.346170  0.348522  1
  Pd  Pd14  1  0.081474  0.153830  0.651478  1
  Pd  Pd15  1  0.918526  0.653830  0.848522  1
  Pd  Pd16  1  0.151478  0.418526  0.846170  1
  Pd  Pd17  1  0.348522  0.581474  0.346170  1
  Pd  Pd18  1  0.651478  0.081474  0.153830  1
  Pd  Pd19  1  0.848522  0.918526  0.653830  1
  Pd  Pd20  1  0.846170  0.151478  0.418526  1
  Pd  Pd21  1  0.346170  0.348522  0.581474  1
  Pd  Pd22  1  0.153830  0.651478  0.081474  1
  Pd  Pd23  1  0.653830  0.848522  0.918526  1
  Pd  Pd24  1  0.581474  0.153830  0.848522  1
  Pd  Pd25  1  0.418526  0.653830  0.651478  1
  Pd  Pd26  1  0.918526  0.846170  0.348522  1
  Pd  Pd27  1  0.081474  0.346170  0.151478  1
  Pd  Pd28  1  0.848522  0.581474  0.153830  1
  Pd  Pd29  1  0.651478  0.418526  0.653830  1
  Pd  Pd30  1  0.348522  0.918526  0.846170  1
  Pd  Pd31  1  0.151478  0.081474  0.346170  1
  Pd  Pd32  1  0.153830  0.848522  0.581474  1
  Pd  Pd33  1  0.653830  0.651478  0.418526  1
  Pd  Pd34  1  0.846170  0.348522  0.918526  1
  Pd  Pd35  1  0.346170  0.151478  0.081474  1
