# generated using pymatgen
data_Tm3MgPaNi4Sn
_symmetry_space_group_name_H-M   'P 1'
_cell_length_a   7.39607814
_cell_length_b   7.40627268
_cell_length_c   3.53304600
_cell_angle_alpha   90.00000000
_cell_angle_beta   90.00000000
_cell_angle_gamma   92.39645514
_symmetry_Int_Tables_number   1
_chemical_formula_structural   Tm3MgPaNi4Sn
_chemical_formula_sum   'Tm3 Mg1 Pa1 Ni4 Sn1'
_cell_volume   193.36171464
_cell_formula_units_Z   1
loop_
 _symmetry_equiv_pos_site_id
 _symmetry_equiv_pos_as_xyz
  1  'x, y, z'
loop_
 _atom_site_type_symbol
 _atom_site_label
 _atom_site_symmetry_multiplicity
 _atom_site_fract_x
 _atom_site_fract_y
 _atom_site_fract_z
 _atom_site_occupancy
  Tm  Tm0  1  0.325018  0.826925  0.500000  1
  Tm  Tm1  1  0.170935  0.326637  0.500000  1
  Tm  Tm2  1  0.833783  0.671738  0.500000  1
  Mg  Mg3  1  0.496041  0.506716  0.000000  1
  Pa  Pa4  1  0.666350  0.172064  0.500000  1
  Ni  Ni5  1  0.862048  0.360426  0.000000  1
  Ni  Ni6  1  0.115659  0.613310  0.000000  1
  Ni  Ni7  1  0.391925  0.132521  0.000000  1
  Ni  Ni8  1  0.632401  0.892557  0.000000  1
  Sn  Sn9  1  0.005838  0.997106  0.000000  1
