# generated using pymatgen
data_Zr6Zn18Co5S
_symmetry_space_group_name_H-M   'P 1'
_cell_length_a   8.66626557
_cell_length_b   8.63583104
_cell_length_c   8.66518700
_cell_angle_alpha   60.11773043
_cell_angle_beta   59.46933533
_cell_angle_gamma   60.11107583
_symmetry_Int_Tables_number   1
_chemical_formula_structural   Zr6Zn18Co5S
_chemical_formula_sum   'Zr6 Zn18 Co5 S1'
_cell_volume   457.47767196
_cell_formula_units_Z   1
loop_
 _symmetry_equiv_pos_site_id
 _symmetry_equiv_pos_as_xyz
  1  'x, y, z'
loop_
 _atom_site_type_symbol
 _atom_site_label
 _atom_site_symmetry_multiplicity
 _atom_site_fract_x
 _atom_site_fract_y
 _atom_site_fract_z
 _atom_site_occupancy
  Zr  Zr0  1  0.707427  0.285300  0.292559  1
  Zr  Zr1  1  0.292573  0.714701  0.707440  1
  Zr  Zr2  1  0.292089  0.707898  0.292084  1
  Zr  Zr3  1  0.707911  0.292102  0.707916  1
  Zr  Zr4  1  0.292564  0.285323  0.707423  1
  Zr  Zr5  1  0.707436  0.714678  0.292576  1
  Zn  Zn6  1  0.129084  0.113638  0.129032  1
  Zn  Zn7  1  0.870917  0.886363  0.870968  1
  Zn  Zn8  1  0.122849  0.124748  0.627737  1
  Zn  Zn9  1  0.129033  0.628239  0.129102  1
  Zn  Zn10  1  0.877149  0.875253  0.372267  1
  Zn  Zn11  1  0.870969  0.371759  0.870898  1
  Zn  Zn12  1  0.627750  0.124682  0.122843  1
  Zn  Zn13  1  0.372250  0.875318  0.877157  1
  Zn  Zn14  1  0.000000  0.500000  0.000000  1
  Zn  Zn15  1  0.334732  0.332999  0.334768  1
  Zn  Zn16  1  0.665269  0.667001  0.665230  1
  Zn  Zn17  1  0.341081  0.331577  0.995753  1
  Zn  Zn18  1  0.334787  0.997504  0.334731  1
  Zn  Zn19  1  0.658920  0.668423  0.004245  1
  Zn  Zn20  1  0.665210  0.002497  0.665269  1
  Zn  Zn21  1  0.995738  0.331635  0.341061  1
  Zn  Zn22  1  0.004262  0.668365  0.658939  1
  Zn  Zn23  1  0.000000  0.999998  0.000003  1
  Co  Co24  1  0.500001  0.000000  0.000000  1
  Co  Co25  1  0.000001  0.500000  0.500000  1
  Co  Co26  1  0.499997  0.000000  0.500002  1
  Co  Co27  1  0.999998  0.000001  0.500001  1
  Co  Co28  1  0.500002  0.499999  0.999998  1
  S  S29  1  0.500000  0.500000  0.500000  1
