# generated using pymatgen
data_Tm12InFe3Ni
_symmetry_space_group_name_H-M   'P 1'
_cell_length_a   8.10945408
_cell_length_b   8.10945327
_cell_length_c   8.10945265
_cell_angle_alpha   106.91255978
_cell_angle_beta   111.27545542
_cell_angle_gamma   110.25727123
_symmetry_Int_Tables_number   1
_chemical_formula_structural   Tm12InFe3Ni
_chemical_formula_sum   'Tm12 In1 Fe3 Ni1'
_cell_volume   409.89292597
_cell_formula_units_Z   1
loop_
 _symmetry_equiv_pos_site_id
 _symmetry_equiv_pos_as_xyz
  1  'x, y, z'
loop_
 _atom_site_type_symbol
 _atom_site_label
 _atom_site_symmetry_multiplicity
 _atom_site_fract_x
 _atom_site_fract_y
 _atom_site_fract_z
 _atom_site_occupancy
  Tm  Tm0  1  0.187283  0.405677  0.218394  1
  Tm  Tm1  1  0.812717  0.594323  0.781606  1
  Tm  Tm2  1  0.187283  0.968889  0.781606  1
  Tm  Tm3  1  0.914565  0.189328  0.725236  1
  Tm  Tm4  1  0.812717  0.031111  0.218394  1
  Tm  Tm5  1  0.085435  0.810672  0.274764  1
  Tm  Tm6  1  0.464092  0.189328  0.274764  1
  Tm  Tm7  1  0.535908  0.810672  0.725236  1
  Tm  Tm8  1  0.309992  0.308494  0.618487  1
  Tm  Tm9  1  0.690008  0.691506  0.381513  1
  Tm  Tm10  1  0.690008  0.308494  0.998503  1
  Tm  Tm11  1  0.309992  0.691506  0.001497  1
  In  In12  1  0.000000  0.500000  0.500000  1
  Fe  Fe13  1  0.380308  0.380308  0.000000  1
  Fe  Fe14  1  0.619692  0.619692  0.000000  1
  Fe  Fe15  1  0.000000  0.000000  0.000000  1
  Ni  Ni16  1  0.500000  0.000000  0.500000  1
