# generated using pymatgen
data_LuHf3(Al3Ir)6
_symmetry_space_group_name_H-M   'P 1'
_cell_length_a   7.47826476
_cell_length_b   7.47165704
_cell_length_c   9.25785800
_cell_angle_alpha   90.00000000
_cell_angle_beta   90.00000000
_cell_angle_gamma   119.82309468
_symmetry_Int_Tables_number   1
_chemical_formula_structural   LuHf3(Al3Ir)6
_chemical_formula_sum   'Lu1 Hf3 Al18 Ir6'
_cell_volume   448.77673668
_cell_formula_units_Z   1
loop_
 _symmetry_equiv_pos_site_id
 _symmetry_equiv_pos_as_xyz
  1  'x, y, z'
loop_
 _atom_site_type_symbol
 _atom_site_label
 _atom_site_symmetry_multiplicity
 _atom_site_fract_x
 _atom_site_fract_y
 _atom_site_fract_z
 _atom_site_occupancy
  Lu  Lu0  1  0.329393  0.005235  0.750000  1
  Hf  Hf1  1  0.994815  0.671105  0.250000  1
  Hf  Hf2  1  0.005311  0.329748  0.750000  1
  Hf  Hf3  1  0.670867  0.994673  0.250000  1
  Al  Al4  1  0.123242  0.123994  0.250000  1
  Al  Al5  1  0.873051  0.875785  0.750000  1
  Al  Al6  1  0.997949  0.334366  0.077030  1
  Al  Al7  1  0.000295  0.663511  0.924409  1
  Al  Al8  1  0.000295  0.663511  0.575591  1
  Al  Al9  1  0.334585  0.998422  0.420801  1
  Al  Al10  1  0.997949  0.334366  0.422970  1
  Al  Al11  1  0.667477  0.002032  0.575644  1
  Al  Al12  1  0.667477  0.002032  0.924356  1
  Al  Al13  1  0.334585  0.998422  0.079199  1
  Al  Al14  1  0.331339  0.333165  0.558108  1
  Al  Al15  1  0.668201  0.668117  0.439831  1
  Al  Al16  1  0.668201  0.668117  0.060169  1
  Al  Al17  1  0.331339  0.333165  0.941892  1
  Al  Al18  1  0.338350  0.551723  0.250000  1
  Al  Al19  1  0.665204  0.451824  0.750000  1
  Al  Al20  1  0.552574  0.339049  0.250000  1
  Al  Al21  1  0.447739  0.658046  0.750000  1
  Ir  Ir22  1  0.672788  0.327450  0.000995  1
  Ir  Ir23  1  0.327808  0.673444  0.001308  1
  Ir  Ir24  1  0.327808  0.673444  0.498692  1
  Ir  Ir25  1  0.672788  0.327450  0.499005  1
  Ir  Ir26  1  0.999285  0.998901  0.001182  1
  Ir  Ir27  1  0.999285  0.998901  0.498818  1
