# generated using pymatgen
data_Er5Si6P6Os3Rh16
_symmetry_space_group_name_H-M   'P 1'
_cell_length_a   12.73622800
_cell_length_b   12.73622764
_cell_length_c   3.93496300
_cell_angle_alpha   90.00000000
_cell_angle_beta   90.00000000
_cell_angle_gamma   120.00000614
_symmetry_Int_Tables_number   1
_chemical_formula_structural   Er5Si6P6Os3Rh16
_chemical_formula_sum   'Er5 Si6 P6 Os3 Rh16'
_cell_volume   552.78073079
_cell_formula_units_Z   1
loop_
 _symmetry_equiv_pos_site_id
 _symmetry_equiv_pos_as_xyz
  1  'x, y, z'
loop_
 _atom_site_type_symbol
 _atom_site_label
 _atom_site_symmetry_multiplicity
 _atom_site_fract_x
 _atom_site_fract_y
 _atom_site_fract_z
 _atom_site_occupancy
  Er  Er0  1  0.666667  0.333333  0.000000  1
  Er  Er1  1  0.333333  0.666667  0.000000  1
  Er  Er2  1  0.816584  0.814890  0.500000  1
  Er  Er3  1  0.185110  0.001692  0.500000  1
  Er  Er4  1  0.998308  0.183416  0.500000  1
  Si  Si5  1  0.683629  0.160907  0.500000  1
  Si  Si6  1  0.839093  0.522721  0.500000  1
  Si  Si7  1  0.477279  0.316371  0.500000  1
  Si  Si8  1  0.631381  0.629692  0.000000  1
  Si  Si9  1  0.370308  0.001690  0.000000  1
  Si  Si10  1  0.998310  0.368619  0.000000  1
  P  P11  1  0.173569  0.693088  0.500000  1
  P  P12  1  0.519518  0.826431  0.500000  1
  P  P13  1  0.306912  0.480482  0.500000  1
  P  P14  1  0.178190  0.181404  0.000000  1
  P  P15  1  0.818596  0.996786  0.000000  1
  P  P16  1  0.003214  0.821810  0.000000  1
  Os  Os17  1  0.275567  0.283177  0.500000  1
  Os  Os18  1  0.716823  0.992390  0.500000  1
  Os  Os19  1  0.007610  0.724433  0.500000  1
  Rh  Rh20  1  0.808196  0.178593  0.000000  1
  Rh  Rh21  1  0.821407  0.629602  0.000000  1
  Rh  Rh22  1  0.370398  0.191804  0.000000  1
  Rh  Rh23  1  0.185552  0.803726  0.000000  1
  Rh  Rh24  1  0.618174  0.814448  0.000000  1
  Rh  Rh25  1  0.196274  0.381826  0.000000  1
  Rh  Rh26  1  0.449452  0.442250  0.000000  1
  Rh  Rh27  1  0.557750  0.007202  0.000000  1
  Rh  Rh28  1  0.992798  0.550548  0.000000  1
  Rh  Rh29  1  0.870913  0.355965  0.500000  1
  Rh  Rh30  1  0.644035  0.514948  0.500000  1
  Rh  Rh31  1  0.485052  0.129087  0.500000  1
  Rh  Rh32  1  0.366632  0.872832  0.500000  1
  Rh  Rh33  1  0.506201  0.633368  0.500000  1
  Rh  Rh34  1  0.127168  0.493799  0.500000  1
  Rh  Rh35  1  0.000000  0.000000  0.000000  1
