# generated using pymatgen
data_YNp6BiF30
_symmetry_space_group_name_H-M   'P 1'
_cell_length_a   8.65138540
_cell_length_b   8.65138525
_cell_length_c   8.66142985
_cell_angle_alpha   79.53819944
_cell_angle_beta   79.53819469
_cell_angle_gamma   100.16931157
_symmetry_Int_Tables_number   1
_chemical_formula_structural   YNp6BiF30
_chemical_formula_sum   'Y1 Np6 Bi1 F30'
_cell_volume   612.01035518
_cell_formula_units_Z   1
loop_
 _symmetry_equiv_pos_site_id
 _symmetry_equiv_pos_as_xyz
  1  'x, y, z'
loop_
 _atom_site_type_symbol
 _atom_site_label
 _atom_site_symmetry_multiplicity
 _atom_site_fract_x
 _atom_site_fract_y
 _atom_site_fract_z
 _atom_site_occupancy
  Y  Y0  1  0.177217  0.822783  0.250000  1
  Np  Np1  1  0.749413  0.250587  0.250000  1
  Np  Np2  1  0.250378  0.749622  0.750000  1
  Np  Np3  1  0.755153  0.677460  0.675413  1
  Np  Np4  1  0.322540  0.244847  0.824587  1
  Np  Np5  1  0.246828  0.323174  0.322228  1
  Np  Np6  1  0.676826  0.753172  0.177772  1
  Bi  Bi7  1  0.822633  0.177367  0.750000  1
  F  F8  1  0.468108  0.531892  0.250000  1
  F  F9  1  0.752323  0.961626  0.971840  1
  F  F10  1  0.038374  0.247677  0.528160  1
  F  F11  1  0.246658  0.034754  0.032352  1
  F  F12  1  0.965246  0.753342  0.467648  1
  F  F13  1  0.534634  0.465366  0.750000  1
  F  F14  1  0.220905  0.490241  0.778995  1
  F  F15  1  0.222183  0.722971  0.007393  1
  F  F16  1  0.987506  0.722012  0.784308  1
  F  F17  1  0.720423  0.987412  0.284556  1
  F  F18  1  0.715991  0.224174  0.506724  1
  F  F19  1  0.490387  0.220660  0.277881  1
  F  F20  1  0.779341  0.509613  0.222119  1
  F  F21  1  0.775826  0.284009  0.993276  1
  F  F22  1  0.012588  0.279577  0.215444  1
  F  F23  1  0.277988  0.012494  0.715692  1
  F  F24  1  0.277029  0.777817  0.492607  1
  F  F25  1  0.509759  0.779095  0.721005  1
  F  F26  1  0.543560  0.151773  0.823746  1
  F  F27  1  0.189094  0.057617  0.338504  1
  F  F28  1  0.654725  0.676063  0.449817  1
  F  F29  1  0.677411  0.655969  0.948829  1
  F  F30  1  0.058449  0.186396  0.846204  1
  F  F31  1  0.159469  0.551144  0.317156  1
  F  F32  1  0.448856  0.840531  0.182844  1
  F  F33  1  0.813604  0.941551  0.653796  1
  F  F34  1  0.344031  0.322589  0.551171  1
  F  F35  1  0.323937  0.345275  0.050183  1
  F  F36  1  0.942383  0.810906  0.161496  1
  F  F37  1  0.848227  0.456440  0.676254  1
