# generated using pymatgen
data_YPaInRh2
_symmetry_space_group_name_H-M   'P 1'
_cell_length_a   7.78574900
_cell_length_b   7.63848500
_cell_length_c   3.64722500
_cell_angle_alpha   90.00000000
_cell_angle_beta   90.00000000
_cell_angle_gamma   90.00000000
_symmetry_Int_Tables_number   1
_chemical_formula_structural   YPaInRh2
_chemical_formula_sum   'Y2 Pa2 In2 Rh4'
_cell_volume   216.90531044
_cell_formula_units_Z   2
loop_
 _symmetry_equiv_pos_site_id
 _symmetry_equiv_pos_as_xyz
  1  'x, y, z'
loop_
 _atom_site_type_symbol
 _atom_site_label
 _atom_site_symmetry_multiplicity
 _atom_site_fract_x
 _atom_site_fract_y
 _atom_site_fract_z
 _atom_site_occupancy
  Y  Y0  1  0.171115  0.329767  0.500000  1
  Y  Y1  1  0.671115  0.170233  0.500000  1
  Pa  Pa2  1  0.322938  0.837652  0.500000  1
  Pa  Pa3  1  0.822938  0.662348  0.500000  1
  In  In4  1  0.491339  0.489096  0.000000  1
  In  In5  1  0.991339  0.010904  0.000000  1
  Rh  Rh6  1  0.370480  0.094614  0.000000  1
  Rh  Rh7  1  0.644128  0.842643  0.000000  1
  Rh  Rh8  1  0.870480  0.405386  0.000000  1
  Rh  Rh9  1  0.144128  0.657357  0.000000  1
