# generated using pymatgen
data_Tb9Dy4Er7Pb16
_symmetry_space_group_name_H-M   'P 1'
_cell_length_a   8.19777016
_cell_length_b   8.28196278
_cell_length_c   15.63321800
_cell_angle_alpha   90.00521287
_cell_angle_beta   90.01246760
_cell_angle_gamma   90.06245363
_symmetry_Int_Tables_number   1
_chemical_formula_structural   Tb9Dy4Er7Pb16
_chemical_formula_sum   'Tb9 Dy4 Er7 Pb16'
_cell_volume   1061.39521764
_cell_formula_units_Z   1
loop_
 _symmetry_equiv_pos_site_id
 _symmetry_equiv_pos_as_xyz
  1  'x, y, z'
loop_
 _atom_site_type_symbol
 _atom_site_label
 _atom_site_symmetry_multiplicity
 _atom_site_fract_x
 _atom_site_fract_y
 _atom_site_fract_z
 _atom_site_occupancy
  Tb  Tb0  1  0.876681  0.659358  0.879549  1
  Tb  Tb1  1  0.534237  0.322807  0.900218  1
  Tb  Tb2  1  0.034459  0.176876  0.599676  1
  Tb  Tb3  1  0.465632  0.676931  0.400142  1
  Tb  Tb4  1  0.965567  0.823417  0.100299  1
  Tb  Tb5  1  0.465930  0.676820  0.099959  1
  Tb  Tb6  1  0.965616  0.823014  0.400047  1
  Tb  Tb7  1  0.534176  0.322862  0.599844  1
  Tb  Tb8  1  0.034369  0.176760  0.899988  1
  Dy  Dy9  1  0.376385  0.840777  0.878995  1
  Dy  Dy10  1  0.876448  0.659017  0.620800  1
  Dy  Dy11  1  0.623616  0.159005  0.379103  1
  Dy  Dy12  1  0.123436  0.341089  0.120805  1
  Er  Er13  1  0.623413  0.158874  0.121247  1
  Er  Er14  1  0.123635  0.340953  0.379083  1
  Er  Er15  1  0.376550  0.841103  0.620716  1
  Er  Er16  1  0.208410  0.504319  0.749771  1
  Er  Er17  1  0.707956  0.995765  0.749741  1
  Er  Er18  1  0.791751  0.495374  0.250132  1
  Er  Er19  1  0.291718  0.004446  0.250021  1
  Pb  Pb20  1  0.282590  0.034136  0.042851  1
  Pb  Pb21  1  0.782737  0.465862  0.457130  1
  Pb  Pb22  1  0.717295  0.965884  0.542814  1
  Pb  Pb23  1  0.218954  0.533594  0.957282  1
  Pb  Pb24  1  0.716854  0.967365  0.957480  1
  Pb  Pb25  1  0.217656  0.534192  0.542613  1
  Pb  Pb26  1  0.282194  0.034226  0.457306  1
  Pb  Pb27  1  0.781867  0.465062  0.043483  1
  Pb  Pb28  1  0.570961  0.627245  0.749597  1
  Pb  Pb29  1  0.072069  0.873486  0.749520  1
  Pb  Pb30  1  0.428424  0.372756  0.250045  1
  Pb  Pb31  1  0.928640  0.127290  0.250032  1
  Pb  Pb32  1  0.345445  0.152251  0.749881  1
  Pb  Pb33  1  0.845408  0.347076  0.749772  1
  Pb  Pb34  1  0.654475  0.847574  0.249960  1
  Pb  Pb35  1  0.154446  0.652431  0.250100  1
