# generated using pymatgen
data_Ho8Tm11LuPb16
_symmetry_space_group_name_H-M   'P 1'
_cell_length_a   8.14373107
_cell_length_b   15.49447900
_cell_length_c   8.21509007
_cell_angle_alpha   90.00000000
_cell_angle_beta   90.01517959
_cell_angle_gamma   90.00000000
_symmetry_Int_Tables_number   1
_chemical_formula_structural   Ho8Tm11LuPb16
_chemical_formula_sum   'Ho8 Tm11 Lu1 Pb16'
_cell_volume   1036.60360678
_cell_formula_units_Z   1
loop_
 _symmetry_equiv_pos_site_id
 _symmetry_equiv_pos_as_xyz
  1  'x, y, z'
loop_
 _atom_site_type_symbol
 _atom_site_label
 _atom_site_symmetry_multiplicity
 _atom_site_fract_x
 _atom_site_fract_y
 _atom_site_fract_z
 _atom_site_occupancy
  Ho  Ho0  1  0.464254  0.599655  0.676771  1
  Ho  Ho1  1  0.964272  0.900382  0.823229  1
  Ho  Ho2  1  0.535801  0.099623  0.323143  1
  Ho  Ho3  1  0.035665  0.400366  0.176706  1
  Ho  Ho4  1  0.535801  0.400377  0.323143  1
  Ho  Ho5  1  0.035665  0.099634  0.176706  1
  Ho  Ho6  1  0.464254  0.900345  0.676771  1
  Ho  Ho7  1  0.964272  0.599618  0.823229  1
  Tm  Tm8  1  0.623504  0.621203  0.158621  1
  Tm  Tm9  1  0.123493  0.878763  0.341384  1
  Tm  Tm10  1  0.376656  0.121250  0.841484  1
  Tm  Tm11  1  0.876395  0.378768  0.658684  1
  Tm  Tm12  1  0.376656  0.378750  0.841484  1
  Tm  Tm13  1  0.876395  0.121232  0.658684  1
  Tm  Tm14  1  0.623504  0.878797  0.158621  1
  Tm  Tm15  1  0.123493  0.621237  0.341384  1
  Tm  Tm16  1  0.791994  0.750000  0.495477  1
  Tm  Tm17  1  0.291969  0.750000  0.004490  1
  Tm  Tm18  1  0.208001  0.250000  0.504499  1
  Lu  Lu19  1  0.708058  0.250000  0.995360  1
  Pb  Pb20  1  0.717770  0.457170  0.965857  1
  Pb  Pb21  1  0.217791  0.042683  0.534141  1
  Pb  Pb22  1  0.282207  0.957381  0.034176  1
  Pb  Pb23  1  0.782212  0.542624  0.465861  1
  Pb  Pb24  1  0.282207  0.542619  0.034176  1
  Pb  Pb25  1  0.782212  0.957376  0.465861  1
  Pb  Pb26  1  0.717770  0.042830  0.965857  1
  Pb  Pb27  1  0.217791  0.457317  0.534141  1
  Pb  Pb28  1  0.429133  0.750000  0.371997  1
  Pb  Pb29  1  0.929143  0.750000  0.128005  1
  Pb  Pb30  1  0.570964  0.250000  0.628144  1
  Pb  Pb31  1  0.070514  0.250000  0.872320  1
  Pb  Pb32  1  0.652831  0.750000  0.846426  1
  Pb  Pb33  1  0.152829  0.750000  0.653653  1
  Pb  Pb34  1  0.347301  0.250000  0.153702  1
  Pb  Pb35  1  0.847221  0.250000  0.345814  1
