# generated using pymatgen
data_Y15ErCd4TcNi3
_symmetry_space_group_name_H-M   'P 1'
_cell_length_a   9.63286867
_cell_length_b   9.63286984
_cell_length_c   9.63286901
_cell_angle_alpha   59.41984462
_cell_angle_beta   59.41983685
_cell_angle_gamma   59.41983420
_symmetry_Int_Tables_number   1
_chemical_formula_structural   Y15ErCd4TcNi3
_chemical_formula_sum   'Y15 Er1 Cd4 Tc1 Ni3'
_cell_volume   623.70721201
_cell_formula_units_Z   1
loop_
 _symmetry_equiv_pos_site_id
 _symmetry_equiv_pos_as_xyz
  1  'x, y, z'
loop_
 _atom_site_type_symbol
 _atom_site_label
 _atom_site_symmetry_multiplicity
 _atom_site_fract_x
 _atom_site_fract_y
 _atom_site_fract_z
 _atom_site_occupancy
  Y  Y0  1  0.602249  0.602249  0.203045  1
  Y  Y1  1  0.602249  0.203045  0.602249  1
  Y  Y2  1  0.203045  0.602249  0.602249  1
  Y  Y3  1  0.060095  0.438115  0.438115  1
  Y  Y4  1  0.437473  0.060492  0.060492  1
  Y  Y5  1  0.438115  0.060095  0.438115  1
  Y  Y6  1  0.060492  0.437473  0.060492  1
  Y  Y7  1  0.438115  0.438115  0.060095  1
  Y  Y8  1  0.060492  0.060492  0.437473  1
  Y  Y9  1  0.186868  0.814855  0.814855  1
  Y  Y10  1  0.805766  0.189154  0.189154  1
  Y  Y11  1  0.814855  0.186868  0.814855  1
  Y  Y12  1  0.189154  0.805766  0.189154  1
  Y  Y13  1  0.814855  0.814855  0.186868  1
  Y  Y14  1  0.189154  0.189154  0.805766  1
  Er  Er15  1  0.596734  0.596734  0.596734  1
  Cd  Cd16  1  0.829571  0.829571  0.829571  1
  Cd  Cd17  1  0.829278  0.829278  0.506288  1
  Cd  Cd18  1  0.829278  0.506288  0.829278  1
  Cd  Cd19  1  0.506288  0.829278  0.829278  1
  Tc  Tc20  1  0.393895  0.393895  0.393895  1
  Ni  Ni21  1  0.394136  0.394136  0.823703  1
  Ni  Ni22  1  0.394136  0.823703  0.394136  1
  Ni  Ni23  1  0.823703  0.394136  0.394136  1
