# generated using pymatgen
data_TaNb9(B2P)2
_symmetry_space_group_name_H-M   'P 1'
_cell_length_a   7.28028777
_cell_length_b   7.28028701
_cell_length_c   7.28028776
_cell_angle_alpha   129.36181750
_cell_angle_beta   129.36181171
_cell_angle_gamma   74.42909740
_symmetry_Int_Tables_number   1
_chemical_formula_structural   TaNb9(B2P)2
_chemical_formula_sum   'Ta1 Nb9 B4 P2'
_cell_volume   224.81195387
_cell_formula_units_Z   1
loop_
 _symmetry_equiv_pos_site_id
 _symmetry_equiv_pos_as_xyz
  1  'x, y, z'
loop_
 _atom_site_type_symbol
 _atom_site_label
 _atom_site_symmetry_multiplicity
 _atom_site_fract_x
 _atom_site_fract_y
 _atom_site_fract_z
 _atom_site_occupancy
  Ta  Ta0  1  0.000000  0.000000  0.000000  1
  Nb  Nb1  1  0.500000  0.500000  0.000000  1
  Nb  Nb2  1  0.808346  0.308675  0.836606  1
  Nb  Nb3  1  0.191654  0.691325  0.163394  1
  Nb  Nb4  1  0.472069  0.971740  0.163394  1
  Nb  Nb5  1  0.308675  0.472069  0.500329  1
  Nb  Nb6  1  0.028260  0.191654  0.500329  1
  Nb  Nb7  1  0.527931  0.028260  0.836606  1
  Nb  Nb8  1  0.691325  0.527931  0.499671  1
  Nb  Nb9  1  0.971740  0.808346  0.499671  1
  B  B10  1  0.113202  0.615305  0.728506  1
  B  B11  1  0.886798  0.384695  0.271494  1
  B  B12  1  0.615305  0.886798  0.502103  1
  B  B13  1  0.384695  0.113202  0.497897  1
  P  P14  1  0.249738  0.249738  0.000000  1
  P  P15  1  0.750262  0.750262  0.000000  1
