# generated using pymatgen
data_Tb16Tm4Ir11Au
_symmetry_space_group_name_H-M   'P 1'
_cell_length_a   10.98382396
_cell_length_b   10.98382396
_cell_length_c   6.35822835
_cell_angle_alpha   89.97394098
_cell_angle_beta   89.97394098
_cell_angle_gamma   89.66231971
_symmetry_Int_Tables_number   1
_chemical_formula_structural   Tb16Tm4Ir11Au
_chemical_formula_sum   'Tb16 Tm4 Ir11 Au1'
_cell_volume   767.07109218
_cell_formula_units_Z   1
loop_
 _symmetry_equiv_pos_site_id
 _symmetry_equiv_pos_as_xyz
  1  'x, y, z'
loop_
 _atom_site_type_symbol
 _atom_site_label
 _atom_site_symmetry_multiplicity
 _atom_site_fract_x
 _atom_site_fract_y
 _atom_site_fract_z
 _atom_site_occupancy
  Tb  Tb0  1  0.289672  0.087903  0.377587  1
  Tb  Tb1  1  0.291777  0.911630  0.876535  1
  Tb  Tb2  1  0.704905  0.084480  0.866034  1
  Tb  Tb3  1  0.706700  0.905195  0.380288  1
  Tb  Tb4  1  0.587356  0.789817  0.879290  1
  Tb  Tb5  1  0.579582  0.211326  0.379660  1
  Tb  Tb6  1  0.411547  0.790350  0.377745  1
  Tb  Tb7  1  0.410963  0.209900  0.878423  1
  Tb  Tb8  1  0.210183  0.412644  0.620710  1
  Tb  Tb9  1  0.209650  0.588453  0.122255  1
  Tb  Tb10  1  0.788674  0.420418  0.120340  1
  Tb  Tb11  1  0.790100  0.589037  0.621577  1
  Tb  Tb12  1  0.912097  0.710328  0.122413  1
  Tb  Tb13  1  0.915520  0.295095  0.633966  1
  Tb  Tb14  1  0.088370  0.708223  0.623465  1
  Tb  Tb15  1  0.094805  0.293300  0.119712  1
  Tm  Tm16  1  0.004186  0.995743  0.502034  1
  Tm  Tm17  1  0.004257  0.995814  0.997966  1
  Tm  Tm18  1  0.499339  0.499973  0.999080  1
  Tm  Tm19  1  0.500027  0.500661  0.500920  1
  Ir  Ir20  1  0.848701  0.850183  0.749657  1
  Ir  Ir21  1  0.149817  0.151299  0.750343  1
  Ir  Ir22  1  0.152546  0.847454  0.250000  1
  Ir  Ir23  1  0.652956  0.347044  0.750000  1
  Ir  Ir24  1  0.651581  0.650794  0.249107  1
  Ir  Ir25  1  0.349206  0.348419  0.250893  1
  Ir  Ir26  1  0.348347  0.651653  0.750000  1
  Ir  Ir27  1  0.500914  0.000320  0.124657  1
  Ir  Ir28  1  0.499896  0.000461  0.621343  1
  Ir  Ir29  1  0.999539  0.500104  0.878657  1
  Ir  Ir30  1  0.999680  0.499086  0.375343  1
  Au  Au31  1  0.847107  0.152893  0.250000  1
