# generated using pymatgen
data_Hf4Zr6Zn2(SnSb)3
_symmetry_space_group_name_H-M   'P 1'
_cell_length_a   8.66691700
_cell_length_b   8.66577560
_cell_length_c   5.83931000
_cell_angle_alpha   90.00000000
_cell_angle_beta   90.00000000
_cell_angle_gamma   120.00436097
_symmetry_Int_Tables_number   1
_chemical_formula_structural   Hf4Zr6Zn2(SnSb)3
_chemical_formula_sum   'Hf4 Zr6 Zn2 Sn3 Sb3'
_cell_volume   379.79142375
_cell_formula_units_Z   1
loop_
 _symmetry_equiv_pos_site_id
 _symmetry_equiv_pos_as_xyz
  1  'x, y, z'
loop_
 _atom_site_type_symbol
 _atom_site_label
 _atom_site_symmetry_multiplicity
 _atom_site_fract_x
 _atom_site_fract_y
 _atom_site_fract_z
 _atom_site_occupancy
  Hf  Hf0  1  0.333566  0.666618  0.499686  1
  Hf  Hf1  1  0.666950  0.333382  0.000314  1
  Hf  Hf2  1  0.666950  0.333382  0.499686  1
  Hf  Hf3  1  0.333566  0.666618  0.000314  1
  Zr  Zr4  1  0.730765  0.731020  0.250000  1
  Zr  Zr5  1  0.731081  0.000000  0.750000  1
  Zr  Zr6  1  0.999746  0.268980  0.250000  1
  Zr  Zr7  1  0.999646  0.730766  0.750000  1
  Zr  Zr8  1  0.268879  0.269234  0.750000  1
  Zr  Zr9  1  0.269181  0.000000  0.250000  1
  Zn  Zn10  1  0.001144  0.000000  0.000481  1
  Zn  Zn11  1  0.001144  0.000000  0.499519  1
  Sn  Sn12  1  0.384411  0.000000  0.750000  1
  Sn  Sn13  1  0.384794  0.384521  0.250000  1
  Sn  Sn14  1  0.000273  0.615479  0.250000  1
  Sb  Sb15  1  0.000451  0.386521  0.750000  1
  Sb  Sb16  1  0.613929  0.613479  0.750000  1
  Sb  Sb17  1  0.613523  0.000000  0.250000  1
