# generated using pymatgen
data_Dy3Th(TiAl3)2
_symmetry_space_group_name_H-M   'P 1'
_cell_length_a   9.62602057
_cell_length_b   9.62602024
_cell_length_c   9.62602089
_cell_angle_alpha   34.44042533
_cell_angle_beta   34.44042569
_cell_angle_gamma   34.44042954
_symmetry_Int_Tables_number   1
_chemical_formula_structural   Dy3Th(TiAl3)2
_chemical_formula_sum   'Dy3 Th1 Ti2 Al6'
_cell_volume   254.48495603
_cell_formula_units_Z   1
loop_
 _symmetry_equiv_pos_site_id
 _symmetry_equiv_pos_as_xyz
  1  'x, y, z'
loop_
 _atom_site_type_symbol
 _atom_site_label
 _atom_site_symmetry_multiplicity
 _atom_site_fract_x
 _atom_site_fract_y
 _atom_site_fract_z
 _atom_site_occupancy
  Dy  Dy0  1  0.313550  0.313550  0.313550  1
  Dy  Dy1  1  0.685247  0.685247  0.685247  1
  Dy  Dy2  1  0.187005  0.187005  0.187005  1
  Th  Th3  1  0.814129  0.814129  0.814129  1
  Ti  Ti4  1  0.500217  0.500217  0.500217  1
  Ti  Ti5  1  0.000216  0.000216  0.000216  1
  Al  Al6  1  0.249645  0.249645  0.748767  1
  Al  Al7  1  0.750360  0.750360  0.250858  1
  Al  Al8  1  0.249645  0.748767  0.249645  1
  Al  Al9  1  0.750360  0.250858  0.750360  1
  Al  Al10  1  0.748767  0.249645  0.249645  1
  Al  Al11  1  0.250858  0.750360  0.750360  1
