# generated using pymatgen
data_Nd4B4Ir7Rh3
_symmetry_space_group_name_H-M   'P 1'
_cell_length_a   5.54460000
_cell_length_b   5.54460080
_cell_length_c   21.25139000
_cell_angle_alpha   90.00000000
_cell_angle_beta   90.00000000
_cell_angle_gamma   119.99886630
_symmetry_Int_Tables_number   1
_chemical_formula_structural   Nd4B4Ir7Rh3
_chemical_formula_sum   'Nd8 B8 Ir14 Rh6'
_cell_volume   565.80064554
_cell_formula_units_Z   2
loop_
 _symmetry_equiv_pos_site_id
 _symmetry_equiv_pos_as_xyz
  1  'x, y, z'
loop_
 _atom_site_type_symbol
 _atom_site_label
 _atom_site_symmetry_multiplicity
 _atom_site_fract_x
 _atom_site_fract_y
 _atom_site_fract_z
 _atom_site_occupancy
  Nd  Nd0  1  0.666658  0.333342  0.522222  1
  Nd  Nd1  1  0.333342  0.666658  0.477778  1
  Nd  Nd2  1  0.333342  0.666658  0.022222  1
  Nd  Nd3  1  0.666658  0.333342  0.977778  1
  Nd  Nd4  1  0.666646  0.333354  0.674890  1
  Nd  Nd5  1  0.333354  0.666646  0.325110  1
  Nd  Nd6  1  0.333354  0.666646  0.174890  1
  Nd  Nd7  1  0.666646  0.333354  0.825110  1
  B  B8  1  0.999967  0.000033  0.677496  1
  B  B9  1  0.000033  0.999967  0.322504  1
  B  B10  1  0.000033  0.999967  0.177496  1
  B  B11  1  0.999967  0.000033  0.822504  1
  B  B12  1  0.666691  0.333309  0.326157  1
  B  B13  1  0.333309  0.666691  0.673843  1
  B  B14  1  0.333309  0.666691  0.826157  1
  B  B15  1  0.666691  0.333309  0.173843  1
  Ir  Ir16  1  0.000000  0.000000  0.500000  1
  Ir  Ir17  1  0.000000  0.000000  0.000000  1
  Ir  Ir18  1  0.162798  0.325675  0.608338  1
  Ir  Ir19  1  0.162798  0.837202  0.608343  1
  Ir  Ir20  1  0.674325  0.837202  0.608338  1
  Ir  Ir21  1  0.837202  0.674325  0.391662  1
  Ir  Ir22  1  0.837202  0.162798  0.391657  1
  Ir  Ir23  1  0.325675  0.162798  0.391662  1
  Ir  Ir24  1  0.837202  0.674325  0.108338  1
  Ir  Ir25  1  0.837202  0.162798  0.108343  1
  Ir  Ir26  1  0.325675  0.162798  0.108338  1
  Ir  Ir27  1  0.162798  0.325675  0.891662  1
  Ir  Ir28  1  0.162798  0.837202  0.891657  1
  Ir  Ir29  1  0.674325  0.837202  0.891662  1
  Rh  Rh30  1  0.167605  0.335278  0.750000  1
  Rh  Rh31  1  0.167603  0.832397  0.750000  1
  Rh  Rh32  1  0.664722  0.832395  0.750000  1
  Rh  Rh33  1  0.832395  0.664722  0.250000  1
  Rh  Rh34  1  0.832397  0.167603  0.250000  1
  Rh  Rh35  1  0.335278  0.167605  0.250000  1
