# generated using pymatgen
data_Gd2DyHoB16
_symmetry_space_group_name_H-M   'P 1'
_cell_length_a   7.13067362
_cell_length_b   7.13038085
_cell_length_c   4.03980800
_cell_angle_alpha   90.00000000
_cell_angle_beta   90.00000000
_cell_angle_gamma   90.03252406
_symmetry_Int_Tables_number   1
_chemical_formula_structural   Gd2DyHoB16
_chemical_formula_sum   'Gd2 Dy1 Ho1 B16'
_cell_volume   205.40165623
_cell_formula_units_Z   1
loop_
 _symmetry_equiv_pos_site_id
 _symmetry_equiv_pos_as_xyz
  1  'x, y, z'
loop_
 _atom_site_type_symbol
 _atom_site_label
 _atom_site_symmetry_multiplicity
 _atom_site_fract_x
 _atom_site_fract_y
 _atom_site_fract_z
 _atom_site_occupancy
  Gd  Gd0  1  0.182757  0.682851  0.000000  1
  Gd  Gd1  1  0.317252  0.182752  0.000000  1
  Dy  Dy2  1  0.817679  0.317710  0.000000  1
  Ho  Ho3  1  0.682552  0.817299  0.000000  1
  B  B4  1  0.324623  0.461685  0.500000  1
  B  B5  1  0.676793  0.538974  0.500000  1
  B  B6  1  0.539527  0.323836  0.500000  1
  B  B7  1  0.462391  0.676026  0.500000  1
  B  B8  1  0.998753  0.999894  0.203315  1
  B  B9  1  0.501109  0.499917  0.796686  1
  B  B10  1  0.998753  0.999894  0.796685  1
  B  B11  1  0.501109  0.499917  0.203314  1
  B  B12  1  0.587000  0.086359  0.500000  1
  B  B13  1  0.086682  0.413005  0.500000  1
  B  B14  1  0.913017  0.586675  0.500000  1
  B  B15  1  0.413272  0.912618  0.500000  1
  B  B16  1  0.037735  0.176220  0.500000  1
  B  B17  1  0.175458  0.961649  0.500000  1
  B  B18  1  0.823242  0.038638  0.500000  1
  B  B19  1  0.960297  0.824083  0.500000  1
