# generated using pymatgen
data_LiDy7Ho9Cd3Ir4
_symmetry_space_group_name_H-M   'P 1'
_cell_length_a   9.63444637
_cell_length_b   9.63444693
_cell_length_c   9.63591975
_cell_angle_alpha   59.72854299
_cell_angle_beta   59.72854131
_cell_angle_gamma   59.74740826
_symmetry_Int_Tables_number   1
_chemical_formula_structural   LiDy7Ho9Cd3Ir4
_chemical_formula_sum   'Li1 Dy7 Ho9 Cd3 Ir4'
_cell_volume   628.64935075
_cell_formula_units_Z   1
loop_
 _symmetry_equiv_pos_site_id
 _symmetry_equiv_pos_as_xyz
  1  'x, y, z'
loop_
 _atom_site_type_symbol
 _atom_site_label
 _atom_site_symmetry_multiplicity
 _atom_site_fract_x
 _atom_site_fract_y
 _atom_site_fract_z
 _atom_site_occupancy
  Li  Li0  1  0.820997  0.820997  0.821112  1
  Dy  Dy1  1  0.062717  0.062717  0.435459  1
  Dy  Dy2  1  0.188847  0.811555  0.811795  1
  Dy  Dy3  1  0.812678  0.186355  0.186102  1
  Dy  Dy4  1  0.811555  0.188847  0.811795  1
  Dy  Dy5  1  0.186355  0.812678  0.186102  1
  Dy  Dy6  1  0.811627  0.811627  0.188903  1
  Dy  Dy7  1  0.186213  0.186213  0.812832  1
  Ho  Ho8  1  0.600379  0.600379  0.600408  1
  Ho  Ho9  1  0.597857  0.597857  0.207246  1
  Ho  Ho10  1  0.597432  0.207572  0.597805  1
  Ho  Ho11  1  0.207572  0.597432  0.597805  1
  Ho  Ho12  1  0.061032  0.439696  0.439406  1
  Ho  Ho13  1  0.435298  0.062868  0.062703  1
  Ho  Ho14  1  0.439696  0.061032  0.439406  1
  Ho  Ho15  1  0.062868  0.435298  0.062703  1
  Ho  Ho16  1  0.439453  0.439453  0.061038  1
  Cd  Cd17  1  0.832123  0.832123  0.507350  1
  Cd  Cd18  1  0.832131  0.507331  0.832193  1
  Cd  Cd19  1  0.507331  0.832131  0.832193  1
  Ir  Ir20  1  0.392140  0.392140  0.392113  1
  Ir  Ir21  1  0.393922  0.393922  0.825688  1
  Ir  Ir22  1  0.394441  0.825335  0.393923  1
  Ir  Ir23  1  0.825335  0.394441  0.393923  1
