# generated using pymatgen
data_Ba2TbGd3(Si3O10)2
_symmetry_space_group_name_H-M   'P 1'
_cell_length_a   5.49728810
_cell_length_b   12.40172199
_cell_length_c   6.98533359
_cell_angle_alpha   90.04008332
_cell_angle_beta   106.33682463
_cell_angle_gamma   89.96655867
_symmetry_Int_Tables_number   1
_chemical_formula_structural   Ba2TbGd3(Si3O10)2
_chemical_formula_sum   'Ba2 Tb1 Gd3 Si6 O20'
_cell_volume   457.00286144
_cell_formula_units_Z   1
loop_
 _symmetry_equiv_pos_site_id
 _symmetry_equiv_pos_as_xyz
  1  'x, y, z'
loop_
 _atom_site_type_symbol
 _atom_site_label
 _atom_site_symmetry_multiplicity
 _atom_site_fract_x
 _atom_site_fract_y
 _atom_site_fract_z
 _atom_site_occupancy
  Ba  Ba0  1  0.765072  0.250547  0.014256  1
  Ba  Ba1  1  0.234803  0.749136  0.985349  1
  Tb  Tb2  1  0.839272  0.598455  0.313767  1
  Gd  Gd3  1  0.838417  0.901923  0.312892  1
  Gd  Gd4  1  0.161026  0.097605  0.686940  1
  Gd  Gd5  1  0.160981  0.403039  0.686414  1
  Si  Si6  1  0.304997  0.063573  0.215370  1
  Si  Si7  1  0.305553  0.437383  0.215502  1
  Si  Si8  1  0.583648  0.249994  0.489175  1
  Si  Si9  1  0.415621  0.749284  0.510707  1
  Si  Si10  1  0.695908  0.563680  0.785477  1
  Si  Si11  1  0.694452  0.935972  0.784161  1
  O  O12  1  0.168585  0.125162  0.006882  1
  O  O13  1  0.168199  0.376177  0.006566  1
  O  O14  1  0.434236  0.552310  0.191089  1
  O  O15  1  0.428764  0.947425  0.190019  1
  O  O16  1  0.548186  0.143163  0.340943  1
  O  O17  1  0.546356  0.356504  0.340725  1
  O  O18  1  0.101767  0.052691  0.349627  1
  O  O19  1  0.101699  0.449834  0.349326  1
  O  O20  1  0.123485  0.748234  0.366450  1
  O  O21  1  0.621136  0.748891  0.381430  1
  O  O22  1  0.378203  0.250011  0.618331  1
  O  O23  1  0.875412  0.250287  0.633589  1
  O  O24  1  0.896627  0.553917  0.648508  1
  O  O25  1  0.897889  0.946722  0.650025  1
  O  O26  1  0.452387  0.643702  0.661619  1
  O  O27  1  0.451105  0.856652  0.657641  1
  O  O28  1  0.570964  0.052056  0.809936  1
  O  O29  1  0.571487  0.447538  0.808985  1
  O  O30  1  0.833128  0.623801  0.995528  1
  O  O31  1  0.830634  0.874332  0.992766  1
