# generated using pymatgen
data_SmCuHgPt3
_symmetry_space_group_name_H-M   'P 1'
_cell_length_a   5.23897966
_cell_length_b   5.23897840
_cell_length_c   5.23897842
_cell_angle_alpha   63.14585367
_cell_angle_beta   63.14586065
_cell_angle_gamma   63.14584074
_symmetry_Int_Tables_number   1
_chemical_formula_structural   SmCuHgPt3
_chemical_formula_sum   'Sm1 Cu1 Hg1 Pt3'
_cell_volume   108.77057546
_cell_formula_units_Z   1
loop_
 _symmetry_equiv_pos_site_id
 _symmetry_equiv_pos_as_xyz
  1  'x, y, z'
loop_
 _atom_site_type_symbol
 _atom_site_label
 _atom_site_symmetry_multiplicity
 _atom_site_fract_x
 _atom_site_fract_y
 _atom_site_fract_z
 _atom_site_occupancy
  Sm  Sm0  1  0.001158  0.001158  0.001158  1
  Cu  Cu1  1  0.624080  0.624080  0.624080  1
  Hg  Hg2  1  0.251943  0.251943  0.251943  1
  Pt  Pt3  1  0.623611  0.623611  0.125597  1
  Pt  Pt4  1  0.623611  0.125597  0.623611  1
  Pt  Pt5  1  0.125597  0.623611  0.623611  1
