# generated using pymatgen
data_TbHo2Cu6Ni7B2
_symmetry_space_group_name_H-M   'P 1'
_cell_length_a   5.03070301
_cell_length_b   5.03117940
_cell_length_c   10.96660500
_cell_angle_alpha   90.00000000
_cell_angle_beta   90.00000000
_cell_angle_gamma   120.00312465
_symmetry_Int_Tables_number   1
_chemical_formula_structural   TbHo2Cu6Ni7B2
_chemical_formula_sum   'Tb1 Ho2 Cu6 Ni7 B2'
_cell_volume   240.37408330
_cell_formula_units_Z   1
loop_
 _symmetry_equiv_pos_site_id
 _symmetry_equiv_pos_as_xyz
  1  'x, y, z'
loop_
 _atom_site_type_symbol
 _atom_site_label
 _atom_site_symmetry_multiplicity
 _atom_site_fract_x
 _atom_site_fract_y
 _atom_site_fract_z
 _atom_site_occupancy
  Tb  Tb0  1  0.000000  0.000000  0.678749  1
  Ho  Ho1  1  0.000000  0.000000  0.000757  1
  Ho  Ho2  1  0.000000  0.000000  0.320754  1
  Cu  Cu3  1  0.500000  0.500000  0.499439  1
  Cu  Cu4  1  0.500000  0.000000  0.499439  1
  Cu  Cu5  1  0.668982  0.334491  0.684686  1
  Cu  Cu6  1  0.331018  0.665509  0.684686  1
  Cu  Cu7  1  0.331076  0.665539  0.315274  1
  Cu  Cu8  1  0.668924  0.334461  0.315274  1
  Ni  Ni9  1  0.000000  0.500000  0.499403  1
  Ni  Ni10  1  0.500000  0.500000  0.870842  1
  Ni  Ni11  1  0.500000  0.000000  0.870842  1
  Ni  Ni12  1  0.000000  0.500000  0.870868  1
  Ni  Ni13  1  0.500000  0.500000  0.129592  1
  Ni  Ni14  1  0.500000  0.000000  0.129592  1
  Ni  Ni15  1  0.000000  0.500000  0.129636  1
  B  B16  1  0.666295  0.333148  0.000083  1
  B  B17  1  0.333705  0.666852  0.000083  1
