# generated using pymatgen
data_LiCePrAlIr2
_symmetry_space_group_name_H-M   'P 1'
_cell_length_a   7.06371800
_cell_length_b   4.07126800
_cell_length_c   8.51387700
_cell_angle_alpha   90.00000000
_cell_angle_beta   90.00000000
_cell_angle_gamma   90.00000000
_symmetry_Int_Tables_number   1
_chemical_formula_structural   LiCePrAlIr2
_chemical_formula_sum   'Li2 Ce2 Pr2 Al2 Ir4'
_cell_volume   244.84453574
_cell_formula_units_Z   2
loop_
 _symmetry_equiv_pos_site_id
 _symmetry_equiv_pos_as_xyz
  1  'x, y, z'
loop_
 _atom_site_type_symbol
 _atom_site_label
 _atom_site_symmetry_multiplicity
 _atom_site_fract_x
 _atom_site_fract_y
 _atom_site_fract_z
 _atom_site_occupancy
  Li  Li0  1  0.131694  0.750000  0.449165  1
  Li  Li1  1  0.631694  0.750000  0.050835  1
  Ce  Ce2  1  0.038396  0.750000  0.818492  1
  Ce  Ce3  1  0.538396  0.750000  0.681508  1
  Pr  Pr4  1  0.952184  0.250000  0.187096  1
  Pr  Pr5  1  0.452184  0.250000  0.312904  1
  Al  Al6  1  0.875749  0.250000  0.559639  1
  Al  Al7  1  0.375749  0.250000  0.940361  1
  Ir  Ir8  1  0.747100  0.250000  0.853218  1
  Ir  Ir9  1  0.247100  0.250000  0.646782  1
  Ir  Ir10  1  0.254877  0.750000  0.095080  1
  Ir  Ir11  1  0.754877  0.750000  0.404920  1
