# generated using pymatgen
data_LiZr(B4Ir3)2
_symmetry_space_group_name_H-M   'P 1'
_cell_length_a   7.54933000
_cell_length_b   7.54933038
_cell_length_c   3.49094000
_cell_angle_alpha   90.00000000
_cell_angle_beta   90.00000000
_cell_angle_gamma   119.99999834
_symmetry_Int_Tables_number   1
_chemical_formula_structural   LiZr(B4Ir3)2
_chemical_formula_sum   'Li1 Zr1 B8 Ir6'
_cell_volume   172.30182009
_cell_formula_units_Z   1
loop_
 _symmetry_equiv_pos_site_id
 _symmetry_equiv_pos_as_xyz
  1  'x, y, z'
loop_
 _atom_site_type_symbol
 _atom_site_label
 _atom_site_symmetry_multiplicity
 _atom_site_fract_x
 _atom_site_fract_y
 _atom_site_fract_z
 _atom_site_occupancy
  Li  Li0  1  0.333333  0.666667  0.250000  1
  Zr  Zr1  1  0.666667  0.333333  0.750000  1
  B  B2  1  0.398278  0.936369  0.750000  1
  B  B3  1  0.063631  0.461909  0.750000  1
  B  B4  1  0.538091  0.601722  0.750000  1
  B  B5  1  0.589396  0.034240  0.250000  1
  B  B6  1  0.965760  0.555156  0.250000  1
  B  B7  1  0.444844  0.410604  0.250000  1
  B  B8  1  0.000000  0.000000  0.498857  1
  B  B9  1  0.000000  0.000000  0.001143  1
  Ir  Ir10  1  0.073059  0.748491  0.750000  1
  Ir  Ir11  1  0.251509  0.324568  0.750000  1
  Ir  Ir12  1  0.675432  0.926941  0.750000  1
  Ir  Ir13  1  0.925112  0.252221  0.250000  1
  Ir  Ir14  1  0.747779  0.672891  0.250000  1
  Ir  Ir15  1  0.327109  0.074888  0.250000  1
