# generated using pymatgen
data_Y16Er4(Ir3Ru)3
_symmetry_space_group_name_H-M   'P 1'
_cell_length_a   10.86738900
_cell_length_b   10.86738900
_cell_length_c   6.42138800
_cell_angle_alpha   90.00000000
_cell_angle_beta   90.00000000
_cell_angle_gamma   90.00000000
_symmetry_Int_Tables_number   1
_chemical_formula_structural   Y16Er4(Ir3Ru)3
_chemical_formula_sum   'Y16 Er4 Ir9 Ru3'
_cell_volume   758.36684541
_cell_formula_units_Z   1
loop_
 _symmetry_equiv_pos_site_id
 _symmetry_equiv_pos_as_xyz
  1  'x, y, z'
loop_
 _atom_site_type_symbol
 _atom_site_label
 _atom_site_symmetry_multiplicity
 _atom_site_fract_x
 _atom_site_fract_y
 _atom_site_fract_z
 _atom_site_occupancy
  Y  Y0  1  0.292959  0.086510  0.377429  1
  Y  Y1  1  0.292973  0.913661  0.877632  1
  Y  Y2  1  0.707027  0.086339  0.877632  1
  Y  Y3  1  0.707041  0.913490  0.377429  1
  Y  Y4  1  0.586339  0.792973  0.877632  1
  Y  Y5  1  0.586510  0.207041  0.377429  1
  Y  Y6  1  0.413490  0.792959  0.377429  1
  Y  Y7  1  0.413661  0.207027  0.877632  1
  Y  Y8  1  0.208608  0.412841  0.623750  1
  Y  Y9  1  0.208358  0.587157  0.121073  1
  Y  Y10  1  0.791642  0.412843  0.121073  1
  Y  Y11  1  0.791392  0.587159  0.623750  1
  Y  Y12  1  0.912843  0.708358  0.121073  1
  Y  Y13  1  0.912841  0.291392  0.623750  1
  Y  Y14  1  0.087159  0.708608  0.623750  1
  Y  Y15  1  0.087157  0.291642  0.121073  1
  Er  Er16  1  0.000000  0.000000  0.499646  1
  Er  Er17  1  0.000000  0.000000  0.999793  1
  Er  Er18  1  0.500000  0.500000  0.999793  1
  Er  Er19  1  0.500000  0.500000  0.499646  1
  Ir  Ir20  1  0.849397  0.151211  0.250105  1
  Ir  Ir21  1  0.849121  0.848808  0.749772  1
  Ir  Ir22  1  0.150879  0.151192  0.749772  1
  Ir  Ir23  1  0.150603  0.848789  0.250105  1
  Ir  Ir24  1  0.651192  0.349121  0.749772  1
  Ir  Ir25  1  0.651211  0.650603  0.250105  1
  Ir  Ir26  1  0.348789  0.349397  0.250105  1
  Ir  Ir27  1  0.348808  0.650879  0.749772  1
  Ir  Ir28  1  0.000000  0.500000  0.378247  1
  Ru  Ru29  1  0.500000  0.000000  0.122898  1
  Ru  Ru30  1  0.500000  0.000000  0.622811  1
  Ru  Ru31  1  0.000000  0.500000  0.878123  1
