# generated using pymatgen
data_Tb6RuO12
_symmetry_space_group_name_H-M   'P 1'
_cell_length_a   6.50492302
_cell_length_b   6.50492196
_cell_length_c   6.50492213
_cell_angle_alpha   98.41089677
_cell_angle_beta   98.41090083
_cell_angle_gamma   98.41090607
_symmetry_Int_Tables_number   1
_chemical_formula_structural   Tb6RuO12
_chemical_formula_sum   'Tb6 Ru1 O12'
_cell_volume   265.37739832
_cell_formula_units_Z   1
loop_
 _symmetry_equiv_pos_site_id
 _symmetry_equiv_pos_as_xyz
  1  'x, y, z'
loop_
 _atom_site_type_symbol
 _atom_site_label
 _atom_site_symmetry_multiplicity
 _atom_site_fract_x
 _atom_site_fract_y
 _atom_site_fract_z
 _atom_site_occupancy
  Tb  Tb0  1  0.144090  0.312656  0.613168  1
  Tb  Tb1  1  0.386832  0.855910  0.687344  1
  Tb  Tb2  1  0.687344  0.386832  0.855910  1
  Tb  Tb3  1  0.312656  0.613168  0.144090  1
  Tb  Tb4  1  0.613168  0.144090  0.312656  1
  Tb  Tb5  1  0.855910  0.687344  0.386832  1
  Ru  Ru6  1  0.000000  0.000000  0.000000  1
  O  O7  1  0.069472  0.297081  0.965653  1
  O  O8  1  0.034347  0.930528  0.702919  1
  O  O9  1  0.409129  0.564155  0.822541  1
  O  O10  1  0.177459  0.590871  0.435845  1
  O  O11  1  0.702919  0.034347  0.930528  1
  O  O12  1  0.435845  0.177459  0.590871  1
  O  O13  1  0.564155  0.822541  0.409129  1
  O  O14  1  0.297081  0.965653  0.069472  1
  O  O15  1  0.822541  0.409129  0.564155  1
  O  O16  1  0.590871  0.435845  0.177459  1
  O  O17  1  0.965653  0.069472  0.297081  1
  O  O18  1  0.930528  0.702919  0.034347  1
