# generated using pymatgen
data_TmLu11ZnFe4Sn
_symmetry_space_group_name_H-M   'P 1'
_cell_length_a   8.19009571
_cell_length_b   8.18266054
_cell_length_c   8.18266208
_cell_angle_alpha   111.09161336
_cell_angle_beta   110.71674028
_cell_angle_gamma   106.60729147
_symmetry_Int_Tables_number   1
_chemical_formula_structural   TmLu11ZnFe4Sn
_chemical_formula_sum   'Tm1 Lu11 Zn1 Fe4 Sn1'
_cell_volume   421.53931883
_cell_formula_units_Z   1
loop_
 _symmetry_equiv_pos_site_id
 _symmetry_equiv_pos_as_xyz
  1  'x, y, z'
loop_
 _atom_site_type_symbol
 _atom_site_label
 _atom_site_symmetry_multiplicity
 _atom_site_fract_x
 _atom_site_fract_y
 _atom_site_fract_z
 _atom_site_occupancy
  Tm  Tm0  1  0.430788  0.223546  0.207240  1
  Lu  Lu1  1  0.567227  0.775570  0.791659  1
  Lu  Lu2  1  0.016557  0.224680  0.791876  1
  Lu  Lu3  1  0.984532  0.776454  0.208078  1
  Lu  Lu4  1  0.186885  0.287387  0.474507  1
  Lu  Lu5  1  0.813367  0.713624  0.526473  1
  Lu  Lu6  1  0.186885  0.712379  0.899499  1
  Lu  Lu7  1  0.813367  0.286893  0.099742  1
  Lu  Lu8  1  0.312436  0.612691  0.299898  1
  Lu  Lu9  1  0.687987  0.388663  0.701510  1
  Lu  Lu10  1  0.312436  0.012537  0.699743  1
  Lu  Lu11  1  0.687987  0.986476  0.299325  1
  Zn  Zn12  1  0.997553  0.999066  0.998488  1
  Fe  Fe13  1  0.383553  0.000028  0.383526  1
  Fe  Fe14  1  0.619801  0.000949  0.618852  1
  Fe  Fe15  1  0.109275  0.609700  0.499575  1
  Fe  Fe16  1  0.889637  0.389265  0.500371  1
  Sn  Sn17  1  0.499727  0.500090  0.999636  1
