# generated using pymatgen
data_Tb5YbAl18(Si3Os4)2
_symmetry_space_group_name_H-M   'P 1'
_cell_length_a   8.71556100
_cell_length_b   8.67618968
_cell_length_c   9.58489300
_cell_angle_alpha   90.00000000
_cell_angle_beta   90.00000000
_cell_angle_gamma   120.15022122
_symmetry_Int_Tables_number   1
_chemical_formula_structural   Tb5YbAl18(Si3Os4)2
_chemical_formula_sum   'Tb5 Yb1 Al18 Si6 Os8'
_cell_volume   626.73347121
_cell_formula_units_Z   1
loop_
 _symmetry_equiv_pos_site_id
 _symmetry_equiv_pos_as_xyz
  1  'x, y, z'
loop_
 _atom_site_type_symbol
 _atom_site_label
 _atom_site_symmetry_multiplicity
 _atom_site_fract_x
 _atom_site_fract_y
 _atom_site_fract_z
 _atom_site_occupancy
  Tb  Tb0  1  0.806439  0.612877  0.750000  1
  Tb  Tb1  1  0.610657  0.807108  0.250000  1
  Tb  Tb2  1  0.389680  0.192472  0.750000  1
  Tb  Tb3  1  0.196452  0.807108  0.250000  1
  Tb  Tb4  1  0.802793  0.192472  0.750000  1
  Yb  Yb5  1  0.193693  0.387387  0.250000  1
  Al  Al6  1  0.165685  0.331369  0.576457  1
  Al  Al7  1  0.834329  0.668660  0.420785  1
  Al  Al8  1  0.669491  0.834751  0.576500  1
  Al  Al9  1  0.834329  0.668660  0.079215  1
  Al  Al10  1  0.329833  0.165755  0.423121  1
  Al  Al11  1  0.165685  0.331369  0.923543  1
  Al  Al12  1  0.165262  0.834751  0.576500  1
  Al  Al13  1  0.329833  0.165755  0.076879  1
  Al  Al14  1  0.835921  0.165755  0.423121  1
  Al  Al15  1  0.669491  0.834751  0.923500  1
  Al  Al16  1  0.835921  0.165755  0.076879  1
  Al  Al17  1  0.165262  0.834751  0.923500  1
  Al  Al18  1  0.873400  0.432150  0.250000  1
  Al  Al19  1  0.128205  0.567150  0.750000  1
  Al  Al20  1  0.558750  0.432150  0.250000  1
  Al  Al21  1  0.438945  0.567150  0.750000  1
  Al  Al22  1  0.000355  0.000709  0.250000  1
  Al  Al23  1  0.000845  0.001689  0.750000  1
  Si  Si24  1  0.331336  0.662674  0.040095  1
  Si  Si25  1  0.667864  0.335727  0.961105  1
  Si  Si26  1  0.667864  0.335727  0.538895  1
  Si  Si27  1  0.331336  0.662674  0.459905  1
  Si  Si28  1  0.564025  0.128052  0.250000  1
  Si  Si29  1  0.436239  0.872476  0.750000  1
  Os  Os30  1  0.500179  0.000359  0.999313  1
  Os  Os31  1  0.999253  0.500319  0.999059  1
  Os  Os32  1  0.500179  0.000359  0.500687  1
  Os  Os33  1  0.501066  0.500319  0.999059  1
  Os  Os34  1  0.999253  0.500319  0.500941  1
  Os  Os35  1  0.501066  0.500319  0.500941  1
  Os  Os36  1  0.999544  0.999087  0.999876  1
  Os  Os37  1  0.999544  0.999087  0.500124  1
