# generated using pymatgen
data_Th3Al3Cu2Rh
_symmetry_space_group_name_H-M   'P 1'
_cell_length_a   7.19969800
_cell_length_b   7.19969941
_cell_length_c   4.16531400
_cell_angle_alpha   90.00000000
_cell_angle_beta   90.00000000
_cell_angle_gamma   119.99999350
_symmetry_Int_Tables_number   1
_chemical_formula_structural   Th3Al3Cu2Rh
_chemical_formula_sum   'Th3 Al3 Cu2 Rh1'
_cell_volume   186.98512157
_cell_formula_units_Z   1
loop_
 _symmetry_equiv_pos_site_id
 _symmetry_equiv_pos_as_xyz
  1  'x, y, z'
loop_
 _atom_site_type_symbol
 _atom_site_label
 _atom_site_symmetry_multiplicity
 _atom_site_fract_x
 _atom_site_fract_y
 _atom_site_fract_z
 _atom_site_occupancy
  Th  Th0  1  0.996528  0.417094  0.500000  1
  Th  Th1  1  0.582906  0.579433  0.500000  1
  Th  Th2  1  0.420567  0.003472  0.500000  1
  Al  Al3  1  0.998684  0.767557  0.000000  1
  Al  Al4  1  0.232443  0.231127  0.000000  1
  Al  Al5  1  0.768873  0.001316  0.000000  1
  Cu  Cu6  1  0.333333  0.666667  0.000000  1
  Cu  Cu7  1  0.000000  0.000000  0.500000  1
  Rh  Rh8  1  0.666667  0.333333  0.000000  1
