# generated using pymatgen
data_K6Ba6InGaP8
_symmetry_space_group_name_H-M   'P 1'
_cell_length_a   10.30733600
_cell_length_b   10.30733429
_cell_length_c   7.85932900
_cell_angle_alpha   90.00000000
_cell_angle_beta   90.00000000
_cell_angle_gamma   119.99999265
_symmetry_Int_Tables_number   1
_chemical_formula_structural   K6Ba6InGaP8
_chemical_formula_sum   'K6 Ba6 In1 Ga1 P8'
_cell_volume   723.11759315
_cell_formula_units_Z   1
loop_
 _symmetry_equiv_pos_site_id
 _symmetry_equiv_pos_as_xyz
  1  'x, y, z'
loop_
 _atom_site_type_symbol
 _atom_site_label
 _atom_site_symmetry_multiplicity
 _atom_site_fract_x
 _atom_site_fract_y
 _atom_site_fract_z
 _atom_site_occupancy
  K  K0  1  0.134723  0.865277  0.170949  1
  K  K1  1  0.268965  0.134483  0.673210  1
  K  K2  1  0.865517  0.731035  0.673210  1
  K  K3  1  0.134723  0.269444  0.170949  1
  K  K4  1  0.730556  0.865277  0.170949  1
  K  K5  1  0.865517  0.134483  0.673210  1
  Ba  Ba6  1  0.953909  0.476954  0.999940  1
  Ba  Ba7  1  0.523046  0.046091  0.999940  1
  Ba  Ba8  1  0.473155  0.946310  0.499049  1
  Ba  Ba9  1  0.053690  0.526845  0.499049  1
  Ba  Ba10  1  0.523046  0.476954  0.999940  1
  Ba  Ba11  1  0.473155  0.526845  0.499049  1
  In  In12  1  0.666667  0.333333  0.378826  1
  Ga  Ga13  1  0.333333  0.666667  0.877358  1
  P  P14  1  0.333333  0.666667  0.205521  1
  P  P15  1  0.805859  0.194141  0.275497  1
  P  P16  1  0.597312  0.798656  0.779011  1
  P  P17  1  0.201344  0.402688  0.779011  1
  P  P18  1  0.805859  0.611717  0.275497  1
  P  P19  1  0.666667  0.333333  0.721330  1
  P  P20  1  0.388283  0.194141  0.275497  1
  P  P21  1  0.201344  0.798656  0.779011  1
