# generated using pymatgen
data_Pr7SmSc11Si16Mo
_symmetry_space_group_name_H-M   'P 1'
_cell_length_a   7.23091680
_cell_length_b   7.47639826
_cell_length_c   14.13219213
_cell_angle_alpha   90.16160634
_cell_angle_beta   89.78364807
_cell_angle_gamma   89.64201032
_symmetry_Int_Tables_number   1
_chemical_formula_structural   Pr7SmSc11Si16Mo
_chemical_formula_sum   'Pr7 Sm1 Sc11 Si16 Mo1'
_cell_volume   763.98000981
_cell_formula_units_Z   1
loop_
 _symmetry_equiv_pos_site_id
 _symmetry_equiv_pos_as_xyz
  1  'x, y, z'
loop_
 _atom_site_type_symbol
 _atom_site_label
 _atom_site_symmetry_multiplicity
 _atom_site_fract_x
 _atom_site_fract_y
 _atom_site_fract_z
 _atom_site_occupancy
  Pr  Pr0  1  0.011871  0.170826  0.097199  1
  Pr  Pr1  1  0.989029  0.828619  0.898099  1
  Pr  Pr2  1  0.486560  0.673419  0.898500  1
  Pr  Pr3  1  0.992401  0.831393  0.595781  1
  Pr  Pr4  1  0.513525  0.327151  0.096871  1
  Pr  Pr5  1  0.012134  0.172291  0.403705  1
  Pr  Pr6  1  0.508113  0.328018  0.409353  1
  Sm  Sm7  1  0.486290  0.674624  0.598258  1
  Sc  Sc8  1  0.163329  0.489119  0.744101  1
  Sc  Sc9  1  0.838539  0.500438  0.252242  1
  Sc  Sc10  1  0.338762  0.999484  0.251517  1
  Sc  Sc11  1  0.655909  0.004676  0.747062  1
  Sc  Sc12  1  0.665516  0.826171  0.378802  1
  Sc  Sc13  1  0.169868  0.676300  0.377853  1
  Sc  Sc14  1  0.669616  0.824379  0.124731  1
  Sc  Sc15  1  0.831901  0.325640  0.624163  1
  Sc  Sc16  1  0.332520  0.177269  0.874897  1
  Sc  Sc17  1  0.828769  0.323443  0.870386  1
  Sc  Sc18  1  0.170751  0.675634  0.125845  1
  Si  Si19  1  0.044629  0.126927  0.744623  1
  Si  Si20  1  0.963295  0.876330  0.251833  1
  Si  Si21  1  0.466177  0.626296  0.251202  1
  Si  Si22  1  0.529491  0.367980  0.744360  1
  Si  Si23  1  0.289860  0.891593  0.745707  1
  Si  Si24  1  0.709819  0.117374  0.251056  1
  Si  Si25  1  0.213066  0.381914  0.250944  1
  Si  Si26  1  0.784562  0.616543  0.745921  1
  Si  Si27  1  0.171067  0.450703  0.543599  1
  Si  Si28  1  0.848205  0.535213  0.460445  1
  Si  Si29  1  0.341578  0.967256  0.471092  1
  Si  Si30  1  0.849846  0.537504  0.038830  1
  Si  Si31  1  0.640093  0.037022  0.546791  1
  Si  Si32  1  0.148347  0.464009  0.958739  1
  Si  Si33  1  0.654796  0.037808  0.957865  1
  Si  Si34  1  0.347730  0.961366  0.039014  1
  Mo  Mo35  1  0.332037  0.175269  0.628615  1
