# generated using pymatgen
data_Er3Tm7Sn5Sb
_symmetry_space_group_name_H-M   'P 1'
_cell_length_a   8.85963836
_cell_length_b   8.85644358
_cell_length_c   6.40792000
_cell_angle_alpha   90.00000000
_cell_angle_beta   90.00000000
_cell_angle_gamma   120.04445432
_symmetry_Int_Tables_number   1
_chemical_formula_structural   Er3Tm7Sn5Sb
_chemical_formula_sum   'Er3 Tm7 Sn5 Sb1'
_cell_volume   435.23954801
_cell_formula_units_Z   1
loop_
 _symmetry_equiv_pos_site_id
 _symmetry_equiv_pos_as_xyz
  1  'x, y, z'
loop_
 _atom_site_type_symbol
 _atom_site_label
 _atom_site_symmetry_multiplicity
 _atom_site_fract_x
 _atom_site_fract_y
 _atom_site_fract_z
 _atom_site_occupancy
  Er  Er0  1  0.762021  0.999909  0.750000  1
  Er  Er1  1  0.237417  0.240049  0.750000  1
  Er  Er2  1  0.238858  0.999870  0.250000  1
  Tm  Tm3  1  0.997379  0.759921  0.750000  1
  Tm  Tm4  1  0.000952  0.238902  0.250000  1
  Tm  Tm5  1  0.762180  0.761175  0.250000  1
  Tm  Tm6  1  0.333195  0.665617  0.499788  1
  Tm  Tm7  1  0.667618  0.334410  0.000219  1
  Tm  Tm8  1  0.667618  0.334410  0.499781  1
  Tm  Tm9  1  0.333195  0.665617  0.000212  1
  Sn  Sn10  1  0.396018  0.395084  0.250000  1
  Sn  Sn11  1  0.000915  0.604901  0.250000  1
  Sn  Sn12  1  0.999652  0.396279  0.750000  1
  Sn  Sn13  1  0.603858  0.604049  0.750000  1
  Sn  Sn14  1  0.605909  0.999978  0.250000  1
  Sb  Sb15  1  0.393216  0.999828  0.750000  1
