# generated using pymatgen
data_La12Ir2RuAuBr12
_symmetry_space_group_name_H-M   'P 1'
_cell_length_a   10.72689287
_cell_length_b   10.72667301
_cell_length_c   10.56191720
_cell_angle_alpha   109.09269444
_cell_angle_beta   109.09328848
_cell_angle_gamma   109.45354395
_symmetry_Int_Tables_number   1
_chemical_formula_structural   La12Ir2RuAuBr12
_chemical_formula_sum   'La12 Ir2 Ru1 Au1 Br12'
_cell_volume   944.35742307
_cell_formula_units_Z   1
loop_
 _symmetry_equiv_pos_site_id
 _symmetry_equiv_pos_as_xyz
  1  'x, y, z'
loop_
 _atom_site_type_symbol
 _atom_site_label
 _atom_site_symmetry_multiplicity
 _atom_site_fract_x
 _atom_site_fract_y
 _atom_site_fract_z
 _atom_site_occupancy
  La  La0  1  0.258493  0.735852  0.229477  1
  La  La1  1  0.477848  0.737382  0.006030  1
  La  La2  1  0.235992  0.468501  0.482236  1
  La  La3  1  0.018042  0.032801  0.266589  1
  La  La4  1  0.233967  0.266020  0.749988  1
  La  La5  1  0.016365  0.483629  0.749987  1
  La  La6  1  0.474436  0.241890  0.469641  1
  La  La7  1  0.258109  0.025563  0.030359  1
  La  La8  1  0.764171  0.241506  0.270541  1
  La  La9  1  0.762623  0.022149  0.493970  1
  La  La10  1  0.467232  0.481969  0.233438  1
  La  La11  1  0.031476  0.263992  0.017755  1
  Ir  Ir12  1  0.249361  0.498681  0.999565  1
  Ir  Ir13  1  0.001308  0.250629  0.500411  1
  Ru  Ru14  1  0.250296  0.249692  0.250016  1
  Au  Au15  1  0.499602  0.000412  0.250003  1
  Br  Br16  1  0.248767  0.994499  0.501011  1
  Br  Br17  1  0.511512  0.506046  0.755716  1
  Br  Br18  1  0.248323  0.752555  0.747131  1
  Br  Br19  1  0.996829  0.748903  0.998368  1
  Br  Br20  1  0.994146  0.505851  0.250004  1
  Br  Br21  1  0.746671  0.994820  0.994249  1
  Br  Br22  1  0.751246  0.748765  0.250003  1
  Br  Br23  1  0.505184  0.753332  0.505757  1
  Br  Br24  1  0.505507  0.251231  0.998987  1
  Br  Br25  1  0.751103  0.503173  0.501633  1
  Br  Br26  1  0.747441  0.251676  0.752862  1
  Br  Br27  1  0.993950  0.988482  0.744273  1
