# generated using pymatgen
data_Rb4(GaAu3)5
_symmetry_space_group_name_H-M   'P 1'
_cell_length_a   5.78963818
_cell_length_b   7.15379704
_cell_length_c   13.83918149
_cell_angle_alpha   90.78926421
_cell_angle_beta   89.62683950
_cell_angle_gamma   89.95504260
_symmetry_Int_Tables_number   1
_chemical_formula_structural   Rb4(GaAu3)5
_chemical_formula_sum   'Rb4 Ga5 Au15'
_cell_volume   573.12302887
_cell_formula_units_Z   1
loop_
 _symmetry_equiv_pos_site_id
 _symmetry_equiv_pos_as_xyz
  1  'x, y, z'
loop_
 _atom_site_type_symbol
 _atom_site_label
 _atom_site_symmetry_multiplicity
 _atom_site_fract_x
 _atom_site_fract_y
 _atom_site_fract_z
 _atom_site_occupancy
  Rb  Rb0  1  0.266382  0.101480  0.079248  1
  Rb  Rb1  1  0.242645  0.392926  0.576015  1
  Rb  Rb2  1  0.752046  0.895779  0.924015  1
  Rb  Rb3  1  0.741260  0.608045  0.421567  1
  Ga  Ga4  1  0.992685  0.388657  0.843706  1
  Ga  Ga5  1  0.003422  0.111167  0.349535  1
  Ga  Ga6  1  0.496184  0.395055  0.852042  1
  Ga  Ga7  1  0.500208  0.889406  0.653419  1
  Ga  Ga8  1  0.999714  0.605485  0.150090  1
  Au  Au9  1  0.003488  0.886509  0.653790  1
  Au  Au10  1  0.497376  0.610929  0.149980  1
  Au  Au11  1  0.507584  0.118703  0.345595  1
  Au  Au12  1  0.258155  0.109371  0.791483  1
  Au  Au13  1  0.220937  0.403918  0.287062  1
  Au  Au14  1  0.780829  0.901728  0.210767  1
  Au  Au15  1  0.728084  0.597604  0.719287  1
  Au  Au16  1  0.252636  0.698955  0.794872  1
  Au  Au17  1  0.233369  0.798849  0.295069  1
  Au  Au18  1  0.770529  0.296251  0.201593  1
  Au  Au19  1  0.728183  0.203614  0.708668  1
  Au  Au20  1  0.224086  0.582100  0.986727  1
  Au  Au21  1  0.276491  0.911576  0.490325  1
  Au  Au22  1  0.753880  0.405386  0.004015  1
  Au  Au23  1  0.769827  0.086505  0.511132  1
