# generated using pymatgen
data_Ce2RuN3
_symmetry_space_group_name_H-M   'P 1'
_cell_length_a   6.85679306
_cell_length_b   6.85679348
_cell_length_c   6.85679409
_cell_angle_alpha   150.62174407
_cell_angle_beta   147.68161685
_cell_angle_gamma   44.23452312
_symmetry_Int_Tables_number   1
_chemical_formula_structural   Ce2RuN3
_chemical_formula_sum   'Ce2 Ru1 N3'
_cell_volume   84.30601328
_cell_formula_units_Z   1
loop_
 _symmetry_equiv_pos_site_id
 _symmetry_equiv_pos_as_xyz
  1  'x, y, z'
loop_
 _atom_site_type_symbol
 _atom_site_label
 _atom_site_symmetry_multiplicity
 _atom_site_fract_x
 _atom_site_fract_y
 _atom_site_fract_z
 _atom_site_occupancy
  Ce  Ce0  1  0.648968  0.648968  0.000000  1
  Ce  Ce1  1  0.351032  0.351032  0.000000  1
  Ru  Ru2  1  0.000000  0.000000  0.000000  1
  N  N3  1  0.830017  0.830017  0.000000  1
  N  N4  1  0.169983  0.169983  0.000000  1
  N  N5  1  0.500000  0.000000  0.500000  1
