# generated using pymatgen
data_Li2HoEr2AgSn3
_symmetry_space_group_name_H-M   'P 1'
_cell_length_a   7.26784537
_cell_length_b   7.27201086
_cell_length_c   4.56723600
_cell_angle_alpha   90.00000000
_cell_angle_beta   90.00000000
_cell_angle_gamma   119.85998727
_symmetry_Int_Tables_number   1
_chemical_formula_structural   Li2HoEr2AgSn3
_chemical_formula_sum   'Li2 Ho1 Er2 Ag1 Sn3'
_cell_volume   209.34147707
_cell_formula_units_Z   1
loop_
 _symmetry_equiv_pos_site_id
 _symmetry_equiv_pos_as_xyz
  1  'x, y, z'
loop_
 _atom_site_type_symbol
 _atom_site_label
 _atom_site_symmetry_multiplicity
 _atom_site_fract_x
 _atom_site_fract_y
 _atom_site_fract_z
 _atom_site_occupancy
  Li  Li0  1  0.004554  0.232628  0.500000  1
  Li  Li1  1  0.771889  0.767294  0.500000  1
  Ho  Ho2  1  0.001639  0.566871  0.000000  1
  Er  Er3  1  0.434314  0.432624  0.000000  1
  Er  Er4  1  0.553949  0.999902  0.000000  1
  Ag  Ag5  1  0.236116  0.999795  0.500000  1
  Sn  Sn6  1  0.991549  0.001726  0.000000  1
  Sn  Sn7  1  0.671164  0.337325  0.500000  1
  Sn  Sn8  1  0.334826  0.661835  0.500000  1
