# generated using pymatgen
data_Ba2Sb5Pt3
_symmetry_space_group_name_H-M   'P 1'
_cell_length_a   9.68510772
_cell_length_b   9.68510702
_cell_length_c   9.68510787
_cell_angle_alpha   136.82252385
_cell_angle_beta   114.66175387
_cell_angle_gamma   81.57595263
_symmetry_Int_Tables_number   1
_chemical_formula_structural   Ba2Sb5Pt3
_chemical_formula_sum   'Ba4 Sb10 Pt6'
_cell_volume   546.44488301
_cell_formula_units_Z   2
loop_
 _symmetry_equiv_pos_site_id
 _symmetry_equiv_pos_as_xyz
  1  'x, y, z'
loop_
 _atom_site_type_symbol
 _atom_site_label
 _atom_site_symmetry_multiplicity
 _atom_site_fract_x
 _atom_site_fract_y
 _atom_site_fract_z
 _atom_site_occupancy
  Ba  Ba0  1  0.868482  0.128988  0.739493  1
  Ba  Ba1  1  0.131518  0.871012  0.260507  1
  Ba  Ba2  1  0.610506  0.371012  0.239493  1
  Ba  Ba3  1  0.389494  0.628988  0.760507  1
  Sb  Sb4  1  0.523648  0.896594  0.627054  1
  Sb  Sb5  1  0.269541  0.396594  0.872946  1
  Sb  Sb6  1  0.476352  0.103406  0.372946  1
  Sb  Sb7  1  0.730459  0.603406  0.127054  1
  Sb  Sb8  1  0.000000  0.250000  0.250000  1
  Sb  Sb9  1  0.000000  0.750000  0.750000  1
  Sb  Sb10  1  0.769023  0.019023  0.250000  1
  Sb  Sb11  1  0.230977  0.480977  0.250000  1
  Sb  Sb12  1  0.230977  0.980977  0.750000  1
  Sb  Sb13  1  0.769023  0.519023  0.750000  1
  Pt  Pt14  1  0.228469  0.116566  0.111902  1
  Pt  Pt15  1  0.995336  0.383434  0.611902  1
  Pt  Pt16  1  0.004664  0.616566  0.388098  1
  Pt  Pt17  1  0.771531  0.883434  0.888098  1
  Pt  Pt18  1  0.500000  0.250000  0.750000  1
  Pt  Pt19  1  0.500000  0.750000  0.250000  1
