# generated using pymatgen
data_Tm4InPt7Rh4
_symmetry_space_group_name_H-M   'P 1'
_cell_length_a   4.20238600
_cell_length_b   5.71276910
_cell_length_c   11.47378323
_cell_angle_alpha   87.52072976
_cell_angle_beta   90.00000000
_cell_angle_gamma   90.00000000
_symmetry_Int_Tables_number   1
_chemical_formula_structural   Tm4InPt7Rh4
_chemical_formula_sum   'Tm4 In1 Pt7 Rh4'
_cell_volume   275.19626530
_cell_formula_units_Z   1
loop_
 _symmetry_equiv_pos_site_id
 _symmetry_equiv_pos_as_xyz
  1  'x, y, z'
loop_
 _atom_site_type_symbol
 _atom_site_label
 _atom_site_symmetry_multiplicity
 _atom_site_fract_x
 _atom_site_fract_y
 _atom_site_fract_z
 _atom_site_occupancy
  Tm  Tm0  1  0.500000  0.756175  0.374197  1
  Tm  Tm1  1  0.500000  0.716605  0.863054  1
  Tm  Tm2  1  0.500000  0.283395  0.136946  1
  Tm  Tm3  1  0.500000  0.243825  0.625803  1
  In  In4  1  0.000000  0.000000  0.000000  1
  Pt  Pt5  1  0.000000  0.013948  0.250974  1
  Pt  Pt6  1  0.000000  0.986052  0.749026  1
  Pt  Pt7  1  0.000000  0.500000  0.000000  1
  Pt  Pt8  1  0.000000  0.500000  0.500000  1
  Pt  Pt9  1  0.000000  0.516861  0.251329  1
  Pt  Pt10  1  0.000000  0.483139  0.748671  1
  Pt  Pt11  1  0.000000  0.000000  0.500000  1
  Rh  Rh12  1  0.500000  0.254032  0.378594  1
  Rh  Rh13  1  0.500000  0.224580  0.881023  1
  Rh  Rh14  1  0.500000  0.775420  0.118977  1
  Rh  Rh15  1  0.500000  0.745968  0.621406  1
