# generated using pymatgen
data_Yb10In2Cu3Pt
_symmetry_space_group_name_H-M   'P 1'
_cell_length_a   9.01337724
_cell_length_b   9.01337743
_cell_length_c   9.01458359
_cell_angle_alpha   128.62217444
_cell_angle_beta   128.62217619
_cell_angle_gamma   75.60938007
_symmetry_Int_Tables_number   1
_chemical_formula_structural   Yb10In2Cu3Pt
_chemical_formula_sum   'Yb10 In2 Cu3 Pt1'
_cell_volume   434.92365145
_cell_formula_units_Z   1
loop_
 _symmetry_equiv_pos_site_id
 _symmetry_equiv_pos_as_xyz
  1  'x, y, z'
loop_
 _atom_site_type_symbol
 _atom_site_label
 _atom_site_symmetry_multiplicity
 _atom_site_fract_x
 _atom_site_fract_y
 _atom_site_fract_z
 _atom_site_occupancy
  Yb  Yb0  1  0.495816  0.501774  0.997590  1
  Yb  Yb1  1  0.001774  0.995816  0.997590  1
  Yb  Yb2  1  0.530714  0.030714  0.834520  1
  Yb  Yb3  1  0.192620  0.692620  0.156338  1
  Yb  Yb4  1  0.032545  0.200452  0.504580  1
  Yb  Yb5  1  0.700452  0.532545  0.504580  1
  Yb  Yb6  1  0.463719  0.963719  0.156338  1
  Yb  Yb7  1  0.803804  0.303804  0.834520  1
  Yb  Yb8  1  0.972035  0.804129  0.504580  1
  Yb  Yb9  1  0.304129  0.472035  0.504580  1
  In  In10  1  0.251693  0.251693  0.003385  1
  In  In11  1  0.751693  0.751693  0.003385  1
  Cu  Cu12  1  0.876344  0.376344  0.252687  1
  Cu  Cu13  1  0.617413  0.883182  0.500595  1
  Cu  Cu14  1  0.383182  0.117413  0.500595  1
  Pt  Pt15  1  0.122067  0.622067  0.744133  1
