# generated using pymatgen
data_TbTm2Lu3FeBi2
_symmetry_space_group_name_H-M   'P 1'
_cell_length_a   8.20244300
_cell_length_b   8.19031322
_cell_length_c   4.13917900
_cell_angle_alpha   90.00000000
_cell_angle_beta   90.00000000
_cell_angle_gamma   120.04900693
_symmetry_Int_Tables_number   1
_chemical_formula_structural   TbTm2Lu3FeBi2
_chemical_formula_sum   'Tb1 Tm2 Lu3 Fe1 Bi2'
_cell_volume   240.69878251
_cell_formula_units_Z   1
loop_
 _symmetry_equiv_pos_site_id
 _symmetry_equiv_pos_as_xyz
  1  'x, y, z'
loop_
 _atom_site_type_symbol
 _atom_site_label
 _atom_site_symmetry_multiplicity
 _atom_site_fract_x
 _atom_site_fract_y
 _atom_site_fract_z
 _atom_site_occupancy
  Tb  Tb0  1  0.610132  0.000000  0.000000  1
  Tm  Tm1  1  0.999607  0.612890  0.000000  1
  Tm  Tm2  1  0.386716  0.387110  0.000000  1
  Lu  Lu3  1  0.230080  0.000000  0.500000  1
  Lu  Lu4  1  0.000762  0.229380  0.500000  1
  Lu  Lu5  1  0.771381  0.770620  0.500000  1
  Fe  Fe6  1  0.003281  0.000000  0.000000  1
  Bi  Bi7  1  0.331275  0.664512  0.500000  1
  Bi  Bi8  1  0.666764  0.335488  0.500000  1
