# generated using pymatgen
data_Nd6Zn4Pd5Pt8
_symmetry_space_group_name_H-M   'P 1'
_cell_length_a   8.40600041
_cell_length_b   8.39577519
_cell_length_c   8.40058917
_cell_angle_alpha   109.42744084
_cell_angle_beta   109.43291877
_cell_angle_gamma   109.50266718
_symmetry_Int_Tables_number   1
_chemical_formula_structural   Nd6Zn4Pd5Pt8
_chemical_formula_sum   'Nd6 Zn4 Pd5 Pt8'
_cell_volume   456.67683778
_cell_formula_units_Z   1
loop_
 _symmetry_equiv_pos_site_id
 _symmetry_equiv_pos_as_xyz
  1  'x, y, z'
loop_
 _atom_site_type_symbol
 _atom_site_label
 _atom_site_symmetry_multiplicity
 _atom_site_fract_x
 _atom_site_fract_y
 _atom_site_fract_z
 _atom_site_occupancy
  Nd  Nd0  1  0.699756  0.699675  0.001312  1
  Nd  Nd1  1  0.299281  0.998840  0.299948  1
  Nd  Nd2  1  0.999906  0.299875  0.299819  1
  Nd  Nd3  1  0.299971  0.301476  0.999579  1
  Nd  Nd4  1  0.700552  0.001565  0.700172  1
  Nd  Nd5  1  0.000974  0.699426  0.700322  1
  Zn  Zn6  1  0.999947  0.999455  0.499615  1
  Zn  Zn7  1  0.999549  0.499583  0.999436  1
  Zn  Zn8  1  0.500206  0.000231  0.000015  1
  Zn  Zn9  1  0.499724  0.499945  0.499903  1
  Pd  Pd10  1  0.331659  0.000211  0.669295  1
  Pd  Pd11  1  0.662326  0.331736  0.331836  1
  Pd  Pd12  1  0.668699  0.668464  0.338326  1
  Pd  Pd13  1  0.668021  0.337673  0.668167  1
  Pd  Pd14  1  0.337710  0.669136  0.668849  1
  Pt  Pt15  1  0.330841  0.330573  0.660361  1
  Pt  Pt16  1  0.669577  0.000660  0.330880  1
  Pt  Pt17  1  0.000102  0.669601  0.331286  1
  Pt  Pt18  1  0.669288  0.330027  0.000340  1
  Pt  Pt19  1  0.331191  0.661292  0.331803  1
  Pt  Pt20  1  0.999826  0.330612  0.669062  1
  Pt  Pt21  1  0.331091  0.670573  0.000516  1
  Pt  Pt22  1  0.999803  0.999371  0.999159  1
