# generated using pymatgen
data_La2Pr14Cd4OsPt3
_symmetry_space_group_name_H-M   'P 1'
_cell_length_a   10.10555588
_cell_length_b   10.10555495
_cell_length_c   10.12816000
_cell_angle_alpha   59.57409774
_cell_angle_beta   59.57410244
_cell_angle_gamma   59.67311237
_symmetry_Int_Tables_number   1
_chemical_formula_structural   La2Pr14Cd4OsPt3
_chemical_formula_sum   'La2 Pr14 Cd4 Os1 Pt3'
_cell_volume   724.83562036
_cell_formula_units_Z   1
loop_
 _symmetry_equiv_pos_site_id
 _symmetry_equiv_pos_as_xyz
  1  'x, y, z'
loop_
 _atom_site_type_symbol
 _atom_site_label
 _atom_site_symmetry_multiplicity
 _atom_site_fract_x
 _atom_site_fract_y
 _atom_site_fract_z
 _atom_site_occupancy
  La  La0  1  0.350371  0.350371  0.350795  1
  La  La1  1  0.344907  0.344907  0.956848  1
  Pr  Pr2  1  0.348049  0.951553  0.348128  1
  Pr  Pr3  1  0.951553  0.348049  0.348128  1
  Pr  Pr4  1  0.816867  0.189012  0.188413  1
  Pr  Pr5  1  0.189738  0.808600  0.807968  1
  Pr  Pr6  1  0.189012  0.816867  0.188413  1
  Pr  Pr7  1  0.808600  0.189738  0.807968  1
  Pr  Pr8  1  0.188742  0.188742  0.815573  1
  Pr  Pr9  1  0.808231  0.808231  0.189170  1
  Pr  Pr10  1  0.936850  0.563973  0.564068  1
  Pr  Pr11  1  0.556852  0.937708  0.937856  1
  Pr  Pr12  1  0.563973  0.936850  0.564068  1
  Pr  Pr13  1  0.937708  0.556852  0.937856  1
  Pr  Pr14  1  0.564085  0.564085  0.936558  1
  Pr  Pr15  1  0.938056  0.938056  0.556982  1
  Cd  Cd16  1  0.579832  0.579832  0.579417  1
  Cd  Cd17  1  0.580323  0.580323  0.259245  1
  Cd  Cd18  1  0.580707  0.258957  0.579725  1
  Cd  Cd19  1  0.258957  0.580707  0.579725  1
  Os  Os20  1  0.144203  0.144203  0.141298  1
  Pt  Pt21  1  0.144695  0.144695  0.572141  1
  Pt  Pt22  1  0.144857  0.572835  0.144830  1
  Pt  Pt23  1  0.572835  0.144857  0.144830  1
