# generated using pymatgen
data_Y3Ho7In8(IrPt)2
_symmetry_space_group_name_H-M   'P 1'
_cell_length_a   3.62766100
_cell_length_b   8.12038176
_cell_length_c   18.23652456
_cell_angle_alpha   89.93063273
_cell_angle_beta   90.00000000
_cell_angle_gamma   90.00000000
_symmetry_Int_Tables_number   1
_chemical_formula_structural   Y3Ho7In8(IrPt)2
_chemical_formula_sum   'Y3 Ho7 In8 Ir2 Pt2'
_cell_volume   537.21100473
_cell_formula_units_Z   1
loop_
 _symmetry_equiv_pos_site_id
 _symmetry_equiv_pos_as_xyz
  1  'x, y, z'
loop_
 _atom_site_type_symbol
 _atom_site_label
 _atom_site_symmetry_multiplicity
 _atom_site_fract_x
 _atom_site_fract_y
 _atom_site_fract_z
 _atom_site_occupancy
  Y  Y0  1  0.000000  0.115356  0.412848  1
  Y  Y1  1  0.000000  0.999982  0.999998  1
  Y  Y2  1  0.000000  0.500541  0.500138  1
  Ho  Ho3  1  0.000000  0.885113  0.588258  1
  Ho  Ho4  1  0.000000  0.383699  0.913530  1
  Ho  Ho5  1  0.000000  0.616340  0.086432  1
  Ho  Ho6  1  0.000000  0.235699  0.221920  1
  Ho  Ho7  1  0.000000  0.764114  0.777986  1
  Ho  Ho8  1  0.000000  0.248721  0.720288  1
  Ho  Ho9  1  0.000000  0.751313  0.279626  1
  In  In10  1  0.500000  0.423988  0.350848  1
  In  In11  1  0.500000  0.576287  0.649105  1
  In  In12  1  0.500000  0.074539  0.850684  1
  In  In13  1  0.500000  0.925458  0.149266  1
  In  In14  1  0.500000  0.292781  0.066608  1
  In  In15  1  0.500000  0.707212  0.933375  1
  In  In16  1  0.500000  0.206516  0.567551  1
  In  In17  1  0.500000  0.793188  0.432568  1
  Ir  Ir18  1  0.500000  0.020434  0.302869  1
  Ir  Ir19  1  0.500000  0.978806  0.696107  1
  Pt  Pt20  1  0.500000  0.477586  0.803464  1
  Pt  Pt21  1  0.500000  0.522329  0.196531  1
