# generated using pymatgen
data_Ta5TiAl4(PdC)2
_symmetry_space_group_name_H-M   'P 1'
_cell_length_a   8.33809639
_cell_length_b   8.33809726
_cell_length_c   8.34665708
_cell_angle_alpha   59.97879138
_cell_angle_beta   59.97878582
_cell_angle_gamma   60.07540301
_symmetry_Int_Tables_number   1
_chemical_formula_structural   Ta5TiAl4(PdC)2
_chemical_formula_sum   'Ta10 Ti2 Al8 Pd4 C4'
_cell_volume   410.42975996
_cell_formula_units_Z   2
loop_
 _symmetry_equiv_pos_site_id
 _symmetry_equiv_pos_as_xyz
  1  'x, y, z'
loop_
 _atom_site_type_symbol
 _atom_site_label
 _atom_site_symmetry_multiplicity
 _atom_site_fract_x
 _atom_site_fract_y
 _atom_site_fract_z
 _atom_site_occupancy
  Ta  Ta0  1  0.680625  0.318149  0.319819  1
  Ta  Ta1  1  0.317010  0.680666  0.319181  1
  Ta  Ta2  1  0.682988  0.680918  0.320246  1
  Ta  Ta3  1  0.317860  0.318247  0.680447  1
  Ta  Ta4  1  0.569082  0.567012  0.929754  1
  Ta  Ta5  1  0.930663  0.567015  0.568994  1
  Ta  Ta6  1  0.569334  0.932990  0.930819  1
  Ta  Ta7  1  0.931753  0.932140  0.569553  1
  Ta  Ta8  1  0.682985  0.319337  0.681006  1
  Ta  Ta9  1  0.931851  0.569375  0.930181  1
  Ti  Ti10  1  0.568953  0.929907  0.569255  1
  Ti  Ti11  1  0.320093  0.681047  0.680745  1
  Al  Al12  1  0.916923  0.916490  0.916474  1
  Al  Al13  1  0.998886  0.333654  0.333807  1
  Al  Al14  1  0.333792  0.996226  0.336495  1
  Al  Al15  1  0.334113  0.336554  0.995413  1
  Al  Al16  1  0.916346  0.251114  0.916193  1
  Al  Al17  1  0.913446  0.915887  0.254587  1
  Al  Al18  1  0.253774  0.916208  0.913505  1
  Al  Al19  1  0.333510  0.333077  0.333526  1
  Pd  Pd20  1  0.125184  0.124816  0.125000  1
  Pd  Pd21  1  0.624179  0.124891  0.125556  1
  Pd  Pd22  1  0.125109  0.625821  0.124444  1
  Pd  Pd23  1  0.125193  0.124807  0.625000  1
  C  C24  1  0.619970  0.630030  0.625000  1
  C  C25  1  0.128086  0.625926  0.625197  1
  C  C26  1  0.624074  0.121914  0.624803  1
  C  C27  1  0.624220  0.625780  0.125000  1
