# generated using pymatgen
data_Th2Ga3Cu2Si
_symmetry_space_group_name_H-M   'P 1'
_cell_length_a   9.01830835
_cell_length_b   9.01830913
_cell_length_c   4.18084700
_cell_angle_alpha   90.00000000
_cell_angle_beta   90.00000000
_cell_angle_gamma   153.19777853
_symmetry_Int_Tables_number   1
_chemical_formula_structural   Th2Ga3Cu2Si
_chemical_formula_sum   'Th2 Ga3 Cu2 Si1'
_cell_volume   153.32268236
_cell_formula_units_Z   1
loop_
 _symmetry_equiv_pos_site_id
 _symmetry_equiv_pos_as_xyz
  1  'x, y, z'
loop_
 _atom_site_type_symbol
 _atom_site_label
 _atom_site_symmetry_multiplicity
 _atom_site_fract_x
 _atom_site_fract_y
 _atom_site_fract_z
 _atom_site_occupancy
  Th  Th0  1  0.896785  0.103215  0.750000  1
  Th  Th1  1  0.102108  0.897892  0.250000  1
  Ga  Ga2  1  0.250543  0.749457  0.750000  1
  Ga  Ga3  1  0.749848  0.250152  0.250000  1
  Ga  Ga4  1  0.536452  0.463548  0.750000  1
  Cu  Cu5  1  0.672442  0.327558  0.750000  1
  Cu  Cu6  1  0.329663  0.670337  0.250000  1
  Si  Si7  1  0.462157  0.537843  0.250000  1
