# generated using pymatgen
data_Cs3LuV2O8
_symmetry_space_group_name_H-M   'P 1'
_cell_length_a   6.11020400
_cell_length_b   6.11020360
_cell_length_c   8.40867200
_cell_angle_alpha   90.00000000
_cell_angle_beta   90.00000000
_cell_angle_gamma   119.99999135
_symmetry_Int_Tables_number   1
_chemical_formula_structural   Cs3LuV2O8
_chemical_formula_sum   'Cs3 Lu1 V2 O8'
_cell_volume   271.87512471
_cell_formula_units_Z   1
loop_
 _symmetry_equiv_pos_site_id
 _symmetry_equiv_pos_as_xyz
  1  'x, y, z'
loop_
 _atom_site_type_symbol
 _atom_site_label
 _atom_site_symmetry_multiplicity
 _atom_site_fract_x
 _atom_site_fract_y
 _atom_site_fract_z
 _atom_site_occupancy
  Cs  Cs0  1  0.333333  0.666667  0.729847  1
  Cs  Cs1  1  0.666667  0.333333  0.270153  1
  Cs  Cs2  1  0.000000  0.000000  0.000000  1
  Lu  Lu3  1  0.000000  0.000000  0.500000  1
  V  V4  1  0.333333  0.666667  0.284159  1
  V  V5  1  0.666667  0.333333  0.715841  1
  O  O6  1  0.333333  0.666667  0.082723  1
  O  O7  1  0.666667  0.333333  0.917277  1
  O  O8  1  0.174407  0.825593  0.350282  1
  O  O9  1  0.825593  0.174407  0.649718  1
  O  O10  1  0.174407  0.348815  0.350282  1
  O  O11  1  0.825593  0.651185  0.649718  1
  O  O12  1  0.651185  0.825593  0.350282  1
  O  O13  1  0.348815  0.174407  0.649718  1
