# generated using pymatgen
data_Re4Tc2IrPd
_symmetry_space_group_name_H-M   'P 1'
_cell_length_a   5.57444707
_cell_length_b   5.57444704
_cell_length_c   4.40348000
_cell_angle_alpha   90.00000000
_cell_angle_beta   90.00000000
_cell_angle_gamma   120.01762090
_symmetry_Int_Tables_number   1
_chemical_formula_structural   Re4Tc2IrPd
_chemical_formula_sum   'Re4 Tc2 Ir1 Pd1'
_cell_volume   118.48219975
_cell_formula_units_Z   1
loop_
 _symmetry_equiv_pos_site_id
 _symmetry_equiv_pos_as_xyz
  1  'x, y, z'
loop_
 _atom_site_type_symbol
 _atom_site_label
 _atom_site_symmetry_multiplicity
 _atom_site_fract_x
 _atom_site_fract_y
 _atom_site_fract_z
 _atom_site_occupancy
  Re  Re0  1  0.840589  0.159411  0.750000  1
  Re  Re1  1  0.319105  0.160120  0.750000  1
  Re  Re2  1  0.839880  0.680895  0.750000  1
  Re  Re3  1  0.159815  0.840185  0.250000  1
  Tc  Tc4  1  0.680560  0.841247  0.250000  1
  Tc  Tc5  1  0.158753  0.319440  0.250000  1
  Ir  Ir6  1  0.667390  0.332610  0.250000  1
  Pd  Pd7  1  0.333908  0.666092  0.750000  1
