# generated using pymatgen
data_YbHf(Ni2P)4
_symmetry_space_group_name_H-M   'P 1'
_cell_length_a   3.57020000
_cell_length_b   6.98584084
_cell_length_c   6.98584084
_cell_angle_alpha   89.27235658
_cell_angle_beta   90.00000000
_cell_angle_gamma   90.00000000
_symmetry_Int_Tables_number   1
_chemical_formula_structural   YbHf(Ni2P)4
_chemical_formula_sum   'Yb1 Hf1 Ni8 P4'
_cell_volume   174.21875087
_cell_formula_units_Z   1
loop_
 _symmetry_equiv_pos_site_id
 _symmetry_equiv_pos_as_xyz
  1  'x, y, z'
loop_
 _atom_site_type_symbol
 _atom_site_label
 _atom_site_symmetry_multiplicity
 _atom_site_fract_x
 _atom_site_fract_y
 _atom_site_fract_z
 _atom_site_occupancy
  Yb  Yb0  1  0.000000  0.500000  0.500000  1
  Hf  Hf1  1  0.500000  0.000000  0.000000  1
  Ni  Ni2  1  0.500000  0.165020  0.585060  1
  Ni  Ni3  1  0.500000  0.834980  0.414940  1
  Ni  Ni4  1  0.000000  0.334774  0.084037  1
  Ni  Ni5  1  0.000000  0.665226  0.915963  1
  Ni  Ni6  1  0.500000  0.585060  0.165020  1
  Ni  Ni7  1  0.500000  0.414940  0.834980  1
  Ni  Ni8  1  0.000000  0.084037  0.334774  1
  Ni  Ni9  1  0.000000  0.915963  0.665226  1
  P  P10  1  0.500000  0.727720  0.727720  1
  P  P11  1  0.500000  0.272280  0.272280  1
  P  P12  1  0.000000  0.787237  0.212763  1
  P  P13  1  0.000000  0.212763  0.787237  1
