# generated using pymatgen
data_Sc3Ta2Re6Si6W
_symmetry_space_group_name_H-M   'P 1'
_cell_length_a   7.63034680
_cell_length_b   7.68113862
_cell_length_c   7.63034592
_cell_angle_alpha   126.28421263
_cell_angle_beta   128.29916990
_cell_angle_gamma   77.63885300
_symmetry_Int_Tables_number   1
_chemical_formula_structural   Sc3Ta2Re6Si6W
_chemical_formula_sum   'Sc3 Ta2 Re6 Si6 W1'
_cell_volume   274.54505475
_cell_formula_units_Z   1
loop_
 _symmetry_equiv_pos_site_id
 _symmetry_equiv_pos_as_xyz
  1  'x, y, z'
loop_
 _atom_site_type_symbol
 _atom_site_label
 _atom_site_symmetry_multiplicity
 _atom_site_fract_x
 _atom_site_fract_y
 _atom_site_fract_z
 _atom_site_occupancy
  Sc  Sc0  1  0.549135  0.092521  0.043386  1
  Sc  Sc1  1  0.452761  0.496768  0.544006  1
  Sc  Sc2  1  0.949358  0.496123  0.046764  1
  Ta  Ta3  1  0.749436  0.904653  0.655217  1
  Ta  Ta4  1  0.252783  0.897190  0.144406  1
  Re  Re5  1  0.494189  0.232784  0.732520  1
  Re  Re6  1  0.000264  0.232784  0.238595  1
  Re  Re7  1  0.120041  0.758930  0.624808  1
  Re  Re8  1  0.881015  0.498978  0.632984  1
  Re  Re9  1  0.634122  0.758930  0.138889  1
  Re  Re10  1  0.365995  0.498978  0.117964  1
  Si  Si11  1  0.747739  0.494785  0.247046  1
  Si  Si12  1  0.252917  0.497167  0.744249  1
  Si  Si13  1  0.328774  0.830198  0.492995  1
  Si  Si14  1  0.671087  0.164500  0.499650  1
  Si  Si15  1  0.837203  0.830198  0.001424  1
  Si  Si16  1  0.164849  0.164500  0.993413  1
  W  W17  1  0.048332  0.092212  0.543879  1
