# generated using pymatgen
data_Rb4Na2YInBi4
_symmetry_space_group_name_H-M   'P 1'
_cell_length_a   10.24546515
_cell_length_b   10.24546491
_cell_length_c   10.24546479
_cell_angle_alpha   136.60970657
_cell_angle_beta   62.28936949
_cell_angle_gamma   137.58810348
_symmetry_Int_Tables_number   1
_chemical_formula_structural   Rb4Na2YInBi4
_chemical_formula_sum   'Rb4 Na2 Y1 In1 Bi4'
_cell_volume   492.31813181
_cell_formula_units_Z   1
loop_
 _symmetry_equiv_pos_site_id
 _symmetry_equiv_pos_as_xyz
  1  'x, y, z'
loop_
 _atom_site_type_symbol
 _atom_site_label
 _atom_site_symmetry_multiplicity
 _atom_site_fract_x
 _atom_site_fract_y
 _atom_site_fract_z
 _atom_site_occupancy
  Rb  Rb0  1  0.822265  0.257779  0.091181  1
  Rb  Rb1  1  0.677734  0.768915  0.435514  1
  Rb  Rb2  1  0.333401  0.242221  0.564486  1
  Rb  Rb3  1  0.166599  0.731084  0.908818  1
  Na  Na4  1  0.750000  0.250000  0.500000  1
  Na  Na5  1  0.250000  0.750000  0.500000  1
  Y  Y6  1  0.250000  0.250000  0.000000  1
  In  In7  1  0.750001  0.750001  0.000000  1
  Bi  Bi8  1  0.402276  0.730191  0.123157  1
  Bi  Bi9  1  0.097723  0.220879  0.327915  1
  Bi  Bi10  1  0.892963  0.769808  0.672085  1
  Bi  Bi11  1  0.607036  0.279121  0.876843  1
