# generated using pymatgen
data_Tb8Re2TcB24Ru
_symmetry_space_group_name_H-M   'P 1'
_cell_length_a   3.69962600
_cell_length_b   9.19653247
_cell_length_c   11.58788711
_cell_angle_alpha   89.91752931
_cell_angle_beta   90.00000000
_cell_angle_gamma   90.00000000
_symmetry_Int_Tables_number   1
_chemical_formula_structural   Tb8Re2TcB24Ru
_chemical_formula_sum   'Tb8 Re2 Tc1 B24 Ru1'
_cell_volume   394.26274153
_cell_formula_units_Z   1
loop_
 _symmetry_equiv_pos_site_id
 _symmetry_equiv_pos_as_xyz
  1  'x, y, z'
loop_
 _atom_site_type_symbol
 _atom_site_label
 _atom_site_symmetry_multiplicity
 _atom_site_fract_x
 _atom_site_fract_y
 _atom_site_fract_z
 _atom_site_occupancy
  Tb  Tb0  1  0.000000  0.323763  0.413692  1
  Tb  Tb1  1  0.000000  0.674738  0.584153  1
  Tb  Tb2  1  0.000000  0.823566  0.087545  1
  Tb  Tb3  1  0.000000  0.177979  0.914092  1
  Tb  Tb4  1  0.000000  0.941916  0.370641  1
  Tb  Tb5  1  0.000000  0.056713  0.630787  1
  Tb  Tb6  1  0.000000  0.444053  0.130202  1
  Tb  Tb7  1  0.000000  0.558593  0.869526  1
  Re  Re8  1  0.000000  0.361753  0.679605  1
  Re  Re9  1  0.000000  0.137677  0.178047  1
  Tc  Tc10  1  0.000000  0.638594  0.320606  1
  B  B11  1  0.500000  0.553094  0.432315  1
  B  B12  1  0.500000  0.446620  0.566757  1
  B  B13  1  0.500000  0.053074  0.066932  1
  B  B14  1  0.500000  0.946026  0.932458  1
  B  B15  1  0.500000  0.747446  0.418483  1
  B  B16  1  0.500000  0.251151  0.581479  1
  B  B17  1  0.500000  0.248855  0.081372  1
  B  B18  1  0.500000  0.752342  0.918282  1
  B  B19  1  0.500000  0.791258  0.266034  1
  B  B20  1  0.500000  0.208836  0.734612  1
  B  B21  1  0.500000  0.291343  0.234159  1
  B  B22  1  0.500000  0.709756  0.765750  1
  B  B23  1  0.500000  0.631793  0.186120  1
  B  B24  1  0.500000  0.369060  0.814401  1
  B  B25  1  0.500000  0.130616  0.313592  1
  B  B26  1  0.500000  0.868101  0.686325  1
  B  B27  1  0.500000  0.982457  0.211862  1
  B  B28  1  0.500000  0.015578  0.788405  1
  B  B29  1  0.500000  0.483410  0.287909  1
  B  B30  1  0.500000  0.516851  0.711510  1
  B  B31  1  0.500000  0.603296  0.028460  1
  B  B32  1  0.500000  0.399397  0.971449  1
  B  B33  1  0.500000  0.101619  0.471917  1
  B  B34  1  0.500000  0.896942  0.529211  1
  Ru  Ru35  1  0.000000  0.861737  0.821307  1
