# generated using pymatgen
data_LaPr5(Al3Os)8
_symmetry_space_group_name_H-M   'P 1'
_cell_length_a   8.94461933
_cell_length_b   8.94462084
_cell_length_c   9.71616400
_cell_angle_alpha   90.00000000
_cell_angle_beta   90.00000000
_cell_angle_gamma   119.95153013
_symmetry_Int_Tables_number   1
_chemical_formula_structural   LaPr5(Al3Os)8
_chemical_formula_sum   'La1 Pr5 Al24 Os8'
_cell_volume   673.53656075
_cell_formula_units_Z   1
loop_
 _symmetry_equiv_pos_site_id
 _symmetry_equiv_pos_as_xyz
  1  'x, y, z'
loop_
 _atom_site_type_symbol
 _atom_site_label
 _atom_site_symmetry_multiplicity
 _atom_site_fract_x
 _atom_site_fract_y
 _atom_site_fract_z
 _atom_site_occupancy
  La  La0  1  0.806246  0.193754  0.750000  1
  Pr  Pr1  1  0.193070  0.384983  0.250000  1
  Pr  Pr2  1  0.808689  0.616413  0.750000  1
  Pr  Pr3  1  0.615017  0.806930  0.250000  1
  Pr  Pr4  1  0.383587  0.191311  0.750000  1
  Pr  Pr5  1  0.192106  0.807894  0.250000  1
  Al  Al6  1  0.333376  0.666624  0.008896  1
  Al  Al7  1  0.666007  0.333993  0.991887  1
  Al  Al8  1  0.666007  0.333993  0.508113  1
  Al  Al9  1  0.333376  0.666624  0.491104  1
  Al  Al10  1  0.163407  0.325596  0.574762  1
  Al  Al11  1  0.837095  0.674235  0.425706  1
  Al  Al12  1  0.674404  0.836593  0.574762  1
  Al  Al13  1  0.837095  0.674235  0.074294  1
  Al  Al14  1  0.325765  0.162905  0.425706  1
  Al  Al15  1  0.163407  0.325596  0.925238  1
  Al  Al16  1  0.162953  0.837047  0.574750  1
  Al  Al17  1  0.325765  0.162905  0.074294  1
  Al  Al18  1  0.837313  0.162687  0.425543  1
  Al  Al19  1  0.674404  0.836593  0.925238  1
  Al  Al20  1  0.837313  0.162687  0.074457  1
  Al  Al21  1  0.162953  0.837047  0.925250  1
  Al  Al22  1  0.562133  0.123667  0.250000  1
  Al  Al23  1  0.436749  0.874393  0.750000  1
  Al  Al24  1  0.876333  0.437867  0.250000  1
  Al  Al25  1  0.125607  0.563251  0.750000  1
  Al  Al26  1  0.562154  0.437846  0.250000  1
  Al  Al27  1  0.438407  0.561593  0.750000  1
  Al  Al28  1  0.999677  0.000323  0.250000  1
  Al  Al29  1  0.999579  0.000421  0.750000  1
  Os  Os30  1  0.499793  0.999959  0.999931  1
  Os  Os31  1  0.000041  0.500207  0.999931  1
  Os  Os32  1  0.499793  0.999959  0.500069  1
  Os  Os33  1  0.499816  0.500184  0.000497  1
  Os  Os34  1  0.000041  0.500207  0.500069  1
  Os  Os35  1  0.499816  0.500184  0.499503  1
  Os  Os36  1  0.000354  0.999646  0.000171  1
  Os  Os37  1  0.000354  0.999646  0.499829  1
