# generated using pymatgen
data_Nd3CoBr3
_symmetry_space_group_name_H-M   'P 1'
_cell_length_a   10.29858822
_cell_length_b   10.29858823
_cell_length_c   10.29858900
_cell_angle_alpha   109.47122215
_cell_angle_beta   109.47122216
_cell_angle_gamma   109.47121909
_symmetry_Int_Tables_number   1
_chemical_formula_structural   Nd3CoBr3
_chemical_formula_sum   'Nd12 Co4 Br12'
_cell_volume   840.83584090
_cell_formula_units_Z   4
loop_
 _symmetry_equiv_pos_site_id
 _symmetry_equiv_pos_as_xyz
  1  'x, y, z'
loop_
 _atom_site_type_symbol
 _atom_site_label
 _atom_site_symmetry_multiplicity
 _atom_site_fract_x
 _atom_site_fract_y
 _atom_site_fract_z
 _atom_site_occupancy
  Nd  Nd0  1  0.464593  0.482297  0.232297  1
  Nd  Nd1  1  0.750000  0.232297  0.267703  1
  Nd  Nd2  1  0.750000  0.017703  0.482297  1
  Nd  Nd3  1  0.232297  0.464593  0.482297  1
  Nd  Nd4  1  0.267703  0.750000  0.232297  1
  Nd  Nd5  1  0.035407  0.267703  0.017703  1
  Nd  Nd6  1  0.017703  0.035407  0.267703  1
  Nd  Nd7  1  0.482297  0.750000  0.017703  1
  Nd  Nd8  1  0.482297  0.232297  0.464593  1
  Nd  Nd9  1  0.017703  0.482297  0.750000  1
  Nd  Nd10  1  0.267703  0.017703  0.035407  1
  Nd  Nd11  1  0.232297  0.267703  0.750000  1
  Co  Co12  1  0.250000  0.250000  0.250000  1
  Co  Co13  1  0.500000  0.000000  0.250000  1
  Co  Co14  1  0.000000  0.250000  0.500000  1
  Co  Co15  1  0.250000  0.500000  0.000000  1
  Br  Br16  1  0.250000  0.756075  0.743925  1
  Br  Br17  1  0.512150  0.506075  0.756075  1
  Br  Br18  1  0.987850  0.743925  0.993925  1
  Br  Br19  1  0.743925  0.250000  0.756075  1
  Br  Br20  1  0.993925  0.987850  0.743925  1
  Br  Br21  1  0.250000  0.993925  0.506075  1
  Br  Br22  1  0.756075  0.512150  0.506075  1
  Br  Br23  1  0.506075  0.250000  0.993925  1
  Br  Br24  1  0.756075  0.743925  0.250000  1
  Br  Br25  1  0.743925  0.993925  0.987850  1
  Br  Br26  1  0.993925  0.506075  0.250000  1
  Br  Br27  1  0.506075  0.756075  0.512150  1
