# generated using pymatgen
data_Dy4FePt3O14
_symmetry_space_group_name_H-M   'P 1'
_cell_length_a   7.29936870
_cell_length_b   7.22224936
_cell_length_c   7.22225000
_cell_angle_alpha   59.99999708
_cell_angle_beta   60.34888022
_cell_angle_gamma   60.34888625
_symmetry_Int_Tables_number   1
_chemical_formula_structural   Dy4FePt3O14
_chemical_formula_sum   'Dy4 Fe1 Pt3 O14'
_cell_volume   270.63593927
_cell_formula_units_Z   1
loop_
 _symmetry_equiv_pos_site_id
 _symmetry_equiv_pos_as_xyz
  1  'x, y, z'
loop_
 _atom_site_type_symbol
 _atom_site_label
 _atom_site_symmetry_multiplicity
 _atom_site_fract_x
 _atom_site_fract_y
 _atom_site_fract_z
 _atom_site_occupancy
  Dy  Dy0  1  0.125000  0.625000  0.125000  1
  Dy  Dy1  1  0.125000  0.125000  0.625000  1
  Dy  Dy2  1  0.625000  0.125000  0.125000  1
  Dy  Dy3  1  0.125000  0.125000  0.125000  1
  Fe  Fe4  1  0.125000  0.625000  0.625000  1
  Pt  Pt5  1  0.625000  0.625000  0.625000  1
  Pt  Pt6  1  0.625000  0.125000  0.625000  1
  Pt  Pt7  1  0.625000  0.625000  0.125000  1
  O  O8  1  0.288445  0.713579  0.713579  1
  O  O9  1  0.536675  0.964783  0.964783  1
  O  O10  1  0.713325  0.285217  0.716242  1
  O  O11  1  0.288445  0.284398  0.713579  1
  O  O12  1  0.713325  0.716242  0.285217  1
  O  O13  1  0.995028  0.001657  0.001657  1
  O  O14  1  0.288445  0.713579  0.284398  1
  O  O15  1  0.961555  0.536421  0.965602  1
  O  O16  1  0.961555  0.965602  0.536421  1
  O  O17  1  0.536675  0.533758  0.964783  1
  O  O18  1  0.254972  0.248343  0.248343  1
  O  O19  1  0.536675  0.964783  0.533758  1
  O  O20  1  0.713325  0.285217  0.285217  1
  O  O21  1  0.961555  0.536421  0.536421  1
