# generated using pymatgen
data_Tm3V(Co4P3)2
_symmetry_space_group_name_H-M   'P 1'
_cell_length_a   3.66037800
_cell_length_b   10.50224500
_cell_length_c   12.14719600
_cell_angle_alpha   90.00000000
_cell_angle_beta   90.00000000
_cell_angle_gamma   90.00000000
_symmetry_Int_Tables_number   1
_chemical_formula_structural   Tm3V(Co4P3)2
_chemical_formula_sum   'Tm6 V2 Co16 P12'
_cell_volume   466.96477467
_cell_formula_units_Z   2
loop_
 _symmetry_equiv_pos_site_id
 _symmetry_equiv_pos_as_xyz
  1  'x, y, z'
loop_
 _atom_site_type_symbol
 _atom_site_label
 _atom_site_symmetry_multiplicity
 _atom_site_fract_x
 _atom_site_fract_y
 _atom_site_fract_z
 _atom_site_occupancy
  Tm  Tm0  1  0.000000  0.500000  0.523426  1
  Tm  Tm1  1  0.500000  0.000000  0.476574  1
  Tm  Tm2  1  0.500000  0.818864  0.204401  1
  Tm  Tm3  1  0.500000  0.181136  0.204401  1
  Tm  Tm4  1  0.000000  0.681136  0.795599  1
  Tm  Tm5  1  0.000000  0.318864  0.795599  1
  V  V6  1  0.500000  0.500000  0.154953  1
  V  V7  1  0.000000  0.000000  0.845047  1
  Co  Co8  1  0.000000  0.500000  0.986569  1
  Co  Co9  1  0.500000  0.000000  0.013431  1
  Co  Co10  1  0.500000  0.296165  0.431361  1
  Co  Co11  1  0.500000  0.703835  0.431361  1
  Co  Co12  1  0.000000  0.203835  0.568639  1
  Co  Co13  1  0.000000  0.796165  0.568639  1
  Co  Co14  1  0.500000  0.878116  0.707344  1
  Co  Co15  1  0.500000  0.121884  0.707344  1
  Co  Co16  1  0.000000  0.621884  0.292656  1
  Co  Co17  1  0.000000  0.378116  0.292656  1
  Co  Co18  1  0.500000  0.332462  0.992697  1
  Co  Co19  1  0.500000  0.667538  0.992697  1
  Co  Co20  1  0.000000  0.167538  0.007303  1
  Co  Co21  1  0.000000  0.832462  0.007303  1
  Co  Co22  1  0.500000  0.500000  0.701642  1
  Co  Co23  1  0.000000  0.000000  0.298358  1
  P  P24  1  0.500000  0.312362  0.616405  1
  P  P25  1  0.500000  0.687638  0.616405  1
  P  P26  1  0.000000  0.187638  0.383595  1
  P  P27  1  0.000000  0.812362  0.383595  1
  P  P28  1  0.500000  0.500000  0.881097  1
  P  P29  1  0.000000  0.000000  0.118903  1
  P  P30  1  0.500000  0.845448  0.891171  1
  P  P31  1  0.500000  0.154552  0.891171  1
  P  P32  1  0.000000  0.654552  0.108829  1
  P  P33  1  0.000000  0.345448  0.108829  1
  P  P34  1  0.500000  0.500000  0.348449  1
  P  P35  1  0.000000  0.000000  0.651551  1
