# generated using pymatgen
data_Tb3Y(Al5Pt3)4
_symmetry_space_group_name_H-M   'P 1'
_cell_length_a   4.09452300
_cell_length_b   7.40143800
_cell_length_c   20.62406400
_cell_angle_alpha   90.00155199
_cell_angle_beta   90.00000000
_cell_angle_gamma   90.00000000
_symmetry_Int_Tables_number   1
_chemical_formula_structural   Tb3Y(Al5Pt3)4
_chemical_formula_sum   'Tb3 Y1 Al20 Pt12'
_cell_volume   625.01964538
_cell_formula_units_Z   1
loop_
 _symmetry_equiv_pos_site_id
 _symmetry_equiv_pos_as_xyz
  1  'x, y, z'
loop_
 _atom_site_type_symbol
 _atom_site_label
 _atom_site_symmetry_multiplicity
 _atom_site_fract_x
 _atom_site_fract_y
 _atom_site_fract_z
 _atom_site_occupancy
  Tb  Tb0  1  0.250000  0.116363  0.639748  1
  Tb  Tb1  1  0.750000  0.883634  0.360251  1
  Tb  Tb2  1  0.250000  0.383641  0.139749  1
  Y  Y3  1  0.750000  0.616371  0.860252  1
  Al  Al4  1  0.750000  0.354470  0.382326  1
  Al  Al5  1  0.750000  0.884104  0.983801  1
  Al  Al6  1  0.750000  0.685761  0.200257  1
  Al  Al7  1  0.250000  0.869511  0.490981  1
  Al  Al8  1  0.250000  0.630482  0.990977  1
  Al  Al9  1  0.250000  0.314259  0.799750  1
  Al  Al10  1  0.750000  0.074609  0.209114  1
  Al  Al11  1  0.250000  0.645526  0.617675  1
  Al  Al12  1  0.250000  0.574613  0.290888  1
  Al  Al13  1  0.250000  0.185759  0.299745  1
  Al  Al14  1  0.750000  0.145544  0.882329  1
  Al  Al15  1  0.250000  0.925380  0.790888  1
  Al  Al16  1  0.750000  0.369516  0.009014  1
  Al  Al17  1  0.750000  0.615873  0.483806  1
  Al  Al18  1  0.750000  0.130488  0.509018  1
  Al  Al19  1  0.250000  0.115879  0.016186  1
  Al  Al20  1  0.250000  0.854460  0.117676  1
  Al  Al21  1  0.250000  0.384129  0.516194  1
  Al  Al22  1  0.750000  0.425401  0.709114  1
  Al  Al23  1  0.750000  0.814233  0.700254  1
  Pt  Pt24  1  0.750000  0.382472  0.259709  1
  Pt  Pt25  1  0.250000  0.882475  0.240292  1
  Pt  Pt26  1  0.250000  0.617537  0.740289  1
  Pt  Pt27  1  0.750000  0.117519  0.759705  1
  Pt  Pt28  1  0.250000  0.160172  0.426161  1
  Pt  Pt29  1  0.750000  0.418824  0.585608  1
  Pt  Pt30  1  0.750000  0.081178  0.085603  1
  Pt  Pt31  1  0.250000  0.918820  0.914393  1
  Pt  Pt32  1  0.750000  0.839828  0.573843  1
  Pt  Pt33  1  0.250000  0.339820  0.926162  1
  Pt  Pt34  1  0.750000  0.660173  0.073846  1
  Pt  Pt35  1  0.250000  0.581179  0.414395  1
