# generated using pymatgen
data_MnSb12Pt2Rh
_symmetry_space_group_name_H-M   'P 1'
_cell_length_a   8.13027716
_cell_length_b   8.13137298
_cell_length_c   9.39139067
_cell_angle_alpha   54.82087825
_cell_angle_beta   54.73821159
_cell_angle_gamma   70.51565467
_symmetry_Int_Tables_number   1
_chemical_formula_structural   MnSb12Pt2Rh
_chemical_formula_sum   'Mn1 Sb12 Pt2 Rh1'
_cell_volume   414.35987021
_cell_formula_units_Z   1
loop_
 _symmetry_equiv_pos_site_id
 _symmetry_equiv_pos_as_xyz
  1  'x, y, z'
loop_
 _atom_site_type_symbol
 _atom_site_label
 _atom_site_symmetry_multiplicity
 _atom_site_fract_x
 _atom_site_fract_y
 _atom_site_fract_z
 _atom_site_occupancy
  Mn  Mn0  1  0.000000  0.500000  0.500000  1
  Sb  Sb1  1  0.676958  0.662844  0.487655  1
  Sb  Sb2  1  0.323042  0.337156  0.512345  1
  Sb  Sb3  1  0.651422  0.651511  0.196067  1
  Sb  Sb4  1  0.348578  0.348489  0.803933  1
  Sb  Sb5  1  0.156830  0.849614  0.653315  1
  Sb  Sb6  1  0.843170  0.150386  0.346685  1
  Sb  Sb7  1  0.853477  0.167618  0.653189  1
  Sb  Sb8  1  0.146523  0.832382  0.346811  1
  Sb  Sb9  1  0.820791  0.492186  0.832926  1
  Sb  Sb10  1  0.179209  0.507814  0.167074  1
  Sb  Sb11  1  0.503479  0.190092  0.156586  1
  Sb  Sb12  1  0.496521  0.809908  0.843414  1
  Pt  Pt13  1  0.000000  0.500000  0.000000  1
  Pt  Pt14  1  0.500000  0.000000  0.000000  1
  Rh  Rh15  1  0.500000  0.000000  0.500000  1
