# generated using pymatgen
data_Zn6Sn4IrRu3
_symmetry_space_group_name_H-M   'P 1'
_cell_length_a   4.22497300
_cell_length_b   8.30051100
_cell_length_c   13.84608800
_cell_angle_alpha   90.00000000
_cell_angle_beta   90.00000000
_cell_angle_gamma   90.00000000
_symmetry_Int_Tables_number   1
_chemical_formula_structural   Zn6Sn4IrRu3
_chemical_formula_sum   'Zn12 Sn8 Ir2 Ru6'
_cell_volume   485.57448120
_cell_formula_units_Z   2
loop_
 _symmetry_equiv_pos_site_id
 _symmetry_equiv_pos_as_xyz
  1  'x, y, z'
loop_
 _atom_site_type_symbol
 _atom_site_label
 _atom_site_symmetry_multiplicity
 _atom_site_fract_x
 _atom_site_fract_y
 _atom_site_fract_z
 _atom_site_occupancy
  Zn  Zn0  1  0.750000  0.464437  0.958607  1
  Zn  Zn1  1  0.750000  0.964437  0.541393  1
  Zn  Zn2  1  0.250000  0.535805  0.040953  1
  Zn  Zn3  1  0.250000  0.035805  0.459047  1
  Zn  Zn4  1  0.750000  0.158164  0.868347  1
  Zn  Zn5  1  0.750000  0.658164  0.631653  1
  Zn  Zn6  1  0.250000  0.840846  0.130292  1
  Zn  Zn7  1  0.250000  0.340846  0.369708  1
  Zn  Zn8  1  0.750000  0.910387  0.743603  1
  Zn  Zn9  1  0.750000  0.410387  0.756397  1
  Zn  Zn10  1  0.250000  0.090064  0.256293  1
  Zn  Zn11  1  0.250000  0.590064  0.243707  1
  Sn  Sn12  1  0.750000  0.346769  0.195432  1
  Sn  Sn13  1  0.750000  0.846769  0.304568  1
  Sn  Sn14  1  0.250000  0.654224  0.803596  1
  Sn  Sn15  1  0.250000  0.154224  0.696404  1
  Sn  Sn16  1  0.750000  0.849766  0.974658  1
  Sn  Sn17  1  0.750000  0.349766  0.525342  1
  Sn  Sn18  1  0.250000  0.147882  0.022552  1
  Sn  Sn19  1  0.250000  0.647882  0.477448  1
  Ir  Ir20  1  0.750000  0.041229  0.141794  1
  Ir  Ir21  1  0.750000  0.541229  0.358206  1
  Ru  Ru22  1  0.250000  0.957853  0.857595  1
  Ru  Ru23  1  0.250000  0.457853  0.642405  1
  Ru  Ru24  1  0.750000  0.652033  0.131730  1
  Ru  Ru25  1  0.750000  0.152033  0.368270  1
  Ru  Ru26  1  0.250000  0.350541  0.869690  1
  Ru  Ru27  1  0.250000  0.850541  0.630310  1
