# generated using pymatgen
data_Tb8Ho2Ir5Pt
_symmetry_space_group_name_H-M   'P 1'
_cell_length_a   10.97863232
_cell_length_b   10.98554400
_cell_length_c   6.36029906
_cell_angle_alpha   90.00000000
_cell_angle_beta   89.97075344
_cell_angle_gamma   90.00000000
_symmetry_Int_Tables_number   1
_chemical_formula_structural   Tb8Ho2Ir5Pt
_chemical_formula_sum   'Tb16 Ho4 Ir10 Pt2'
_cell_volume   767.09170897
_cell_formula_units_Z   2
loop_
 _symmetry_equiv_pos_site_id
 _symmetry_equiv_pos_as_xyz
  1  'x, y, z'
loop_
 _atom_site_type_symbol
 _atom_site_label
 _atom_site_symmetry_multiplicity
 _atom_site_fract_x
 _atom_site_fract_y
 _atom_site_fract_z
 _atom_site_occupancy
  Tb  Tb0  1  0.291082  0.088357  0.376297  1
  Tb  Tb1  1  0.291082  0.911643  0.876297  1
  Tb  Tb2  1  0.705514  0.090138  0.874163  1
  Tb  Tb3  1  0.705514  0.909862  0.374163  1
  Tb  Tb4  1  0.584601  0.790610  0.878683  1
  Tb  Tb5  1  0.584601  0.209390  0.378683  1
  Tb  Tb6  1  0.410746  0.791093  0.377779  1
  Tb  Tb7  1  0.410746  0.208907  0.877779  1
  Tb  Tb8  1  0.209168  0.411437  0.622040  1
  Tb  Tb9  1  0.209168  0.588563  0.122040  1
  Tb  Tb10  1  0.790569  0.414550  0.122394  1
  Tb  Tb11  1  0.790569  0.585450  0.622394  1
  Tb  Tb12  1  0.913408  0.707340  0.126524  1
  Tb  Tb13  1  0.913408  0.292660  0.626524  1
  Tb  Tb14  1  0.091619  0.706984  0.622269  1
  Tb  Tb15  1  0.091619  0.293016  0.122269  1
  Ho  Ho16  1  0.003063  0.999564  0.499995  1
  Ho  Ho17  1  0.003063  0.000436  0.999995  1
  Ho  Ho18  1  0.499778  0.499572  0.999858  1
  Ho  Ho19  1  0.499778  0.500428  0.499858  1
  Ir  Ir20  1  0.152486  0.153282  0.750065  1
  Ir  Ir21  1  0.152486  0.846718  0.250065  1
  Ir  Ir22  1  0.654443  0.346392  0.749495  1
  Ir  Ir23  1  0.654443  0.653608  0.249495  1
  Ir  Ir24  1  0.347100  0.346720  0.250361  1
  Ir  Ir25  1  0.347100  0.653280  0.750361  1
  Ir  Ir26  1  0.500696  0.999820  0.123412  1
  Ir  Ir27  1  0.500696  0.000180  0.623412  1
  Ir  Ir28  1  0.999580  0.500232  0.876863  1
  Ir  Ir29  1  0.999580  0.499768  0.376863  1
  Pt  Pt30  1  0.846147  0.152859  0.249801  1
  Pt  Pt31  1  0.846147  0.847141  0.749801  1
