# generated using pymatgen
data_Th2Zn14Co3
_symmetry_space_group_name_H-M   'P 1'
_cell_length_a   6.72686778
_cell_length_b   6.72686886
_cell_length_c   6.72686681
_cell_angle_alpha   83.00556080
_cell_angle_beta   83.00556502
_cell_angle_gamma   83.00555739
_symmetry_Int_Tables_number   1
_chemical_formula_structural   Th2Zn14Co3
_chemical_formula_sum   'Th2 Zn14 Co3'
_cell_volume   298.10989566
_cell_formula_units_Z   1
loop_
 _symmetry_equiv_pos_site_id
 _symmetry_equiv_pos_as_xyz
  1  'x, y, z'
loop_
 _atom_site_type_symbol
 _atom_site_label
 _atom_site_symmetry_multiplicity
 _atom_site_fract_x
 _atom_site_fract_y
 _atom_site_fract_z
 _atom_site_occupancy
  Th  Th0  1  0.665002  0.665002  0.665002  1
  Th  Th1  1  0.334998  0.334998  0.334998  1
  Zn  Zn2  1  0.346157  0.346157  0.851609  1
  Zn  Zn3  1  0.851609  0.346157  0.346157  1
  Zn  Zn4  1  0.102978  0.102978  0.102978  1
  Zn  Zn5  1  0.897022  0.897022  0.897022  1
  Zn  Zn6  1  0.289555  0.710445  0.000000  1
  Zn  Zn7  1  0.710445  0.000000  0.289555  1
  Zn  Zn8  1  0.000000  0.289555  0.710445  1
  Zn  Zn9  1  0.710445  0.289555  0.000000  1
  Zn  Zn10  1  0.289555  0.000000  0.710445  1
  Zn  Zn11  1  0.000000  0.710445  0.289555  1
  Zn  Zn12  1  0.148391  0.653843  0.653843  1
  Zn  Zn13  1  0.653843  0.653843  0.148391  1
  Zn  Zn14  1  0.653843  0.148391  0.653843  1
  Zn  Zn15  1  0.346157  0.851609  0.346157  1
  Co  Co16  1  0.000000  0.000000  0.500000  1
  Co  Co17  1  0.000000  0.500000  0.000000  1
  Co  Co18  1  0.500000  0.000000  0.000000  1
