# generated using pymatgen
data_Er20Si12Br
_symmetry_space_group_name_H-M   'P 1'
_cell_length_a   6.30797863
_cell_length_b   8.39569851
_cell_length_c   14.63918000
_cell_angle_alpha   90.00000682
_cell_angle_beta   90.00000000
_cell_angle_gamma   89.98487231
_symmetry_Int_Tables_number   1
_chemical_formula_structural   Er20Si12Br
_chemical_formula_sum   'Er20 Si12 Br1'
_cell_volume   775.28928819
_cell_formula_units_Z   1
loop_
 _symmetry_equiv_pos_site_id
 _symmetry_equiv_pos_as_xyz
  1  'x, y, z'
loop_
 _atom_site_type_symbol
 _atom_site_label
 _atom_site_symmetry_multiplicity
 _atom_site_fract_x
 _atom_site_fract_y
 _atom_site_fract_z
 _atom_site_occupancy
  Er  Er0  1  0.499971  0.000020  0.332988  1
  Er  Er1  1  0.499976  0.500017  0.831901  1
  Er  Er2  1  0.499976  0.500017  0.168099  1
  Er  Er3  1  0.499971  0.000020  0.667012  1
  Er  Er4  1  0.999983  0.500009  0.171124  1
  Er  Er5  1  0.999985  0.000018  0.661785  1
  Er  Er6  1  0.999985  0.000018  0.338215  1
  Er  Er7  1  0.999983  0.500009  0.828876  1
  Er  Er8  1  0.771911  0.261386  0.000000  1
  Er  Er9  1  0.746670  0.742848  0.500000  1
  Er  Er10  1  0.749976  0.377030  0.380295  1
  Er  Er11  1  0.771322  0.869691  0.869460  1
  Er  Er12  1  0.771322  0.869691  0.130540  1
  Er  Er13  1  0.749976  0.377030  0.619705  1
  Er  Er14  1  0.228074  0.738618  0.000000  1
  Er  Er15  1  0.253292  0.257190  0.500000  1
  Er  Er16  1  0.228673  0.130327  0.130557  1
  Er  Er17  1  0.249982  0.623001  0.619700  1
  Er  Er18  1  0.249982  0.623001  0.380300  1
  Er  Er19  1  0.228673  0.130327  0.869443  1
  Si  Si20  1  0.755331  0.609391  0.000000  1
  Si  Si21  1  0.744422  0.105600  0.500000  1
  Si  Si22  1  0.755415  0.196811  0.198436  1
  Si  Si23  1  0.750648  0.695425  0.694937  1
  Si  Si24  1  0.750648  0.695425  0.305063  1
  Si  Si25  1  0.755415  0.196811  0.801564  1
  Si  Si26  1  0.244653  0.390602  0.000000  1
  Si  Si27  1  0.255550  0.894432  0.500000  1
  Si  Si28  1  0.249315  0.304598  0.305063  1
  Si  Si29  1  0.244566  0.803211  0.801559  1
  Si  Si30  1  0.244566  0.803211  0.198441  1
  Si  Si31  1  0.249315  0.304598  0.694937  1
  Br  Br32  1  0.500476  0.999617  0.000000  1
