# generated using pymatgen
data_YEr2Tm13Tl2(In2Co)2
_symmetry_space_group_name_H-M   'P 1'
_cell_length_a   10.22354200
_cell_length_b   10.23573119
_cell_length_c   6.95099900
_cell_angle_alpha   90.02023541
_cell_angle_beta   90.00000000
_cell_angle_gamma   119.96060845
_symmetry_Int_Tables_number   1
_chemical_formula_structural   YEr2Tm13Tl2(In2Co)2
_chemical_formula_sum   'Y1 Er2 Tm13 Tl2 In4 Co2'
_cell_volume   630.18829021
_cell_formula_units_Z   1
loop_
 _symmetry_equiv_pos_site_id
 _symmetry_equiv_pos_as_xyz
  1  'x, y, z'
loop_
 _atom_site_type_symbol
 _atom_site_label
 _atom_site_symmetry_multiplicity
 _atom_site_fract_x
 _atom_site_fract_y
 _atom_site_fract_z
 _atom_site_occupancy
  Y  Y0  1  0.534252  0.068426  0.790859  1
  Er  Er1  1  0.999911  0.000572  0.778186  1
  Er  Er2  1  0.999609  0.000019  0.280058  1
  Tm  Tm3  1  0.929577  0.464614  0.791292  1
  Tm  Tm4  1  0.535128  0.464601  0.791130  1
  Tm  Tm5  1  0.464476  0.928257  0.292038  1
  Tm  Tm6  1  0.070819  0.535281  0.292679  1
  Tm  Tm7  1  0.464625  0.535809  0.293074  1
  Tm  Tm8  1  0.821562  0.642991  0.497395  1
  Tm  Tm9  1  0.357455  0.179453  0.495853  1
  Tm  Tm10  1  0.822111  0.179469  0.496570  1
  Tm  Tm11  1  0.178923  0.357751  0.998827  1
  Tm  Tm12  1  0.642860  0.820328  0.999072  1
  Tm  Tm13  1  0.177491  0.820410  0.998946  1
  Tm  Tm14  1  0.667115  0.333971  0.182611  1
  Tm  Tm15  1  0.332886  0.665780  0.682932  1
  Tl  Tl16  1  0.836607  0.673183  0.039656  1
  Tl  Tl17  1  0.325426  0.162675  0.040248  1
  In  In18  1  0.837259  0.162611  0.039949  1
  In  In19  1  0.163232  0.326442  0.540932  1
  In  In20  1  0.674095  0.837526  0.540720  1
  In  In21  1  0.163499  0.837492  0.540789  1
  Co  Co22  1  0.667730  0.335651  0.564972  1
  Co  Co23  1  0.333358  0.666682  0.067117  1
