# generated using pymatgen
data_Hf4ZnSiH2
_symmetry_space_group_name_H-M   'P 1'
_cell_length_a   5.41171500
_cell_length_b   5.41171400
_cell_length_c   5.41171385
_cell_angle_alpha   104.37898435
_cell_angle_beta   104.37897031
_cell_angle_gamma   120.22062761
_symmetry_Int_Tables_number   1
_chemical_formula_structural   Hf4ZnSiH2
_chemical_formula_sum   'Hf4 Zn1 Si1 H2'
_cell_volume   118.73471133
_cell_formula_units_Z   1
loop_
 _symmetry_equiv_pos_site_id
 _symmetry_equiv_pos_as_xyz
  1  'x, y, z'
loop_
 _atom_site_type_symbol
 _atom_site_label
 _atom_site_symmetry_multiplicity
 _atom_site_fract_x
 _atom_site_fract_y
 _atom_site_fract_z
 _atom_site_occupancy
  Hf  Hf0  1  0.162129  0.662129  0.824260  1
  Hf  Hf1  1  0.837871  0.337871  0.175740  1
  Hf  Hf2  1  0.337871  0.162129  0.500000  1
  Hf  Hf3  1  0.662129  0.837871  0.500000  1
  Zn  Zn4  1  0.250000  0.250000  0.000000  1
  Si  Si5  1  0.750000  0.750000  0.000000  1
  H  H6  1  0.750000  0.250000  0.500000  1
  H  H7  1  0.250000  0.750000  0.500000  1
