# generated using pymatgen
data_Dy6MgNi17As12
_symmetry_space_group_name_H-M   'P 1'
_cell_length_a   3.91005000
_cell_length_b   10.95638300
_cell_length_c   12.76120200
_cell_angle_alpha   90.00000000
_cell_angle_beta   90.00000000
_cell_angle_gamma   90.00000000
_symmetry_Int_Tables_number   1
_chemical_formula_structural   Dy6MgNi17As12
_chemical_formula_sum   'Dy6 Mg1 Ni17 As12'
_cell_volume   546.68996194
_cell_formula_units_Z   1
loop_
 _symmetry_equiv_pos_site_id
 _symmetry_equiv_pos_as_xyz
  1  'x, y, z'
loop_
 _atom_site_type_symbol
 _atom_site_label
 _atom_site_symmetry_multiplicity
 _atom_site_fract_x
 _atom_site_fract_y
 _atom_site_fract_z
 _atom_site_occupancy
  Dy  Dy0  1  0.000000  0.500000  0.527821  1
  Dy  Dy1  1  0.500000  0.000000  0.476203  1
  Dy  Dy2  1  0.500000  0.820537  0.208615  1
  Dy  Dy3  1  0.500000  0.179463  0.208615  1
  Dy  Dy4  1  0.000000  0.682238  0.796165  1
  Dy  Dy5  1  0.000000  0.317762  0.796165  1
  Mg  Mg6  1  0.500000  0.500000  0.150229  1
  Ni  Ni7  1  0.000000  0.000000  0.840937  1
  Ni  Ni8  1  0.500000  0.500000  0.701151  1
  Ni  Ni9  1  0.000000  0.000000  0.301124  1
  Ni  Ni10  1  0.000000  0.500000  0.985945  1
  Ni  Ni11  1  0.500000  0.000000  0.017516  1
  Ni  Ni12  1  0.500000  0.326332  0.994006  1
  Ni  Ni13  1  0.500000  0.673668  0.994006  1
  Ni  Ni14  1  0.000000  0.159635  0.998678  1
  Ni  Ni15  1  0.000000  0.840365  0.998678  1
  Ni  Ni16  1  0.500000  0.300381  0.429525  1
  Ni  Ni17  1  0.500000  0.699619  0.429525  1
  Ni  Ni18  1  0.000000  0.197790  0.573055  1
  Ni  Ni19  1  0.000000  0.802210  0.573055  1
  Ni  Ni20  1  0.500000  0.880467  0.706044  1
  Ni  Ni21  1  0.500000  0.119533  0.706044  1
  Ni  Ni22  1  0.000000  0.619883  0.292609  1
  Ni  Ni23  1  0.000000  0.380117  0.292609  1
  As  As24  1  0.500000  0.500000  0.879449  1
  As  As25  1  0.000000  0.000000  0.123534  1
  As  As26  1  0.500000  0.500000  0.356051  1
  As  As27  1  0.000000  0.000000  0.652814  1
  As  As28  1  0.500000  0.313882  0.616079  1
  As  As29  1  0.500000  0.686118  0.616079  1
  As  As30  1  0.000000  0.185763  0.387103  1
  As  As31  1  0.000000  0.814237  0.387103  1
  As  As32  1  0.500000  0.850292  0.887151  1
  As  As33  1  0.500000  0.149708  0.887151  1
  As  As34  1  0.000000  0.664605  0.104585  1
  As  As35  1  0.000000  0.335395  0.104585  1
