# generated using pymatgen
data_Ta2Nb8Al4Au
_symmetry_space_group_name_H-M   'P 1'
_cell_length_a   9.97674300
_cell_length_b   9.97674300
_cell_length_c   5.23702900
_cell_angle_alpha   90.00000000
_cell_angle_beta   90.00000000
_cell_angle_gamma   90.00000000
_symmetry_Int_Tables_number   1
_chemical_formula_structural   Ta2Nb8Al4Au
_chemical_formula_sum   'Ta4 Nb16 Al8 Au2'
_cell_volume   521.26978098
_cell_formula_units_Z   2
loop_
 _symmetry_equiv_pos_site_id
 _symmetry_equiv_pos_as_xyz
  1  'x, y, z'
loop_
 _atom_site_type_symbol
 _atom_site_label
 _atom_site_symmetry_multiplicity
 _atom_site_fract_x
 _atom_site_fract_y
 _atom_site_fract_z
 _atom_site_occupancy
  Ta  Ta0  1  0.130145  0.465177  0.000000  1
  Ta  Ta1  1  0.965177  0.369855  0.500000  1
  Ta  Ta2  1  0.034823  0.630145  0.500000  1
  Ta  Ta3  1  0.869855  0.534823  0.000000  1
  Nb  Nb4  1  0.398471  0.397277  0.000000  1
  Nb  Nb5  1  0.897277  0.101529  0.500000  1
  Nb  Nb6  1  0.102723  0.898471  0.500000  1
  Nb  Nb7  1  0.601529  0.602723  0.000000  1
  Nb  Nb8  1  0.370446  0.965406  0.500000  1
  Nb  Nb9  1  0.629554  0.034594  0.500000  1
  Nb  Nb10  1  0.465406  0.129554  0.000000  1
  Nb  Nb11  1  0.534594  0.870446  0.000000  1
  Nb  Nb12  1  0.183471  0.185609  0.253069  1
  Nb  Nb13  1  0.685609  0.316529  0.753069  1
  Nb  Nb14  1  0.314391  0.683471  0.753069  1
  Nb  Nb15  1  0.816529  0.814391  0.253069  1
  Nb  Nb16  1  0.314391  0.683471  0.246931  1
  Nb  Nb17  1  0.685609  0.316529  0.246931  1
  Nb  Nb18  1  0.183471  0.185609  0.746931  1
  Nb  Nb19  1  0.816529  0.814391  0.746931  1
  Al  Al20  1  0.259695  0.934842  0.000000  1
  Al  Al21  1  0.434842  0.240305  0.500000  1
  Al  Al22  1  0.565158  0.759695  0.500000  1
  Al  Al23  1  0.740305  0.065158  0.000000  1
  Al  Al24  1  0.239766  0.434633  0.500000  1
  Al  Al25  1  0.760234  0.565367  0.500000  1
  Al  Al26  1  0.934633  0.260234  0.000000  1
  Al  Al27  1  0.065367  0.739766  0.000000  1
  Au  Au28  1  0.000000  0.000000  0.000000  1
  Au  Au29  1  0.500000  0.500000  0.500000  1
