# generated using pymatgen
data_NdAl5Pt3
_symmetry_space_group_name_H-M   'P 1'
_cell_length_a   4.14158700
_cell_length_b   7.38485000
_cell_length_c   20.75540200
_cell_angle_alpha   90.00000000
_cell_angle_beta   90.00000000
_cell_angle_gamma   90.00000000
_symmetry_Int_Tables_number   1
_chemical_formula_structural   NdAl5Pt3
_chemical_formula_sum   'Nd4 Al20 Pt12'
_cell_volume   634.80394437
_cell_formula_units_Z   4
loop_
 _symmetry_equiv_pos_site_id
 _symmetry_equiv_pos_as_xyz
  1  'x, y, z'
loop_
 _atom_site_type_symbol
 _atom_site_label
 _atom_site_symmetry_multiplicity
 _atom_site_fract_x
 _atom_site_fract_y
 _atom_site_fract_z
 _atom_site_occupancy
  Nd  Nd0  1  0.250000  0.118113  0.640169  1
  Nd  Nd1  1  0.750000  0.881887  0.359831  1
  Nd  Nd2  1  0.250000  0.381887  0.140169  1
  Nd  Nd3  1  0.750000  0.618113  0.859831  1
  Al  Al4  1  0.750000  0.355398  0.383066  1
  Al  Al5  1  0.750000  0.886066  0.982954  1
  Al  Al6  1  0.750000  0.687275  0.200697  1
  Al  Al7  1  0.250000  0.869112  0.491823  1
  Al  Al8  1  0.250000  0.630888  0.991823  1
  Al  Al9  1  0.250000  0.312725  0.799303  1
  Al  Al10  1  0.750000  0.075992  0.208421  1
  Al  Al11  1  0.250000  0.644602  0.616934  1
  Al  Al12  1  0.250000  0.575992  0.291579  1
  Al  Al13  1  0.250000  0.187275  0.299303  1
  Al  Al14  1  0.750000  0.144602  0.883066  1
  Al  Al15  1  0.250000  0.924008  0.791579  1
  Al  Al16  1  0.750000  0.369112  0.008177  1
  Al  Al17  1  0.750000  0.613934  0.482954  1
  Al  Al18  1  0.750000  0.130888  0.508177  1
  Al  Al19  1  0.250000  0.113934  0.017046  1
  Al  Al20  1  0.250000  0.855398  0.116934  1
  Al  Al21  1  0.250000  0.386066  0.517046  1
  Al  Al22  1  0.750000  0.424008  0.708421  1
  Al  Al23  1  0.750000  0.812725  0.700697  1
  Pt  Pt24  1  0.750000  0.383153  0.262212  1
  Pt  Pt25  1  0.250000  0.883153  0.237788  1
  Pt  Pt26  1  0.250000  0.616847  0.737788  1
  Pt  Pt27  1  0.750000  0.116847  0.762212  1
  Pt  Pt28  1  0.250000  0.163747  0.427265  1
  Pt  Pt29  1  0.750000  0.421436  0.584528  1
  Pt  Pt30  1  0.750000  0.078564  0.084528  1
  Pt  Pt31  1  0.250000  0.921436  0.915472  1
  Pt  Pt32  1  0.750000  0.836253  0.572735  1
  Pt  Pt33  1  0.250000  0.336253  0.927265  1
  Pt  Pt34  1  0.750000  0.663747  0.072735  1
  Pt  Pt35  1  0.250000  0.578564  0.415472  1
