# generated using pymatgen
data_Yb6U2O11F
_symmetry_space_group_name_H-M   'P 1'
_cell_length_a   6.74318273
_cell_length_b   6.67584311
_cell_length_c   6.71241607
_cell_angle_alpha   91.46327722
_cell_angle_beta   91.80141023
_cell_angle_gamma   91.90021062
_symmetry_Int_Tables_number   1
_chemical_formula_structural   Yb6U2O11F
_chemical_formula_sum   'Yb6 U2 O11 F1'
_cell_volume   301.74672974
_cell_formula_units_Z   1
loop_
 _symmetry_equiv_pos_site_id
 _symmetry_equiv_pos_as_xyz
  1  'x, y, z'
loop_
 _atom_site_type_symbol
 _atom_site_label
 _atom_site_symmetry_multiplicity
 _atom_site_fract_x
 _atom_site_fract_y
 _atom_site_fract_z
 _atom_site_occupancy
  Yb  Yb0  1  0.938050  0.442990  0.747653  1
  Yb  Yb1  1  0.746732  0.939501  0.444029  1
  Yb  Yb2  1  0.570979  0.257690  0.068032  1
  Yb  Yb3  1  0.248763  0.058793  0.548165  1
  Yb  Yb4  1  0.060206  0.558039  0.252898  1
  Yb  Yb5  1  0.442640  0.741858  0.939668  1
  U  U6  1  0.987906  0.996660  0.001411  1
  U  U7  1  0.498403  0.500441  0.501407  1
  O  O8  1  0.060500  0.920967  0.295796  1
  O  O9  1  0.919387  0.297117  0.066045  1
  O  O10  1  0.691174  0.933747  0.083094  1
  O  O11  1  0.940588  0.078659  0.704149  1
  O  O12  1  0.079905  0.705610  0.934133  1
  O  O13  1  0.202075  0.410007  0.541703  1
  O  O14  1  0.406616  0.536567  0.202117  1
  O  O15  1  0.459429  0.799482  0.591813  1
  O  O16  1  0.590719  0.461340  0.800299  1
  O  O17  1  0.795327  0.587795  0.459743  1
  O  O18  1  0.536465  0.201013  0.411303  1
  F  F19  1  0.324134  0.071724  0.906543  1
