# generated using pymatgen
data_Re(SeBr2)2
_symmetry_space_group_name_H-M   'P 1'
_cell_length_a   10.82949284
_cell_length_b   10.82949234
_cell_length_c   10.82949259
_cell_angle_alpha   116.09359926
_cell_angle_beta   116.09359813
_cell_angle_gamma   96.91070541
_symmetry_Int_Tables_number   1
_chemical_formula_structural   Re(SeBr2)2
_chemical_formula_sum   'Re4 Se8 Br16'
_cell_volume   943.65686468
_cell_formula_units_Z   4
loop_
 _symmetry_equiv_pos_site_id
 _symmetry_equiv_pos_as_xyz
  1  'x, y, z'
loop_
 _atom_site_type_symbol
 _atom_site_label
 _atom_site_symmetry_multiplicity
 _atom_site_fract_x
 _atom_site_fract_y
 _atom_site_fract_z
 _atom_site_occupancy
  Re  Re0  1  0.563487  0.212939  0.416662  1
  Re  Re1  1  0.796277  0.146826  0.583338  1
  Re  Re2  1  0.853174  0.436513  0.649451  1
  Re  Re3  1  0.787061  0.203723  0.350549  1
  Se  Se4  1  0.356764  0.319429  0.420400  1
  Se  Se5  1  0.899029  0.936364  0.579600  1
  Se  Se6  1  0.063636  0.643236  0.962665  1
  Se  Se7  1  0.680571  0.100971  0.037335  1
  Se  Se8  1  0.703351  0.322156  0.716645  1
  Se  Se9  1  0.605511  0.986706  0.283355  1
  Se  Se10  1  0.013294  0.296649  0.618806  1
  Se  Se11  1  0.677844  0.394489  0.381194  1
  Br  Br12  1  0.402563  0.450568  0.694892  1
  Br  Br13  1  0.755676  0.707671  0.305108  1
  Br  Br14  1  0.292329  0.597437  0.048006  1
  Br  Br15  1  0.549432  0.244324  0.951994  1
  Br  Br16  1  0.354803  0.054332  0.409419  1
  Br  Br17  1  0.644913  0.945385  0.590581  1
  Br  Br18  1  0.054615  0.645197  0.699528  1
  Br  Br19  1  0.945668  0.355087  0.300472  1
  Br  Br20  1  0.335253  0.122143  0.125404  1
  Br  Br21  1  0.996739  0.209850  0.874596  1
  Br  Br22  1  0.790150  0.664747  0.786888  1
  Br  Br23  1  0.877857  0.003261  0.213112  1
  Br  Br24  1  0.384055  0.528402  0.392492  1
  Br  Br25  1  0.135911  0.991562  0.607508  1
  Br  Br26  1  0.008438  0.615945  0.144348  1
  Br  Br27  1  0.471598  0.864089  0.855652  1
