# generated using pymatgen
data_Gd5AsRuO12
_symmetry_space_group_name_H-M   'P 1'
_cell_length_a   6.94637846
_cell_length_b   6.94637834
_cell_length_c   7.34814100
_cell_angle_alpha   74.58349808
_cell_angle_beta   74.58349836
_cell_angle_gamma   50.66722819
_symmetry_Int_Tables_number   1
_chemical_formula_structural   Gd5AsRuO12
_chemical_formula_sum   'Gd5 As1 Ru1 O12'
_cell_volume   262.11695268
_cell_formula_units_Z   1
loop_
 _symmetry_equiv_pos_site_id
 _symmetry_equiv_pos_as_xyz
  1  'x, y, z'
loop_
 _atom_site_type_symbol
 _atom_site_label
 _atom_site_symmetry_multiplicity
 _atom_site_fract_x
 _atom_site_fract_y
 _atom_site_fract_z
 _atom_site_occupancy
  Gd  Gd0  1  0.695742  0.697477  0.641195  1
  Gd  Gd1  1  0.692984  0.695279  0.166140  1
  Gd  Gd2  1  0.992511  0.007489  0.500000  1
  Gd  Gd3  1  0.304721  0.307016  0.833860  1
  Gd  Gd4  1  0.302523  0.304258  0.358805  1
  As  As5  1  0.758536  0.241464  0.000000  1
  Ru  Ru6  1  0.248247  0.751753  0.000000  1
  O  O7  1  0.985509  0.013959  0.174279  1
  O  O8  1  0.897403  0.414860  0.921192  1
  O  O9  1  0.424081  0.902108  0.919909  1
  O  O10  1  0.901696  0.405399  0.424808  1
  O  O11  1  0.399073  0.906786  0.422679  1
  O  O12  1  0.519752  0.479662  0.824200  1
  O  O13  1  0.520338  0.480248  0.175800  1
  O  O14  1  0.093214  0.600927  0.577321  1
  O  O15  1  0.594601  0.098304  0.575192  1
  O  O16  1  0.097892  0.575919  0.080091  1
  O  O17  1  0.585140  0.102597  0.078808  1
  O  O18  1  0.986041  0.014491  0.825721  1
