# generated using pymatgen
data_SmY7Cu3Si12Pd
_symmetry_space_group_name_H-M   'P 1'
_cell_length_a   8.04527300
_cell_length_b   8.04527206
_cell_length_c   8.16860300
_cell_angle_alpha   90.00000000
_cell_angle_beta   90.00000000
_cell_angle_gamma   119.99999976
_symmetry_Int_Tables_number   1
_chemical_formula_structural   SmY7Cu3Si12Pd
_chemical_formula_sum   'Sm1 Y7 Cu3 Si12 Pd1'
_cell_volume   457.88871763
_cell_formula_units_Z   1
loop_
 _symmetry_equiv_pos_site_id
 _symmetry_equiv_pos_as_xyz
  1  'x, y, z'
loop_
 _atom_site_type_symbol
 _atom_site_label
 _atom_site_symmetry_multiplicity
 _atom_site_fract_x
 _atom_site_fract_y
 _atom_site_fract_z
 _atom_site_occupancy
  Sm  Sm0  1  0.000000  0.000000  0.750775  1
  Y  Y1  1  0.500589  0.001177  0.249325  1
  Y  Y2  1  0.500839  0.001679  0.750742  1
  Y  Y3  1  0.998823  0.499411  0.249325  1
  Y  Y4  1  0.998321  0.499161  0.750742  1
  Y  Y5  1  0.500589  0.499411  0.249325  1
  Y  Y6  1  0.500839  0.499161  0.750742  1
  Y  Y7  1  0.000000  0.000000  0.249111  1
  Cu  Cu8  1  0.333333  0.666667  0.000485  1
  Cu  Cu9  1  0.666667  0.333333  0.000095  1
  Cu  Cu10  1  0.666667  0.333333  0.499088  1
  Si  Si11  1  0.169771  0.339541  0.999930  1
  Si  Si12  1  0.830763  0.661526  0.001328  1
  Si  Si13  1  0.660459  0.830229  0.999930  1
  Si  Si14  1  0.830976  0.661951  0.499851  1
  Si  Si15  1  0.338474  0.169237  0.001328  1
  Si  Si16  1  0.166329  0.332659  0.498604  1
  Si  Si17  1  0.169771  0.830229  0.999930  1
  Si  Si18  1  0.338049  0.169024  0.499851  1
  Si  Si19  1  0.830763  0.169237  0.001328  1
  Si  Si20  1  0.667341  0.833671  0.498604  1
  Si  Si21  1  0.830976  0.169024  0.499851  1
  Si  Si22  1  0.166329  0.833671  0.498604  1
  Pd  Pd23  1  0.333333  0.666667  0.501103  1
