# generated using pymatgen
data_SmYHo2(WO6)2
_symmetry_space_group_name_H-M   'P 1'
_cell_length_a   5.43339900
_cell_length_b   7.73930748
_cell_length_c   11.50210344
_cell_angle_alpha   75.52966713
_cell_angle_beta   90.00000000
_cell_angle_gamma   90.00000000
_symmetry_Int_Tables_number   1
_chemical_formula_structural   SmYHo2(WO6)2
_chemical_formula_sum   'Sm2 Y2 Ho4 W4 O24'
_cell_volume   468.32857165
_cell_formula_units_Z   2
loop_
 _symmetry_equiv_pos_site_id
 _symmetry_equiv_pos_as_xyz
  1  'x, y, z'
loop_
 _atom_site_type_symbol
 _atom_site_label
 _atom_site_symmetry_multiplicity
 _atom_site_fract_x
 _atom_site_fract_y
 _atom_site_fract_z
 _atom_site_occupancy
  Sm  Sm0  1  0.684305  0.500000  0.750000  1
  Sm  Sm1  1  0.315695  0.500000  0.250000  1
  Y  Y2  1  0.740482  0.000000  0.750000  1
  Y  Y3  1  0.259518  0.000000  0.250000  1
  Ho  Ho4  1  0.185858  0.796160  0.577632  1
  Ho  Ho5  1  0.814142  0.796160  0.077632  1
  Ho  Ho6  1  0.185858  0.203840  0.922368  1
  Ho  Ho7  1  0.814142  0.203840  0.422368  1
  W  W8  1  0.254176  0.724858  0.885551  1
  W  W9  1  0.745824  0.724858  0.385551  1
  W  W10  1  0.254176  0.275142  0.614449  1
  W  W11  1  0.745824  0.275142  0.114449  1
  O  O12  1  0.043083  0.940255  0.896239  1
  O  O13  1  0.531742  0.846396  0.931603  1
  O  O14  1  0.956917  0.940255  0.396239  1
  O  O15  1  0.456262  0.791655  0.727582  1
  O  O16  1  0.468258  0.846396  0.431603  1
  O  O17  1  0.985142  0.714203  0.770776  1
  O  O18  1  0.543738  0.791655  0.227582  1
  O  O19  1  0.854120  0.637790  0.547298  1
  O  O20  1  0.355048  0.490887  0.887931  1
  O  O21  1  0.014858  0.714203  0.270776  1
  O  O22  1  0.355048  0.509113  0.612069  1
  O  O23  1  0.854120  0.362210  0.952702  1
  O  O24  1  0.145880  0.637790  0.047298  1
  O  O25  1  0.644952  0.490887  0.387931  1
  O  O26  1  0.985142  0.285797  0.729224  1
  O  O27  1  0.644952  0.509113  0.112069  1
  O  O28  1  0.145880  0.362210  0.452702  1
  O  O29  1  0.456262  0.208345  0.772418  1
  O  O30  1  0.014858  0.285797  0.229224  1
  O  O31  1  0.531742  0.153604  0.568397  1
  O  O32  1  0.543738  0.208345  0.272418  1
  O  O33  1  0.043083  0.059745  0.603761  1
  O  O34  1  0.468258  0.153604  0.068397  1
  O  O35  1  0.956917  0.059745  0.103761  1
