# generated using pymatgen
data_La8Y9Tm3Sn16
_symmetry_space_group_name_H-M   'P 1'
_cell_length_a   8.03128900
_cell_length_b   8.39532877
_cell_length_c   15.84525800
_cell_angle_alpha   90.00000000
_cell_angle_beta   90.00000000
_cell_angle_gamma   90.13343025
_symmetry_Int_Tables_number   1
_chemical_formula_structural   La8Y9Tm3Sn16
_chemical_formula_sum   'La8 Y9 Tm3 Sn16'
_cell_volume   1068.36856040
_cell_formula_units_Z   1
loop_
 _symmetry_equiv_pos_site_id
 _symmetry_equiv_pos_as_xyz
  1  'x, y, z'
loop_
 _atom_site_type_symbol
 _atom_site_label
 _atom_site_symmetry_multiplicity
 _atom_site_fract_x
 _atom_site_fract_y
 _atom_site_fract_z
 _atom_site_occupancy
  La  La0  1  0.499616  0.677208  0.596165  1
  La  La1  1  0.000305  0.824334  0.903974  1
  La  La2  1  0.500159  0.323004  0.096431  1
  La  La3  1  0.999745  0.175997  0.403641  1
  La  La4  1  0.500159  0.323004  0.403569  1
  La  La5  1  0.999745  0.175997  0.096359  1
  La  La6  1  0.499616  0.677208  0.903835  1
  La  La7  1  0.000305  0.824334  0.596026  1
  Y  Y8  1  0.664414  0.166334  0.624670  1
  Y  Y9  1  0.165820  0.334170  0.875453  1
  Y  Y10  1  0.335152  0.833404  0.124873  1
  Y  Y11  1  0.834594  0.665359  0.375053  1
  Y  Y12  1  0.335152  0.833404  0.375127  1
  Y  Y13  1  0.834594  0.665359  0.124947  1
  Y  Y14  1  0.664414  0.166334  0.875330  1
  Y  Y15  1  0.165820  0.334170  0.624547  1
  Y  Y16  1  0.832669  0.499930  0.750000  1
  Tm  Tm17  1  0.331982  0.001508  0.750000  1
  Tm  Tm18  1  0.167562  0.500339  0.250000  1
  Tm  Tm19  1  0.667842  0.998647  0.250000  1
  Sn  Sn20  1  0.676765  0.959852  0.458055  1
  Sn  Sn21  1  0.176458  0.538578  0.042274  1
  Sn  Sn22  1  0.323367  0.039851  0.958291  1
  Sn  Sn23  1  0.823620  0.461317  0.541849  1
  Sn  Sn24  1  0.323367  0.039851  0.541709  1
  Sn  Sn25  1  0.823620  0.461317  0.958151  1
  Sn  Sn26  1  0.676765  0.959852  0.041945  1
  Sn  Sn27  1  0.176458  0.538578  0.457726  1
  Sn  Sn28  1  0.469308  0.374742  0.750000  1
  Sn  Sn29  1  0.970488  0.125183  0.750000  1
  Sn  Sn30  1  0.529255  0.624579  0.250000  1
  Sn  Sn31  1  0.029560  0.874606  0.250000  1
  Sn  Sn32  1  0.696959  0.858635  0.750000  1
  Sn  Sn33  1  0.197782  0.644313  0.750000  1
  Sn  Sn34  1  0.303064  0.142791  0.250000  1
  Sn  Sn35  1  0.803498  0.355915  0.250000  1
