# generated using pymatgen
data_Lu4Co2C5
_symmetry_space_group_name_H-M   'P 1'
_cell_length_a   3.50842900
_cell_length_b   3.62061900
_cell_length_c   11.43379400
_cell_angle_alpha   90.00000000
_cell_angle_beta   90.00000000
_cell_angle_gamma   90.00000000
_symmetry_Int_Tables_number   1
_chemical_formula_structural   Lu4Co2C5
_chemical_formula_sum   'Lu4 Co2 C5'
_cell_volume   145.23988008
_cell_formula_units_Z   1
loop_
 _symmetry_equiv_pos_site_id
 _symmetry_equiv_pos_as_xyz
  1  'x, y, z'
loop_
 _atom_site_type_symbol
 _atom_site_label
 _atom_site_symmetry_multiplicity
 _atom_site_fract_x
 _atom_site_fract_y
 _atom_site_fract_z
 _atom_site_occupancy
  Lu  Lu0  1  0.500000  0.501024  0.204464  1
  Lu  Lu1  1  0.500000  0.501024  0.795536  1
  Lu  Lu2  1  0.500000  0.216294  0.500000  1
  Lu  Lu3  1  0.000000  0.000497  0.000000  1
  Co  Co4  1  0.000000  0.698077  0.384980  1
  Co  Co5  1  0.000000  0.698077  0.615020  1
  C  C6  1  0.000000  0.993713  0.227880  1
  C  C7  1  0.000000  0.993713  0.772120  1
  C  C8  1  0.000000  0.199502  0.332412  1
  C  C9  1  0.000000  0.199502  0.667588  1
  C  C10  1  0.500000  0.500077  0.000000  1
