# generated using pymatgen
data_LaMn9Si4
_symmetry_space_group_name_H-M   'P 1'
_cell_length_a   8.08408599
_cell_length_b   8.08408515
_cell_length_c   8.08408611
_cell_angle_alpha   121.62728979
_cell_angle_beta   121.62728729
_cell_angle_gamma   87.20382872
_symmetry_Int_Tables_number   1
_chemical_formula_structural   LaMn9Si4
_chemical_formula_sum   'La2 Mn18 Si8'
_cell_volume   363.91517225
_cell_formula_units_Z   2
loop_
 _symmetry_equiv_pos_site_id
 _symmetry_equiv_pos_as_xyz
  1  'x, y, z'
loop_
 _atom_site_type_symbol
 _atom_site_label
 _atom_site_symmetry_multiplicity
 _atom_site_fract_x
 _atom_site_fract_y
 _atom_site_fract_z
 _atom_site_occupancy
  La  La0  1  0.250000  0.250000  0.000000  1
  La  La1  1  0.750000  0.750000  0.000000  1
  Mn  Mn2  1  0.691397  0.557495  0.248892  1
  Mn  Mn3  1  0.442214  0.942214  0.736700  1
  Mn  Mn4  1  0.500000  0.000000  0.500000  1
  Mn  Mn5  1  0.705514  0.442214  0.500000  1
  Mn  Mn6  1  0.057786  0.794486  0.500000  1
  Mn  Mn7  1  0.191397  0.942505  0.133902  1
  Mn  Mn8  1  0.557786  0.057786  0.263300  1
  Mn  Mn9  1  0.308603  0.442505  0.751108  1
  Mn  Mn10  1  0.794486  0.294486  0.736700  1
  Mn  Mn11  1  0.942505  0.808603  0.751108  1
  Mn  Mn12  1  0.942214  0.205514  0.500000  1
  Mn  Mn13  1  0.057495  0.191397  0.248892  1
  Mn  Mn14  1  0.808603  0.057495  0.866098  1
  Mn  Mn15  1  0.557495  0.308603  0.866098  1
  Mn  Mn16  1  0.000000  0.500000  0.500000  1
  Mn  Mn17  1  0.205514  0.705514  0.263300  1
  Mn  Mn18  1  0.294486  0.557786  0.500000  1
  Mn  Mn19  1  0.442505  0.691397  0.133902  1
  Si  Si20  1  0.444476  0.297070  0.500000  1
  Si  Si21  1  0.202930  0.055524  0.500000  1
  Si  Si22  1  0.055524  0.555524  0.852594  1
  Si  Si23  1  0.702930  0.202930  0.147406  1
  Si  Si24  1  0.797070  0.944476  0.500000  1
  Si  Si25  1  0.297070  0.797070  0.852594  1
  Si  Si26  1  0.555524  0.702930  0.500000  1
  Si  Si27  1  0.944476  0.444476  0.147406  1
