# generated using pymatgen
data_Pr6V3Co2P12Rh13
_symmetry_space_group_name_H-M   'P 1'
_cell_length_a   3.92226000
_cell_length_b   11.24863643
_cell_length_c   12.96597348
_cell_angle_alpha   89.96856352
_cell_angle_beta   90.00000000
_cell_angle_gamma   90.00000000
_symmetry_Int_Tables_number   1
_chemical_formula_structural   Pr6V3Co2P12Rh13
_chemical_formula_sum   'Pr6 V3 Co2 P12 Rh13'
_cell_volume   572.05965864
_cell_formula_units_Z   1
loop_
 _symmetry_equiv_pos_site_id
 _symmetry_equiv_pos_as_xyz
  1  'x, y, z'
loop_
 _atom_site_type_symbol
 _atom_site_label
 _atom_site_symmetry_multiplicity
 _atom_site_fract_x
 _atom_site_fract_y
 _atom_site_fract_z
 _atom_site_occupancy
  Pr  Pr0  1  0.000000  0.502180  0.518016  1
  Pr  Pr1  1  0.500000  0.999173  0.480399  1
  Pr  Pr2  1  0.500000  0.818368  0.199227  1
  Pr  Pr3  1  0.500000  0.180795  0.203562  1
  Pr  Pr4  1  0.000000  0.679124  0.799607  1
  Pr  Pr5  1  0.000000  0.320069  0.794782  1
  V  V6  1  0.500000  0.495012  0.154369  1
  V  V7  1  0.000000  0.001199  0.846684  1
  V  V8  1  0.500000  0.330963  0.999352  1
  Co  Co9  1  0.000000  0.499595  0.989863  1
  Co  Co10  1  0.500000  0.999985  0.008954  1
  P  P11  1  0.500000  0.493689  0.889357  1
  P  P12  1  0.000000  0.001334  0.110912  1
  P  P13  1  0.500000  0.501266  0.338658  1
  P  P14  1  0.000000  0.999805  0.662592  1
  P  P15  1  0.500000  0.310647  0.616460  1
  P  P16  1  0.500000  0.690332  0.617138  1
  P  P17  1  0.000000  0.190369  0.383205  1
  P  P18  1  0.000000  0.811477  0.382034  1
  P  P19  1  0.500000  0.853171  0.894396  1
  P  P20  1  0.500000  0.148622  0.892161  1
  P  P21  1  0.000000  0.645192  0.105191  1
  P  P22  1  0.000000  0.355413  0.108238  1
  Rh  Rh23  1  0.500000  0.500526  0.701808  1
  Rh  Rh24  1  0.000000  0.001467  0.295907  1
  Rh  Rh25  1  0.500000  0.665096  0.995045  1
  Rh  Rh26  1  0.000000  0.169298  0.004712  1
  Rh  Rh27  1  0.000000  0.835084  0.004986  1
  Rh  Rh28  1  0.500000  0.292788  0.432013  1
  Rh  Rh29  1  0.500000  0.708786  0.430489  1
  Rh  Rh30  1  0.000000  0.205977  0.569514  1
  Rh  Rh31  1  0.000000  0.793806  0.569755  1
  Rh  Rh32  1  0.500000  0.876344  0.712614  1
  Rh  Rh33  1  0.500000  0.122395  0.710223  1
  Rh  Rh34  1  0.000000  0.623012  0.287397  1
  Rh  Rh35  1  0.000000  0.377643  0.290378  1
