# generated using pymatgen
data_La2Ce(SnIr)3
_symmetry_space_group_name_H-M   'P 1'
_cell_length_a   7.60190000
_cell_length_b   7.54783334
_cell_length_c   4.17197200
_cell_angle_alpha   90.00000000
_cell_angle_beta   90.00000000
_cell_angle_gamma   120.23724110
_symmetry_Int_Tables_number   1
_chemical_formula_structural   La2Ce(SnIr)3
_chemical_formula_sum   'La2 Ce1 Sn3 Ir3'
_cell_volume   206.81082895
_cell_formula_units_Z   1
loop_
 _symmetry_equiv_pos_site_id
 _symmetry_equiv_pos_as_xyz
  1  'x, y, z'
loop_
 _atom_site_type_symbol
 _atom_site_label
 _atom_site_symmetry_multiplicity
 _atom_site_fract_x
 _atom_site_fract_y
 _atom_site_fract_z
 _atom_site_occupancy
  La  La0  1  0.001692  0.586860  0.000000  1
  La  La1  1  0.414832  0.413140  0.000000  1
  Ce  Ce2  1  0.586224  0.000000  0.000000  1
  Sn  Sn3  1  0.246734  0.000000  0.500000  1
  Sn  Sn4  1  0.001621  0.251660  0.500000  1
  Sn  Sn5  1  0.749961  0.748340  0.500000  1
  Ir  Ir6  1  0.347855  0.685980  0.500000  1
  Ir  Ir7  1  0.661877  0.314020  0.500000  1
  Ir  Ir8  1  0.989205  0.000000  0.000000  1
