# generated using pymatgen
data_Tb8Hf3Si16MoW8
_symmetry_space_group_name_H-M   'P 1'
_cell_length_a   6.98160414
_cell_length_b   6.98010089
_cell_length_c   12.95102755
_cell_angle_alpha   89.96959455
_cell_angle_beta   90.06141188
_cell_angle_gamma   89.92250283
_symmetry_Int_Tables_number   1
_chemical_formula_structural   Tb8Hf3Si16MoW8
_chemical_formula_sum   'Tb8 Hf3 Si16 Mo1 W8'
_cell_volume   631.13234704
_cell_formula_units_Z   1
loop_
 _symmetry_equiv_pos_site_id
 _symmetry_equiv_pos_as_xyz
  1  'x, y, z'
loop_
 _atom_site_type_symbol
 _atom_site_label
 _atom_site_symmetry_multiplicity
 _atom_site_fract_x
 _atom_site_fract_y
 _atom_site_fract_z
 _atom_site_occupancy
  Tb  Tb0  1  0.000916  0.336094  0.216983  1
  Tb  Tb1  1  0.003767  0.662863  0.720392  1
  Tb  Tb2  1  0.162343  0.498144  0.468546  1
  Tb  Tb3  1  0.500239  0.839005  0.030863  1
  Tb  Tb4  1  0.839055  0.500138  0.969095  1
  Tb  Tb5  1  0.497791  0.162228  0.531502  1
  Tb  Tb6  1  0.336124  0.000856  0.783014  1
  Tb  Tb7  1  0.662698  0.003730  0.279609  1
  Hf  Hf8  1  0.832614  0.832693  0.500030  1
  Hf  Hf9  1  0.330943  0.667523  0.247688  1
  Hf  Hf10  1  0.667576  0.330928  0.752231  1
  Si  Si11  1  0.372972  0.294846  0.317323  1
  Si  Si12  1  0.625449  0.706727  0.817590  1
  Si  Si13  1  0.205119  0.873562  0.568172  1
  Si  Si14  1  0.124474  0.802015  0.933701  1
  Si  Si15  1  0.801984  0.124435  0.066231  1
  Si  Si16  1  0.873727  0.205220  0.432151  1
  Si  Si17  1  0.294784  0.372941  0.682537  1
  Si  Si18  1  0.706811  0.625431  0.182463  1
  Si  Si19  1  0.289311  0.043949  0.184254  1
  Si  Si20  1  0.708469  0.959568  0.688555  1
  Si  Si21  1  0.458392  0.790901  0.437610  1
  Si  Si22  1  0.210562  0.532546  0.059248  1
  Si  Si23  1  0.532534  0.210555  0.940738  1
  Si  Si24  1  0.790804  0.458208  0.562324  1
  Si  Si25  1  0.043976  0.289121  0.815726  1
  Si  Si26  1  0.959482  0.708585  0.311366  1
  Mo  Mo27  1  0.162307  0.995031  0.375140  1
  W  W28  1  0.166539  0.166427  0.000001  1
  W  W29  1  0.833510  0.005508  0.877106  1
  W  W30  1  0.506122  0.661655  0.626761  1
  W  W31  1  0.339899  0.496760  0.873904  1
  W  W32  1  0.496883  0.340261  0.126034  1
  W  W33  1  0.661464  0.506002  0.373435  1
  W  W34  1  0.994915  0.162049  0.624849  1
  W  W35  1  0.005450  0.833498  0.122828  1
