# generated using pymatgen
data_TmPa3(SnPt2)2
_symmetry_space_group_name_H-M   'P 1'
_cell_length_a   7.78955027
_cell_length_b   7.78955027
_cell_length_c   3.67764900
_cell_angle_alpha   90.00000000
_cell_angle_beta   90.00000000
_cell_angle_gamma   90.16698387
_symmetry_Int_Tables_number   1
_chemical_formula_structural   TmPa3(SnPt2)2
_chemical_formula_sum   'Tm1 Pa3 Sn2 Pt4'
_cell_volume   223.14810423
_cell_formula_units_Z   1
loop_
 _symmetry_equiv_pos_site_id
 _symmetry_equiv_pos_as_xyz
  1  'x, y, z'
loop_
 _atom_site_type_symbol
 _atom_site_label
 _atom_site_symmetry_multiplicity
 _atom_site_fract_x
 _atom_site_fract_y
 _atom_site_fract_z
 _atom_site_occupancy
  Tm  Tm0  1  0.673993  0.826006  0.500000  1
  Pa  Pa1  1  0.330072  0.169928  0.500000  1
  Pa  Pa2  1  0.825770  0.327673  0.500000  1
  Pa  Pa3  1  0.172327  0.674229  0.500000  1
  Sn  Sn4  1  0.991663  0.996385  0.000000  1
  Sn  Sn5  1  0.503615  0.508337  0.000000  1
  Pt  Pt6  1  0.626251  0.134662  0.000000  1
  Pt  Pt7  1  0.133174  0.366826  0.000000  1
  Pt  Pt8  1  0.877796  0.622204  0.000000  1
  Pt  Pt9  1  0.365338  0.873749  0.000000  1
