# generated using pymatgen
data_Ho4Re2OsRu5
_symmetry_space_group_name_H-M   'P 1'
_cell_length_a   5.40678298
_cell_length_b   5.12828905
_cell_length_c   9.00966100
_cell_angle_alpha   90.00000000
_cell_angle_beta   90.00000000
_cell_angle_gamma   119.57954242
_symmetry_Int_Tables_number   1
_chemical_formula_structural   Ho4Re2OsRu5
_chemical_formula_sum   'Ho4 Re2 Os1 Ru5'
_cell_volume   217.25760646
_cell_formula_units_Z   1
loop_
 _symmetry_equiv_pos_site_id
 _symmetry_equiv_pos_as_xyz
  1  'x, y, z'
loop_
 _atom_site_type_symbol
 _atom_site_label
 _atom_site_symmetry_multiplicity
 _atom_site_fract_x
 _atom_site_fract_y
 _atom_site_fract_z
 _atom_site_occupancy
  Ho  Ho0  1  0.670748  0.330518  0.565095  1
  Ho  Ho1  1  0.329044  0.658202  0.434912  1
  Ho  Ho2  1  0.329044  0.658202  0.065088  1
  Ho  Ho3  1  0.670748  0.330518  0.934905  1
  Re  Re4  1  0.158771  0.836640  0.750000  1
  Re  Re5  1  0.839690  0.681229  0.250000  1
  Os  Os6  1  0.165881  0.348557  0.750000  1
  Ru  Ru7  1  0.004117  0.981798  0.499603  1
  Ru  Ru8  1  0.004117  0.981798  0.000397  1
  Ru  Ru9  1  0.649347  0.827234  0.750000  1
  Ru  Ru10  1  0.831699  0.186223  0.250000  1
  Ru  Ru11  1  0.346793  0.179082  0.250000  1
