# generated using pymatgen
data_Y6Ho10MgCd3Ir4
_symmetry_space_group_name_H-M   'P 1'
_cell_length_a   9.66801194
_cell_length_b   9.66801070
_cell_length_c   9.66801149
_cell_angle_alpha   59.80733807
_cell_angle_beta   59.80734521
_cell_angle_gamma   59.80734283
_symmetry_Int_Tables_number   1
_chemical_formula_structural   Y6Ho10MgCd3Ir4
_chemical_formula_sum   'Y6 Ho10 Mg1 Cd3 Ir4'
_cell_volume   636.19901805
_cell_formula_units_Z   1
loop_
 _symmetry_equiv_pos_site_id
 _symmetry_equiv_pos_as_xyz
  1  'x, y, z'
loop_
 _atom_site_type_symbol
 _atom_site_label
 _atom_site_symmetry_multiplicity
 _atom_site_fract_x
 _atom_site_fract_y
 _atom_site_fract_z
 _atom_site_occupancy
  Y  Y0  1  0.940256  0.561998  0.561998  1
  Y  Y1  1  0.561826  0.938305  0.938305  1
  Y  Y2  1  0.561998  0.940256  0.561998  1
  Y  Y3  1  0.938305  0.561826  0.938305  1
  Y  Y4  1  0.561998  0.561998  0.940256  1
  Y  Y5  1  0.938305  0.938305  0.561826  1
  Ho  Ho6  1  0.348564  0.348564  0.348564  1
  Ho  Ho7  1  0.348239  0.348239  0.955781  1
  Ho  Ho8  1  0.348239  0.955781  0.348239  1
  Ho  Ho9  1  0.955781  0.348239  0.348239  1
  Ho  Ho10  1  0.809446  0.189493  0.189493  1
  Ho  Ho11  1  0.187042  0.811765  0.811765  1
  Ho  Ho12  1  0.189493  0.809446  0.189493  1
  Ho  Ho13  1  0.811765  0.187042  0.811765  1
  Ho  Ho14  1  0.189493  0.189493  0.809446  1
  Ho  Ho15  1  0.811765  0.811765  0.187042  1
  Mg  Mg16  1  0.576324  0.576324  0.576324  1
  Cd  Cd17  1  0.581055  0.581055  0.256943  1
  Cd  Cd18  1  0.581055  0.256943  0.581055  1
  Cd  Cd19  1  0.256943  0.581055  0.581055  1
  Ir  Ir20  1  0.141782  0.141782  0.141782  1
  Ir  Ir21  1  0.142631  0.142631  0.575063  1
  Ir  Ir22  1  0.142631  0.575063  0.142631  1
  Ir  Ir23  1  0.575063  0.142631  0.142631  1
