# generated using pymatgen
data_Nd12PdRuRh2
_symmetry_space_group_name_H-M   'P 1'
_cell_length_a   6.50426235
_cell_length_b   7.38012590
_cell_length_c   9.98465300
_cell_angle_alpha   90.00000000
_cell_angle_beta   90.00000000
_cell_angle_gamma   90.25525567
_symmetry_Int_Tables_number   1
_chemical_formula_structural   Nd12PdRuRh2
_chemical_formula_sum   'Nd12 Pd1 Ru1 Rh2'
_cell_volume   479.28130322
_cell_formula_units_Z   1
loop_
 _symmetry_equiv_pos_site_id
 _symmetry_equiv_pos_as_xyz
  1  'x, y, z'
loop_
 _atom_site_type_symbol
 _atom_site_label
 _atom_site_symmetry_multiplicity
 _atom_site_fract_x
 _atom_site_fract_y
 _atom_site_fract_z
 _atom_site_occupancy
  Nd  Nd0  1  0.330886  0.676956  0.064160  1
  Nd  Nd1  1  0.166282  0.175970  0.432948  1
  Nd  Nd2  1  0.662958  0.328429  0.565420  1
  Nd  Nd3  1  0.828701  0.817058  0.936994  1
  Nd  Nd4  1  0.662958  0.328429  0.934580  1
  Nd  Nd5  1  0.828701  0.817058  0.563006  1
  Nd  Nd6  1  0.330886  0.676956  0.435840  1
  Nd  Nd7  1  0.166282  0.175970  0.067052  1
  Nd  Nd8  1  0.860101  0.533648  0.250000  1
  Nd  Nd9  1  0.640718  0.036584  0.250000  1
  Nd  Nd10  1  0.146447  0.474924  0.750000  1
  Nd  Nd11  1  0.370110  0.959909  0.750000  1
  Pd  Pd12  1  0.933598  0.115466  0.750000  1
  Ru  Ru13  1  0.570278  0.618481  0.750000  1
  Rh  Rh14  1  0.069984  0.881488  0.250000  1
  Rh  Rh15  1  0.431108  0.382674  0.250000  1
