# generated using pymatgen
data_Ta3Ga3FeIr2
_symmetry_space_group_name_H-M   'P 1'
_cell_length_a   7.38358400
_cell_length_b   7.38358509
_cell_length_c   2.91365100
_cell_angle_alpha   90.00000000
_cell_angle_beta   90.00000000
_cell_angle_gamma   120.00000406
_symmetry_Int_Tables_number   1
_chemical_formula_structural   Ta3Ga3FeIr2
_chemical_formula_sum   'Ta3 Ga3 Fe1 Ir2'
_cell_volume   137.56331998
_cell_formula_units_Z   1
loop_
 _symmetry_equiv_pos_site_id
 _symmetry_equiv_pos_as_xyz
  1  'x, y, z'
loop_
 _atom_site_type_symbol
 _atom_site_label
 _atom_site_symmetry_multiplicity
 _atom_site_fract_x
 _atom_site_fract_y
 _atom_site_fract_z
 _atom_site_occupancy
  Ta  Ta0  1  0.359772  0.000000  0.500001  1
  Ta  Ta1  1  0.000000  0.359772  0.500001  1
  Ta  Ta2  1  0.640228  0.640229  0.500001  1
  Ga  Ga3  1  0.714283  0.000000  0.000000  1
  Ga  Ga4  1  0.285717  0.285718  0.000000  1
  Ga  Ga5  1  0.000000  0.714283  0.000000  1
  Fe  Fe6  1  0.000000  0.000000  0.500001  1
  Ir  Ir7  1  0.666667  0.333334  0.000000  1
  Ir  Ir8  1  0.333334  0.666667  0.000000  1
