# generated using pymatgen
data_TbY3Lu(In2Pt)2
_symmetry_space_group_name_H-M   'P 1'
_cell_length_a   3.64484900
_cell_length_b   8.15988403
_cell_length_c   18.21072829
_cell_angle_alpha   89.98474496
_cell_angle_beta   90.00000000
_cell_angle_gamma   90.00000000
_symmetry_Int_Tables_number   1
_chemical_formula_structural   TbY3Lu(In2Pt)2
_chemical_formula_sum   'Tb2 Y6 Lu2 In8 Pt4'
_cell_volume   541.61517848
_cell_formula_units_Z   2
loop_
 _symmetry_equiv_pos_site_id
 _symmetry_equiv_pos_as_xyz
  1  'x, y, z'
loop_
 _atom_site_type_symbol
 _atom_site_label
 _atom_site_symmetry_multiplicity
 _atom_site_fract_x
 _atom_site_fract_y
 _atom_site_fract_z
 _atom_site_occupancy
  Tb  Tb0  1  0.000000  0.257626  0.719317  1
  Tb  Tb1  1  0.000000  0.742373  0.280673  1
  Y  Y2  1  0.000000  0.383002  0.915259  1
  Y  Y3  1  0.000000  0.616999  0.084726  1
  Y  Y4  1  0.000000  0.242130  0.220350  1
  Y  Y5  1  0.000000  0.757844  0.779655  1
  Y  Y6  1  0.000000  0.000005  0.999991  1
  Y  Y7  1  0.000000  0.500027  0.499995  1
  Lu  Lu8  1  0.000000  0.115533  0.413901  1
  Lu  Lu9  1  0.000000  0.884474  0.586085  1
  In  In10  1  0.500000  0.419698  0.351643  1
  In  In11  1  0.500000  0.580209  0.648372  1
  In  In12  1  0.500000  0.076731  0.850688  1
  In  In13  1  0.500000  0.923244  0.149340  1
  In  In14  1  0.500000  0.292179  0.067094  1
  In  In15  1  0.500000  0.707926  0.932922  1
  In  In16  1  0.500000  0.204076  0.564975  1
  In  In17  1  0.500000  0.795959  0.435025  1
  Pt  Pt18  1  0.500000  0.025752  0.306003  1
  Pt  Pt19  1  0.500000  0.974245  0.693989  1
  Pt  Pt20  1  0.500000  0.475041  0.802717  1
  Pt  Pt21  1  0.500000  0.524925  0.197281  1
