# generated using pymatgen
data_CeEr12Th3(MgCo)4
_symmetry_space_group_name_H-M   'P 1'
_cell_length_a   9.56582554
_cell_length_b   9.56582614
_cell_length_c   9.56582677
_cell_angle_alpha   59.49389461
_cell_angle_beta   59.49388990
_cell_angle_gamma   59.49389211
_symmetry_Int_Tables_number   1
_chemical_formula_structural   CeEr12Th3(MgCo)4
_chemical_formula_sum   'Ce1 Er12 Th3 Mg4 Co4'
_cell_volume   611.82108069
_cell_formula_units_Z   1
loop_
 _symmetry_equiv_pos_site_id
 _symmetry_equiv_pos_as_xyz
  1  'x, y, z'
loop_
 _atom_site_type_symbol
 _atom_site_label
 _atom_site_symmetry_multiplicity
 _atom_site_fract_x
 _atom_site_fract_y
 _atom_site_fract_z
 _atom_site_occupancy
  Ce  Ce0  1  0.592489  0.592489  0.592489  1
  Er  Er1  1  0.062741  0.437132  0.437132  1
  Er  Er2  1  0.434938  0.064606  0.064606  1
  Er  Er3  1  0.437132  0.062741  0.437132  1
  Er  Er4  1  0.064606  0.434938  0.064606  1
  Er  Er5  1  0.437132  0.437132  0.062741  1
  Er  Er6  1  0.064606  0.064606  0.434938  1
  Er  Er7  1  0.187106  0.814881  0.814881  1
  Er  Er8  1  0.814039  0.185281  0.185281  1
  Er  Er9  1  0.814881  0.187106  0.814881  1
  Er  Er10  1  0.185281  0.814039  0.185281  1
  Er  Er11  1  0.814881  0.814881  0.187106  1
  Er  Er12  1  0.185281  0.185281  0.814039  1
  Th  Th13  1  0.595918  0.595918  0.214489  1
  Th  Th14  1  0.595918  0.214489  0.595918  1
  Th  Th15  1  0.214489  0.595918  0.595918  1
  Mg  Mg16  1  0.829915  0.829915  0.829915  1
  Mg  Mg17  1  0.827930  0.827930  0.509400  1
  Mg  Mg18  1  0.827930  0.509400  0.827930  1
  Mg  Mg19  1  0.509400  0.827930  0.827930  1
  Co  Co20  1  0.395066  0.395066  0.395066  1
  Co  Co21  1  0.396379  0.396379  0.815567  1
  Co  Co22  1  0.396379  0.815567  0.396379  1
  Co  Co23  1  0.815567  0.396379  0.396379  1
