# generated using pymatgen
data_La16Y4Ir5Rh7
_symmetry_space_group_name_H-M   'P 1'
_cell_length_a   11.35118687
_cell_length_b   11.35118687
_cell_length_c   6.60261481
_cell_angle_alpha   90.06022487
_cell_angle_beta   90.06022487
_cell_angle_gamma   89.97400937
_symmetry_Int_Tables_number   1
_chemical_formula_structural   La16Y4Ir5Rh7
_chemical_formula_sum   'La16 Y4 Ir5 Rh7'
_cell_volume   850.74221598
_cell_formula_units_Z   1
loop_
 _symmetry_equiv_pos_site_id
 _symmetry_equiv_pos_as_xyz
  1  'x, y, z'
loop_
 _atom_site_type_symbol
 _atom_site_label
 _atom_site_symmetry_multiplicity
 _atom_site_fract_x
 _atom_site_fract_y
 _atom_site_fract_z
 _atom_site_occupancy
  La  La0  1  0.288041  0.088217  0.387676  1
  La  La1  1  0.287809  0.909869  0.888980  1
  La  La2  1  0.711775  0.089556  0.888633  1
  La  La3  1  0.711235  0.910326  0.388649  1
  La  La4  1  0.587259  0.786723  0.889683  1
  La  La5  1  0.587056  0.213230  0.389648  1
  La  La6  1  0.411235  0.787111  0.389376  1
  La  La7  1  0.412637  0.213038  0.889518  1
  La  La8  1  0.213277  0.412741  0.610317  1
  La  La9  1  0.212889  0.588765  0.110624  1
  La  La10  1  0.786770  0.412944  0.110352  1
  La  La11  1  0.786962  0.587363  0.610482  1
  La  La12  1  0.911783  0.711959  0.112324  1
  La  La13  1  0.910444  0.288225  0.611367  1
  La  La14  1  0.090131  0.712191  0.611020  1
  La  La15  1  0.089674  0.288765  0.111351  1
  Y  Y16  1  0.000401  0.999376  0.499685  1
  Y  Y17  1  0.000624  0.999599  0.000315  1
  Y  Y18  1  0.499807  0.499965  0.000107  1
  Y  Y19  1  0.500035  0.500193  0.499893  1
  Ir  Ir20  1  0.149845  0.850155  0.250000  1
  Ir  Ir21  1  0.650959  0.349041  0.750000  1
  Ir  Ir22  1  0.650966  0.650869  0.250113  1
  Ir  Ir23  1  0.349131  0.349034  0.249887  1
  Ir  Ir24  1  0.349400  0.650600  0.750000  1
  Rh  Rh25  1  0.849754  0.150246  0.250000  1
  Rh  Rh26  1  0.849471  0.849866  0.749923  1
  Rh  Rh27  1  0.150134  0.150529  0.750077  1
  Rh  Rh28  1  0.500733  0.000316  0.118632  1
  Rh  Rh29  1  0.500266  0.000184  0.618758  1
  Rh  Rh30  1  0.999816  0.499734  0.881242  1
  Rh  Rh31  1  0.999684  0.499267  0.381368  1
