# generated using pymatgen
data_TbTm9CoBi5
_symmetry_space_group_name_H-M   'P 1'
_cell_length_a   8.08218700
_cell_length_b   9.33958600
_cell_length_c   12.08344300
_cell_angle_alpha   90.00000000
_cell_angle_beta   90.00000000
_cell_angle_gamma   90.00000000
_symmetry_Int_Tables_number   1
_chemical_formula_structural   TbTm9CoBi5
_chemical_formula_sum   'Tb2 Tm18 Co2 Bi10'
_cell_volume   912.11000148
_cell_formula_units_Z   2
loop_
 _symmetry_equiv_pos_site_id
 _symmetry_equiv_pos_as_xyz
  1  'x, y, z'
loop_
 _atom_site_type_symbol
 _atom_site_label
 _atom_site_symmetry_multiplicity
 _atom_site_fract_x
 _atom_site_fract_y
 _atom_site_fract_z
 _atom_site_occupancy
  Tb  Tb0  1  0.572053  0.500000  0.772895  1
  Tb  Tb1  1  0.427947  0.500000  0.272895  1
  Tm  Tm2  1  0.429777  0.175660  0.562929  1
  Tm  Tm3  1  0.570223  0.824340  0.062929  1
  Tm  Tm4  1  0.072954  0.731167  0.436065  1
  Tm  Tm5  1  0.927046  0.268833  0.936065  1
  Tm  Tm6  1  0.072954  0.268833  0.436065  1
  Tm  Tm7  1  0.927046  0.731167  0.936065  1
  Tm  Tm8  1  0.429777  0.824340  0.562929  1
  Tm  Tm9  1  0.570223  0.175660  0.062929  1
  Tm  Tm10  1  0.906469  0.000000  0.199169  1
  Tm  Tm11  1  0.093531  0.000000  0.699169  1
  Tm  Tm12  1  0.256706  0.500000  0.992688  1
  Tm  Tm13  1  0.743294  0.500000  0.492688  1
  Tm  Tm14  1  0.196404  0.000000  0.996559  1
  Tm  Tm15  1  0.803596  0.000000  0.496559  1
  Tm  Tm16  1  0.089082  0.500000  0.719779  1
  Tm  Tm17  1  0.910918  0.500000  0.219779  1
  Tm  Tm18  1  0.368328  0.000000  0.309413  1
  Tm  Tm19  1  0.631672  0.000000  0.809413  1
  Co  Co20  1  0.176534  0.000000  0.489219  1
  Co  Co21  1  0.823466  0.000000  0.989219  1
  Bi  Bi22  1  0.814388  0.742281  0.671080  1
  Bi  Bi23  1  0.185612  0.257719  0.171080  1
  Bi  Bi24  1  0.681839  0.240290  0.325464  1
  Bi  Bi25  1  0.318161  0.759710  0.825464  1
  Bi  Bi26  1  0.681839  0.759710  0.325464  1
  Bi  Bi27  1  0.318161  0.240290  0.825464  1
  Bi  Bi28  1  0.814388  0.257719  0.671080  1
  Bi  Bi29  1  0.185612  0.742281  0.171080  1
  Bi  Bi30  1  0.347439  0.500000  0.529204  1
  Bi  Bi31  1  0.652561  0.500000  0.029204  1
