# generated using pymatgen
data_Ho8Hf11Si16Ag
_symmetry_space_group_name_H-M   'P 1'
_cell_length_a   7.27467434
_cell_length_b   7.27467518
_cell_length_c   13.26518404
_cell_angle_alpha   89.84743872
_cell_angle_beta   90.15255862
_cell_angle_gamma   89.90642085
_symmetry_Int_Tables_number   1
_chemical_formula_structural   Ho8Hf11Si16Ag
_chemical_formula_sum   'Ho8 Hf11 Si16 Ag1'
_cell_volume   701.99946136
_cell_formula_units_Z   1
loop_
 _symmetry_equiv_pos_site_id
 _symmetry_equiv_pos_as_xyz
  1  'x, y, z'
loop_
 _atom_site_type_symbol
 _atom_site_label
 _atom_site_symmetry_multiplicity
 _atom_site_fract_x
 _atom_site_fract_y
 _atom_site_fract_z
 _atom_site_occupancy
  Ho  Ho0  1  0.997816  0.345074  0.211397  1
  Ho  Ho1  1  0.004534  0.655930  0.716395  1
  Ho  Ho2  1  0.155291  0.495734  0.464768  1
  Ho  Ho3  1  0.499067  0.847668  0.033298  1
  Ho  Ho4  1  0.847668  0.499067  0.966702  1
  Ho  Ho5  1  0.495734  0.155291  0.535232  1
  Ho  Ho6  1  0.345074  0.997816  0.788603  1
  Ho  Ho7  1  0.655930  0.004534  0.283605  1
  Hf  Hf8  1  0.824898  0.824898  0.500000  1
  Hf  Hf9  1  0.323959  0.675970  0.249487  1
  Hf  Hf10  1  0.675970  0.323959  0.750513  1
  Hf  Hf11  1  0.146080  0.996446  0.374238  1
  Hf  Hf12  1  0.856226  0.002682  0.877899  1
  Hf  Hf13  1  0.503704  0.646894  0.625944  1
  Hf  Hf14  1  0.354681  0.492405  0.877424  1
  Hf  Hf15  1  0.492405  0.354681  0.122576  1
  Hf  Hf16  1  0.646894  0.503704  0.374056  1
  Hf  Hf17  1  0.996446  0.146080  0.625762  1
  Hf  Hf18  1  0.002682  0.856226  0.122101  1
  Si  Si19  1  0.359737  0.295668  0.316974  1
  Si  Si20  1  0.639385  0.704700  0.819661  1
  Si  Si21  1  0.206682  0.861194  0.568780  1
  Si  Si22  1  0.132234  0.777829  0.927951  1
  Si  Si23  1  0.777829  0.132234  0.072049  1
  Si  Si24  1  0.861194  0.206682  0.431220  1
  Si  Si25  1  0.295668  0.359737  0.683026  1
  Si  Si26  1  0.704700  0.639385  0.180339  1
  Si  Si27  1  0.296707  0.050563  0.189553  1
  Si  Si28  1  0.703898  0.951235  0.686408  1
  Si  Si29  1  0.450807  0.796265  0.435649  1
  Si  Si30  1  0.209262  0.564139  0.064459  1
  Si  Si31  1  0.564139  0.209262  0.935541  1
  Si  Si32  1  0.796265  0.450807  0.564351  1
  Si  Si33  1  0.050563  0.296707  0.810447  1
  Si  Si34  1  0.951235  0.703898  0.313592  1
  Ag  Ag35  1  0.174638  0.174638  0.000000  1
