# generated using pymatgen
data_Tb2Tm2Fe13Co
_symmetry_space_group_name_H-M   'P 1'
_cell_length_a   5.06296627
_cell_length_b   5.06296713
_cell_length_c   12.30795806
_cell_angle_alpha   78.13077739
_cell_angle_beta   78.13077347
_cell_angle_gamma   59.99999804
_symmetry_Int_Tables_number   1
_chemical_formula_structural   Tb2Tm2Fe13Co
_chemical_formula_sum   'Tb2 Tm2 Fe13 Co1'
_cell_volume   265.41142423
_cell_formula_units_Z   1
loop_
 _symmetry_equiv_pos_site_id
 _symmetry_equiv_pos_as_xyz
  1  'x, y, z'
loop_
 _atom_site_type_symbol
 _atom_site_label
 _atom_site_symmetry_multiplicity
 _atom_site_fract_x
 _atom_site_fract_y
 _atom_site_fract_z
 _atom_site_occupancy
  Tb  Tb0  1  0.947468  0.947468  0.157596  1
  Tb  Tb1  1  0.052532  0.052532  0.842404  1
  Tm  Tm2  1  0.850260  0.850260  0.449217  1
  Tm  Tm3  1  0.149740  0.149740  0.550783  1
  Fe  Fe4  1  0.721237  0.721237  0.836289  1
  Fe  Fe5  1  0.278763  0.278763  0.163711  1
  Fe  Fe6  1  0.612406  0.612406  0.162781  1
  Fe  Fe7  1  0.387594  0.387594  0.837219  1
  Fe  Fe8  1  0.000000  0.500000  0.000000  1
  Fe  Fe9  1  0.500000  0.000000  0.000000  1
  Fe  Fe10  1  0.500000  0.500000  0.000000  1
  Fe  Fe11  1  0.389740  0.389740  0.329175  1
  Fe  Fe12  1  0.891345  0.389740  0.329175  1
  Fe  Fe13  1  0.389740  0.891345  0.329175  1
  Fe  Fe14  1  0.610260  0.610260  0.670825  1
  Fe  Fe15  1  0.108655  0.610260  0.670825  1
  Fe  Fe16  1  0.610260  0.108655  0.670825  1
  Co  Co17  1  0.500000  0.500000  0.500000  1
