# generated using pymatgen
data_Pr4HoIn3Br
_symmetry_space_group_name_H-M   'P 1'
_cell_length_a   9.57033400
_cell_length_b   9.57033368
_cell_length_c   6.85318400
_cell_angle_alpha   90.00000000
_cell_angle_beta   90.00000000
_cell_angle_gamma   120.00000110
_symmetry_Int_Tables_number   1
_chemical_formula_structural   Pr4HoIn3Br
_chemical_formula_sum   'Pr8 Ho2 In6 Br2'
_cell_volume   543.59717885
_cell_formula_units_Z   2
loop_
 _symmetry_equiv_pos_site_id
 _symmetry_equiv_pos_as_xyz
  1  'x, y, z'
loop_
 _atom_site_type_symbol
 _atom_site_label
 _atom_site_symmetry_multiplicity
 _atom_site_fract_x
 _atom_site_fract_y
 _atom_site_fract_z
 _atom_site_occupancy
  Pr  Pr0  1  0.733149  0.733149  0.252639  1
  Pr  Pr1  1  0.000000  0.733149  0.747361  1
  Pr  Pr2  1  0.733149  0.000000  0.747361  1
  Pr  Pr3  1  0.266851  0.266851  0.747361  1
  Pr  Pr4  1  0.000000  0.266851  0.252639  1
  Pr  Pr5  1  0.266851  0.000000  0.252639  1
  Pr  Pr6  1  0.333333  0.666667  0.000000  1
  Pr  Pr7  1  0.666667  0.333333  0.000000  1
  Ho  Ho8  1  0.333333  0.666667  0.500000  1
  Ho  Ho9  1  0.666667  0.333333  0.500000  1
  In  In10  1  0.394030  0.000000  0.743885  1
  In  In11  1  0.000000  0.605970  0.256115  1
  In  In12  1  0.605970  0.000000  0.256115  1
  In  In13  1  0.000000  0.394030  0.743885  1
  In  In14  1  0.394030  0.394030  0.256115  1
  In  In15  1  0.605970  0.605970  0.743885  1
  Br  Br16  1  0.000000  0.000000  0.500000  1
  Br  Br17  1  0.000000  0.000000  0.000000  1
