# generated using pymatgen
data_Tb16Er4(Ir3Rh)3
_symmetry_space_group_name_H-M   'P 1'
_cell_length_a   10.89871000
_cell_length_b   10.89871000
_cell_length_c   6.38594500
_cell_angle_alpha   90.00000000
_cell_angle_beta   90.00000000
_cell_angle_gamma   90.00000000
_symmetry_Int_Tables_number   1
_chemical_formula_structural   Tb16Er4(Ir3Rh)3
_chemical_formula_sum   'Tb16 Er4 Ir9 Rh3'
_cell_volume   758.53455053
_cell_formula_units_Z   1
loop_
 _symmetry_equiv_pos_site_id
 _symmetry_equiv_pos_as_xyz
  1  'x, y, z'
loop_
 _atom_site_type_symbol
 _atom_site_label
 _atom_site_symmetry_multiplicity
 _atom_site_fract_x
 _atom_site_fract_y
 _atom_site_fract_z
 _atom_site_occupancy
  Tb  Tb0  1  0.289815  0.088113  0.378509  1
  Tb  Tb1  1  0.289775  0.911747  0.878531  1
  Tb  Tb2  1  0.710225  0.088253  0.878531  1
  Tb  Tb3  1  0.710185  0.911887  0.378509  1
  Tb  Tb4  1  0.588253  0.789775  0.878531  1
  Tb  Tb5  1  0.588113  0.210185  0.378509  1
  Tb  Tb6  1  0.411887  0.789815  0.378509  1
  Tb  Tb7  1  0.411747  0.210225  0.878531  1
  Tb  Tb8  1  0.209672  0.411988  0.620866  1
  Tb  Tb9  1  0.209846  0.588157  0.122476  1
  Tb  Tb10  1  0.790154  0.411843  0.122476  1
  Tb  Tb11  1  0.790328  0.588012  0.620866  1
  Tb  Tb12  1  0.911843  0.709846  0.122476  1
  Tb  Tb13  1  0.911988  0.290328  0.620866  1
  Tb  Tb14  1  0.088012  0.709672  0.620866  1
  Tb  Tb15  1  0.088157  0.290154  0.122476  1
  Er  Er16  1  0.000000  0.000000  0.500093  1
  Er  Er17  1  0.000000  0.000000  0.000054  1
  Er  Er18  1  0.500000  0.500000  0.000054  1
  Er  Er19  1  0.500000  0.500000  0.500093  1
  Ir  Ir20  1  0.847161  0.152229  0.249733  1
  Ir  Ir21  1  0.847237  0.847673  0.749854  1
  Ir  Ir22  1  0.152763  0.152327  0.749854  1
  Ir  Ir23  1  0.152839  0.847771  0.249733  1
  Ir  Ir24  1  0.652327  0.347237  0.749854  1
  Ir  Ir25  1  0.652229  0.652839  0.249733  1
  Ir  Ir26  1  0.347771  0.347161  0.249733  1
  Ir  Ir27  1  0.347673  0.652763  0.749854  1
  Ir  Ir28  1  0.000000  0.500000  0.378622  1
  Rh  Rh29  1  0.500000  0.000000  0.121082  1
  Rh  Rh30  1  0.500000  0.000000  0.621059  1
  Rh  Rh31  1  0.000000  0.500000  0.879068  1
