# generated using pymatgen
data_CeDy7(Si3Pt)4
_symmetry_space_group_name_H-M   'P 1'
_cell_length_a   8.13475100
_cell_length_b   8.13476328
_cell_length_c   8.19169000
_cell_angle_alpha   90.00000000
_cell_angle_beta   90.00000000
_cell_angle_gamma   119.99711430
_symmetry_Int_Tables_number   1
_chemical_formula_structural   CeDy7(Si3Pt)4
_chemical_formula_sum   'Ce1 Dy7 Si12 Pt4'
_cell_volume   469.46795306
_cell_formula_units_Z   1
loop_
 _symmetry_equiv_pos_site_id
 _symmetry_equiv_pos_as_xyz
  1  'x, y, z'
loop_
 _atom_site_type_symbol
 _atom_site_label
 _atom_site_symmetry_multiplicity
 _atom_site_fract_x
 _atom_site_fract_y
 _atom_site_fract_z
 _atom_site_occupancy
  Ce  Ce0  1  0.999998  0.000002  0.250000  1
  Dy  Dy1  1  0.000000  0.000000  0.750000  1
  Dy  Dy2  1  0.501301  0.498699  0.250000  1
  Dy  Dy3  1  0.501301  0.002602  0.250000  1
  Dy  Dy4  1  0.997399  0.498699  0.250000  1
  Dy  Dy5  1  0.498731  0.501268  0.750000  1
  Dy  Dy6  1  0.498731  0.997461  0.750000  1
  Dy  Dy7  1  0.002539  0.501268  0.750000  1
  Si  Si8  1  0.165498  0.834502  0.499144  1
  Si  Si9  1  0.165501  0.331007  0.499151  1
  Si  Si10  1  0.668993  0.834500  0.499151  1
  Si  Si11  1  0.834475  0.165524  0.501525  1
  Si  Si12  1  0.834476  0.668941  0.501523  1
  Si  Si13  1  0.331059  0.165524  0.501523  1
  Si  Si14  1  0.834475  0.165524  0.998475  1
  Si  Si15  1  0.834476  0.668941  0.998477  1
  Si  Si16  1  0.331059  0.165524  0.998477  1
  Si  Si17  1  0.165498  0.834502  0.000856  1
  Si  Si18  1  0.165501  0.331007  0.000849  1
  Si  Si19  1  0.668993  0.834500  0.000849  1
  Pt  Pt20  1  0.333337  0.666663  0.499570  1
  Pt  Pt21  1  0.666662  0.333338  0.503913  1
  Pt  Pt22  1  0.666662  0.333338  0.996087  1
  Pt  Pt23  1  0.333337  0.666663  0.000430  1
