# generated using pymatgen
data_DyPa2(GaIr)3
_symmetry_space_group_name_H-M   'P 1'
_cell_length_a   7.17161807
_cell_length_b   7.11547465
_cell_length_c   3.94769700
_cell_angle_alpha   90.00000000
_cell_angle_beta   90.00000000
_cell_angle_gamma   119.74136040
_symmetry_Int_Tables_number   1
_chemical_formula_structural   DyPa2(GaIr)3
_chemical_formula_sum   'Dy1 Pa2 Ga3 Ir3'
_cell_volume   174.91274325
_cell_formula_units_Z   1
loop_
 _symmetry_equiv_pos_site_id
 _symmetry_equiv_pos_as_xyz
  1  'x, y, z'
loop_
 _atom_site_type_symbol
 _atom_site_label
 _atom_site_symmetry_multiplicity
 _atom_site_fract_x
 _atom_site_fract_y
 _atom_site_fract_z
 _atom_site_occupancy
  Dy  Dy0  1  0.000000  0.590345  0.500001  1
  Pa  Pa1  1  0.585383  0.999380  0.500001  1
  Pa  Pa2  1  0.414616  0.413996  0.500001  1
  Ga  Ga3  1  0.231110  0.986592  0.000000  1
  Ga  Ga4  1  0.000000  0.257337  0.000000  1
  Ga  Ga5  1  0.768889  0.755481  0.000000  1
  Ir  Ir6  1  0.639445  0.309860  0.000000  1
  Ir  Ir7  1  0.360554  0.670414  0.000000  1
  Ir  Ir8  1  0.000000  0.016593  0.500001  1
