# generated using pymatgen
data_Nb12Co8Re4CN3
_symmetry_space_group_name_H-M   'P 1'
_cell_length_a   8.15907838
_cell_length_b   8.13083156
_cell_length_c   8.13083100
_cell_angle_alpha   59.99999822
_cell_angle_beta   60.11445471
_cell_angle_gamma   60.11445590
_symmetry_Int_Tables_number   1
_chemical_formula_structural   Nb12Co8Re4CN3
_chemical_formula_sum   'Nb12 Co8 Re4 C1 N3'
_cell_volume   382.07195778
_cell_formula_units_Z   1
loop_
 _symmetry_equiv_pos_site_id
 _symmetry_equiv_pos_as_xyz
  1  'x, y, z'
loop_
 _atom_site_type_symbol
 _atom_site_label
 _atom_site_symmetry_multiplicity
 _atom_site_fract_x
 _atom_site_fract_y
 _atom_site_fract_z
 _atom_site_occupancy
  Nb  Nb0  1  0.806976  0.806722  0.193151  1
  Nb  Nb1  1  0.191013  0.192737  0.808125  1
  Nb  Nb2  1  0.806976  0.193151  0.806722  1
  Nb  Nb3  1  0.191013  0.808125  0.192737  1
  Nb  Nb4  1  0.191013  0.808125  0.808125  1
  Nb  Nb5  1  0.806976  0.193151  0.193151  1
  Nb  Nb6  1  0.443024  0.443278  0.056849  1
  Nb  Nb7  1  0.058987  0.057263  0.441875  1
  Nb  Nb8  1  0.443024  0.056849  0.443278  1
  Nb  Nb9  1  0.058987  0.441875  0.057263  1
  Nb  Nb10  1  0.058987  0.441875  0.441875  1
  Nb  Nb11  1  0.443024  0.056849  0.056849  1
  Co  Co12  1  0.728913  0.423696  0.423696  1
  Co  Co13  1  0.423501  0.729008  0.423746  1
  Co  Co14  1  0.423501  0.423746  0.729008  1
  Co  Co15  1  0.423501  0.423746  0.423746  1
  Co  Co16  1  0.521087  0.826304  0.826304  1
  Co  Co17  1  0.826499  0.520992  0.826254  1
  Co  Co18  1  0.826499  0.826254  0.520992  1
  Co  Co19  1  0.826499  0.826254  0.826254  1
  Re  Re20  1  0.125000  0.625000  0.625000  1
  Re  Re21  1  0.625000  0.125000  0.625000  1
  Re  Re22  1  0.625000  0.625000  0.125000  1
  Re  Re23  1  0.625000  0.625000  0.625000  1
  C  C24  1  0.625000  0.125000  0.125000  1
  N  N25  1  0.125000  0.625000  0.125000  1
  N  N26  1  0.125000  0.125000  0.625000  1
  N  N27  1  0.125000  0.125000  0.125000  1
