# generated using pymatgen
data_Er19ThRh12
_symmetry_space_group_name_H-M   'P 1'
_cell_length_a   10.83464162
_cell_length_b   10.84635646
_cell_length_c   6.33133300
_cell_angle_alpha   89.92354120
_cell_angle_beta   90.03982017
_cell_angle_gamma   90.04802343
_symmetry_Int_Tables_number   1
_chemical_formula_structural   Er19ThRh12
_chemical_formula_sum   'Er19 Th1 Rh12'
_cell_volume   744.03426395
_cell_formula_units_Z   1
loop_
 _symmetry_equiv_pos_site_id
 _symmetry_equiv_pos_as_xyz
  1  'x, y, z'
loop_
 _atom_site_type_symbol
 _atom_site_label
 _atom_site_symmetry_multiplicity
 _atom_site_fract_x
 _atom_site_fract_y
 _atom_site_fract_z
 _atom_site_occupancy
  Er  Er0  1  0.293290  0.084313  0.382458  1
  Er  Er1  1  0.291537  0.910370  0.881350  1
  Er  Er2  1  0.708350  0.088589  0.879787  1
  Er  Er3  1  0.708910  0.910912  0.380547  1
  Er  Er4  1  0.588929  0.791453  0.881054  1
  Er  Er5  1  0.588970  0.208649  0.380538  1
  Er  Er6  1  0.412267  0.790455  0.380915  1
  Er  Er7  1  0.412049  0.209005  0.878908  1
  Er  Er8  1  0.209455  0.413703  0.620555  1
  Er  Er9  1  0.209618  0.594633  0.119765  1
  Er  Er10  1  0.787880  0.412176  0.119420  1
  Er  Er11  1  0.791271  0.590720  0.620833  1
  Er  Er12  1  0.909021  0.708916  0.120844  1
  Er  Er13  1  0.907530  0.291951  0.620905  1
  Er  Er14  1  0.088920  0.708994  0.619919  1
  Er  Er15  1  0.999983  0.000336  0.498307  1
  Er  Er16  1  0.998494  0.995098  0.998182  1
  Er  Er17  1  0.499138  0.501266  0.998648  1
  Er  Er18  1  0.500682  0.500447  0.498494  1
  Th  Th19  1  0.092128  0.289031  0.118851  1
  Rh  Rh20  1  0.846401  0.154989  0.248463  1
  Rh  Rh21  1  0.845618  0.846094  0.749196  1
  Rh  Rh22  1  0.154625  0.153814  0.754244  1
  Rh  Rh23  1  0.154905  0.846322  0.251003  1
  Rh  Rh24  1  0.653380  0.345613  0.749418  1
  Rh  Rh25  1  0.653996  0.654192  0.250178  1
  Rh  Rh26  1  0.344768  0.345838  0.247781  1
  Rh  Rh27  1  0.346895  0.654601  0.748855  1
  Rh  Rh28  1  0.500861  0.999411  0.126090  1
  Rh  Rh29  1  0.500095  0.999184  0.626393  1
  Rh  Rh30  1  0.999784  0.500246  0.876012  1
  Rh  Rh31  1  0.000249  0.498680  0.372087  1
