# generated using pymatgen
data_Dy3(In2Ru)2
_symmetry_space_group_name_H-M   'P 1'
_cell_length_a   8.03111800
_cell_length_b   8.03111695
_cell_length_c   3.64964600
_cell_angle_alpha   90.00000000
_cell_angle_beta   90.00000000
_cell_angle_gamma   120.00000431
_symmetry_Int_Tables_number   1
_chemical_formula_structural   Dy3(In2Ru)2
_chemical_formula_sum   'Dy3 In4 Ru2'
_cell_volume   203.86060652
_cell_formula_units_Z   1
loop_
 _symmetry_equiv_pos_site_id
 _symmetry_equiv_pos_as_xyz
  1  'x, y, z'
loop_
 _atom_site_type_symbol
 _atom_site_label
 _atom_site_symmetry_multiplicity
 _atom_site_fract_x
 _atom_site_fract_y
 _atom_site_fract_z
 _atom_site_occupancy
  Dy  Dy0  1  0.040776  0.294211  0.500000  1
  Dy  Dy1  1  0.705789  0.746564  0.500000  1
  Dy  Dy2  1  0.253436  0.959224  0.500000  1
  In  In3  1  0.664947  0.067904  0.000000  1
  In  In4  1  0.932096  0.597044  0.000000  1
  In  In5  1  0.402956  0.335053  0.000000  1
  In  In6  1  0.333333  0.666667  0.000000  1
  Ru  Ru7  1  0.666667  0.333333  0.500000  1
  Ru  Ru8  1  0.000000  0.000000  0.000000  1
