# generated using pymatgen
data_K12MgScSe8
_symmetry_space_group_name_H-M   'P 1'
_cell_length_a   10.55687300
_cell_length_b   10.55687257
_cell_length_c   8.02062000
_cell_angle_alpha   90.00000000
_cell_angle_beta   90.00000000
_cell_angle_gamma   119.99999820
_symmetry_Int_Tables_number   1
_chemical_formula_structural   K12MgScSe8
_chemical_formula_sum   'K12 Mg1 Sc1 Se8'
_cell_volume   774.12154895
_cell_formula_units_Z   1
loop_
 _symmetry_equiv_pos_site_id
 _symmetry_equiv_pos_as_xyz
  1  'x, y, z'
loop_
 _atom_site_type_symbol
 _atom_site_label
 _atom_site_symmetry_multiplicity
 _atom_site_fract_x
 _atom_site_fract_y
 _atom_site_fract_z
 _atom_site_occupancy
  K  K0  1  0.863288  0.726575  0.540525  1
  K  K1  1  0.273425  0.136712  0.540525  1
  K  K2  1  0.863288  0.136712  0.540525  1
  K  K3  1  0.141199  0.282399  0.046202  1
  K  K4  1  0.717601  0.858801  0.046202  1
  K  K5  1  0.141199  0.858801  0.046202  1
  K  K6  1  0.465255  0.930511  0.371027  1
  K  K7  1  0.069489  0.534745  0.371027  1
  K  K8  1  0.465255  0.534745  0.371027  1
  K  K9  1  0.525520  0.051039  0.859334  1
  K  K10  1  0.948961  0.474480  0.859334  1
  K  K11  1  0.525520  0.474480  0.859334  1
  Mg  Mg12  1  0.333333  0.666667  0.756674  1
  Sc  Sc13  1  0.666667  0.333333  0.252377  1
  Se  Se14  1  0.666667  0.333333  0.575753  1
  Se  Se15  1  0.333333  0.666667  0.083138  1
  Se  Se16  1  0.800189  0.600381  0.146688  1
  Se  Se17  1  0.399619  0.199811  0.146688  1
  Se  Se18  1  0.800189  0.199811  0.146688  1
  Se  Se19  1  0.196047  0.392091  0.653371  1
  Se  Se20  1  0.607909  0.803953  0.653371  1
  Se  Se21  1  0.196047  0.803953  0.653371  1
