# generated using pymatgen
data_TbHoMn2(Co4P3)2
_symmetry_space_group_name_H-M   'P 1'
_cell_length_a   3.64815700
_cell_length_b   10.31197300
_cell_length_c   11.79997000
_cell_angle_alpha   90.00000000
_cell_angle_beta   90.00000000
_cell_angle_gamma   90.00000000
_symmetry_Int_Tables_number   1
_chemical_formula_structural   TbHoMn2(Co4P3)2
_chemical_formula_sum   'Tb2 Ho2 Mn4 Co16 P12'
_cell_volume   443.91128992
_cell_formula_units_Z   2
loop_
 _symmetry_equiv_pos_site_id
 _symmetry_equiv_pos_as_xyz
  1  'x, y, z'
loop_
 _atom_site_type_symbol
 _atom_site_label
 _atom_site_symmetry_multiplicity
 _atom_site_fract_x
 _atom_site_fract_y
 _atom_site_fract_z
 _atom_site_occupancy
  Tb  Tb0  1  0.250000  0.582138  0.704200  1
  Tb  Tb1  1  0.250000  0.917862  0.204200  1
  Ho  Ho2  1  0.750000  0.417901  0.295826  1
  Ho  Ho3  1  0.750000  0.082099  0.795826  1
  Mn  Mn4  1  0.250000  0.710237  0.988790  1
  Mn  Mn5  1  0.250000  0.789763  0.488790  1
  Mn  Mn6  1  0.750000  0.289825  0.011073  1
  Mn  Mn7  1  0.750000  0.210175  0.511073  1
  Co  Co8  1  0.250000  0.406444  0.487512  1
  Co  Co9  1  0.250000  0.093556  0.987512  1
  Co  Co10  1  0.750000  0.593340  0.511604  1
  Co  Co11  1  0.750000  0.906660  0.011604  1
  Co  Co12  1  0.250000  0.221110  0.176591  1
  Co  Co13  1  0.250000  0.278890  0.676591  1
  Co  Co14  1  0.750000  0.779504  0.823538  1
  Co  Co15  1  0.750000  0.720496  0.323538  1
  Co  Co16  1  0.250000  0.883913  0.698946  1
  Co  Co17  1  0.250000  0.616087  0.198946  1
  Co  Co18  1  0.750000  0.117059  0.301404  1
  Co  Co19  1  0.750000  0.382941  0.801404  1
  Co  Co20  1  0.250000  0.465704  0.932746  1
  Co  Co21  1  0.250000  0.034296  0.432746  1
  Co  Co22  1  0.750000  0.533606  0.067727  1
  Co  Co23  1  0.750000  0.966394  0.567727  1
  P  P24  1  0.250000  0.418694  0.112699  1
  P  P25  1  0.250000  0.081306  0.612699  1
  P  P26  1  0.750000  0.581240  0.887966  1
  P  P27  1  0.750000  0.918760  0.387966  1
  P  P28  1  0.250000  0.269585  0.867966  1
  P  P29  1  0.250000  0.230415  0.367966  1
  P  P30  1  0.750000  0.729715  0.131772  1
  P  P31  1  0.750000  0.770285  0.631772  1
  P  P32  1  0.250000  0.600269  0.391165  1
  P  P33  1  0.250000  0.899731  0.891165  1
  P  P34  1  0.750000  0.398968  0.608477  1
  P  P35  1  0.750000  0.101032  0.108477  1
