# generated using pymatgen
data_Ta6Si6Tc5Pd
_symmetry_space_group_name_H-M   'P 1'
_cell_length_a   7.51325146
_cell_length_b   7.53496054
_cell_length_c   7.53496010
_cell_angle_alpha   127.79226427
_cell_angle_beta   122.99157891
_cell_angle_gamma   81.01374587
_symmetry_Int_Tables_number   1
_chemical_formula_structural   Ta6Si6Tc5Pd
_chemical_formula_sum   'Ta6 Si6 Tc5 Pd1'
_cell_volume   272.41081956
_cell_formula_units_Z   1
loop_
 _symmetry_equiv_pos_site_id
 _symmetry_equiv_pos_as_xyz
  1  'x, y, z'
loop_
 _atom_site_type_symbol
 _atom_site_label
 _atom_site_symmetry_multiplicity
 _atom_site_fract_x
 _atom_site_fract_y
 _atom_site_fract_z
 _atom_site_occupancy
  Ta  Ta0  1  0.544887  0.094999  0.039733  1
  Ta  Ta1  1  0.455113  0.494846  0.550112  1
  Ta  Ta2  1  0.958631  0.501928  0.024843  1
  Ta  Ta3  1  0.041369  0.066212  0.543297  1
  Ta  Ta4  1  0.747393  0.909810  0.650970  1
  Ta  Ta5  1  0.252607  0.903576  0.162418  1
  Si  Si6  1  0.335411  0.825624  0.496206  1
  Si  Si7  1  0.664589  0.160795  0.490213  1
  Si  Si8  1  0.828731  0.831521  0.993183  1
  Si  Si9  1  0.171269  0.164451  0.002790  1
  Si  Si10  1  0.774796  0.528324  0.249653  1
  Si  Si11  1  0.225204  0.474857  0.753529  1
  Tc  Tc12  1  0.158655  0.749343  0.655900  1
  Tc  Tc13  1  0.841345  0.497244  0.590688  1
  Tc  Tc14  1  0.590419  0.750211  0.087681  1
  Tc  Tc15  1  0.409581  0.497260  0.159792  1
  Tc  Tc16  1  0.500000  0.244206  0.744206  1
  Pd  Pd17  1  0.000000  0.246790  0.246790  1
