# generated using pymatgen
data_Ho8Lu12(SiSb3)3
_symmetry_space_group_name_H-M   'P 1'
_cell_length_a   7.87770323
_cell_length_b   8.96411800
_cell_length_c   11.67013700
_cell_angle_alpha   90.00000000
_cell_angle_beta   89.91231477
_cell_angle_gamma   90.00000000
_symmetry_Int_Tables_number   1
_chemical_formula_structural   Ho8Lu12(SiSb3)3
_chemical_formula_sum   'Ho8 Lu12 Si3 Sb9'
_cell_volume   824.10514655
_cell_formula_units_Z   1
loop_
 _symmetry_equiv_pos_site_id
 _symmetry_equiv_pos_as_xyz
  1  'x, y, z'
loop_
 _atom_site_type_symbol
 _atom_site_label
 _atom_site_symmetry_multiplicity
 _atom_site_fract_x
 _atom_site_fract_y
 _atom_site_fract_z
 _atom_site_occupancy
  Ho  Ho0  1  0.166326  0.750000  0.214316  1
  Ho  Ho1  1  0.677108  0.250000  0.271745  1
  Ho  Ho2  1  0.835160  0.250000  0.785749  1
  Ho  Ho3  1  0.334034  0.750000  0.716823  1
  Ho  Ho4  1  0.642101  0.750000  0.293081  1
  Ho  Ho5  1  0.143058  0.250000  0.207583  1
  Ho  Ho6  1  0.343678  0.250000  0.713910  1
  Ho  Ho7  1  0.856886  0.750000  0.794684  1
  Lu  Lu8  1  0.816082  0.946109  0.063529  1
  Lu  Lu9  1  0.311038  0.044385  0.431532  1
  Lu  Lu10  1  0.180336  0.447075  0.938750  1
  Lu  Lu11  1  0.686659  0.565470  0.565691  1
  Lu  Lu12  1  0.180336  0.052925  0.938750  1
  Lu  Lu13  1  0.686659  0.934530  0.565691  1
  Lu  Lu14  1  0.816082  0.553891  0.063529  1
  Lu  Lu15  1  0.311038  0.455615  0.431532  1
  Lu  Lu16  1  0.535576  0.250000  0.996333  1
  Lu  Lu17  1  0.040782  0.750000  0.501770  1
  Lu  Lu18  1  0.461198  0.750000  0.001413  1
  Lu  Lu19  1  0.975438  0.250000  0.497196  1
  Si  Si20  1  0.907709  0.250000  0.025376  1
  Si  Si21  1  0.415112  0.750000  0.480090  1
  Si  Si22  1  0.088820  0.750000  0.977701  1
  Sb  Sb23  1  0.932897  0.988516  0.327826  1
  Sb  Sb24  1  0.432885  0.010556  0.171659  1
  Sb  Sb25  1  0.066373  0.491422  0.673016  1
  Sb  Sb26  1  0.566469  0.509711  0.827177  1
  Sb  Sb27  1  0.066373  0.008578  0.673016  1
  Sb  Sb28  1  0.566469  0.990289  0.827177  1
  Sb  Sb29  1  0.932897  0.511484  0.327826  1
  Sb  Sb30  1  0.432885  0.489444  0.171659  1
  Sb  Sb31  1  0.591534  0.250000  0.523868  1
