# generated using pymatgen
data_TbY5TcBi2
_symmetry_space_group_name_H-M   'P 1'
_cell_length_a   8.32501800
_cell_length_b   8.33606740
_cell_length_c   4.30175300
_cell_angle_alpha   90.00000000
_cell_angle_beta   90.00000000
_cell_angle_gamma   119.95616274
_symmetry_Int_Tables_number   1
_chemical_formula_structural   TbY5TcBi2
_chemical_formula_sum   'Tb1 Y5 Tc1 Bi2'
_cell_volume   258.65100676
_cell_formula_units_Z   1
loop_
 _symmetry_equiv_pos_site_id
 _symmetry_equiv_pos_as_xyz
  1  'x, y, z'
loop_
 _atom_site_type_symbol
 _atom_site_label
 _atom_site_symmetry_multiplicity
 _atom_site_fract_x
 _atom_site_fract_y
 _atom_site_fract_z
 _atom_site_occupancy
  Tb  Tb0  1  0.231958  0.000000  0.500000  1
  Y  Y1  1  0.999995  0.233184  0.500000  1
  Y  Y2  1  0.766811  0.766816  0.500000  1
  Y  Y3  1  0.606132  0.000000  0.000000  1
  Y  Y4  1  0.000044  0.605947  0.000000  1
  Y  Y5  1  0.394097  0.394053  0.000000  1
  Tc  Tc6  1  0.000524  0.000000  0.000000  1
  Bi  Bi7  1  0.333396  0.666355  0.500000  1
  Bi  Bi8  1  0.667042  0.333645  0.500000  1
