# generated using pymatgen
data_Hf3TaTi2(SiRu)6
_symmetry_space_group_name_H-M   'P 1'
_cell_length_a   7.50927413
_cell_length_b   7.49873039
_cell_length_c   7.50927340
_cell_angle_alpha   127.97953774
_cell_angle_beta   122.05584484
_cell_angle_gamma   81.63575255
_symmetry_Int_Tables_number   1
_chemical_formula_structural   Hf3TaTi2(SiRu)6
_chemical_formula_sum   'Hf3 Ta1 Ti2 Si6 Ru6'
_cell_volume   271.90020596
_cell_formula_units_Z   1
loop_
 _symmetry_equiv_pos_site_id
 _symmetry_equiv_pos_as_xyz
  1  'x, y, z'
loop_
 _atom_site_type_symbol
 _atom_site_label
 _atom_site_symmetry_multiplicity
 _atom_site_fract_x
 _atom_site_fract_y
 _atom_site_fract_z
 _atom_site_occupancy
  Hf  Hf0  1  0.244071  0.913663  0.169592  1
  Hf  Hf1  1  0.971253  0.493750  0.022497  1
  Hf  Hf2  1  0.028317  0.044589  0.516272  1
  Ta  Ta3  1  0.445612  0.482808  0.537195  1
  Ti  Ti4  1  0.754736  0.924603  0.669867  1
  Ti  Ti5  1  0.549149  0.102139  0.052989  1
  Si  Si6  1  0.781054  0.557252  0.276199  1
  Si  Si7  1  0.172759  0.158262  0.999092  1
  Si  Si8  1  0.659170  0.158262  0.485500  1
  Si  Si9  1  0.353628  0.829937  0.516924  1
  Si  Si10  1  0.226644  0.466387  0.739743  1
  Si  Si11  1  0.813014  0.829937  0.976309  1
  Ru  Ru12  1  0.522588  0.249304  0.772339  1
  Ru  Ru13  1  0.976965  0.249304  0.226716  1
  Ru  Ru14  1  0.844276  0.494761  0.588452  1
  Ru  Ru15  1  0.589769  0.746248  0.085560  1
  Ru  Ru16  1  0.406308  0.494761  0.150485  1
  Ru  Ru17  1  0.160687  0.746248  0.656480  1
