# generated using pymatgen
data_RbSmP2Se7
_symmetry_space_group_name_H-M   'P 1'
_cell_length_a   9.76737000
_cell_length_b   10.58526303
_cell_length_c   13.47148600
_cell_angle_alpha   90.00000000
_cell_angle_beta   90.00000000
_cell_angle_gamma   90.28508728
_symmetry_Int_Tables_number   1
_chemical_formula_structural   RbSmP2Se7
_chemical_formula_sum   'Rb4 Sm4 P8 Se28'
_cell_volume   1392.80212891
_cell_formula_units_Z   4
loop_
 _symmetry_equiv_pos_site_id
 _symmetry_equiv_pos_as_xyz
  1  'x, y, z'
loop_
 _atom_site_type_symbol
 _atom_site_label
 _atom_site_symmetry_multiplicity
 _atom_site_fract_x
 _atom_site_fract_y
 _atom_site_fract_z
 _atom_site_occupancy
  Rb  Rb0  1  0.868354  0.396572  0.193222  1
  Rb  Rb1  1  0.368354  0.396572  0.306778  1
  Rb  Rb2  1  0.631646  0.603428  0.693222  1
  Rb  Rb3  1  0.131646  0.603428  0.806778  1
  Sm  Sm4  1  0.395467  0.136726  0.640233  1
  Sm  Sm5  1  0.104533  0.863274  0.140233  1
  Sm  Sm6  1  0.604533  0.863274  0.359767  1
  Sm  Sm7  1  0.895467  0.136726  0.859767  1
  P  P8  1  0.021850  0.267702  0.610796  1
  P  P9  1  0.804147  0.822787  0.967146  1
  P  P10  1  0.978150  0.732298  0.389204  1
  P  P11  1  0.695853  0.177213  0.467146  1
  P  P12  1  0.521850  0.267702  0.889204  1
  P  P13  1  0.304147  0.822787  0.532854  1
  P  P14  1  0.478150  0.732298  0.110796  1
  P  P15  1  0.195853  0.177213  0.032854  1
  Se  Se16  1  0.785290  0.642477  0.439171  1
  Se  Se17  1  0.328274  0.994731  0.441520  1
  Se  Se18  1  0.437341  0.674642  0.471598  1
  Se  Se19  1  0.417663  0.913653  0.179762  1
  Se  Se20  1  0.648335  0.141611  0.308412  1
  Se  Se21  1  0.578348  0.756696  0.955230  1
  Se  Se22  1  0.582337  0.086347  0.820238  1
  Se  Se23  1  0.082337  0.086347  0.679762  1
  Se  Se24  1  0.615662  0.640990  0.219801  1
  Se  Se25  1  0.214710  0.357523  0.560829  1
  Se  Se26  1  0.884338  0.359010  0.719801  1
  Se  Se27  1  0.384338  0.359010  0.780199  1
  Se  Se28  1  0.714710  0.357523  0.939171  1
  Se  Se29  1  0.562659  0.325358  0.528402  1
  Se  Se30  1  0.285290  0.642477  0.060829  1
  Se  Se31  1  0.921652  0.243304  0.455230  1
  Se  Se32  1  0.671726  0.005269  0.558480  1
  Se  Se33  1  0.115662  0.640990  0.280199  1
  Se  Se34  1  0.062659  0.325358  0.971598  1
  Se  Se35  1  0.078348  0.756696  0.544770  1
  Se  Se36  1  0.851665  0.858389  0.808412  1
  Se  Se37  1  0.828274  0.994731  0.058480  1
  Se  Se38  1  0.148335  0.141611  0.191588  1
  Se  Se39  1  0.171726  0.005269  0.941520  1
  Se  Se40  1  0.421652  0.243304  0.044770  1
  Se  Se41  1  0.917663  0.913653  0.320238  1
  Se  Se42  1  0.351665  0.858389  0.691588  1
  Se  Se43  1  0.937341  0.674642  0.028402  1
