# generated using pymatgen
data_Yb2Ag2Pb
_symmetry_space_group_name_H-M   'P 1'
_cell_length_a   8.31929900
_cell_length_b   8.31929900
_cell_length_c   7.29408800
_cell_angle_alpha   90.00000000
_cell_angle_beta   90.00000000
_cell_angle_gamma   90.00000000
_symmetry_Int_Tables_number   1
_chemical_formula_structural   Yb2Ag2Pb
_chemical_formula_sum   'Yb8 Ag8 Pb4'
_cell_volume   504.82919784
_cell_formula_units_Z   4
loop_
 _symmetry_equiv_pos_site_id
 _symmetry_equiv_pos_as_xyz
  1  'x, y, z'
loop_
 _atom_site_type_symbol
 _atom_site_label
 _atom_site_symmetry_multiplicity
 _atom_site_fract_x
 _atom_site_fract_y
 _atom_site_fract_z
 _atom_site_occupancy
  Yb  Yb0  1  0.685785  0.314215  0.000000  1
  Yb  Yb1  1  0.814215  0.814215  0.500000  1
  Yb  Yb2  1  0.185785  0.185785  0.500000  1
  Yb  Yb3  1  0.314215  0.685785  0.000000  1
  Yb  Yb4  1  0.169219  0.169219  0.000000  1
  Yb  Yb5  1  0.669219  0.330781  0.500000  1
  Yb  Yb6  1  0.330781  0.669219  0.500000  1
  Yb  Yb7  1  0.830781  0.830781  0.000000  1
  Ag  Ag8  1  0.381060  0.381060  0.231265  1
  Ag  Ag9  1  0.881060  0.118940  0.731265  1
  Ag  Ag10  1  0.118940  0.881060  0.731265  1
  Ag  Ag11  1  0.618940  0.618940  0.231265  1
  Ag  Ag12  1  0.118940  0.881060  0.268735  1
  Ag  Ag13  1  0.881060  0.118940  0.268735  1
  Ag  Ag14  1  0.381060  0.381060  0.768735  1
  Ag  Ag15  1  0.618940  0.618940  0.768735  1
  Pb  Pb16  1  0.500000  0.000000  0.250000  1
  Pb  Pb17  1  0.500000  0.000000  0.750000  1
  Pb  Pb18  1  0.000000  0.500000  0.250000  1
  Pb  Pb19  1  0.000000  0.500000  0.750000  1
