# generated using pymatgen
data_Zr6Be(Tl2Cl5)4
_symmetry_space_group_name_H-M   'P 1'
_cell_length_a   11.45249782
_cell_length_b   11.45249832
_cell_length_c   11.45249800
_cell_angle_alpha   60.00000094
_cell_angle_beta   59.99999949
_cell_angle_gamma   60.00000278
_symmetry_Int_Tables_number   1
_chemical_formula_structural   Zr6Be(Tl2Cl5)4
_chemical_formula_sum   'Zr6 Be1 Tl8 Cl20'
_cell_volume   1062.14960539
_cell_formula_units_Z   1
loop_
 _symmetry_equiv_pos_site_id
 _symmetry_equiv_pos_as_xyz
  1  'x, y, z'
loop_
 _atom_site_type_symbol
 _atom_site_label
 _atom_site_symmetry_multiplicity
 _atom_site_fract_x
 _atom_site_fract_y
 _atom_site_fract_z
 _atom_site_occupancy
  Zr  Zr0  1  0.854441  0.145559  0.145559  1
  Zr  Zr1  1  0.145559  0.854441  0.854441  1
  Zr  Zr2  1  0.145559  0.854441  0.145559  1
  Zr  Zr3  1  0.854441  0.145559  0.854441  1
  Zr  Zr4  1  0.145559  0.145559  0.854441  1
  Zr  Zr5  1  0.854441  0.854441  0.145559  1
  Be  Be6  1  0.000000  0.000000  0.000000  1
  Tl  Tl7  1  0.360554  0.360554  0.360554  1
  Tl  Tl8  1  0.639446  0.639446  0.639446  1
  Tl  Tl9  1  0.360554  0.360554  0.918337  1
  Tl  Tl10  1  0.360554  0.918337  0.360554  1
  Tl  Tl11  1  0.639446  0.639446  0.081663  1
  Tl  Tl12  1  0.639446  0.081663  0.639446  1
  Tl  Tl13  1  0.918337  0.360554  0.360554  1
  Tl  Tl14  1  0.081663  0.639446  0.639446  1
  Cl  Cl15  1  0.321146  0.000000  0.000000  1
  Cl  Cl16  1  0.678854  0.000000  0.000000  1
  Cl  Cl17  1  0.000000  0.321146  0.678854  1
  Cl  Cl18  1  0.000000  0.678854  0.321146  1
  Cl  Cl19  1  0.000000  0.321146  0.000000  1
  Cl  Cl20  1  0.678854  0.000000  0.321146  1
  Cl  Cl21  1  0.000000  0.678854  0.000000  1
  Cl  Cl22  1  0.321146  0.000000  0.678854  1
  Cl  Cl23  1  0.000000  0.000000  0.321146  1
  Cl  Cl24  1  0.000000  0.000000  0.678854  1
  Cl  Cl25  1  0.678854  0.321146  0.000000  1
  Cl  Cl26  1  0.321146  0.678854  0.000000  1
  Cl  Cl27  1  0.685881  0.314119  0.314119  1
  Cl  Cl28  1  0.314119  0.685881  0.685881  1
  Cl  Cl29  1  0.314119  0.685881  0.314119  1
  Cl  Cl30  1  0.685881  0.314119  0.685881  1
  Cl  Cl31  1  0.314119  0.314119  0.685881  1
  Cl  Cl32  1  0.685881  0.685881  0.314119  1
  Cl  Cl33  1  0.250000  0.250000  0.250000  1
  Cl  Cl34  1  0.750000  0.750000  0.750000  1
