# generated using pymatgen
data_Rb3Na(FeI4)4
_symmetry_space_group_name_H-M   'P 1'
_cell_length_a   8.48693000
_cell_length_b   8.60265030
_cell_length_c   16.83350000
_cell_angle_alpha   85.72129763
_cell_angle_beta   91.10804640
_cell_angle_gamma   91.64040206
_symmetry_Int_Tables_number   1
_chemical_formula_structural   Rb3Na(FeI4)4
_chemical_formula_sum   'Rb3 Na1 Fe4 I16'
_cell_volume   1224.90530986
_cell_formula_units_Z   1
loop_
 _symmetry_equiv_pos_site_id
 _symmetry_equiv_pos_as_xyz
  1  'x, y, z'
loop_
 _atom_site_type_symbol
 _atom_site_label
 _atom_site_symmetry_multiplicity
 _atom_site_fract_x
 _atom_site_fract_y
 _atom_site_fract_z
 _atom_site_occupancy
  Rb  Rb0  1  0.493190  0.254126  0.638235  1
  Rb  Rb1  1  0.998655  0.739870  0.864630  1
  Rb  Rb2  1  0.502436  0.744848  0.354466  1
  Na  Na3  1  0.013833  0.237399  0.123820  1
  Fe  Fe4  1  0.340035  0.246861  0.357066  1
  Fe  Fe5  1  0.877220  0.759467  0.141496  1
  Fe  Fe6  1  0.644782  0.749916  0.639106  1
  Fe  Fe7  1  0.136072  0.245074  0.866006  1
  I  I8  1  0.862247  0.139223  0.906638  1
  I  I9  1  0.374780  0.844742  0.589082  1
  I  I10  1  0.144326  0.877229  0.093864  1
  I  I11  1  0.615265  0.158725  0.402799  1
  I  I12  1  0.362675  0.400969  0.220638  1
  I  I13  1  0.898787  0.593093  0.272875  1
  I  I14  1  0.607278  0.590637  0.773120  1
  I  I15  1  0.111766  0.416919  0.735442  1
  I  I16  1  0.698718  0.992087  0.158155  1
  I  I17  1  0.147531  0.017756  0.341247  1
  I  I18  1  0.333790  0.032924  0.844413  1
  I  I19  1  0.839698  0.976593  0.659509  1
  I  I20  1  0.237570  0.424349  0.459933  1
  I  I21  1  0.763592  0.572898  0.040834  1
  I  I22  1  0.755824  0.576299  0.537157  1
  I  I23  1  0.239930  0.407993  0.979469  1
