# generated using pymatgen
data_TbDy7Ti3Si16W9
_symmetry_space_group_name_H-M   'P 1'
_cell_length_a   6.90228049
_cell_length_b   6.90202943
_cell_length_c   12.81762807
_cell_angle_alpha   90.01915677
_cell_angle_beta   89.98481186
_cell_angle_gamma   89.87301438
_symmetry_Int_Tables_number   1
_chemical_formula_structural   TbDy7Ti3Si16W9
_chemical_formula_sum   'Tb1 Dy7 Ti3 Si16 W9'
_cell_volume   610.62695306
_cell_formula_units_Z   1
loop_
 _symmetry_equiv_pos_site_id
 _symmetry_equiv_pos_as_xyz
  1  'x, y, z'
loop_
 _atom_site_type_symbol
 _atom_site_label
 _atom_site_symmetry_multiplicity
 _atom_site_fract_x
 _atom_site_fract_y
 _atom_site_fract_z
 _atom_site_occupancy
  Tb  Tb0  1  0.997749  0.661254  0.031363  1
  Dy  Dy1  1  0.000697  0.339513  0.531238  1
  Dy  Dy2  1  0.661000  0.998259  0.968535  1
  Dy  Dy3  1  0.162279  0.502833  0.780767  1
  Dy  Dy4  1  0.837602  0.500545  0.282561  1
  Dy  Dy5  1  0.502994  0.162381  0.219173  1
  Dy  Dy6  1  0.500708  0.837765  0.717479  1
  Dy  Dy7  1  0.339610  0.000845  0.468870  1
  Ti  Ti8  1  0.829694  0.168125  0.748459  1
  Ti  Ti9  1  0.168198  0.829736  0.251604  1
  Ti  Ti10  1  0.331293  0.331111  0.999934  1
  Si  Si11  1  0.036516  0.711222  0.437799  1
  Si  Si12  1  0.959324  0.289737  0.935890  1
  Si  Si13  1  0.711278  0.036649  0.562271  1
  Si  Si14  1  0.208756  0.460221  0.186301  1
  Si  Si15  1  0.790614  0.540404  0.685856  1
  Si  Si16  1  0.460698  0.208461  0.813848  1
  Si  Si17  1  0.540664  0.790623  0.314200  1
  Si  Si18  1  0.290557  0.959792  0.063890  1
  Si  Si19  1  0.799204  0.871723  0.183516  1
  Si  Si20  1  0.301720  0.626062  0.566440  1
  Si  Si21  1  0.700774  0.371420  0.066440  1
  Si  Si22  1  0.626093  0.301729  0.433576  1
  Si  Si23  1  0.372231  0.701105  0.933474  1
  Si  Si24  1  0.127548  0.203024  0.315958  1
  Si  Si25  1  0.202822  0.127567  0.684078  1
  Si  Si26  1  0.871322  0.799852  0.816517  1
  W  W27  1  0.334456  0.505785  0.375122  1
  W  W28  1  0.841147  0.997335  0.373567  1
  W  W29  1  0.006144  0.160775  0.125633  1
  W  W30  1  0.997167  0.841188  0.626494  1
  W  W31  1  0.505843  0.334264  0.625017  1
  W  W32  1  0.160806  0.006303  0.874221  1
  W  W33  1  0.668130  0.668084  0.500036  1
  W  W34  1  0.494273  0.660266  0.124909  1
  W  W35  1  0.660093  0.494044  0.874963  1
