# generated using pymatgen
data_CeNpCrN3
_symmetry_space_group_name_H-M   'P 1'
_cell_length_a   3.38108296
_cell_length_b   3.72100098
_cell_length_c   6.71556214
_cell_angle_alpha   106.08381925
_cell_angle_beta   104.58020193
_cell_angle_gamma   90.00000324
_symmetry_Int_Tables_number   1
_chemical_formula_structural   CeNpCrN3
_chemical_formula_sum   'Ce1 Np1 Cr1 N3'
_cell_volume   78.34585516
_cell_formula_units_Z   1
loop_
 _symmetry_equiv_pos_site_id
 _symmetry_equiv_pos_as_xyz
  1  'x, y, z'
loop_
 _atom_site_type_symbol
 _atom_site_label
 _atom_site_symmetry_multiplicity
 _atom_site_fract_x
 _atom_site_fract_y
 _atom_site_fract_z
 _atom_site_occupancy
  Ce  Ce0  1  0.353545  0.353546  0.707092  1
  Np  Np1  1  0.647240  0.647239  0.294478  1
  Cr  Cr2  1  0.002315  0.002315  0.004630  1
  N  N3  1  0.002255  0.502255  0.004510  1
  N  N4  1  0.164626  0.164626  0.329252  1
  N  N5  1  0.830019  0.830018  0.660036  1
