# generated using pymatgen
data_Ac(InPt)3
_symmetry_space_group_name_H-M   'P 1'
_cell_length_a   4.45457200
_cell_length_b   7.83610600
_cell_length_c   9.07713900
_cell_angle_alpha   90.00000000
_cell_angle_beta   90.00000000
_cell_angle_gamma   90.00000000
_symmetry_Int_Tables_number   1
_chemical_formula_structural   Ac(InPt)3
_chemical_formula_sum   'Ac2 In6 Pt6'
_cell_volume   316.85113777
_cell_formula_units_Z   2
loop_
 _symmetry_equiv_pos_site_id
 _symmetry_equiv_pos_as_xyz
  1  'x, y, z'
loop_
 _atom_site_type_symbol
 _atom_site_label
 _atom_site_symmetry_multiplicity
 _atom_site_fract_x
 _atom_site_fract_y
 _atom_site_fract_z
 _atom_site_occupancy
  Ac  Ac0  1  0.000000  0.500000  0.288388  1
  Ac  Ac1  1  0.500000  0.000000  0.711612  1
  In  In2  1  0.500000  0.500000  0.636834  1
  In  In3  1  0.000000  0.303580  0.886298  1
  In  In4  1  0.000000  0.696420  0.886298  1
  In  In5  1  0.500000  0.803580  0.113702  1
  In  In6  1  0.000000  0.000000  0.363166  1
  In  In7  1  0.500000  0.196420  0.113702  1
  Pt  Pt8  1  0.000000  0.723830  0.587537  1
  Pt  Pt9  1  0.500000  0.500000  0.960383  1
  Pt  Pt10  1  0.000000  0.276170  0.587537  1
  Pt  Pt11  1  0.500000  0.776170  0.412463  1
  Pt  Pt12  1  0.000000  0.000000  0.039617  1
  Pt  Pt13  1  0.500000  0.223830  0.412463  1
