# generated using pymatgen
data_Y10Th6MgCd3Ru4
_symmetry_space_group_name_H-M   'P 1'
_cell_length_a   9.71505569
_cell_length_b   9.80714275
_cell_length_c   9.80714200
_cell_angle_alpha   59.27852894
_cell_angle_beta   60.25405509
_cell_angle_gamma   60.25406086
_symmetry_Int_Tables_number   1
_chemical_formula_structural   Y10Th6MgCd3Ru4
_chemical_formula_sum   'Y10 Th6 Mg1 Cd3 Ru4'
_cell_volume   659.52389441
_cell_formula_units_Z   1
loop_
 _symmetry_equiv_pos_site_id
 _symmetry_equiv_pos_as_xyz
  1  'x, y, z'
loop_
 _atom_site_type_symbol
 _atom_site_label
 _atom_site_symmetry_multiplicity
 _atom_site_fract_x
 _atom_site_fract_y
 _atom_site_fract_z
 _atom_site_occupancy
  Y  Y0  1  0.439465  0.059283  0.440921  1
  Y  Y1  1  0.058153  0.440522  0.059100  1
  Y  Y2  1  0.439465  0.440921  0.059283  1
  Y  Y3  1  0.058153  0.059100  0.440522  1
  Y  Y4  1  0.182140  0.818373  0.818373  1
  Y  Y5  1  0.814470  0.184638  0.184638  1
  Y  Y6  1  0.810721  0.190198  0.813107  1
  Y  Y7  1  0.187728  0.812573  0.188593  1
  Y  Y8  1  0.810721  0.813107  0.190198  1
  Y  Y9  1  0.187728  0.188593  0.812573  1
  Th  Th10  1  0.589618  0.599517  0.599517  1
  Th  Th11  1  0.601935  0.592244  0.206535  1
  Th  Th12  1  0.601935  0.206535  0.592244  1
  Th  Th13  1  0.205735  0.600764  0.600764  1
  Th  Th14  1  0.063720  0.437083  0.437083  1
  Th  Th15  1  0.431590  0.067386  0.067386  1
  Mg  Mg16  1  0.520522  0.823907  0.823907  1
  Cd  Cd17  1  0.835173  0.830791  0.830791  1
  Cd  Cd18  1  0.830131  0.833012  0.503052  1
  Cd  Cd19  1  0.830131  0.503052  0.833012  1
  Ru  Ru20  1  0.378274  0.398873  0.398873  1
  Ru  Ru21  1  0.399072  0.376568  0.822921  1
  Ru  Ru22  1  0.399072  0.822921  0.376568  1
  Ru  Ru23  1  0.824352  0.400044  0.400044  1
