# generated using pymatgen
data_LiTb2Yb2FeC8
_symmetry_space_group_name_H-M   'P 1'
_cell_length_a   6.74036722
_cell_length_b   6.70161950
_cell_length_c   6.70161866
_cell_angle_alpha   134.21991612
_cell_angle_beta   111.43838497
_cell_angle_gamma   86.29299706
_symmetry_Int_Tables_number   1
_chemical_formula_structural   LiTb2Yb2FeC8
_chemical_formula_sum   'Li1 Tb2 Yb2 Fe1 C8'
_cell_volume   193.55331459
_cell_formula_units_Z   1
loop_
 _symmetry_equiv_pos_site_id
 _symmetry_equiv_pos_as_xyz
  1  'x, y, z'
loop_
 _atom_site_type_symbol
 _atom_site_label
 _atom_site_symmetry_multiplicity
 _atom_site_fract_x
 _atom_site_fract_y
 _atom_site_fract_z
 _atom_site_occupancy
  Li  Li0  1  0.000000  0.249283  0.249283  1
  Tb  Tb1  1  0.199034  0.351923  0.838750  1
  Tb  Tb2  1  0.800966  0.639716  0.152889  1
  Yb  Yb3  1  0.517101  0.858211  0.666130  1
  Yb  Yb4  1  0.482899  0.149028  0.341109  1
  Fe  Fe5  1  0.000000  0.748289  0.748289  1
  C  C6  1  0.798475  0.136935  0.672670  1
  C  C7  1  0.201525  0.874195  0.338459  1
  C  C8  1  0.461544  0.621710  0.838710  1
  C  C9  1  0.538456  0.377165  0.160165  1
  C  C10  1  0.908533  0.018888  0.758109  1
  C  C11  1  0.091467  0.849576  0.110354  1
  C  C12  1  0.262110  0.644958  0.742235  1
  C  C13  1  0.737890  0.480125  0.382848  1
