# generated using pymatgen
data_Dy2Th2CdTc
_symmetry_space_group_name_H-M   'P 1'
_cell_length_a   9.77253642
_cell_length_b   9.77253710
_cell_length_c   9.86020551
_cell_angle_alpha   59.56429867
_cell_angle_beta   59.56429471
_cell_angle_gamma   60.33507098
_symmetry_Int_Tables_number   1
_chemical_formula_structural   Dy2Th2CdTc
_chemical_formula_sum   'Dy8 Th8 Cd4 Tc4'
_cell_volume   663.08122201
_cell_formula_units_Z   4
loop_
 _symmetry_equiv_pos_site_id
 _symmetry_equiv_pos_as_xyz
  1  'x, y, z'
loop_
 _atom_site_type_symbol
 _atom_site_label
 _atom_site_symmetry_multiplicity
 _atom_site_fract_x
 _atom_site_fract_y
 _atom_site_fract_z
 _atom_site_occupancy
  Dy  Dy0  1  0.444776  0.444776  0.053997  1
  Dy  Dy1  1  0.054722  0.054722  0.442327  1
  Dy  Dy2  1  0.186545  0.814783  0.815885  1
  Dy  Dy3  1  0.813031  0.185558  0.186349  1
  Dy  Dy4  1  0.814783  0.186545  0.815885  1
  Dy  Dy5  1  0.185558  0.813031  0.186349  1
  Dy  Dy6  1  0.810557  0.810557  0.190997  1
  Dy  Dy7  1  0.190270  0.190270  0.810764  1
  Th  Th8  1  0.595553  0.595553  0.600083  1
  Th  Th9  1  0.596552  0.596552  0.205424  1
  Th  Th10  1  0.602984  0.206718  0.595442  1
  Th  Th11  1  0.206718  0.602984  0.595442  1
  Th  Th12  1  0.062852  0.436846  0.439172  1
  Th  Th13  1  0.436780  0.062540  0.062976  1
  Th  Th14  1  0.436846  0.062852  0.439172  1
  Th  Th15  1  0.062540  0.436780  0.062976  1
  Cd  Cd16  1  0.833284  0.833284  0.829503  1
  Cd  Cd17  1  0.832836  0.832836  0.501999  1
  Cd  Cd18  1  0.828296  0.503762  0.832753  1
  Cd  Cd19  1  0.503762  0.828296  0.832753  1
  Tc  Tc20  1  0.381561  0.381561  0.402270  1
  Tc  Tc21  1  0.380972  0.380972  0.832001  1
  Tc  Tc22  1  0.404038  0.834186  0.382742  1
  Tc  Tc23  1  0.834186  0.404038  0.382742  1
