# generated using pymatgen
data_V3InGa4(SnO5)4
_symmetry_space_group_name_H-M   'P 1'
_cell_length_a   3.20223600
_cell_length_b   10.87617743
_cell_length_c   11.78069084
_cell_angle_alpha   81.25131043
_cell_angle_beta   90.00000000
_cell_angle_gamma   90.00000000
_symmetry_Int_Tables_number   1
_chemical_formula_structural   V3InGa4(SnO5)4
_chemical_formula_sum   'V3 In1 Ga4 Sn4 O20'
_cell_volume   405.52509214
_cell_formula_units_Z   1
loop_
 _symmetry_equiv_pos_site_id
 _symmetry_equiv_pos_as_xyz
  1  'x, y, z'
loop_
 _atom_site_type_symbol
 _atom_site_label
 _atom_site_symmetry_multiplicity
 _atom_site_fract_x
 _atom_site_fract_y
 _atom_site_fract_z
 _atom_site_occupancy
  V  V0  1  0.500000  0.695649  0.081964  1
  V  V1  1  0.000000  0.619117  0.323032  1
  V  V2  1  0.000000  0.382897  0.673324  1
  In  In3  1  0.500000  0.304089  0.921567  1
  Ga  Ga4  1  0.500000  0.908518  0.263568  1
  Ga  Ga5  1  0.500000  0.089393  0.735735  1
  Ga  Ga6  1  0.000000  0.405431  0.154188  1
  Ga  Ga7  1  0.000000  0.603678  0.852027  1
  Sn  Sn8  1  0.000000  0.994545  0.000095  1
  Sn  Sn9  1  0.000000  0.999808  0.499727  1
  Sn  Sn10  1  0.500000  0.682442  0.587533  1
  Sn  Sn11  1  0.500000  0.318065  0.411996  1
  O  O12  1  0.000000  0.679605  0.474833  1
  O  O13  1  0.000000  0.321269  0.523440  1
  O  O14  1  0.500000  0.879823  0.545346  1
  O  O15  1  0.500000  0.119656  0.454151  1
  O  O16  1  0.000000  0.579600  0.152393  1
  O  O17  1  0.000000  0.430581  0.843029  1
  O  O18  1  0.500000  0.997814  0.116351  1
  O  O19  1  0.500000  0.995785  0.882432  1
  O  O20  1  0.500000  0.738475  0.253361  1
  O  O21  1  0.500000  0.260859  0.738047  1
  O  O22  1  0.500000  0.506749  0.358635  1
  O  O23  1  0.500000  0.494098  0.636239  1
  O  O24  1  0.000000  0.804870  0.036274  1
  O  O25  1  0.000000  0.183021  0.969171  1
  O  O26  1  0.000000  0.303317  0.297273  1
  O  O27  1  0.000000  0.697060  0.704207  1
  O  O28  1  0.000000  0.949014  0.333056  1
  O  O29  1  0.000000  0.047608  0.667003  1
  O  O30  1  0.500000  0.374451  0.083383  1
  O  O31  1  0.500000  0.632711  0.926623  1
