# generated using pymatgen
data_KBa(AsPt)2
_symmetry_space_group_name_H-M   'P 1'
_cell_length_a   6.77651304
_cell_length_b   6.80943000
_cell_length_c   6.78595504
_cell_angle_alpha   90.00000000
_cell_angle_beta   89.98784997
_cell_angle_gamma   90.00000000
_symmetry_Int_Tables_number   1
_chemical_formula_structural   KBa(AsPt)2
_chemical_formula_sum   'K2 Ba2 As4 Pt4'
_cell_volume   313.13239956
_cell_formula_units_Z   2
loop_
 _symmetry_equiv_pos_site_id
 _symmetry_equiv_pos_as_xyz
  1  'x, y, z'
loop_
 _atom_site_type_symbol
 _atom_site_label
 _atom_site_symmetry_multiplicity
 _atom_site_fract_x
 _atom_site_fract_y
 _atom_site_fract_z
 _atom_site_occupancy
  K  K0  1  0.616523  0.380632  0.875961  1
  K  K1  1  0.383477  0.880632  0.624039  1
  Ba  Ba2  1  0.125896  0.120059  0.115274  1
  Ba  Ba3  1  0.874104  0.620059  0.384726  1
  As  As4  1  0.162467  0.336426  0.664102  1
  As  As5  1  0.663986  0.163291  0.335683  1
  As  As6  1  0.336014  0.663291  0.164317  1
  As  As7  1  0.837533  0.836426  0.835898  1
  Pt  Pt8  1  0.599044  0.901778  0.098550  1
  Pt  Pt9  1  0.096871  0.597814  0.903932  1
  Pt  Pt10  1  0.400956  0.401778  0.401450  1
  Pt  Pt11  1  0.903129  0.097814  0.596068  1
