# generated using pymatgen
data_CaEu(AlIr)2
_symmetry_space_group_name_H-M   'P 1'
_cell_length_a   4.19897000
_cell_length_b   7.21837400
_cell_length_c   7.90226900
_cell_angle_alpha   90.00000000
_cell_angle_beta   90.00000000
_cell_angle_gamma   90.00000000
_symmetry_Int_Tables_number   1
_chemical_formula_structural   CaEu(AlIr)2
_chemical_formula_sum   'Ca2 Eu2 Al4 Ir4'
_cell_volume   239.51568620
_cell_formula_units_Z   2
loop_
 _symmetry_equiv_pos_site_id
 _symmetry_equiv_pos_as_xyz
  1  'x, y, z'
loop_
 _atom_site_type_symbol
 _atom_site_label
 _atom_site_symmetry_multiplicity
 _atom_site_fract_x
 _atom_site_fract_y
 _atom_site_fract_z
 _atom_site_occupancy
  Ca  Ca0  1  0.250000  0.977885  0.321487  1
  Ca  Ca1  1  0.250000  0.477885  0.178513  1
  Eu  Eu2  1  0.750000  0.021919  0.675198  1
  Eu  Eu3  1  0.750000  0.521919  0.824802  1
  Al  Al4  1  0.250000  0.357605  0.560745  1
  Al  Al5  1  0.250000  0.857605  0.939255  1
  Al  Al6  1  0.750000  0.642359  0.430338  1
  Al  Al7  1  0.750000  0.142359  0.069662  1
  Ir  Ir8  1  0.250000  0.211056  0.883248  1
  Ir  Ir9  1  0.250000  0.711056  0.616752  1
  Ir  Ir10  1  0.750000  0.789176  0.117844  1
  Ir  Ir11  1  0.750000  0.289176  0.382156  1
