# generated using pymatgen
data_Cs4AlIn11Se20
_symmetry_space_group_name_H-M   'P 1'
_cell_length_a   14.32695857
_cell_length_b   8.06528157
_cell_length_c   11.79955927
_cell_angle_alpha   76.92999610
_cell_angle_beta   90.70918844
_cell_angle_gamma   90.24200186
_symmetry_Int_Tables_number   1
_chemical_formula_structural   Cs4AlIn11Se20
_chemical_formula_sum   'Cs4 Al1 In11 Se20'
_cell_volume   1328.02630950
_cell_formula_units_Z   1
loop_
 _symmetry_equiv_pos_site_id
 _symmetry_equiv_pos_as_xyz
  1  'x, y, z'
loop_
 _atom_site_type_symbol
 _atom_site_label
 _atom_site_symmetry_multiplicity
 _atom_site_fract_x
 _atom_site_fract_y
 _atom_site_fract_z
 _atom_site_occupancy
  Cs  Cs0  1  0.616882  0.836144  0.395023  1
  Cs  Cs1  1  0.114623  0.165864  0.105781  1
  Cs  Cs2  1  0.383833  0.164237  0.605975  1
  Cs  Cs3  1  0.884185  0.834356  0.893192  1
  Al  Al4  1  0.838121  0.292078  0.377040  1
  In  In5  1  0.917897  0.803547  0.402955  1
  In  In6  1  0.579370  0.802333  0.902665  1
  In  In7  1  0.420575  0.197972  0.098090  1
  In  In8  1  0.395023  0.559629  0.804539  1
  In  In9  1  0.101708  0.557361  0.304971  1
  In  In10  1  0.335429  0.708075  0.125753  1
  In  In11  1  0.608923  0.437831  0.196297  1
  In  In12  1  0.077918  0.197825  0.594363  1
  In  In13  1  0.664283  0.290089  0.875137  1
  In  In14  1  0.893899  0.439074  0.692024  1
  In  In15  1  0.162756  0.708668  0.624136  1
  Se  Se16  1  0.826109  0.730494  0.593862  1
  Se  Se17  1  0.104063  0.821519  0.405402  1
  Se  Se18  1  0.674956  0.728348  0.092821  1
  Se  Se19  1  0.393033  0.820972  0.908249  1
  Se  Se20  1  0.325005  0.272465  0.907617  1
  Se  Se21  1  0.675825  0.341975  0.405841  1
  Se  Se22  1  0.580227  0.575621  0.765467  1
  Se  Se23  1  0.606555  0.176856  0.092356  1
  Se  Se24  1  0.891199  0.186516  0.579217  1
  Se  Se25  1  0.634743  0.066993  0.750764  1
  Se  Se26  1  0.364492  0.932656  0.249091  1
  Se  Se27  1  0.175085  0.272557  0.408195  1
  Se  Se28  1  0.079752  0.422121  0.733091  1
  Se  Se29  1  0.913839  0.560231  0.275726  1
  Se  Se30  1  0.865262  0.085746  0.262402  1
  Se  Se31  1  0.133638  0.932622  0.746850  1
  Se  Se32  1  0.841412  0.340524  0.905931  1
  Se  Se33  1  0.338510  0.657530  0.591051  1
  Se  Se34  1  0.422737  0.424344  0.235681  1
  Se  Se35  1  0.158137  0.654827  0.092444  1
