# generated using pymatgen
data_NdFe2(CoB2)2
_symmetry_space_group_name_H-M   'P 1'
_cell_length_a   7.07207900
_cell_length_b   7.07207900
_cell_length_c   3.80928400
_cell_angle_alpha   90.00000000
_cell_angle_beta   90.00000000
_cell_angle_gamma   90.00000000
_symmetry_Int_Tables_number   1
_chemical_formula_structural   NdFe2(CoB2)2
_chemical_formula_sum   'Nd2 Fe4 Co4 B8'
_cell_volume   190.51867803
_cell_formula_units_Z   2
loop_
 _symmetry_equiv_pos_site_id
 _symmetry_equiv_pos_as_xyz
  1  'x, y, z'
loop_
 _atom_site_type_symbol
 _atom_site_label
 _atom_site_symmetry_multiplicity
 _atom_site_fract_x
 _atom_site_fract_y
 _atom_site_fract_z
 _atom_site_occupancy
  Nd  Nd0  1  0.000000  0.000000  0.000760  1
  Nd  Nd1  1  0.500000  0.500000  0.500760  1
  Fe  Fe2  1  0.367162  0.113469  0.605314  1
  Fe  Fe3  1  0.632838  0.886531  0.605314  1
  Fe  Fe4  1  0.613469  0.132838  0.105314  1
  Fe  Fe5  1  0.386531  0.867162  0.105314  1
  Co  Co6  1  0.139178  0.385349  0.892037  1
  Co  Co7  1  0.860822  0.614651  0.892037  1
  Co  Co8  1  0.885349  0.360822  0.392037  1
  Co  Co9  1  0.114651  0.639178  0.392037  1
  B  B10  1  0.664479  0.800102  0.106095  1
  B  B11  1  0.335521  0.199898  0.106095  1
  B  B12  1  0.300102  0.835521  0.606095  1
  B  B13  1  0.699898  0.164479  0.606095  1
  B  B14  1  0.836400  0.703569  0.396174  1
  B  B15  1  0.163600  0.296431  0.396174  1
  B  B16  1  0.203569  0.663600  0.896174  1
  B  B17  1  0.796431  0.336400  0.896174  1
