# generated using pymatgen
data_Tb3Pr3Co16(TcP6)2
_symmetry_space_group_name_H-M   'P 1'
_cell_length_a   3.75386300
_cell_length_b   10.61841482
_cell_length_c   12.34252258
_cell_angle_alpha   90.10903492
_cell_angle_beta   90.00000000
_cell_angle_gamma   90.00000000
_symmetry_Int_Tables_number   1
_chemical_formula_structural   Tb3Pr3Co16(TcP6)2
_chemical_formula_sum   'Tb3 Pr3 Co16 Tc2 P12'
_cell_volume   491.97297854
_cell_formula_units_Z   1
loop_
 _symmetry_equiv_pos_site_id
 _symmetry_equiv_pos_as_xyz
  1  'x, y, z'
loop_
 _atom_site_type_symbol
 _atom_site_label
 _atom_site_symmetry_multiplicity
 _atom_site_fract_x
 _atom_site_fract_y
 _atom_site_fract_z
 _atom_site_occupancy
  Tb  Tb0  1  0.500000  0.183800  0.204375  1
  Tb  Tb1  1  0.000000  0.682299  0.795558  1
  Tb  Tb2  1  0.000000  0.317015  0.794606  1
  Pr  Pr3  1  0.000000  0.499636  0.524432  1
  Pr  Pr4  1  0.500000  0.000519  0.476594  1
  Pr  Pr5  1  0.500000  0.818144  0.205890  1
  Co  Co6  1  0.500000  0.499348  0.706390  1
  Co  Co7  1  0.000000  0.003758  0.293845  1
  Co  Co8  1  0.000000  0.498243  0.986280  1
  Co  Co9  1  0.500000  0.002051  0.010723  1
  Co  Co10  1  0.500000  0.331670  0.989718  1
  Co  Co11  1  0.500000  0.666390  0.989394  1
  Co  Co12  1  0.000000  0.169510  0.008351  1
  Co  Co13  1  0.000000  0.832403  0.006687  1
  Co  Co14  1  0.500000  0.296506  0.429366  1
  Co  Co15  1  0.500000  0.703075  0.432485  1
  Co  Co16  1  0.000000  0.204191  0.571002  1
  Co  Co17  1  0.000000  0.796359  0.572846  1
  Co  Co18  1  0.500000  0.879856  0.712195  1
  Co  Co19  1  0.500000  0.119869  0.710725  1
  Co  Co20  1  0.000000  0.617505  0.290440  1
  Co  Co21  1  0.000000  0.379383  0.288688  1
  Tc  Tc22  1  0.500000  0.498912  0.153761  1
  Tc  Tc23  1  0.000000  0.000991  0.845520  1
  P  P24  1  0.500000  0.498949  0.882430  1
  P  P25  1  0.000000  0.003053  0.114466  1
  P  P26  1  0.500000  0.499814  0.343559  1
  P  P27  1  0.000000  0.999886  0.656704  1
  P  P28  1  0.500000  0.307293  0.617615  1
  P  P29  1  0.500000  0.691703  0.619258  1
  P  P30  1  0.000000  0.193335  0.382692  1
  P  P31  1  0.000000  0.806177  0.387228  1
  P  P32  1  0.500000  0.846144  0.894583  1
  P  P33  1  0.500000  0.154266  0.892842  1
  P  P34  1  0.000000  0.651250  0.103194  1
  P  P35  1  0.000000  0.346699  0.105559  1
