# generated using pymatgen
data_Nd2HoBe2(PPd5)4
_symmetry_space_group_name_H-M   'P 1'
_cell_length_a   8.70667441
_cell_length_b   8.62696032
_cell_length_c   8.62695941
_cell_angle_alpha   60.61226700
_cell_angle_beta   59.69386840
_cell_angle_gamma   59.69387319
_symmetry_Int_Tables_number   1
_chemical_formula_structural   Nd2HoBe2(PPd5)4
_chemical_formula_sum   'Nd2 Ho1 Be2 P4 Pd20'
_cell_volume   458.11871206
_cell_formula_units_Z   1
loop_
 _symmetry_equiv_pos_site_id
 _symmetry_equiv_pos_as_xyz
  1  'x, y, z'
loop_
 _atom_site_type_symbol
 _atom_site_label
 _atom_site_symmetry_multiplicity
 _atom_site_fract_x
 _atom_site_fract_y
 _atom_site_fract_z
 _atom_site_occupancy
  Nd  Nd0  1  0.250000  0.250000  0.250000  1
  Nd  Nd1  1  0.750000  0.750000  0.750000  1
  Ho  Ho2  1  0.000000  0.000000  0.000000  1
  Be  Be3  1  0.733422  0.266578  0.266578  1
  Be  Be4  1  0.266578  0.733422  0.733422  1
  P  P5  1  0.265953  0.734047  0.265953  1
  P  P6  1  0.734047  0.265953  0.734047  1
  P  P7  1  0.265953  0.265953  0.734047  1
  P  P8  1  0.734047  0.734047  0.265953  1
  Pd  Pd9  1  0.388988  0.383686  0.383686  1
  Pd  Pd10  1  0.611012  0.616314  0.616314  1
  Pd  Pd11  1  0.383686  0.388988  0.843643  1
  Pd  Pd12  1  0.383686  0.843643  0.388988  1
  Pd  Pd13  1  0.616314  0.611012  0.156357  1
  Pd  Pd14  1  0.616314  0.156357  0.611012  1
  Pd  Pd15  1  0.843643  0.383686  0.383686  1
  Pd  Pd16  1  0.156357  0.616314  0.616314  1
  Pd  Pd17  1  0.343816  0.000000  0.000000  1
  Pd  Pd18  1  0.656184  0.000000  0.000000  1
  Pd  Pd19  1  0.000000  0.343816  0.656184  1
  Pd  Pd20  1  0.000000  0.656184  0.343816  1
  Pd  Pd21  1  0.997103  0.342939  0.002897  1
  Pd  Pd22  1  0.657061  0.002897  0.342939  1
  Pd  Pd23  1  0.002897  0.657061  0.997103  1
  Pd  Pd24  1  0.342939  0.997103  0.657061  1
  Pd  Pd25  1  0.997103  0.002897  0.342939  1
  Pd  Pd26  1  0.002897  0.997103  0.657061  1
  Pd  Pd27  1  0.657061  0.342939  0.002897  1
  Pd  Pd28  1  0.342939  0.657061  0.997103  1
