# generated using pymatgen
data_CsBHCl3
_symmetry_space_group_name_H-M   'P 1'
_cell_length_a   5.98445724
_cell_length_b   5.98445708
_cell_length_c   5.98445734
_cell_angle_alpha   70.04440680
_cell_angle_beta   70.04440598
_cell_angle_gamma   70.04440482
_symmetry_Int_Tables_number   1
_chemical_formula_structural   CsBHCl3
_chemical_formula_sum   'Cs1 B1 H1 Cl3'
_cell_volume   183.12840604
_cell_formula_units_Z   1
loop_
 _symmetry_equiv_pos_site_id
 _symmetry_equiv_pos_as_xyz
  1  'x, y, z'
loop_
 _atom_site_type_symbol
 _atom_site_label
 _atom_site_symmetry_multiplicity
 _atom_site_fract_x
 _atom_site_fract_y
 _atom_site_fract_z
 _atom_site_occupancy
  Cs  Cs0  1  0.987362  0.987362  0.987362  1
  B  B1  1  0.491278  0.491278  0.491278  1
  H  H2  1  0.401963  0.401963  0.401963  1
  Cl  Cl3  1  0.391248  0.391248  0.836900  1
  Cl  Cl4  1  0.391248  0.836900  0.391248  1
  Cl  Cl5  1  0.836900  0.391248  0.391248  1
