# generated using pymatgen
data_Ca2BIN2
_symmetry_space_group_name_H-M   'P 1'
_cell_length_a   3.99744000
_cell_length_b   9.96963104
_cell_length_c   12.78608139
_cell_angle_alpha   88.78013781
_cell_angle_beta   90.00000000
_cell_angle_gamma   90.00000000
_symmetry_Int_Tables_number   1
_chemical_formula_structural   Ca2BIN2
_chemical_formula_sum   'Ca8 B4 I4 N8'
_cell_volume   509.44823990
_cell_formula_units_Z   4
loop_
 _symmetry_equiv_pos_site_id
 _symmetry_equiv_pos_as_xyz
  1  'x, y, z'
loop_
 _atom_site_type_symbol
 _atom_site_label
 _atom_site_symmetry_multiplicity
 _atom_site_fract_x
 _atom_site_fract_y
 _atom_site_fract_z
 _atom_site_occupancy
  Ca  Ca0  1  0.250000  0.799427  0.385989  1
  Ca  Ca1  1  0.750000  0.653120  0.630782  1
  Ca  Ca2  1  0.750000  0.599073  0.181490  1
  Ca  Ca3  1  0.250000  0.927759  0.907926  1
  Ca  Ca4  1  0.250000  0.400927  0.818510  1
  Ca  Ca5  1  0.750000  0.200573  0.614011  1
  Ca  Ca6  1  0.750000  0.072241  0.092074  1
  Ca  Ca7  1  0.250000  0.346880  0.369218  1
  B  B8  1  0.250000  0.835800  0.149778  1
  B  B9  1  0.750000  0.579873  0.399455  1
  B  B10  1  0.750000  0.164200  0.850222  1
  B  B11  1  0.250000  0.420127  0.600545  1
  I  I12  1  0.250000  0.344918  0.093007  1
  I  I13  1  0.250000  0.924598  0.646217  1
  I  I14  1  0.750000  0.655082  0.906993  1
  I  I15  1  0.750000  0.075402  0.353783  1
  N  N16  1  0.750000  0.469705  0.340618  1
  N  N17  1  0.250000  0.302689  0.550339  1
  N  N18  1  0.250000  0.530295  0.659382  1
  N  N19  1  0.750000  0.276362  0.789205  1
  N  N20  1  0.750000  0.697311  0.449661  1
  N  N21  1  0.250000  0.723638  0.210795  1
  N  N22  1  0.250000  0.948197  0.090432  1
  N  N23  1  0.750000  0.051803  0.909568  1
