# generated using pymatgen
data_Sm5Sn3(BRh6)2
_symmetry_space_group_name_H-M   'P 1'
_cell_length_a   5.87437900
_cell_length_b   5.87437700
_cell_length_c   13.70300000
_cell_angle_alpha   90.00000000
_cell_angle_beta   90.00000000
_cell_angle_gamma   119.99999438
_symmetry_Int_Tables_number   1
_chemical_formula_structural   Sm5Sn3(BRh6)2
_chemical_formula_sum   'Sm5 Sn3 B2 Rh12'
_cell_volume   409.51526151
_cell_formula_units_Z   1
loop_
 _symmetry_equiv_pos_site_id
 _symmetry_equiv_pos_as_xyz
  1  'x, y, z'
loop_
 _atom_site_type_symbol
 _atom_site_label
 _atom_site_symmetry_multiplicity
 _atom_site_fract_x
 _atom_site_fract_y
 _atom_site_fract_z
 _atom_site_occupancy
  Sm  Sm0  1  0.000000  0.000000  0.750000  1
  Sm  Sm1  1  0.333333  0.666667  0.404029  1
  Sm  Sm2  1  0.666667  0.333333  0.911074  1
  Sm  Sm3  1  0.666667  0.333333  0.588926  1
  Sm  Sm4  1  0.333333  0.666667  0.095971  1
  Sn  Sn5  1  0.000000  0.000000  0.250000  1
  Sn  Sn6  1  0.333333  0.666667  0.750000  1
  Sn  Sn7  1  0.666667  0.333333  0.250000  1
  B  B8  1  0.000000  0.000000  0.498387  1
  B  B9  1  0.000000  0.000000  0.001613  1
  Rh  Rh10  1  0.338576  0.169288  0.406492  1
  Rh  Rh11  1  0.830712  0.169288  0.406492  1
  Rh  Rh12  1  0.830712  0.661424  0.406492  1
  Rh  Rh13  1  0.172769  0.345536  0.916578  1
  Rh  Rh14  1  0.654464  0.827231  0.583422  1
  Rh  Rh15  1  0.654464  0.827231  0.916578  1
  Rh  Rh16  1  0.338576  0.169288  0.093508  1
  Rh  Rh17  1  0.172769  0.345536  0.583422  1
  Rh  Rh18  1  0.172769  0.827231  0.583422  1
  Rh  Rh19  1  0.830712  0.169288  0.093508  1
  Rh  Rh20  1  0.830712  0.661424  0.093508  1
  Rh  Rh21  1  0.172769  0.827231  0.916578  1
