# generated using pymatgen
data_TaTl4InCl12
_symmetry_space_group_name_H-M   'P 1'
_cell_length_a   7.16097700
_cell_length_b   7.16097700
_cell_length_c   10.73899200
_cell_angle_alpha   90.00000000
_cell_angle_beta   90.00000000
_cell_angle_gamma   90.00000000
_symmetry_Int_Tables_number   1
_chemical_formula_structural   TaTl4InCl12
_chemical_formula_sum   'Ta1 Tl4 In1 Cl12'
_cell_volume   550.69112390
_cell_formula_units_Z   1
loop_
 _symmetry_equiv_pos_site_id
 _symmetry_equiv_pos_as_xyz
  1  'x, y, z'
loop_
 _atom_site_type_symbol
 _atom_site_label
 _atom_site_symmetry_multiplicity
 _atom_site_fract_x
 _atom_site_fract_y
 _atom_site_fract_z
 _atom_site_occupancy
  Ta  Ta0  1  0.500000  0.500000  0.500000  1
  Tl  Tl1  1  0.500000  0.000000  0.798287  1
  Tl  Tl2  1  0.000000  0.500000  0.201713  1
  Tl  Tl3  1  0.500000  0.000000  0.201713  1
  Tl  Tl4  1  0.000000  0.500000  0.798287  1
  In  In5  1  0.000000  0.000000  0.000000  1
  Cl  Cl6  1  0.000000  0.000000  0.764869  1
  Cl  Cl7  1  0.500000  0.500000  0.276424  1
  Cl  Cl8  1  0.732876  0.732876  0.500000  1
  Cl  Cl9  1  0.252167  0.252167  0.000000  1
  Cl  Cl10  1  0.732876  0.267124  0.500000  1
  Cl  Cl11  1  0.252167  0.747833  0.000000  1
  Cl  Cl12  1  0.000000  0.000000  0.235131  1
  Cl  Cl13  1  0.500000  0.500000  0.723576  1
  Cl  Cl14  1  0.267124  0.267124  0.500000  1
  Cl  Cl15  1  0.747833  0.747833  0.000000  1
  Cl  Cl16  1  0.267124  0.732876  0.500000  1
  Cl  Cl17  1  0.747833  0.252167  0.000000  1
