# generated using pymatgen
data_Tb3Dy2Tm3(P3Ir4)4
_symmetry_space_group_name_H-M   'P 1'
_cell_length_a   12.96111200
_cell_length_b   12.96063238
_cell_length_c   4.00007700
_cell_angle_alpha   90.00000000
_cell_angle_beta   90.00000000
_cell_angle_gamma   119.99877011
_symmetry_Int_Tables_number   1
_chemical_formula_structural   Tb3Dy2Tm3(P3Ir4)4
_chemical_formula_sum   'Tb3 Dy2 Tm3 P12 Ir16'
_cell_volume   581.93277959
_cell_formula_units_Z   1
loop_
 _symmetry_equiv_pos_site_id
 _symmetry_equiv_pos_as_xyz
  1  'x, y, z'
loop_
 _atom_site_type_symbol
 _atom_site_label
 _atom_site_symmetry_multiplicity
 _atom_site_fract_x
 _atom_site_fract_y
 _atom_site_fract_z
 _atom_site_occupancy
  Tb  Tb0  1  0.333331  0.666662  0.500000  1
  Tb  Tb1  1  0.666669  0.333330  0.500000  1
  Tb  Tb2  1  0.000000  0.814304  0.000000  1
  Dy  Dy3  1  0.185762  0.185763  0.000000  1
  Dy  Dy4  1  0.814238  0.000001  0.000000  1
  Tm  Tm5  1  0.000000  0.445935  0.500000  1
  Tm  Tm6  1  0.553969  0.553971  0.500000  1
  Tm  Tm7  1  0.446031  0.000002  0.500000  1
  P  P8  1  0.000000  0.651727  0.500000  1
  P  P9  1  0.348087  0.348089  0.500000  1
  P  P10  1  0.651913  0.000003  0.500000  1
  P  P11  1  0.517021  0.688404  0.000000  1
  P  P12  1  0.311578  0.828638  0.000000  1
  P  P13  1  0.171404  0.482955  0.000000  1
  P  P14  1  0.482979  0.171383  0.000000  1
  P  P15  1  0.688422  0.517060  0.000000  1
  P  P16  1  0.828596  0.311551  0.000000  1
  P  P17  1  0.000000  0.176597  0.500000  1
  P  P18  1  0.823348  0.823447  0.500000  1
  P  P19  1  0.176652  0.000099  0.500000  1
  Ir  Ir20  1  0.509605  0.866322  0.000000  1
  Ir  Ir21  1  0.133661  0.643275  0.000000  1
  Ir  Ir22  1  0.356699  0.490375  0.000000  1
  Ir  Ir23  1  0.490395  0.356717  0.000000  1
  Ir  Ir24  1  0.866339  0.509614  0.000000  1
  Ir  Ir25  1  0.643301  0.133676  0.000000  1
  Ir  Ir26  1  0.000000  0.275068  0.000000  1
  Ir  Ir27  1  0.724707  0.724861  0.000000  1
  Ir  Ir28  1  0.275293  0.000154  0.000000  1
  Ir  Ir29  1  0.630124  0.809007  0.500000  1
  Ir  Ir30  1  0.191341  0.821174  0.500000  1
  Ir  Ir31  1  0.178836  0.369867  0.500000  1
  Ir  Ir32  1  0.369876  0.178883  0.500000  1
  Ir  Ir33  1  0.808659  0.629833  0.500000  1
  Ir  Ir34  1  0.821164  0.191030  0.500000  1
  Ir  Ir35  1  0.000000  0.000224  0.500000  1
