# generated using pymatgen
data_CeEr(PIr)4
_symmetry_space_group_name_H-M   'P 1'
_cell_length_a   4.13795900
_cell_length_b   4.13795900
_cell_length_c   9.58401600
_cell_angle_alpha   90.00000000
_cell_angle_beta   90.00000000
_cell_angle_gamma   90.00000000
_symmetry_Int_Tables_number   1
_chemical_formula_structural   CeEr(PIr)4
_chemical_formula_sum   'Ce1 Er1 P4 Ir4'
_cell_volume   164.10427567
_cell_formula_units_Z   1
loop_
 _symmetry_equiv_pos_site_id
 _symmetry_equiv_pos_as_xyz
  1  'x, y, z'
loop_
 _atom_site_type_symbol
 _atom_site_label
 _atom_site_symmetry_multiplicity
 _atom_site_fract_x
 _atom_site_fract_y
 _atom_site_fract_z
 _atom_site_occupancy
  Ce  Ce0  1  0.500000  0.000000  0.756668  1
  Er  Er1  1  0.000000  0.500000  0.244208  1
  P  P2  1  0.000000  0.000000  0.002186  1
  P  P3  1  0.500000  0.500000  0.002186  1
  P  P4  1  0.000000  0.500000  0.638901  1
  P  P5  1  0.500000  0.000000  0.357535  1
  Ir  Ir6  1  0.000000  0.000000  0.498644  1
  Ir  Ir7  1  0.500000  0.500000  0.498644  1
  Ir  Ir8  1  0.000000  0.500000  0.885824  1
  Ir  Ir9  1  0.500000  0.000000  0.115206  1
