# generated using pymatgen
data_Tb4P7Rh8
_symmetry_space_group_name_H-M   'P 1'
_cell_length_a   3.94914200
_cell_length_b   12.66529160
_cell_length_c   13.08266816
_cell_angle_alpha   99.16752806
_cell_angle_beta   90.00000000
_cell_angle_gamma   90.00000000
_symmetry_Int_Tables_number   1
_chemical_formula_structural   Tb4P7Rh8
_chemical_formula_sum   'Tb8 P14 Rh16'
_cell_volume   645.99799412
_cell_formula_units_Z   2
loop_
 _symmetry_equiv_pos_site_id
 _symmetry_equiv_pos_as_xyz
  1  'x, y, z'
loop_
 _atom_site_type_symbol
 _atom_site_label
 _atom_site_symmetry_multiplicity
 _atom_site_fract_x
 _atom_site_fract_y
 _atom_site_fract_z
 _atom_site_occupancy
  Tb  Tb0  1  0.750000  0.209519  0.562435  1
  Tb  Tb1  1  0.250000  0.790481  0.437565  1
  Tb  Tb2  1  0.750000  0.520235  0.707194  1
  Tb  Tb3  1  0.250000  0.479765  0.292806  1
  Tb  Tb4  1  0.750000  0.278143  0.898978  1
  Tb  Tb5  1  0.250000  0.721857  0.101022  1
  Tb  Tb6  1  0.750000  0.103141  0.210634  1
  Tb  Tb7  1  0.250000  0.896859  0.789366  1
  P  P8  1  0.750000  0.741281  0.921784  1
  P  P9  1  0.250000  0.258719  0.078216  1
  P  P10  1  0.750000  0.907782  0.587786  1
  P  P11  1  0.250000  0.092218  0.412214  1
  P  P12  1  0.750000  0.527733  0.129219  1
  P  P13  1  0.250000  0.472267  0.870781  1
  P  P14  1  0.750000  0.843221  0.282002  1
  P  P15  1  0.250000  0.156779  0.717998  1
  P  P16  1  0.750000  0.607967  0.434110  1
  P  P17  1  0.250000  0.392033  0.565890  1
  P  P18  1  0.750000  0.313467  0.310778  1
  P  P19  1  0.250000  0.686533  0.689222  1
  P  P20  1  0.750000  0.049879  0.898690  1
  P  P21  1  0.250000  0.950121  0.101310  1
  Rh  Rh22  1  0.750000  0.341974  0.140772  1
  Rh  Rh23  1  0.250000  0.658026  0.859228  1
  Rh  Rh24  1  0.750000  0.727874  0.603924  1
  Rh  Rh25  1  0.250000  0.272126  0.396076  1
  Rh  Rh26  1  0.750000  0.915699  0.002501  1
  Rh  Rh27  1  0.250000  0.084301  0.997499  1
  Rh  Rh28  1  0.750000  0.423627  0.474226  1
  Rh  Rh29  1  0.250000  0.576373  0.525774  1
  Rh  Rh30  1  0.750000  0.059351  0.725386  1
  Rh  Rh31  1  0.250000  0.940649  0.274614  1
  Rh  Rh32  1  0.750000  0.554189  0.954719  1
  Rh  Rh33  1  0.250000  0.445811  0.045281  1
  Rh  Rh34  1  0.750000  0.663139  0.269831  1
  Rh  Rh35  1  0.250000  0.336861  0.730169  1
  Rh  Rh36  1  0.750000  0.989165  0.424720  1
  Rh  Rh37  1  0.250000  0.010835  0.575280  1
