# generated using pymatgen
data_Cs3SnS3
_symmetry_space_group_name_H-M   'P 1'
_cell_length_a   8.41739657
_cell_length_b   8.41739618
_cell_length_c   9.17033572
_cell_angle_alpha   75.69615161
_cell_angle_beta   75.69615234
_cell_angle_gamma   109.96011266
_symmetry_Int_Tables_number   1
_chemical_formula_structural   Cs3SnS3
_chemical_formula_sum   'Cs6 Sn2 S6'
_cell_volume   551.21451871
_cell_formula_units_Z   2
loop_
 _symmetry_equiv_pos_site_id
 _symmetry_equiv_pos_as_xyz
  1  'x, y, z'
loop_
 _atom_site_type_symbol
 _atom_site_label
 _atom_site_symmetry_multiplicity
 _atom_site_fract_x
 _atom_site_fract_y
 _atom_site_fract_z
 _atom_site_occupancy
  Cs  Cs0  1  0.781424  0.781424  0.685783  1
  Cs  Cs1  1  0.218576  0.218576  0.314217  1
  Cs  Cs2  1  0.500000  0.000000  0.000000  1
  Cs  Cs3  1  0.000000  0.500000  0.000000  1
  Cs  Cs4  1  0.329833  0.670167  0.500000  1
  Cs  Cs5  1  0.670167  0.329833  0.500000  1
  Sn  Sn6  1  0.122302  0.122302  0.838860  1
  Sn  Sn7  1  0.877698  0.877698  0.161140  1
  S  S8  1  0.047159  0.759029  0.301244  1
  S  S9  1  0.240971  0.952841  0.698756  1
  S  S10  1  0.368266  0.368266  0.851656  1
  S  S11  1  0.631734  0.631734  0.148344  1
  S  S12  1  0.952841  0.240971  0.698756  1
  S  S13  1  0.759029  0.047159  0.301244  1
