# generated using pymatgen
data_Y5Er7Tc3Rh
_symmetry_space_group_name_H-M   'P 1'
_cell_length_a   6.26651395
_cell_length_b   7.41583740
_cell_length_c   9.11275878
_cell_angle_alpha   90.00400228
_cell_angle_beta   89.91030362
_cell_angle_gamma   89.87891941
_symmetry_Int_Tables_number   1
_chemical_formula_structural   Y5Er7Tc3Rh
_chemical_formula_sum   'Y5 Er7 Tc3 Rh1'
_cell_volume   423.48163495
_cell_formula_units_Z   1
loop_
 _symmetry_equiv_pos_site_id
 _symmetry_equiv_pos_as_xyz
  1  'x, y, z'
loop_
 _atom_site_type_symbol
 _atom_site_label
 _atom_site_symmetry_multiplicity
 _atom_site_fract_x
 _atom_site_fract_y
 _atom_site_fract_z
 _atom_site_occupancy
  Y  Y0  1  0.661383  0.174315  0.060680  1
  Y  Y1  1  0.877444  0.961289  0.749412  1
  Y  Y2  1  0.370329  0.542374  0.250323  1
  Y  Y3  1  0.624202  0.459725  0.749371  1
  Y  Y4  1  0.127191  0.039837  0.250546  1
  Er  Er5  1  0.167210  0.323856  0.934174  1
  Er  Er6  1  0.837300  0.678182  0.438718  1
  Er  Er7  1  0.338246  0.823793  0.562903  1
  Er  Er8  1  0.337579  0.823344  0.936773  1
  Er  Er9  1  0.837693  0.677957  0.061183  1
  Er  Er10  1  0.166778  0.323666  0.565301  1
  Er  Er11  1  0.661739  0.173689  0.439369  1
  Tc  Tc12  1  0.041766  0.612839  0.750122  1
  Tc  Tc13  1  0.542510  0.883137  0.250982  1
  Tc  Tc14  1  0.455254  0.115019  0.748717  1
  Rh  Rh15  1  0.953378  0.386978  0.251427  1
