# generated using pymatgen
data_Tb6Co15P12RhW2
_symmetry_space_group_name_H-M   'P 1'
_cell_length_a   3.72849900
_cell_length_b   10.63652500
_cell_length_c   12.34097900
_cell_angle_alpha   90.00000000
_cell_angle_beta   90.00000000
_cell_angle_gamma   90.00000000
_symmetry_Int_Tables_number   1
_chemical_formula_structural   Tb6Co15P12RhW2
_chemical_formula_sum   'Tb6 Co15 P12 Rh1 W2'
_cell_volume   489.42191212
_cell_formula_units_Z   1
loop_
 _symmetry_equiv_pos_site_id
 _symmetry_equiv_pos_as_xyz
  1  'x, y, z'
loop_
 _atom_site_type_symbol
 _atom_site_label
 _atom_site_symmetry_multiplicity
 _atom_site_fract_x
 _atom_site_fract_y
 _atom_site_fract_z
 _atom_site_occupancy
  Tb  Tb0  1  0.000000  0.500000  0.519929  1
  Tb  Tb1  1  0.500000  0.000000  0.475838  1
  Tb  Tb2  1  0.500000  0.819841  0.204580  1
  Tb  Tb3  1  0.500000  0.180159  0.204580  1
  Tb  Tb4  1  0.000000  0.684119  0.796561  1
  Tb  Tb5  1  0.000000  0.315881  0.796561  1
  Co  Co6  1  0.000000  0.000000  0.297340  1
  Co  Co7  1  0.000000  0.500000  0.989364  1
  Co  Co8  1  0.500000  0.000000  0.013141  1
  Co  Co9  1  0.500000  0.331494  0.992564  1
  Co  Co10  1  0.500000  0.668506  0.992564  1
  Co  Co11  1  0.000000  0.166748  0.010184  1
  Co  Co12  1  0.000000  0.833252  0.010184  1
  Co  Co13  1  0.500000  0.293943  0.429350  1
  Co  Co14  1  0.500000  0.706057  0.429350  1
  Co  Co15  1  0.000000  0.201267  0.567196  1
  Co  Co16  1  0.000000  0.798733  0.567196  1
  Co  Co17  1  0.500000  0.880316  0.708655  1
  Co  Co18  1  0.500000  0.119684  0.708655  1
  Co  Co19  1  0.000000  0.621607  0.291714  1
  Co  Co20  1  0.000000  0.378393  0.291714  1
  P  P21  1  0.500000  0.500000  0.888831  1
  P  P22  1  0.000000  0.000000  0.118617  1
  P  P23  1  0.500000  0.500000  0.348166  1
  P  P24  1  0.000000  0.000000  0.651205  1
  P  P25  1  0.500000  0.301866  0.612364  1
  P  P26  1  0.500000  0.698134  0.612364  1
  P  P27  1  0.000000  0.188007  0.383061  1
  P  P28  1  0.000000  0.811993  0.383061  1
  P  P29  1  0.500000  0.845193  0.894450  1
  P  P30  1  0.500000  0.154807  0.894450  1
  P  P31  1  0.000000  0.656091  0.107511  1
  P  P32  1  0.000000  0.343909  0.107511  1
  Rh  Rh33  1  0.500000  0.500000  0.700447  1
  W  W34  1  0.500000  0.500000  0.156253  1
  W  W35  1  0.000000  0.000000  0.844490  1
