# generated using pymatgen
data_Sm2Er5Lu(Si3Rh)4
_symmetry_space_group_name_H-M   'P 1'
_cell_length_a   8.15988914
_cell_length_b   8.15988991
_cell_length_c   7.89642100
_cell_angle_alpha   90.00000000
_cell_angle_beta   90.00000000
_cell_angle_gamma   120.08302524
_symmetry_Int_Tables_number   1
_chemical_formula_structural   Sm2Er5Lu(Si3Rh)4
_chemical_formula_sum   'Sm2 Er5 Lu1 Si12 Rh4'
_cell_volume   454.95195749
_cell_formula_units_Z   1
loop_
 _symmetry_equiv_pos_site_id
 _symmetry_equiv_pos_as_xyz
  1  'x, y, z'
loop_
 _atom_site_type_symbol
 _atom_site_label
 _atom_site_symmetry_multiplicity
 _atom_site_fract_x
 _atom_site_fract_y
 _atom_site_fract_z
 _atom_site_occupancy
  Sm  Sm0  1  0.999875  0.000125  0.250000  1
  Sm  Sm1  1  0.000056  0.999944  0.750000  1
  Er  Er2  1  0.491686  0.983069  0.250000  1
  Er  Er3  1  0.016931  0.508314  0.250000  1
  Er  Er4  1  0.508145  0.491855  0.750000  1
  Er  Er5  1  0.983712  0.491900  0.750000  1
  Er  Er6  1  0.508100  0.016288  0.750000  1
  Lu  Lu7  1  0.492197  0.507803  0.250000  1
  Si  Si8  1  0.831595  0.168405  0.501660  1
  Si  Si9  1  0.831986  0.663878  0.501495  1
  Si  Si10  1  0.336122  0.168014  0.501495  1
  Si  Si11  1  0.831595  0.168405  0.998340  1
  Si  Si12  1  0.831986  0.663878  0.998505  1
  Si  Si13  1  0.336122  0.168014  0.998505  1
  Si  Si14  1  0.168108  0.831892  0.001919  1
  Si  Si15  1  0.664001  0.831927  0.003015  1
  Si  Si16  1  0.168073  0.335999  0.003015  1
  Si  Si17  1  0.168108  0.831892  0.498081  1
  Si  Si18  1  0.664001  0.831927  0.496985  1
  Si  Si19  1  0.168073  0.335999  0.496985  1
  Rh  Rh20  1  0.666184  0.333816  0.465797  1
  Rh  Rh21  1  0.666184  0.333816  0.034203  1
  Rh  Rh22  1  0.333580  0.666420  0.969189  1
  Rh  Rh23  1  0.333580  0.666420  0.530811  1
