# generated using pymatgen
data_Ba3Tm2UO9
_symmetry_space_group_name_H-M   'P 1'
_cell_length_a   6.16144375
_cell_length_b   8.75246672
_cell_length_c   10.69478717
_cell_angle_alpha   65.84308679
_cell_angle_beta   73.25777469
_cell_angle_gamma   89.99977059
_symmetry_Int_Tables_number   1
_chemical_formula_structural   Ba3Tm2UO9
_chemical_formula_sum   'Ba6 Tm4 U2 O18'
_cell_volume   499.32534946
_cell_formula_units_Z   2
loop_
 _symmetry_equiv_pos_site_id
 _symmetry_equiv_pos_as_xyz
  1  'x, y, z'
loop_
 _atom_site_type_symbol
 _atom_site_label
 _atom_site_symmetry_multiplicity
 _atom_site_fract_x
 _atom_site_fract_y
 _atom_site_fract_z
 _atom_site_occupancy
  Ba  Ba0  1  0.500002  0.272999  0.000001  1
  Ba  Ba1  1  0.843641  0.580071  0.312717  1
  Ba  Ba2  1  0.156370  0.892785  0.687279  1
  Ba  Ba3  1  0.499996  0.727002  0.999999  1
  Ba  Ba4  1  0.843632  0.107214  0.312720  1
  Ba  Ba5  1  0.156359  0.419929  0.687282  1
  Tm  Tm6  1  0.999998  0.999999  0.000002  1
  Tm  Tm7  1  0.332421  0.332409  0.335168  1
  Tm  Tm8  1  0.667582  0.667595  0.664824  1
  Tm  Tm9  1  0.999999  0.500001  0.999999  1
  U  U10  1  0.333555  0.833553  0.332881  1
  U  U11  1  0.666435  0.166433  0.667145  1
  O  O12  1  0.999992  0.247709  0.999996  1
  O  O13  1  0.332627  0.590881  0.334752  1
  O  O14  1  0.667369  0.925654  0.665238  1
  O  O15  1  0.163970  0.413368  0.173246  1
  O  O16  1  0.492442  0.754076  0.491820  1
  O  O17  1  0.830238  0.087067  0.825877  1
  O  O18  1  0.337164  0.586635  0.826740  1
  O  O19  1  0.656117  0.912950  0.174105  1
  O  O20  1  0.984227  0.245924  0.508182  1
  O  O21  1  0.000010  0.752291  0.000002  1
  O  O22  1  0.332631  0.074361  0.334761  1
  O  O23  1  0.667374  0.409106  0.665247  1
  O  O24  1  0.836037  0.586635  0.826752  1
  O  O25  1  0.169758  0.912937  0.174114  1
  O  O26  1  0.507562  0.245921  0.508184  1
  O  O27  1  0.662831  0.413363  0.173259  1
  O  O28  1  0.015763  0.754076  0.491821  1
  O  O29  1  0.343897  0.087055  0.825886  1
