# generated using pymatgen
data_TbDy(GaBr)2
_symmetry_space_group_name_H-M   'P 1'
_cell_length_a   4.13409300
_cell_length_b   4.13409363
_cell_length_c   11.64701300
_cell_angle_alpha   90.00000000
_cell_angle_beta   90.00000000
_cell_angle_gamma   120.00000295
_symmetry_Int_Tables_number   1
_chemical_formula_structural   TbDy(GaBr)2
_chemical_formula_sum   'Tb1 Dy1 Ga2 Br2'
_cell_volume   172.38748345
_cell_formula_units_Z   1
loop_
 _symmetry_equiv_pos_site_id
 _symmetry_equiv_pos_as_xyz
  1  'x, y, z'
loop_
 _atom_site_type_symbol
 _atom_site_label
 _atom_site_symmetry_multiplicity
 _atom_site_fract_x
 _atom_site_fract_y
 _atom_site_fract_z
 _atom_site_occupancy
  Tb  Tb0  1  0.000000  0.000000  0.824193  1
  Dy  Dy1  1  0.000000  0.000000  0.175826  1
  Ga  Ga2  1  0.333333  0.666667  0.030465  1
  Ga  Ga3  1  0.666667  0.333333  0.969554  1
  Br  Br4  1  0.333333  0.666667  0.672002  1
  Br  Br5  1  0.666667  0.333333  0.327959  1
