# generated using pymatgen
data_Y3Sn3GeIrRh
_symmetry_space_group_name_H-M   'P 1'
_cell_length_a   7.42283100
_cell_length_b   7.42283193
_cell_length_c   4.17169700
_cell_angle_alpha   90.00000000
_cell_angle_beta   90.00000000
_cell_angle_gamma   120.00000031
_symmetry_Int_Tables_number   1
_chemical_formula_structural   Y3Sn3GeIrRh
_chemical_formula_sum   'Y3 Sn3 Ge1 Ir1 Rh1'
_cell_volume   199.05935272
_cell_formula_units_Z   1
loop_
 _symmetry_equiv_pos_site_id
 _symmetry_equiv_pos_as_xyz
  1  'x, y, z'
loop_
 _atom_site_type_symbol
 _atom_site_label
 _atom_site_symmetry_multiplicity
 _atom_site_fract_x
 _atom_site_fract_y
 _atom_site_fract_z
 _atom_site_occupancy
  Y  Y0  1  0.414279  0.009518  0.500000  1
  Y  Y1  1  0.990482  0.404761  0.500000  1
  Y  Y2  1  0.595239  0.585721  0.500000  1
  Sn  Sn3  1  0.758199  0.015694  0.000000  1
  Sn  Sn4  1  0.984306  0.742504  0.000000  1
  Sn  Sn5  1  0.257496  0.241801  0.000000  1
  Ge  Ge6  1  0.333333  0.666667  0.000000  1
  Ir  Ir7  1  0.666667  0.333333  0.000000  1
  Rh  Rh8  1  0.000000  0.000000  0.500000  1
