# generated using pymatgen
data_La16MgCd3TcPt3
_symmetry_space_group_name_H-M   'P 1'
_cell_length_a   10.25375078
_cell_length_b   10.25375030
_cell_length_c   10.25374996
_cell_angle_alpha   59.28292282
_cell_angle_beta   59.28292261
_cell_angle_gamma   59.28292698
_symmetry_Int_Tables_number   1
_chemical_formula_structural   La16MgCd3TcPt3
_chemical_formula_sum   'La16 Mg1 Cd3 Tc1 Pt3'
_cell_volume   749.86459309
_cell_formula_units_Z   1
loop_
 _symmetry_equiv_pos_site_id
 _symmetry_equiv_pos_as_xyz
  1  'x, y, z'
loop_
 _atom_site_type_symbol
 _atom_site_label
 _atom_site_symmetry_multiplicity
 _atom_site_fract_x
 _atom_site_fract_y
 _atom_site_fract_z
 _atom_site_occupancy
  La  La0  1  0.601362  0.601362  0.601362  1
  La  La1  1  0.594466  0.594466  0.211639  1
  La  La2  1  0.594466  0.211639  0.594466  1
  La  La3  1  0.211639  0.594466  0.594466  1
  La  La4  1  0.066972  0.438766  0.438766  1
  La  La5  1  0.440149  0.056171  0.056171  1
  La  La6  1  0.438766  0.066972  0.438766  1
  La  La7  1  0.056171  0.440149  0.056171  1
  La  La8  1  0.438766  0.438766  0.066972  1
  La  La9  1  0.056171  0.056171  0.440149  1
  La  La10  1  0.187205  0.814036  0.814036  1
  La  La11  1  0.802343  0.189886  0.189886  1
  La  La12  1  0.814036  0.187205  0.814036  1
  La  La13  1  0.189886  0.802343  0.189886  1
  La  La14  1  0.814036  0.814036  0.187205  1
  La  La15  1  0.189886  0.189886  0.802343  1
  Mg  Mg16  1  0.824938  0.824938  0.824938  1
  Cd  Cd17  1  0.830084  0.830084  0.509326  1
  Cd  Cd18  1  0.830084  0.509326  0.830084  1
  Cd  Cd19  1  0.509326  0.830084  0.830084  1
  Tc  Tc20  1  0.391632  0.391632  0.391632  1
  Pt  Pt21  1  0.395298  0.395298  0.827017  1
  Pt  Pt22  1  0.395298  0.827017  0.395298  1
  Pt  Pt23  1  0.827017  0.395298  0.395298  1
