# generated using pymatgen
data_Tb4AlTc6Ru
_symmetry_space_group_name_H-M   'P 1'
_cell_length_a   5.28928200
_cell_length_b   5.28928200
_cell_length_c   9.19651200
_cell_angle_alpha   90.00000000
_cell_angle_beta   90.00000000
_cell_angle_gamma   120.00001252
_symmetry_Int_Tables_number   1
_chemical_formula_structural   Tb4AlTc6Ru
_chemical_formula_sum   'Tb4 Al1 Tc6 Ru1'
_cell_volume   222.81640506
_cell_formula_units_Z   1
loop_
 _symmetry_equiv_pos_site_id
 _symmetry_equiv_pos_as_xyz
  1  'x, y, z'
loop_
 _atom_site_type_symbol
 _atom_site_label
 _atom_site_symmetry_multiplicity
 _atom_site_fract_x
 _atom_site_fract_y
 _atom_site_fract_z
 _atom_site_occupancy
  Tb  Tb0  1  0.333333  0.666667  0.430799  1
  Tb  Tb1  1  0.666667  0.333333  0.569201  1
  Tb  Tb2  1  0.666667  0.333333  0.936253  1
  Tb  Tb3  1  0.333333  0.666667  0.063747  1
  Al  Al4  1  0.000000  0.000000  0.500000  1
  Tc  Tc5  1  0.829673  0.170327  0.251632  1
  Tc  Tc6  1  0.829673  0.659344  0.251632  1
  Tc  Tc7  1  0.340656  0.170327  0.251632  1
  Tc  Tc8  1  0.170327  0.829673  0.748368  1
  Tc  Tc9  1  0.170327  0.340656  0.748368  1
  Tc  Tc10  1  0.659344  0.829673  0.748368  1
  Ru  Ru11  1  0.000000  0.000000  0.000000  1
