# generated using pymatgen
data_Er5In4CoAg
_symmetry_space_group_name_H-M   'P 1'
_cell_length_a   3.56854300
_cell_length_b   8.09990063
_cell_length_c   18.17635441
_cell_angle_alpha   89.73726087
_cell_angle_beta   90.00000000
_cell_angle_gamma   90.00000000
_symmetry_Int_Tables_number   1
_chemical_formula_structural   Er5In4CoAg
_chemical_formula_sum   'Er10 In8 Co2 Ag2'
_cell_volume   525.37915884
_cell_formula_units_Z   2
loop_
 _symmetry_equiv_pos_site_id
 _symmetry_equiv_pos_as_xyz
  1  'x, y, z'
loop_
 _atom_site_type_symbol
 _atom_site_label
 _atom_site_symmetry_multiplicity
 _atom_site_fract_x
 _atom_site_fract_y
 _atom_site_fract_z
 _atom_site_occupancy
  Er  Er0  1  0.000000  0.500000  0.500000  1
  Er  Er1  1  0.000000  0.000000  0.000000  1
  Er  Er2  1  0.000000  0.711985  0.273654  1
  Er  Er3  1  0.000000  0.288015  0.726346  1
  Er  Er4  1  0.000000  0.729242  0.783312  1
  Er  Er5  1  0.000000  0.270758  0.216688  1
  Er  Er6  1  0.000000  0.613672  0.087457  1
  Er  Er7  1  0.000000  0.386328  0.912543  1
  Er  Er8  1  0.000000  0.877841  0.578705  1
  Er  Er9  1  0.000000  0.122159  0.421295  1
  In  In10  1  0.500000  0.705843  0.931891  1
  In  In11  1  0.500000  0.294157  0.068109  1
  In  In12  1  0.500000  0.788695  0.429723  1
  In  In13  1  0.500000  0.211305  0.570277  1
  In  In14  1  0.500000  0.577754  0.650509  1
  In  In15  1  0.500000  0.422246  0.349491  1
  In  In16  1  0.500000  0.920740  0.148098  1
  In  In17  1  0.500000  0.079260  0.851902  1
  Co  Co18  1  0.500000  0.521241  0.193267  1
  Co  Co19  1  0.500000  0.478759  0.806733  1
  Ag  Ag20  1  0.500000  0.979093  0.699807  1
  Ag  Ag21  1  0.500000  0.020907  0.300193  1
