# generated using pymatgen
data_Y20Cd3Fe2Hg3
_symmetry_space_group_name_H-M   'P 1'
_cell_length_a   9.64038700
_cell_length_b   9.64038585
_cell_length_c   9.70952300
_cell_angle_alpha   90.00000000
_cell_angle_beta   90.00000000
_cell_angle_gamma   120.00000053
_symmetry_Int_Tables_number   1
_chemical_formula_structural   Y20Cd3Fe2Hg3
_chemical_formula_sum   'Y20 Cd3 Fe2 Hg3'
_cell_volume   781.47917440
_cell_formula_units_Z   1
loop_
 _symmetry_equiv_pos_site_id
 _symmetry_equiv_pos_as_xyz
  1  'x, y, z'
loop_
 _atom_site_type_symbol
 _atom_site_label
 _atom_site_symmetry_multiplicity
 _atom_site_fract_x
 _atom_site_fract_y
 _atom_site_fract_z
 _atom_site_occupancy
  Y  Y0  1  0.000000  0.000000  0.490109  1
  Y  Y1  1  0.000000  0.000000  0.009891  1
  Y  Y2  1  0.211964  0.788036  0.436055  1
  Y  Y3  1  0.211964  0.423930  0.436055  1
  Y  Y4  1  0.576070  0.788036  0.436055  1
  Y  Y5  1  0.787854  0.212146  0.563587  1
  Y  Y6  1  0.787854  0.575707  0.563587  1
  Y  Y7  1  0.424293  0.212146  0.563587  1
  Y  Y8  1  0.787854  0.212146  0.936413  1
  Y  Y9  1  0.787854  0.575707  0.936413  1
  Y  Y10  1  0.424293  0.212146  0.936413  1
  Y  Y11  1  0.211964  0.788036  0.063945  1
  Y  Y12  1  0.211964  0.423930  0.063945  1
  Y  Y13  1  0.576070  0.788036  0.063945  1
  Y  Y14  1  0.541320  0.458680  0.250000  1
  Y  Y15  1  0.541320  0.082642  0.250000  1
  Y  Y16  1  0.917358  0.458680  0.250000  1
  Y  Y17  1  0.458644  0.541356  0.750000  1
  Y  Y18  1  0.458644  0.917287  0.750000  1
  Y  Y19  1  0.082713  0.541356  0.750000  1
  Cd  Cd20  1  0.113081  0.886919  0.750000  1
  Cd  Cd21  1  0.113081  0.226162  0.750000  1
  Cd  Cd22  1  0.773838  0.886919  0.750000  1
  Fe  Fe23  1  0.333333  0.666667  0.250000  1
  Fe  Fe24  1  0.666667  0.333333  0.750000  1
  Hg  Hg25  1  0.880103  0.119897  0.250000  1
  Hg  Hg26  1  0.880103  0.760207  0.250000  1
  Hg  Hg27  1  0.239793  0.119897  0.250000  1
