# generated using pymatgen
data_AlAgCl4
_symmetry_space_group_name_H-M   'P 1'
_cell_length_a   6.35814800
_cell_length_b   9.86074000
_cell_length_c   11.83315300
_cell_angle_alpha   90.00000000
_cell_angle_beta   90.00000000
_cell_angle_gamma   90.00000000
_symmetry_Int_Tables_number   1
_chemical_formula_structural   AlAgCl4
_chemical_formula_sum   'Al4 Ag4 Cl16'
_cell_volume   741.89188481
_cell_formula_units_Z   4
loop_
 _symmetry_equiv_pos_site_id
 _symmetry_equiv_pos_as_xyz
  1  'x, y, z'
loop_
 _atom_site_type_symbol
 _atom_site_label
 _atom_site_symmetry_multiplicity
 _atom_site_fract_x
 _atom_site_fract_y
 _atom_site_fract_z
 _atom_site_occupancy
  Al  Al0  1  0.605920  0.248639  0.698677  1
  Al  Al1  1  0.105920  0.251361  0.301323  1
  Al  Al2  1  0.394080  0.748639  0.801323  1
  Al  Al3  1  0.894080  0.751361  0.198677  1
  Ag  Ag4  1  0.123237  0.482389  0.622873  1
  Ag  Ag5  1  0.623237  0.017611  0.377127  1
  Ag  Ag6  1  0.876763  0.982389  0.877127  1
  Ag  Ag7  1  0.376763  0.517611  0.122873  1
  Cl  Cl8  1  0.265469  0.254265  0.707871  1
  Cl  Cl9  1  0.765469  0.245735  0.292129  1
  Cl  Cl10  1  0.734531  0.754265  0.792129  1
  Cl  Cl11  1  0.234531  0.745735  0.207871  1
  Cl  Cl12  1  0.710051  0.436081  0.620707  1
  Cl  Cl13  1  0.210051  0.063919  0.379293  1
  Cl  Cl14  1  0.289949  0.936081  0.879293  1
  Cl  Cl15  1  0.789949  0.563919  0.120707  1
  Cl  Cl16  1  0.762607  0.770100  0.368016  1
  Cl  Cl17  1  0.262607  0.729900  0.631984  1
  Cl  Cl18  1  0.237393  0.270100  0.131984  1
  Cl  Cl19  1  0.737393  0.229900  0.868016  1
  Cl  Cl20  1  0.210641  0.426060  0.395657  1
  Cl  Cl21  1  0.710641  0.073940  0.604343  1
  Cl  Cl22  1  0.789359  0.926060  0.104343  1
  Cl  Cl23  1  0.289359  0.573940  0.895657  1
