# generated using pymatgen
data_Lu3ZrInCo
_symmetry_space_group_name_H-M   'P 1'
_cell_length_a   9.24072200
_cell_length_b   9.24072187
_cell_length_c   9.24072100
_cell_angle_alpha   59.99999955
_cell_angle_beta   60.00000000
_cell_angle_gamma   60.00000368
_symmetry_Int_Tables_number   1
_chemical_formula_structural   Lu3ZrInCo
_chemical_formula_sum   'Lu12 Zr4 In4 Co4'
_cell_volume   557.95949802
_cell_formula_units_Z   4
loop_
 _symmetry_equiv_pos_site_id
 _symmetry_equiv_pos_as_xyz
  1  'x, y, z'
loop_
 _atom_site_type_symbol
 _atom_site_label
 _atom_site_symmetry_multiplicity
 _atom_site_fract_x
 _atom_site_fract_y
 _atom_site_fract_z
 _atom_site_occupancy
  Lu  Lu0  1  0.060822  0.439178  0.439178  1
  Lu  Lu1  1  0.439178  0.060822  0.060822  1
  Lu  Lu2  1  0.439178  0.060822  0.439178  1
  Lu  Lu3  1  0.060822  0.439178  0.060822  1
  Lu  Lu4  1  0.439178  0.439178  0.060822  1
  Lu  Lu5  1  0.060822  0.060822  0.439178  1
  Lu  Lu6  1  0.192372  0.807628  0.807628  1
  Lu  Lu7  1  0.807628  0.192372  0.192372  1
  Lu  Lu8  1  0.807628  0.192372  0.807628  1
  Lu  Lu9  1  0.192372  0.807628  0.192372  1
  Lu  Lu10  1  0.807628  0.807628  0.192372  1
  Lu  Lu11  1  0.192372  0.192372  0.807628  1
  Zr  Zr12  1  0.593893  0.593893  0.593893  1
  Zr  Zr13  1  0.593893  0.593893  0.218321  1
  Zr  Zr14  1  0.593893  0.218321  0.593893  1
  Zr  Zr15  1  0.218321  0.593893  0.593893  1
  In  In16  1  0.832787  0.832787  0.832787  1
  In  In17  1  0.832787  0.832787  0.501638  1
  In  In18  1  0.832787  0.501638  0.832787  1
  In  In19  1  0.501638  0.832787  0.832787  1
  Co  Co20  1  0.394948  0.394948  0.394948  1
  Co  Co21  1  0.394948  0.394948  0.815154  1
  Co  Co22  1  0.394948  0.815154  0.394948  1
  Co  Co23  1  0.815154  0.394948  0.394948  1
