# generated using pymatgen
data_Tb5HoSi24Os3Ru5
_symmetry_space_group_name_H-M   'P 1'
_cell_length_a   10.11235131
_cell_length_b   10.11235279
_cell_length_c   8.14813610
_cell_angle_alpha   90.00371083
_cell_angle_beta   90.00370872
_cell_angle_gamma   132.48423344
_symmetry_Int_Tables_number   1
_chemical_formula_structural   Tb5HoSi24Os3Ru5
_chemical_formula_sum   'Tb5 Ho1 Si24 Os3 Ru5'
_cell_volume   614.47326651
_cell_formula_units_Z   1
loop_
 _symmetry_equiv_pos_site_id
 _symmetry_equiv_pos_as_xyz
  1  'x, y, z'
loop_
 _atom_site_type_symbol
 _atom_site_label
 _atom_site_symmetry_multiplicity
 _atom_site_fract_x
 _atom_site_fract_y
 _atom_site_fract_z
 _atom_site_occupancy
  Tb  Tb0  1  0.999943  0.000057  0.000000  1
  Tb  Tb1  1  0.502160  0.002194  0.750155  1
  Tb  Tb2  1  0.997806  0.497840  0.249845  1
  Tb  Tb3  1  0.497963  0.997675  0.249685  1
  Tb  Tb4  1  0.002325  0.502037  0.750315  1
  Ho  Ho5  1  0.500023  0.499977  0.500000  1
  Si  Si6  1  0.795930  0.204070  0.500000  1
  Si  Si7  1  0.295834  0.704166  0.000000  1
  Si  Si8  1  0.204184  0.795816  0.500000  1
  Si  Si9  1  0.704770  0.295230  0.000000  1
  Si  Si10  1  0.332556  0.332275  0.833566  1
  Si  Si11  1  0.667725  0.667444  0.166434  1
  Si  Si12  1  0.166570  0.166751  0.332563  1
  Si  Si13  1  0.833249  0.833430  0.667437  1
  Si  Si14  1  0.121251  0.888219  0.728327  1
  Si  Si15  1  0.111781  0.878749  0.271673  1
  Si  Si16  1  0.612601  0.378963  0.227286  1
  Si  Si17  1  0.621037  0.387399  0.772714  1
  Si  Si18  1  0.878165  0.111692  0.270672  1
  Si  Si19  1  0.888308  0.121835  0.729328  1
  Si  Si20  1  0.388306  0.621817  0.772237  1
  Si  Si21  1  0.378183  0.611694  0.227763  1
  Si  Si22  1  0.344668  0.111779  0.505280  1
  Si  Si23  1  0.888221  0.655332  0.494720  1
  Si  Si24  1  0.388541  0.155841  0.004040  1
  Si  Si25  1  0.844159  0.611459  0.995960  1
  Si  Si26  1  0.655597  0.888399  0.494460  1
  Si  Si27  1  0.111601  0.344403  0.505540  1
  Si  Si28  1  0.612898  0.845996  0.995061  1
  Si  Si29  1  0.154004  0.387102  0.004939  1
  Os  Os30  1  0.669469  0.330531  0.500000  1
  Os  Os31  1  0.169738  0.830262  0.000000  1
  Os  Os32  1  0.330546  0.669454  0.500000  1
  Ru  Ru33  1  0.830147  0.169853  0.000000  1
  Ru  Ru34  1  0.128253  0.128110  0.626308  1
  Ru  Ru35  1  0.871890  0.871747  0.373692  1
  Ru  Ru36  1  0.374059  0.374462  0.128430  1
  Ru  Ru37  1  0.625538  0.625941  0.871570  1
