# generated using pymatgen
data_Ba2Mg3Fe3(PO4)6
_symmetry_space_group_name_H-M   'P 1'
_cell_length_a   9.22228191
_cell_length_b   9.22228219
_cell_length_c   9.22594545
_cell_angle_alpha   137.26514873
_cell_angle_beta   109.60161219
_cell_angle_gamma   85.96274295
_symmetry_Int_Tables_number   1
_chemical_formula_structural   Ba2Mg3Fe3(PO4)6
_chemical_formula_sum   'Ba2 Mg3 Fe3 P6 O24'
_cell_volume   482.23862145
_cell_formula_units_Z   1
loop_
 _symmetry_equiv_pos_site_id
 _symmetry_equiv_pos_as_xyz
  1  'x, y, z'
loop_
 _atom_site_type_symbol
 _atom_site_label
 _atom_site_symmetry_multiplicity
 _atom_site_fract_x
 _atom_site_fract_y
 _atom_site_fract_z
 _atom_site_occupancy
  Ba  Ba0  1  0.751126  0.140885  0.391185  1
  Ba  Ba1  1  0.249700  0.859941  0.608815  1
  Mg  Mg2  1  0.617307  0.617307  0.500000  1
  Mg  Mg3  1  0.883273  0.383273  0.000000  1
  Mg  Mg4  1  0.116221  0.616221  0.000000  1
  Fe  Fe5  1  0.999607  0.000832  0.000314  1
  Fe  Fe6  1  0.500517  0.499292  0.999686  1
  Fe  Fe7  1  0.382887  0.382887  0.500000  1
  P  P8  1  0.820314  0.820314  0.500000  1
  P  P9  1  0.679970  0.179970  0.000000  1
  P  P10  1  0.319459  0.819459  0.000000  1
  P  P11  1  0.177279  0.177279  0.500000  1
  P  P12  1  0.751613  0.647302  0.897052  1
  P  P13  1  0.250250  0.354560  0.102948  1
  O  O14  1  0.637551  0.512380  0.641069  1
  O  O15  1  0.130167  0.489471  0.119595  1
  O  O16  1  0.371313  0.496484  0.358931  1
  O  O17  1  0.869876  0.510572  0.880405  1
  O  O18  1  0.157524  0.131066  0.976340  1
  O  O19  1  0.846004  0.873039  0.029965  1
  O  O20  1  0.654725  0.681184  0.023660  1
  O  O21  1  0.343075  0.316039  0.970035  1
  O  O22  1  0.857041  0.789439  0.656070  1
  O  O23  1  0.867044  0.211419  0.067521  1
  O  O24  1  0.356072  0.699983  0.066751  1
  O  O25  1  0.364299  0.294746  0.655934  1
  O  O26  1  0.138812  0.208365  0.344066  1
  O  O27  1  0.133232  0.789321  0.933249  1
  O  O28  1  0.643898  0.299523  0.932479  1
  O  O29  1  0.633369  0.700971  0.343930  1
  O  O30  1  0.848815  0.065908  0.649772  1
  O  O31  1  0.584350  0.934536  0.783374  1
  O  O32  1  0.348343  0.700303  0.783374  1
  O  O33  1  0.082065  0.299347  0.650672  1
  O  O34  1  0.148675  0.931392  0.349328  1
  O  O35  1  0.416929  0.064970  0.216626  1
  O  O36  1  0.651163  0.300976  0.216626  1
  O  O37  1  0.916135  0.699043  0.350228  1
