# generated using pymatgen
data_La16Sm3YSn16
_symmetry_space_group_name_H-M   'P 1'
_cell_length_a   8.44265600
_cell_length_b   8.53774301
_cell_length_c   16.28680400
_cell_angle_alpha   90.00000000
_cell_angle_beta   90.00000000
_cell_angle_gamma   89.99754382
_symmetry_Int_Tables_number   1
_chemical_formula_structural   La16Sm3YSn16
_chemical_formula_sum   'La16 Sm3 Y1 Sn16'
_cell_volume   1173.97281892
_cell_formula_units_Z   1
loop_
 _symmetry_equiv_pos_site_id
 _symmetry_equiv_pos_as_xyz
  1  'x, y, z'
loop_
 _atom_site_type_symbol
 _atom_site_label
 _atom_site_symmetry_multiplicity
 _atom_site_fract_x
 _atom_site_fract_y
 _atom_site_fract_z
 _atom_site_occupancy
  La  La0  1  0.972677  0.819096  0.899417  1
  La  La1  1  0.472550  0.680780  0.600699  1
  La  La2  1  0.527587  0.318677  0.100442  1
  La  La3  1  0.027073  0.180780  0.399497  1
  La  La4  1  0.972677  0.819096  0.600583  1
  La  La5  1  0.472550  0.680780  0.899301  1
  La  La6  1  0.527587  0.318677  0.399558  1
  La  La7  1  0.027073  0.180780  0.100503  1
  La  La8  1  0.879203  0.660379  0.382553  1
  La  La9  1  0.380077  0.839861  0.117528  1
  La  La10  1  0.620438  0.160300  0.617598  1
  La  La11  1  0.120514  0.339795  0.882313  1
  La  La12  1  0.120514  0.339795  0.617687  1
  La  La13  1  0.620438  0.160300  0.882402  1
  La  La14  1  0.380077  0.839861  0.382472  1
  La  La15  1  0.879203  0.660379  0.117447  1
  Sm  Sm16  1  0.288971  0.002814  0.750000  1
  Sm  Sm17  1  0.789121  0.497089  0.750000  1
  Sm  Sm18  1  0.210904  0.502281  0.250000  1
  Y  Y19  1  0.712096  0.997132  0.250000  1
  Sn  Sn20  1  0.781177  0.469940  0.545567  1
  Sn  Sn21  1  0.281047  0.030045  0.954361  1
  Sn  Sn22  1  0.718783  0.970623  0.453627  1
  Sn  Sn23  1  0.218731  0.529987  0.045551  1
  Sn  Sn24  1  0.218731  0.529987  0.454449  1
  Sn  Sn25  1  0.718783  0.970623  0.046373  1
  Sn  Sn26  1  0.281047  0.030045  0.545639  1
  Sn  Sn27  1  0.781177  0.469940  0.954433  1
  Sn  Sn28  1  0.168176  0.643853  0.750000  1
  Sn  Sn29  1  0.668272  0.856557  0.750000  1
  Sn  Sn30  1  0.331963  0.143383  0.250000  1
  Sn  Sn31  1  0.831366  0.355263  0.250000  1
  Sn  Sn32  1  0.922525  0.117721  0.750000  1
  Sn  Sn33  1  0.422581  0.382143  0.750000  1
  Sn  Sn34  1  0.577887  0.618363  0.250000  1
  Sn  Sn35  1  0.076422  0.882875  0.250000  1
