# generated using pymatgen
data_Y10Ir2OsRu
_symmetry_space_group_name_H-M   'P 1'
_cell_length_a   6.45488911
_cell_length_b   7.32559825
_cell_length_c   8.52917724
_cell_angle_alpha   96.76435995
_cell_angle_beta   112.24180533
_cell_angle_gamma   89.96820219
_symmetry_Int_Tables_number   1
_chemical_formula_structural   Y10Ir2OsRu
_chemical_formula_sum   'Y10 Ir2 Os1 Ru1'
_cell_volume   370.27749255
_cell_formula_units_Z   1
loop_
 _symmetry_equiv_pos_site_id
 _symmetry_equiv_pos_as_xyz
  1  'x, y, z'
loop_
 _atom_site_type_symbol
 _atom_site_label
 _atom_site_symmetry_multiplicity
 _atom_site_fract_x
 _atom_site_fract_y
 _atom_site_fract_z
 _atom_site_occupancy
  Y  Y0  1  0.979523  0.916551  0.185613  1
  Y  Y1  1  0.793393  0.583025  0.814477  1
  Y  Y2  1  0.023095  0.085453  0.815361  1
  Y  Y3  1  0.207293  0.414241  0.182915  1
  Y  Y4  1  0.645143  0.818099  0.435666  1
  Y  Y5  1  0.209636  0.682017  0.564073  1
  Y  Y6  1  0.351185  0.184212  0.563292  1
  Y  Y7  1  0.791077  0.316728  0.438593  1
  Y  Y8  1  0.424340  0.749292  0.999597  1
  Y  Y9  1  0.574066  0.250535  0.999312  1
  Ir  Ir10  1  0.825416  0.576869  0.221742  1
  Ir  Ir11  1  0.603971  0.923373  0.778541  1
  Os  Os12  1  0.176550  0.424777  0.780573  1
  Ru  Ru13  1  0.395310  0.074828  0.220244  1
