# generated using pymatgen
data_Tb8TmLuIr6
_symmetry_space_group_name_H-M   'P 1'
_cell_length_a   10.90548100
_cell_length_b   10.90548100
_cell_length_c   6.36290800
_cell_angle_alpha   90.00000000
_cell_angle_beta   90.00000000
_cell_angle_gamma   90.00000000
_symmetry_Int_Tables_number   1
_chemical_formula_structural   Tb8TmLuIr6
_chemical_formula_sum   'Tb16 Tm2 Lu2 Ir12'
_cell_volume   756.73756778
_cell_formula_units_Z   2
loop_
 _symmetry_equiv_pos_site_id
 _symmetry_equiv_pos_as_xyz
  1  'x, y, z'
loop_
 _atom_site_type_symbol
 _atom_site_label
 _atom_site_symmetry_multiplicity
 _atom_site_fract_x
 _atom_site_fract_y
 _atom_site_fract_z
 _atom_site_occupancy
  Tb  Tb0  1  0.290167  0.087661  0.378509  1
  Tb  Tb1  1  0.290167  0.912339  0.878509  1
  Tb  Tb2  1  0.709833  0.087661  0.878509  1
  Tb  Tb3  1  0.709833  0.912339  0.378509  1
  Tb  Tb4  1  0.587575  0.789901  0.878505  1
  Tb  Tb5  1  0.587575  0.210099  0.378505  1
  Tb  Tb6  1  0.412425  0.789901  0.378505  1
  Tb  Tb7  1  0.412425  0.210099  0.878505  1
  Tb  Tb8  1  0.210099  0.412425  0.621495  1
  Tb  Tb9  1  0.210099  0.587575  0.121495  1
  Tb  Tb10  1  0.789901  0.412425  0.121495  1
  Tb  Tb11  1  0.789901  0.587575  0.621495  1
  Tb  Tb12  1  0.912339  0.709833  0.121491  1
  Tb  Tb13  1  0.912339  0.290167  0.621491  1
  Tb  Tb14  1  0.087661  0.709833  0.621491  1
  Tb  Tb15  1  0.087661  0.290167  0.121491  1
  Tm  Tm16  1  0.000000  0.000000  0.500000  1
  Tm  Tm17  1  0.000000  0.000000  0.000000  1
  Lu  Lu18  1  0.500000  0.500000  0.000000  1
  Lu  Lu19  1  0.500000  0.500000  0.500000  1
  Ir  Ir20  1  0.848767  0.151233  0.250000  1
  Ir  Ir21  1  0.848767  0.848767  0.750000  1
  Ir  Ir22  1  0.151233  0.151233  0.750000  1
  Ir  Ir23  1  0.151233  0.848767  0.250000  1
  Ir  Ir24  1  0.650638  0.349362  0.750000  1
  Ir  Ir25  1  0.650638  0.650638  0.250000  1
  Ir  Ir26  1  0.349362  0.349362  0.250000  1
  Ir  Ir27  1  0.349362  0.650638  0.750000  1
  Ir  Ir28  1  0.500000  0.000000  0.122450  1
  Ir  Ir29  1  0.500000  0.000000  0.622450  1
  Ir  Ir30  1  0.000000  0.500000  0.877550  1
  Ir  Ir31  1  0.000000  0.500000  0.377550  1
