# generated using pymatgen
data_Ba2Pr(AgPb)3
_symmetry_space_group_name_H-M   'P 1'
_cell_length_a   5.08080400
_cell_length_b   5.08080371
_cell_length_c   12.82906100
_cell_angle_alpha   90.00000000
_cell_angle_beta   90.00000000
_cell_angle_gamma   120.00000189
_symmetry_Int_Tables_number   1
_chemical_formula_structural   Ba2Pr(AgPb)3
_chemical_formula_sum   'Ba2 Pr1 Ag3 Pb3'
_cell_volume   286.80739966
_cell_formula_units_Z   1
loop_
 _symmetry_equiv_pos_site_id
 _symmetry_equiv_pos_as_xyz
  1  'x, y, z'
loop_
 _atom_site_type_symbol
 _atom_site_label
 _atom_site_symmetry_multiplicity
 _atom_site_fract_x
 _atom_site_fract_y
 _atom_site_fract_z
 _atom_site_occupancy
  Ba  Ba0  1  0.666667  0.333333  0.839011  1
  Ba  Ba1  1  0.666667  0.333333  0.488441  1
  Pr  Pr2  1  0.666667  0.333333  0.166095  1
  Ag  Ag3  1  0.333333  0.666667  0.042561  1
  Ag  Ag4  1  0.000000  0.000000  0.665887  1
  Ag  Ag5  1  0.000000  0.000000  0.278832  1
  Pb  Pb6  1  0.333333  0.666667  0.655247  1
  Pb  Pb7  1  0.333333  0.666667  0.309747  1
  Pb  Pb8  1  0.000000  0.000000  0.032080  1
