# generated using pymatgen
data_La7TbTe12
_symmetry_space_group_name_H-M   'P 1'
_cell_length_a   4.52532100
_cell_length_b   12.07799996
_cell_length_c   12.46357928
_cell_angle_alpha   89.92529908
_cell_angle_beta   89.99992403
_cell_angle_gamma   89.99997623
_symmetry_Int_Tables_number   1
_chemical_formula_structural   La7TbTe12
_chemical_formula_sum   'La7 Tb1 Te12'
_cell_volume   681.21911522
_cell_formula_units_Z   1
loop_
 _symmetry_equiv_pos_site_id
 _symmetry_equiv_pos_as_xyz
  1  'x, y, z'
loop_
 _atom_site_type_symbol
 _atom_site_label
 _atom_site_symmetry_multiplicity
 _atom_site_fract_x
 _atom_site_fract_y
 _atom_site_fract_z
 _atom_site_occupancy
  La  La0  1  0.249999  0.497011  0.697898  1
  La  La1  1  0.750000  0.500026  0.303411  1
  La  La2  1  0.749999  0.000445  0.805141  1
  La  La3  1  0.250001  0.003969  0.193660  1
  La  La4  1  0.250000  0.187488  0.513936  1
  La  La5  1  0.750001  0.812873  0.486079  1
  La  La6  1  0.750000  0.686986  0.986171  1
  Tb  Tb7  1  0.250000  0.313017  0.014295  1
  Te  Te8  1  0.250000  0.877379  0.955626  1
  Te  Te9  1  0.750000  0.132228  0.042462  1
  Te  Te10  1  0.750002  0.375862  0.544981  1
  Te  Te11  1  0.249997  0.623111  0.455128  1
  Te  Te12  1  0.250001  0.201001  0.776803  1
  Te  Te13  1  0.750000  0.800213  0.226469  1
  Te  Te14  1  0.749999  0.698223  0.727692  1
  Te  Te15  1  0.250000  0.298774  0.268293  1
  Te  Te16  1  0.249999  0.552753  0.117142  1
  Te  Te17  1  0.750002  0.437641  0.884723  1
  Te  Te18  1  0.750001  0.058963  0.378843  1
  Te  Te19  1  0.249998  0.942038  0.621245  1
