# generated using pymatgen
data_TbCe2(InNi)3
_symmetry_space_group_name_H-M   'P 1'
_cell_length_a   7.46619836
_cell_length_b   7.40574672
_cell_length_c   3.91723900
_cell_angle_alpha   90.00000000
_cell_angle_beta   90.00000000
_cell_angle_gamma   119.73251774
_symmetry_Int_Tables_number   1
_chemical_formula_structural   TbCe2(InNi)3
_chemical_formula_sum   'Tb1 Ce2 In3 Ni3'
_cell_volume   188.08031679
_cell_formula_units_Z   1
loop_
 _symmetry_equiv_pos_site_id
 _symmetry_equiv_pos_as_xyz
  1  'x, y, z'
loop_
 _atom_site_type_symbol
 _atom_site_label
 _atom_site_symmetry_multiplicity
 _atom_site_fract_x
 _atom_site_fract_y
 _atom_site_fract_z
 _atom_site_occupancy
  Tb  Tb0  1  0.000000  0.589100  0.000000  1
  Ce  Ce1  1  0.415269  0.415405  0.000000  1
  Ce  Ce2  1  0.584731  0.000137  0.000000  1
  In  In3  1  0.755486  0.750564  0.500000  1
  In  In4  1  0.000000  0.254499  0.500000  1
  In  In5  1  0.244514  0.995078  0.500000  1
  Ni  Ni6  1  0.345166  0.668178  0.500000  1
  Ni  Ni7  1  0.000000  0.004029  0.000000  1
  Ni  Ni8  1  0.654834  0.323011  0.500000  1
