# generated using pymatgen
data_Sr4Zn3Ga10Au9
_symmetry_space_group_name_H-M   'P 1'
_cell_length_a   11.93090000
_cell_length_b   11.91695404
_cell_length_c   4.38783100
_cell_angle_alpha   90.00000000
_cell_angle_beta   90.00000000
_cell_angle_gamma   119.10214941
_symmetry_Int_Tables_number   1
_chemical_formula_structural   Sr4Zn3Ga10Au9
_chemical_formula_sum   'Sr4 Zn3 Ga10 Au9'
_cell_volume   545.10168968
_cell_formula_units_Z   1
loop_
 _symmetry_equiv_pos_site_id
 _symmetry_equiv_pos_as_xyz
  1  'x, y, z'
loop_
 _atom_site_type_symbol
 _atom_site_label
 _atom_site_symmetry_multiplicity
 _atom_site_fract_x
 _atom_site_fract_y
 _atom_site_fract_z
 _atom_site_occupancy
  Sr  Sr0  1  0.205297  0.795484  0.500000  1
  Sr  Sr1  1  0.590640  0.795484  0.500000  1
  Sr  Sr2  1  0.204933  0.409779  0.500000  1
  Sr  Sr3  1  0.665753  0.334451  0.000000  1
  Zn  Zn4  1  0.944972  0.290626  0.000000  1
  Zn  Zn5  1  0.159176  0.073998  0.500000  1
  Zn  Zn6  1  0.924620  0.842283  0.500000  1
  Ga  Ga7  1  0.712156  0.660210  0.000000  1
  Ga  Ga8  1  0.944685  0.659543  0.000000  1
  Ga  Ga9  1  0.338204  0.053893  0.000000  1
  Ga  Ga10  1  0.708399  0.053749  0.000000  1
  Ga  Ga11  1  0.531905  0.064484  0.500000  1
  Ga  Ga12  1  0.926407  0.081740  0.500000  1
  Ga  Ga13  1  0.341230  0.289512  0.000000  1
  Ga  Ga14  1  0.533895  0.466893  0.500000  1
  Ga  Ga15  1  0.935739  0.463226  0.500000  1
  Ga  Ga16  1  0.332844  0.665858  0.000000  1
  Au  Au17  1  0.458066  0.543598  0.000000  1
  Au  Au18  1  0.830390  0.915669  0.000000  1
  Au  Au19  1  0.453924  0.910766  0.000000  1
  Au  Au20  1  0.086721  0.170100  0.000000  1
  Au  Au21  1  0.082129  0.915305  0.000000  1
  Au  Au22  1  0.790565  0.580647  0.500000  1
  Au  Au23  1  0.088360  0.545441  0.000000  1
  Au  Au24  1  0.789585  0.207077  0.500000  1
  Au  Au25  1  0.419407  0.210183  0.500000  1
