# generated using pymatgen
data_Tb3Ho2Er5(In2Pd)4
_symmetry_space_group_name_H-M   'P 1'
_cell_length_a   3.60970400
_cell_length_b   8.14291275
_cell_length_c   18.23905865
_cell_angle_alpha   89.95106153
_cell_angle_beta   90.00000000
_cell_angle_gamma   90.00000000
_symmetry_Int_Tables_number   1
_chemical_formula_structural   Tb3Ho2Er5(In2Pd)4
_chemical_formula_sum   'Tb3 Ho2 Er5 In8 Pd4'
_cell_volume   536.10966096
_cell_formula_units_Z   1
loop_
 _symmetry_equiv_pos_site_id
 _symmetry_equiv_pos_as_xyz
  1  'x, y, z'
loop_
 _atom_site_type_symbol
 _atom_site_label
 _atom_site_symmetry_multiplicity
 _atom_site_fract_x
 _atom_site_fract_y
 _atom_site_fract_z
 _atom_site_occupancy
  Tb  Tb0  1  0.000000  0.499664  0.500174  1
  Tb  Tb1  1  0.000000  0.999970  0.000065  1
  Tb  Tb2  1  0.000000  0.739313  0.280981  1
  Ho  Ho3  1  0.000000  0.261129  0.718994  1
  Ho  Ho4  1  0.000000  0.761463  0.781050  1
  Er  Er5  1  0.000000  0.238586  0.219059  1
  Er  Er6  1  0.000000  0.616127  0.083659  1
  Er  Er7  1  0.000000  0.383624  0.916367  1
  Er  Er8  1  0.000000  0.883301  0.583494  1
  Er  Er9  1  0.000000  0.116731  0.416382  1
  In  In10  1  0.500000  0.708682  0.932593  1
  In  In11  1  0.500000  0.291520  0.067308  1
  In  In12  1  0.500000  0.791152  0.432856  1
  In  In13  1  0.500000  0.207910  0.567365  1
  In  In14  1  0.500000  0.582964  0.650610  1
  In  In15  1  0.500000  0.417900  0.349582  1
  In  In16  1  0.500000  0.917965  0.149960  1
  In  In17  1  0.500000  0.081874  0.849869  1
  Pd  Pd18  1  0.500000  0.520795  0.195404  1
  Pd  Pd19  1  0.500000  0.476906  0.804438  1
  Pd  Pd20  1  0.500000  0.976934  0.695553  1
  Pd  Pd21  1  0.500000  0.025491  0.304236  1
