# generated using pymatgen
data_SmEr3C2Cl3
_symmetry_space_group_name_H-M   'P 1'
_cell_length_a   3.64418800
_cell_length_b   10.44360700
_cell_length_c   19.79267300
_cell_angle_alpha   90.00000000
_cell_angle_beta   90.00000000
_cell_angle_gamma   90.00000000
_symmetry_Int_Tables_number   1
_chemical_formula_structural   SmEr3C2Cl3
_chemical_formula_sum   'Sm4 Er12 C8 Cl12'
_cell_volume   753.27879827
_cell_formula_units_Z   4
loop_
 _symmetry_equiv_pos_site_id
 _symmetry_equiv_pos_as_xyz
  1  'x, y, z'
loop_
 _atom_site_type_symbol
 _atom_site_label
 _atom_site_symmetry_multiplicity
 _atom_site_fract_x
 _atom_site_fract_y
 _atom_site_fract_z
 _atom_site_occupancy
  Sm  Sm0  1  0.250000  0.863025  0.573738  1
  Sm  Sm1  1  0.750000  0.136975  0.426262  1
  Sm  Sm2  1  0.750000  0.636975  0.073738  1
  Sm  Sm3  1  0.250000  0.363025  0.926262  1
  Er  Er4  1  0.250000  0.863794  0.745114  1
  Er  Er5  1  0.750000  0.136206  0.254886  1
  Er  Er6  1  0.750000  0.636206  0.245114  1
  Er  Er7  1  0.250000  0.363794  0.754886  1
  Er  Er8  1  0.250000  0.873580  0.166675  1
  Er  Er9  1  0.750000  0.126420  0.833325  1
  Er  Er10  1  0.750000  0.626420  0.666675  1
  Er  Er11  1  0.250000  0.373580  0.333325  1
  Er  Er12  1  0.250000  0.898992  0.330147  1
  Er  Er13  1  0.750000  0.101008  0.669853  1
  Er  Er14  1  0.750000  0.601008  0.830147  1
  Er  Er15  1  0.250000  0.398992  0.169853  1
  C  C16  1  0.250000  0.613093  0.750156  1
  C  C17  1  0.750000  0.386907  0.249844  1
  C  C18  1  0.750000  0.886907  0.250156  1
  C  C19  1  0.250000  0.113093  0.749844  1
  C  C20  1  0.250000  0.635173  0.156952  1
  C  C21  1  0.750000  0.364827  0.843048  1
  C  C22  1  0.750000  0.864827  0.656952  1
  C  C23  1  0.250000  0.135173  0.343048  1
  Cl  Cl24  1  0.250000  0.606819  0.559410  1
  Cl  Cl25  1  0.750000  0.393181  0.440590  1
  Cl  Cl26  1  0.750000  0.893181  0.059410  1
  Cl  Cl27  1  0.250000  0.106819  0.940590  1
  Cl  Cl28  1  0.250000  0.629154  0.948960  1
  Cl  Cl29  1  0.750000  0.370846  0.051040  1
  Cl  Cl30  1  0.750000  0.870846  0.448960  1
  Cl  Cl31  1  0.250000  0.129154  0.551040  1
  Cl  Cl32  1  0.250000  0.638210  0.353453  1
  Cl  Cl33  1  0.750000  0.361790  0.646547  1
  Cl  Cl34  1  0.750000  0.861790  0.853453  1
  Cl  Cl35  1  0.250000  0.138210  0.146547  1
