# generated using pymatgen
data_Y18Lu2Cd6CoRu
_symmetry_space_group_name_H-M   'P 1'
_cell_length_a   9.62172100
_cell_length_b   9.62172141
_cell_length_c   9.81482400
_cell_angle_alpha   90.00000000
_cell_angle_beta   90.00000000
_cell_angle_gamma   120.00000203
_symmetry_Int_Tables_number   1
_chemical_formula_structural   Y18Lu2Cd6CoRu
_chemical_formula_sum   'Y18 Lu2 Cd6 Co1 Ru1'
_cell_volume   786.89842619
_cell_formula_units_Z   1
loop_
 _symmetry_equiv_pos_site_id
 _symmetry_equiv_pos_as_xyz
  1  'x, y, z'
loop_
 _atom_site_type_symbol
 _atom_site_label
 _atom_site_symmetry_multiplicity
 _atom_site_fract_x
 _atom_site_fract_y
 _atom_site_fract_z
 _atom_site_occupancy
  Y  Y0  1  0.211082  0.788918  0.435975  1
  Y  Y1  1  0.211082  0.422165  0.435975  1
  Y  Y2  1  0.577835  0.788918  0.435975  1
  Y  Y3  1  0.791373  0.208627  0.559957  1
  Y  Y4  1  0.791373  0.582746  0.559957  1
  Y  Y5  1  0.417254  0.208627  0.559957  1
  Y  Y6  1  0.791373  0.208627  0.940043  1
  Y  Y7  1  0.791373  0.582746  0.940043  1
  Y  Y8  1  0.417254  0.208627  0.940043  1
  Y  Y9  1  0.211082  0.788918  0.064025  1
  Y  Y10  1  0.211082  0.422165  0.064025  1
  Y  Y11  1  0.577835  0.788918  0.064025  1
  Y  Y12  1  0.541696  0.458304  0.250000  1
  Y  Y13  1  0.541696  0.083392  0.250000  1
  Y  Y14  1  0.916608  0.458304  0.250000  1
  Y  Y15  1  0.458378  0.541622  0.750000  1
  Y  Y16  1  0.458378  0.916756  0.750000  1
  Y  Y17  1  0.083244  0.541622  0.750000  1
  Lu  Lu18  1  0.000000  0.000000  0.499485  1
  Lu  Lu19  1  0.000000  0.000000  0.000515  1
  Cd  Cd20  1  0.886167  0.113833  0.250000  1
  Cd  Cd21  1  0.886167  0.772334  0.250000  1
  Cd  Cd22  1  0.227666  0.113833  0.250000  1
  Cd  Cd23  1  0.113761  0.886239  0.750000  1
  Cd  Cd24  1  0.113761  0.227522  0.750000  1
  Cd  Cd25  1  0.772478  0.886239  0.750000  1
  Co  Co26  1  0.333333  0.666667  0.250000  1
  Ru  Ru27  1  0.666667  0.333333  0.750000  1
