# generated using pymatgen
data_HfPa(ZnRh)2
_symmetry_space_group_name_H-M   'P 1'
_cell_length_a   3.70953200
_cell_length_b   6.99680202
_cell_length_c   8.36177204
_cell_angle_alpha   91.33524936
_cell_angle_beta   90.00000000
_cell_angle_gamma   90.00000000
_symmetry_Int_Tables_number   1
_chemical_formula_structural   HfPa(ZnRh)2
_chemical_formula_sum   'Hf2 Pa2 Zn4 Rh4'
_cell_volume   216.96969942
_cell_formula_units_Z   2
loop_
 _symmetry_equiv_pos_site_id
 _symmetry_equiv_pos_as_xyz
  1  'x, y, z'
loop_
 _atom_site_type_symbol
 _atom_site_label
 _atom_site_symmetry_multiplicity
 _atom_site_fract_x
 _atom_site_fract_y
 _atom_site_fract_z
 _atom_site_occupancy
  Hf  Hf0  1  0.750000  0.939635  0.678235  1
  Hf  Hf1  1  0.250000  0.060365  0.321765  1
  Pa  Pa2  1  0.250000  0.557674  0.189058  1
  Pa  Pa3  1  0.750000  0.442326  0.810942  1
  Zn  Zn4  1  0.250000  0.633145  0.558998  1
  Zn  Zn5  1  0.750000  0.366855  0.441002  1
  Zn  Zn6  1  0.750000  0.888745  0.061195  1
  Zn  Zn7  1  0.250000  0.111255  0.938805  1
  Rh  Rh8  1  0.250000  0.723768  0.867888  1
  Rh  Rh9  1  0.750000  0.276232  0.132112  1
  Rh  Rh10  1  0.750000  0.772462  0.363410  1
  Rh  Rh11  1  0.250000  0.227538  0.636590  1
