# generated using pymatgen
data_CsTm3Te5
_symmetry_space_group_name_H-M   'P 1'
_cell_length_a   4.36523400
_cell_length_b   13.27904000
_cell_length_c   23.62914600
_cell_angle_alpha   90.00000000
_cell_angle_beta   90.00000000
_cell_angle_gamma   90.00000000
_symmetry_Int_Tables_number   1
_chemical_formula_structural   CsTm3Te5
_chemical_formula_sum   'Cs4 Tm12 Te20'
_cell_volume   1369.68983917
_cell_formula_units_Z   4
loop_
 _symmetry_equiv_pos_site_id
 _symmetry_equiv_pos_as_xyz
  1  'x, y, z'
loop_
 _atom_site_type_symbol
 _atom_site_label
 _atom_site_symmetry_multiplicity
 _atom_site_fract_x
 _atom_site_fract_y
 _atom_site_fract_z
 _atom_site_occupancy
  Cs  Cs0  1  0.250000  0.354930  0.088882  1
  Cs  Cs1  1  0.750000  0.645070  0.911118  1
  Cs  Cs2  1  0.750000  0.854930  0.411118  1
  Cs  Cs3  1  0.250000  0.145070  0.588882  1
  Tm  Tm4  1  0.250000  0.453446  0.697627  1
  Tm  Tm5  1  0.750000  0.546554  0.302373  1
  Tm  Tm6  1  0.750000  0.953446  0.802373  1
  Tm  Tm7  1  0.250000  0.046554  0.197627  1
  Tm  Tm8  1  0.250000  0.796841  0.674753  1
  Tm  Tm9  1  0.750000  0.203159  0.325247  1
  Tm  Tm10  1  0.750000  0.296841  0.825247  1
  Tm  Tm11  1  0.250000  0.703159  0.174753  1
  Tm  Tm12  1  0.250000  0.392128  0.444182  1
  Tm  Tm13  1  0.750000  0.607872  0.555818  1
  Tm  Tm14  1  0.750000  0.892128  0.055818  1
  Tm  Tm15  1  0.250000  0.107872  0.944182  1
  Te  Te16  1  0.250000  0.445183  0.568792  1
  Te  Te17  1  0.750000  0.554817  0.431208  1
  Te  Te18  1  0.750000  0.945183  0.931208  1
  Te  Te19  1  0.250000  0.054817  0.068792  1
  Te  Te20  1  0.250000  0.768195  0.547030  1
  Te  Te21  1  0.750000  0.231805  0.452970  1
  Te  Te22  1  0.750000  0.268195  0.952970  1
  Te  Te23  1  0.250000  0.731805  0.047030  1
  Te  Te24  1  0.250000  0.799290  0.802766  1
  Te  Te25  1  0.750000  0.200710  0.197234  1
  Te  Te26  1  0.750000  0.299290  0.697234  1
  Te  Te27  1  0.250000  0.700710  0.302766  1
  Te  Te28  1  0.250000  0.452976  0.826113  1
  Te  Te29  1  0.750000  0.547024  0.173887  1
  Te  Te30  1  0.750000  0.952976  0.673887  1
  Te  Te31  1  0.250000  0.047024  0.326113  1
  Te  Te32  1  0.250000  0.375463  0.313729  1
  Te  Te33  1  0.750000  0.624537  0.686271  1
  Te  Te34  1  0.750000  0.875463  0.186271  1
  Te  Te35  1  0.250000  0.124537  0.813729  1
