# generated using pymatgen
data_Tb5Y5(Bi3S)2
_symmetry_space_group_name_H-M   'P 1'
_cell_length_a   9.22164901
_cell_length_b   9.22165020
_cell_length_c   6.59432600
_cell_angle_alpha   90.00000000
_cell_angle_beta   90.00000000
_cell_angle_gamma   119.99505847
_symmetry_Int_Tables_number   1
_chemical_formula_structural   Tb5Y5(Bi3S)2
_chemical_formula_sum   'Tb5 Y5 Bi6 S2'
_cell_volume   485.66846031
_cell_formula_units_Z   1
loop_
 _symmetry_equiv_pos_site_id
 _symmetry_equiv_pos_as_xyz
  1  'x, y, z'
loop_
 _atom_site_type_symbol
 _atom_site_label
 _atom_site_symmetry_multiplicity
 _atom_site_fract_x
 _atom_site_fract_y
 _atom_site_fract_z
 _atom_site_occupancy
  Tb  Tb0  1  0.246095  0.000003  0.250000  1
  Tb  Tb1  1  0.000003  0.246095  0.250000  1
  Tb  Tb2  1  0.246138  0.246138  0.750000  1
  Tb  Tb3  1  0.753940  0.999980  0.750000  1
  Tb  Tb4  1  0.999980  0.753940  0.750000  1
  Y  Y5  1  0.666660  0.333300  0.500160  1
  Y  Y6  1  0.333300  0.666660  0.500160  1
  Y  Y7  1  0.333300  0.666660  0.999840  1
  Y  Y8  1  0.666660  0.333300  0.999840  1
  Y  Y9  1  0.753884  0.753884  0.250000  1
  Bi  Bi10  1  0.397041  0.397041  0.250000  1
  Bi  Bi11  1  0.603144  0.999849  0.250000  1
  Bi  Bi12  1  0.999849  0.603144  0.250000  1
  Bi  Bi13  1  0.603187  0.603187  0.750000  1
  Bi  Bi14  1  0.396801  0.000051  0.750000  1
  Bi  Bi15  1  0.000051  0.396801  0.750000  1
  S  S16  1  0.999983  0.999983  0.499952  1
  S  S17  1  0.999983  0.999983  0.000048  1
