# generated using pymatgen
data_Tm10Zn3Ni
_symmetry_space_group_name_H-M   'P 1'
_cell_length_a   9.28518000
_cell_length_b   9.28517971
_cell_length_c   9.34668200
_cell_angle_alpha   90.00000000
_cell_angle_beta   90.00000000
_cell_angle_gamma   119.99999391
_symmetry_Int_Tables_number   1
_chemical_formula_structural   Tm10Zn3Ni
_chemical_formula_sum   'Tm20 Zn6 Ni2'
_cell_volume   697.86073949
_cell_formula_units_Z   2
loop_
 _symmetry_equiv_pos_site_id
 _symmetry_equiv_pos_as_xyz
  1  'x, y, z'
loop_
 _atom_site_type_symbol
 _atom_site_label
 _atom_site_symmetry_multiplicity
 _atom_site_fract_x
 _atom_site_fract_y
 _atom_site_fract_z
 _atom_site_occupancy
  Tm  Tm0  1  0.000000  0.000000  0.500000  1
  Tm  Tm1  1  0.000000  0.000000  0.000000  1
  Tm  Tm2  1  0.543496  0.456504  0.250000  1
  Tm  Tm3  1  0.543496  0.086992  0.250000  1
  Tm  Tm4  1  0.913008  0.456504  0.250000  1
  Tm  Tm5  1  0.456504  0.543496  0.750000  1
  Tm  Tm6  1  0.456504  0.913008  0.750000  1
  Tm  Tm7  1  0.086992  0.543496  0.750000  1
  Tm  Tm8  1  0.208141  0.791859  0.438100  1
  Tm  Tm9  1  0.208141  0.416284  0.438100  1
  Tm  Tm10  1  0.583716  0.791859  0.438100  1
  Tm  Tm11  1  0.791859  0.208141  0.561900  1
  Tm  Tm12  1  0.791859  0.583716  0.561900  1
  Tm  Tm13  1  0.416284  0.208141  0.561900  1
  Tm  Tm14  1  0.791859  0.208141  0.938100  1
  Tm  Tm15  1  0.791859  0.583716  0.938100  1
  Tm  Tm16  1  0.416284  0.208141  0.938100  1
  Tm  Tm17  1  0.208141  0.791859  0.061900  1
  Tm  Tm18  1  0.208141  0.416284  0.061900  1
  Tm  Tm19  1  0.583716  0.791859  0.061900  1
  Zn  Zn20  1  0.884518  0.115482  0.250000  1
  Zn  Zn21  1  0.884518  0.769035  0.250000  1
  Zn  Zn22  1  0.230965  0.115482  0.250000  1
  Zn  Zn23  1  0.115482  0.884518  0.750000  1
  Zn  Zn24  1  0.115482  0.230965  0.750000  1
  Zn  Zn25  1  0.769035  0.884518  0.750000  1
  Ni  Ni26  1  0.333333  0.666667  0.250000  1
  Ni  Ni27  1  0.666667  0.333333  0.750000  1
