# generated using pymatgen
data_NiRu5W2
_symmetry_space_group_name_H-M   'P 1'
_cell_length_a   5.49065700
_cell_length_b   5.46359257
_cell_length_c   4.33942200
_cell_angle_alpha   90.00000000
_cell_angle_beta   90.00000000
_cell_angle_gamma   120.16400543
_symmetry_Int_Tables_number   1
_chemical_formula_structural   NiRu5W2
_chemical_formula_sum   'Ni1 Ru5 W2'
_cell_volume   112.54988002
_cell_formula_units_Z   1
loop_
 _symmetry_equiv_pos_site_id
 _symmetry_equiv_pos_as_xyz
  1  'x, y, z'
loop_
 _atom_site_type_symbol
 _atom_site_label
 _atom_site_symmetry_multiplicity
 _atom_site_fract_x
 _atom_site_fract_y
 _atom_site_fract_z
 _atom_site_occupancy
  Ni  Ni0  1  0.165144  0.330289  0.250000  1
  Ru  Ru1  1  0.664525  0.834546  0.250000  1
  Ru  Ru2  1  0.170022  0.834546  0.250000  1
  Ru  Ru3  1  0.834195  0.668391  0.750000  1
  Ru  Ru4  1  0.327048  0.170263  0.750000  1
  Ru  Ru5  1  0.843215  0.170263  0.750000  1
  W  W6  1  0.330841  0.661682  0.750000  1
  W  W7  1  0.665010  0.330019  0.250000  1
