# generated using pymatgen
data_Pr(Nd3In2)3
_symmetry_space_group_name_H-M   'P 1'
_cell_length_a   6.18313625
_cell_length_b   9.49678825
_cell_length_c   9.49678852
_cell_angle_alpha   83.91664337
_cell_angle_beta   71.00180931
_cell_angle_gamma   71.00180315
_symmetry_Int_Tables_number   1
_chemical_formula_structural   Pr(Nd3In2)3
_chemical_formula_sum   'Pr1 Nd9 In6'
_cell_volume   498.55364635
_cell_formula_units_Z   1
loop_
 _symmetry_equiv_pos_site_id
 _symmetry_equiv_pos_as_xyz
  1  'x, y, z'
loop_
 _atom_site_type_symbol
 _atom_site_label
 _atom_site_symmetry_multiplicity
 _atom_site_fract_x
 _atom_site_fract_y
 _atom_site_fract_z
 _atom_site_occupancy
  Pr  Pr0  1  0.250000  0.500000  0.500000  1
  Nd  Nd1  1  0.719440  0.864845  0.696185  1
  Nd  Nd2  1  0.280470  0.135155  0.303815  1
  Nd  Nd3  1  0.780560  0.303815  0.135155  1
  Nd  Nd4  1  0.219530  0.696185  0.864845  1
  Nd  Nd5  1  0.584376  0.696185  0.135155  1
  Nd  Nd6  1  0.415714  0.303815  0.864845  1
  Nd  Nd7  1  0.084286  0.135155  0.696185  1
  Nd  Nd8  1  0.915624  0.864845  0.303815  1
  Nd  Nd9  1  0.750000  0.500000  0.500000  1
  In  In10  1  0.161446  0.500000  0.176841  1
  In  In11  1  0.838285  0.500000  0.823159  1
  In  In12  1  0.338554  0.823159  0.500000  1
  In  In13  1  0.661715  0.176841  0.500000  1
  In  In14  1  0.250000  0.000000  0.000000  1
  In  In15  1  0.750000  0.000000  0.000000  1
