# generated using pymatgen
data_Tb5HoEr14(CoSb2)4
_symmetry_space_group_name_H-M   'P 1'
_cell_length_a   7.85356551
_cell_length_b   8.73077968
_cell_length_c   12.10253726
_cell_angle_alpha   90.04088683
_cell_angle_beta   89.98094597
_cell_angle_gamma   90.02213941
_symmetry_Int_Tables_number   1
_chemical_formula_structural   Tb5HoEr14(CoSb2)4
_chemical_formula_sum   'Tb5 Ho1 Er14 Co4 Sb8'
_cell_volume   829.84343194
_cell_formula_units_Z   1
loop_
 _symmetry_equiv_pos_site_id
 _symmetry_equiv_pos_as_xyz
  1  'x, y, z'
loop_
 _atom_site_type_symbol
 _atom_site_label
 _atom_site_symmetry_multiplicity
 _atom_site_fract_x
 _atom_site_fract_y
 _atom_site_fract_z
 _atom_site_occupancy
  Tb  Tb0  1  0.622236  0.750395  0.306050  1
  Tb  Tb1  1  0.121829  0.250078  0.193551  1
  Tb  Tb2  1  0.378731  0.249501  0.693987  1
  Tb  Tb3  1  0.878303  0.750083  0.806303  1
  Tb  Tb4  1  0.320471  0.464396  0.435012  1
  Ho  Ho5  1  0.821905  0.535760  0.065024  1
  Er  Er6  1  0.154896  0.750129  0.202819  1
  Er  Er7  1  0.655182  0.249681  0.296941  1
  Er  Er8  1  0.845135  0.249957  0.796972  1
  Er  Er9  1  0.345125  0.750196  0.703118  1
  Er  Er10  1  0.452369  0.750107  0.997906  1
  Er  Er11  1  0.951678  0.249692  0.502092  1
  Er  Er12  1  0.547475  0.249842  0.001994  1
  Er  Er13  1  0.046595  0.750458  0.498026  1
  Er  Er14  1  0.822525  0.964190  0.064995  1
  Er  Er15  1  0.322557  0.035618  0.435085  1
  Er  Er16  1  0.177664  0.464047  0.934903  1
  Er  Er17  1  0.677920  0.536152  0.565270  1
  Er  Er18  1  0.177510  0.035914  0.934895  1
  Er  Er19  1  0.677507  0.963691  0.565236  1
  Co  Co20  1  0.433617  0.750468  0.490790  1
  Co  Co21  1  0.933188  0.249850  0.009137  1
  Co  Co22  1  0.568542  0.249222  0.509621  1
  Co  Co23  1  0.067213  0.750200  0.990721  1
  Sb  Sb24  1  0.929144  0.991597  0.327639  1
  Sb  Sb25  1  0.428943  0.008498  0.172259  1
  Sb  Sb26  1  0.071297  0.491547  0.672247  1
  Sb  Sb27  1  0.571081  0.508516  0.827745  1
  Sb  Sb28  1  0.071094  0.008498  0.672268  1
  Sb  Sb29  1  0.571197  0.991466  0.827888  1
  Sb  Sb30  1  0.928001  0.508662  0.327539  1
  Sb  Sb31  1  0.429067  0.491587  0.171964  1
