# generated using pymatgen
data_DyEr3Cr4F28
_symmetry_space_group_name_H-M   'P 1'
_cell_length_a   5.47071722
_cell_length_b   8.69639448
_cell_length_c   11.62384326
_cell_angle_alpha   63.22335341
_cell_angle_beta   90.02797763
_cell_angle_gamma   89.99710368
_symmetry_Int_Tables_number   1
_chemical_formula_structural   DyEr3Cr4F28
_chemical_formula_sum   'Dy1 Er3 Cr4 F28'
_cell_volume   493.71068506
_cell_formula_units_Z   1
loop_
 _symmetry_equiv_pos_site_id
 _symmetry_equiv_pos_as_xyz
  1  'x, y, z'
loop_
 _atom_site_type_symbol
 _atom_site_label
 _atom_site_symmetry_multiplicity
 _atom_site_fract_x
 _atom_site_fract_y
 _atom_site_fract_z
 _atom_site_occupancy
  Dy  Dy0  1  0.734021  0.809905  0.265990  1
  Er  Er1  1  0.766628  0.810013  0.765808  1
  Er  Er2  1  0.266634  0.190307  0.734147  1
  Er  Er3  1  0.233242  0.191754  0.233821  1
  Cr  Cr4  1  0.758118  0.274384  0.955581  1
  Cr  Cr5  1  0.257905  0.726090  0.544890  1
  Cr  Cr6  1  0.242527  0.726338  0.042821  1
  Cr  Cr7  1  0.742060  0.272662  0.456652  1
  F  F8  1  0.433932  0.705376  0.921233  1
  F  F9  1  0.934210  0.293870  0.578062  1
  F  F10  1  0.566284  0.294681  0.077415  1
  F  F11  1  0.067002  0.705236  0.422814  1
  F  F12  1  0.451238  0.278836  0.544838  1
  F  F13  1  0.950788  0.720651  0.955131  1
  F  F14  1  0.548516  0.719762  0.457275  1
  F  F15  1  0.048931  0.279799  0.044136  1
  F  F16  1  0.770743  0.510796  0.861840  1
  F  F17  1  0.270082  0.489329  0.638502  1
  F  F18  1  0.229186  0.489560  0.137186  1
  F  F19  1  0.728705  0.508960  0.362601  1
  F  F20  1  0.755325  0.039247  0.045401  1
  F  F21  1  0.255163  0.960969  0.454581  1
  F  F22  1  0.244841  0.961346  0.953533  1
  F  F23  1  0.744746  0.037766  0.546293  1
  F  F24  1  0.974812  0.727989  0.638344  1
  F  F25  1  0.475384  0.272131  0.861796  1
  F  F26  1  0.024878  0.271946  0.362498  1
  F  F27  1  0.525319  0.727319  0.136415  1
  F  F28  1  0.053690  0.744926  0.169301  1
  F  F29  1  0.551019  0.253835  0.330493  1
  F  F30  1  0.949111  0.254615  0.829972  1
  F  F31  1  0.448555  0.745478  0.670672  1
  F  F32  1  0.410793  0.975550  0.227627  1
  F  F33  1  0.914016  0.028403  0.272311  1
  F  F34  1  0.585778  0.025550  0.772014  1
  F  F35  1  0.085816  0.974622  0.728005  1
