# generated using pymatgen
data_Th4Pd3Pt8Rh
_symmetry_space_group_name_H-M   'P 1'
_cell_length_a   5.99869353
_cell_length_b   5.95792276
_cell_length_c   9.79026310
_cell_angle_alpha   89.93271545
_cell_angle_beta   89.27529308
_cell_angle_gamma   120.26090032
_symmetry_Int_Tables_number   1
_chemical_formula_structural   Th4Pd3Pt8Rh
_chemical_formula_sum   'Th4 Pd3 Pt8 Rh1'
_cell_volume   302.18815274
_cell_formula_units_Z   1
loop_
 _symmetry_equiv_pos_site_id
 _symmetry_equiv_pos_as_xyz
  1  'x, y, z'
loop_
 _atom_site_type_symbol
 _atom_site_label
 _atom_site_symmetry_multiplicity
 _atom_site_fract_x
 _atom_site_fract_y
 _atom_site_fract_z
 _atom_site_occupancy
  Th  Th0  1  0.999921  0.999998  0.499904  1
  Th  Th1  1  0.000009  0.000050  0.000014  1
  Th  Th2  1  0.326115  0.663657  0.254843  1
  Th  Th3  1  0.674648  0.336255  0.744927  1
  Pd  Pd4  1  0.499770  0.499972  0.500612  1
  Pd  Pd5  1  0.500031  0.500075  0.999405  1
  Pd  Pd6  1  0.178570  0.826505  0.750507  1
  Pt  Pt7  1  0.499939  0.999948  0.500427  1
  Pt  Pt8  1  0.500048  0.000076  0.999574  1
  Pt  Pt9  1  0.000009  0.499939  0.999617  1
  Pt  Pt10  1  0.821753  0.649652  0.249969  1
  Pt  Pt11  1  0.350257  0.176003  0.248762  1
  Pt  Pt12  1  0.821895  0.173384  0.249959  1
  Pt  Pt13  1  0.178387  0.351327  0.750026  1
  Pt  Pt14  1  0.648949  0.823628  0.751095  1
  Rh  Rh15  1  0.999699  0.499529  0.500359  1
