# generated using pymatgen
data_Dy8Mg2Sc9Si16Tc
_symmetry_space_group_name_H-M   'P 1'
_cell_length_a   6.97411909
_cell_length_b   7.35890275
_cell_length_c   13.90863100
_cell_angle_alpha   90.00000000
_cell_angle_beta   90.00000000
_cell_angle_gamma   90.11040996
_symmetry_Int_Tables_number   1
_chemical_formula_structural   Dy8Mg2Sc9Si16Tc
_chemical_formula_sum   'Dy8 Mg2 Sc9 Si16 Tc1'
_cell_volume   713.81554543
_cell_formula_units_Z   1
loop_
 _symmetry_equiv_pos_site_id
 _symmetry_equiv_pos_as_xyz
  1  'x, y, z'
loop_
 _atom_site_type_symbol
 _atom_site_label
 _atom_site_symmetry_multiplicity
 _atom_site_fract_x
 _atom_site_fract_y
 _atom_site_fract_z
 _atom_site_occupancy
  Dy  Dy0  1  0.010656  0.180879  0.094148  1
  Dy  Dy1  1  0.990080  0.820681  0.900447  1
  Dy  Dy2  1  0.489137  0.676961  0.901274  1
  Dy  Dy3  1  0.990080  0.820681  0.599553  1
  Dy  Dy4  1  0.513749  0.326269  0.095235  1
  Dy  Dy5  1  0.010656  0.180879  0.405852  1
  Dy  Dy6  1  0.513749  0.326269  0.404765  1
  Dy  Dy7  1  0.489137  0.676961  0.598726  1
  Mg  Mg8  1  0.842513  0.493650  0.250000  1
  Mg  Mg9  1  0.659027  0.992389  0.750000  1
  Sc  Sc10  1  0.342624  0.002212  0.250000  1
  Sc  Sc11  1  0.331208  0.177123  0.626500  1
  Sc  Sc12  1  0.674753  0.819483  0.374999  1
  Sc  Sc13  1  0.168389  0.672674  0.376764  1
  Sc  Sc14  1  0.674753  0.819483  0.125001  1
  Sc  Sc15  1  0.823570  0.324312  0.628022  1
  Sc  Sc16  1  0.331208  0.177123  0.873500  1
  Sc  Sc17  1  0.823570  0.324312  0.871978  1
  Sc  Sc18  1  0.168389  0.672674  0.123236  1
  Si  Si19  1  0.038646  0.123919  0.750000  1
  Si  Si20  1  0.973752  0.895456  0.250000  1
  Si  Si21  1  0.463848  0.615798  0.250000  1
  Si  Si22  1  0.515761  0.404189  0.750000  1
  Si  Si23  1  0.275254  0.863878  0.750000  1
  Si  Si24  1  0.713308  0.118905  0.250000  1
  Si  Si25  1  0.223012  0.372192  0.250000  1
  Si  Si26  1  0.796161  0.618489  0.750000  1
  Si  Si27  1  0.155603  0.466295  0.548549  1
  Si  Si28  1  0.841724  0.537894  0.467986  1
  Si  Si29  1  0.343537  0.965149  0.462615  1
  Si  Si30  1  0.841724  0.537894  0.032014  1
  Si  Si31  1  0.659882  0.035951  0.535312  1
  Si  Si32  1  0.155603  0.466295  0.951451  1
  Si  Si33  1  0.659882  0.035951  0.964688  1
  Si  Si34  1  0.343537  0.965149  0.037385  1
  Tc  Tc35  1  0.151520  0.491577  0.750000  1
