# generated using pymatgen
data_Pr3NdAl15(SiIr2)3
_symmetry_space_group_name_H-M   'P 1'
_cell_length_a   7.57903442
_cell_length_b   7.55532620
_cell_length_c   9.55979302
_cell_angle_alpha   89.98119071
_cell_angle_beta   89.94836568
_cell_angle_gamma   119.71013023
_symmetry_Int_Tables_number   1
_chemical_formula_structural   Pr3NdAl15(SiIr2)3
_chemical_formula_sum   'Pr3 Nd1 Al15 Si3 Ir6'
_cell_volume   475.45236748
_cell_formula_units_Z   1
loop_
 _symmetry_equiv_pos_site_id
 _symmetry_equiv_pos_as_xyz
  1  'x, y, z'
loop_
 _atom_site_type_symbol
 _atom_site_label
 _atom_site_symmetry_multiplicity
 _atom_site_fract_x
 _atom_site_fract_y
 _atom_site_fract_z
 _atom_site_occupancy
  Pr  Pr0  1  0.995014  0.665381  0.247873  1
  Pr  Pr1  1  0.005082  0.338651  0.752682  1
  Pr  Pr2  1  0.672822  0.999087  0.248186  1
  Nd  Nd3  1  0.323017  0.995514  0.750043  1
  Al  Al4  1  0.131564  0.129043  0.250162  1
  Al  Al5  1  0.868853  0.869035  0.749549  1
  Al  Al6  1  0.339124  0.005653  0.426488  1
  Al  Al7  1  0.002904  0.329564  0.431452  1
  Al  Al8  1  0.665454  0.999566  0.573132  1
  Al  Al9  1  0.661537  0.995311  0.924524  1
  Al  Al10  1  0.338911  0.005788  0.074243  1
  Al  Al11  1  0.334646  0.333208  0.552414  1
  Al  Al12  1  0.662273  0.666137  0.448548  1
  Al  Al13  1  0.661766  0.665557  0.052925  1
  Al  Al14  1  0.337474  0.333682  0.947309  1
  Al  Al15  1  0.338723  0.546454  0.250394  1
  Al  Al16  1  0.659894  0.453350  0.750540  1
  Al  Al17  1  0.546380  0.342606  0.250292  1
  Al  Al18  1  0.456138  0.658958  0.749772  1
  Si  Si19  1  0.004046  0.328379  0.071997  1
  Si  Si20  1  0.996069  0.671804  0.932512  1
  Si  Si21  1  0.997322  0.666491  0.563466  1
  Ir  Ir22  1  0.687885  0.338196  0.000988  1
  Ir  Ir23  1  0.312185  0.662311  0.998203  1
  Ir  Ir24  1  0.320307  0.669809  0.502087  1
  Ir  Ir25  1  0.679566  0.337795  0.500482  1
  Ir  Ir26  1  0.000372  0.999939  0.999320  1
  Ir  Ir27  1  0.000670  0.992733  0.500413  1
