# generated using pymatgen
data_Pr4Th(TcB3)2
_symmetry_space_group_name_H-M   'P 1'
_cell_length_a   8.73046571
_cell_length_b   8.73046548
_cell_length_c   8.73046620
_cell_angle_alpha   37.68671033
_cell_angle_beta   37.68671500
_cell_angle_gamma   37.68671200
_symmetry_Int_Tables_number   1
_chemical_formula_structural   Pr4Th(TcB3)2
_chemical_formula_sum   'Pr4 Th1 Tc2 B6'
_cell_volume   223.11988649
_cell_formula_units_Z   1
loop_
 _symmetry_equiv_pos_site_id
 _symmetry_equiv_pos_as_xyz
  1  'x, y, z'
loop_
 _atom_site_type_symbol
 _atom_site_label
 _atom_site_symmetry_multiplicity
 _atom_site_fract_x
 _atom_site_fract_y
 _atom_site_fract_z
 _atom_site_occupancy
  Pr  Pr0  1  0.583380  0.583380  0.583380  1
  Pr  Pr1  1  0.416620  0.416620  0.416620  1
  Pr  Pr2  1  0.749381  0.749381  0.749381  1
  Pr  Pr3  1  0.250619  0.250619  0.250619  1
  Th  Th4  1  0.000000  0.000000  0.000000  1
  Tc  Tc5  1  0.887504  0.887504  0.887504  1
  Tc  Tc6  1  0.112496  0.112496  0.112496  1
  B  B7  1  0.500000  0.831785  0.168215  1
  B  B8  1  0.168215  0.500000  0.831785  1
  B  B9  1  0.831785  0.168215  0.500000  1
  B  B10  1  0.500000  0.168215  0.831785  1
  B  B11  1  0.831785  0.500000  0.168215  1
  B  B12  1  0.168215  0.831785  0.500000  1
