# generated using pymatgen
data_Ce2SmTm(AlRu)4
_symmetry_space_group_name_H-M   'P 1'
_cell_length_a   4.00037700
_cell_length_b   7.23948216
_cell_length_c   16.01501906
_cell_angle_alpha   91.15464499
_cell_angle_beta   90.00000000
_cell_angle_gamma   90.00000000
_symmetry_Int_Tables_number   1
_chemical_formula_structural   Ce2SmTm(AlRu)4
_chemical_formula_sum   'Ce4 Sm2 Tm2 Al8 Ru8'
_cell_volume   463.71131175
_cell_formula_units_Z   2
loop_
 _symmetry_equiv_pos_site_id
 _symmetry_equiv_pos_as_xyz
  1  'x, y, z'
loop_
 _atom_site_type_symbol
 _atom_site_label
 _atom_site_symmetry_multiplicity
 _atom_site_fract_x
 _atom_site_fract_y
 _atom_site_fract_z
 _atom_site_occupancy
  Ce  Ce0  1  0.750000  0.828133  0.437564  1
  Ce  Ce1  1  0.750000  0.457089  0.281848  1
  Ce  Ce2  1  0.750000  0.328542  0.063392  1
  Ce  Ce3  1  0.250000  0.539790  0.718664  1
  Sm  Sm4  1  0.250000  0.664916  0.938895  1
  Sm  Sm5  1  0.250000  0.041083  0.779831  1
  Tm  Tm6  1  0.750000  0.961307  0.219652  1
  Tm  Tm7  1  0.250000  0.163756  0.560891  1
  Al  Al8  1  0.750000  0.498663  0.560762  1
  Al  Al9  1  0.750000  0.363922  0.852508  1
  Al  Al10  1  0.750000  0.993113  0.936693  1
  Al  Al11  1  0.750000  0.874996  0.647603  1
  Al  Al12  1  0.250000  0.487934  0.437739  1
  Al  Al13  1  0.250000  0.993804  0.068080  1
  Al  Al14  1  0.250000  0.641445  0.155341  1
  Al  Al15  1  0.250000  0.125834  0.345458  1
  Ru  Ru16  1  0.750000  0.730213  0.804510  1
  Ru  Ru17  1  0.250000  0.233179  0.942333  1
  Ru  Ru18  1  0.750000  0.263631  0.428515  1
  Ru  Ru19  1  0.250000  0.752274  0.323661  1
  Ru  Ru20  1  0.750000  0.767106  0.069961  1
  Ru  Ru21  1  0.750000  0.271386  0.684338  1
  Ru  Ru22  1  0.250000  0.270881  0.182092  1
  Ru  Ru23  1  0.250000  0.747001  0.559673  1
