# generated using pymatgen
data_Ho5Co15(P3Os)4
_symmetry_space_group_name_H-M   'P 1'
_cell_length_a   12.06082969
_cell_length_b   12.04207985
_cell_length_c   3.74063800
_cell_angle_alpha   90.00000000
_cell_angle_beta   90.00000000
_cell_angle_gamma   119.91366509
_symmetry_Int_Tables_number   1
_chemical_formula_structural   Ho5Co15(P3Os)4
_chemical_formula_sum   'Ho5 Co15 P12 Os4'
_cell_volume   470.90376828
_cell_formula_units_Z   1
loop_
 _symmetry_equiv_pos_site_id
 _symmetry_equiv_pos_as_xyz
  1  'x, y, z'
loop_
 _atom_site_type_symbol
 _atom_site_label
 _atom_site_symmetry_multiplicity
 _atom_site_fract_x
 _atom_site_fract_y
 _atom_site_fract_z
 _atom_site_occupancy
  Ho  Ho0  1  0.661241  0.332452  0.000000  1
  Ho  Ho1  1  0.333543  0.666992  0.000000  1
  Ho  Ho2  1  0.815158  0.814360  0.500000  1
  Ho  Ho3  1  0.184181  0.000424  0.500000  1
  Ho  Ho4  1  0.000724  0.181765  0.500000  1
  Co  Co5  1  0.638853  0.515562  0.500000  1
  Co  Co6  1  0.481428  0.123457  0.500000  1
  Co  Co7  1  0.359112  0.873953  0.500000  1
  Co  Co8  1  0.515290  0.641536  0.500000  1
  Co  Co9  1  0.131174  0.488238  0.500000  1
  Co  Co10  1  0.801806  0.172852  0.000000  1
  Co  Co11  1  0.820730  0.624058  0.000000  1
  Co  Co12  1  0.375467  0.196749  0.000000  1
  Co  Co13  1  0.181956  0.806668  0.000000  1
  Co  Co14  1  0.623651  0.819881  0.000000  1
  Co  Co15  1  0.196668  0.376126  0.000000  1
  Co  Co16  1  0.283069  0.284030  0.500000  1
  Co  Co17  1  0.715968  0.998582  0.500000  1
  Co  Co18  1  0.001529  0.717811  0.500000  1
  Co  Co19  1  0.000608  0.000528  0.000000  1
  P  P20  1  0.680990  0.160441  0.500000  1
  P  P21  1  0.831154  0.524918  0.500000  1
  P  P22  1  0.477223  0.311876  0.500000  1
  P  P23  1  0.167828  0.689775  0.500000  1
  P  P24  1  0.520897  0.832985  0.500000  1
  P  P25  1  0.314136  0.479416  0.500000  1
  P  P26  1  0.179537  0.179241  0.000000  1
  P  P27  1  0.820810  0.997460  0.000000  1
  P  P28  1  0.000058  0.821257  0.000000  1
  P  P29  1  0.637600  0.637691  0.000000  1
  P  P30  1  0.361666  0.000821  0.000000  1
  P  P31  1  0.003969  0.364045  0.000000  1
  Os  Os32  1  0.873851  0.357268  0.500000  1
  Os  Os33  1  0.445970  0.447281  0.000000  1
  Os  Os34  1  0.552261  0.999576  0.000000  1
  Os  Os35  1  0.009895  0.559924  0.000000  1
