# generated using pymatgen
data_Ca3NdCd3Au10
_symmetry_space_group_name_H-M   'P 1'
_cell_length_a   8.76185907
_cell_length_b   8.76185879
_cell_length_c   10.40456300
_cell_angle_alpha   89.99283301
_cell_angle_beta   89.99283301
_cell_angle_gamma   108.43935217
_symmetry_Int_Tables_number   1
_chemical_formula_structural   Ca3NdCd3Au10
_chemical_formula_sum   'Ca6 Nd2 Cd6 Au20'
_cell_volume   757.75092427
_cell_formula_units_Z   2
loop_
 _symmetry_equiv_pos_site_id
 _symmetry_equiv_pos_as_xyz
  1  'x, y, z'
loop_
 _atom_site_type_symbol
 _atom_site_label
 _atom_site_symmetry_multiplicity
 _atom_site_fract_x
 _atom_site_fract_y
 _atom_site_fract_z
 _atom_site_occupancy
  Ca  Ca0  1  0.801262  0.198738  0.500000  1
  Ca  Ca1  1  0.198738  0.801262  0.500000  1
  Ca  Ca2  1  0.301449  0.301449  0.201684  1
  Ca  Ca3  1  0.698551  0.698551  0.798316  1
  Ca  Ca4  1  0.198896  0.198896  0.701002  1
  Ca  Ca5  1  0.801104  0.801104  0.298998  1
  Nd  Nd6  1  0.700656  0.299344  0.000000  1
  Nd  Nd7  1  0.299344  0.700656  0.000000  1
  Cd  Cd8  1  0.018897  0.518475  0.251587  1
  Cd  Cd9  1  0.981103  0.481525  0.748413  1
  Cd  Cd10  1  0.481525  0.981103  0.748413  1
  Cd  Cd11  1  0.518475  0.018897  0.251587  1
  Cd  Cd12  1  0.000000  0.000000  0.000000  1
  Cd  Cd13  1  0.500000  0.500000  0.500000  1
  Au  Au14  1  0.096021  0.096021  0.402699  1
  Au  Au15  1  0.903979  0.903979  0.597301  1
  Au  Au16  1  0.402263  0.402263  0.903032  1
  Au  Au17  1  0.597737  0.597737  0.096968  1
  Au  Au18  1  0.884363  0.164585  0.208435  1
  Au  Au19  1  0.115637  0.835415  0.791565  1
  Au  Au20  1  0.619742  0.335394  0.708186  1
  Au  Au21  1  0.664606  0.380258  0.291814  1
  Au  Au22  1  0.380258  0.664606  0.291814  1
  Au  Au23  1  0.335394  0.619742  0.708186  1
  Au  Au24  1  0.835415  0.115637  0.791565  1
  Au  Au25  1  0.164585  0.884363  0.208435  1
  Au  Au26  1  0.929617  0.652632  0.017365  1
  Au  Au27  1  0.070383  0.347368  0.982635  1
  Au  Au28  1  0.567200  0.846913  0.515224  1
  Au  Au29  1  0.153087  0.432800  0.484776  1
  Au  Au30  1  0.432800  0.153087  0.484776  1
  Au  Au31  1  0.846913  0.567200  0.515224  1
  Au  Au32  1  0.347368  0.070383  0.982635  1
  Au  Au33  1  0.652632  0.929617  0.017365  1
