# generated using pymatgen
data_Tb2YbY5(ReC2)4
_symmetry_space_group_name_H-M   'P 1'
_cell_length_a   5.13577700
_cell_length_b   6.58480994
_cell_length_c   9.95840207
_cell_angle_alpha   89.36899048
_cell_angle_beta   90.00000000
_cell_angle_gamma   90.00000000
_symmetry_Int_Tables_number   1
_chemical_formula_structural   Tb2YbY5(ReC2)4
_chemical_formula_sum   'Tb2 Yb1 Y5 Re4 C8'
_cell_volume   336.75396705
_cell_formula_units_Z   1
loop_
 _symmetry_equiv_pos_site_id
 _symmetry_equiv_pos_as_xyz
  1  'x, y, z'
loop_
 _atom_site_type_symbol
 _atom_site_label
 _atom_site_symmetry_multiplicity
 _atom_site_fract_x
 _atom_site_fract_y
 _atom_site_fract_z
 _atom_site_occupancy
  Tb  Tb0  1  0.250000  0.685076  0.554023  1
  Tb  Tb1  1  0.250000  0.180699  0.945890  1
  Yb  Yb2  1  0.250000  0.032897  0.280444  1
  Y  Y3  1  0.750000  0.314935  0.444021  1
  Y  Y4  1  0.750000  0.817325  0.056125  1
  Y  Y5  1  0.250000  0.531308  0.220221  1
  Y  Y6  1  0.750000  0.467598  0.781386  1
  Y  Y7  1  0.750000  0.967091  0.718538  1
  Re  Re8  1  0.250000  0.721616  0.862661  1
  Re  Re9  1  0.750000  0.277933  0.135879  1
  Re  Re10  1  0.750000  0.776716  0.363909  1
  Re  Re11  1  0.250000  0.225584  0.636349  1
  C  C12  1  0.250000  0.456118  0.759865  1
  C  C13  1  0.750000  0.544332  0.240783  1
  C  C14  1  0.750000  0.043628  0.259172  1
  C  C15  1  0.250000  0.957495  0.739559  1
  C  C16  1  0.250000  0.812712  0.044282  1
  C  C17  1  0.750000  0.178418  0.953783  1
  C  C18  1  0.750000  0.683596  0.548274  1
  C  C19  1  0.250000  0.324920  0.454838  1
