# generated using pymatgen
data_Ba10InSi4Ge
_symmetry_space_group_name_H-M   'P 1'
_cell_length_a   8.56229500
_cell_length_b   10.51998145
_cell_length_c   8.56229500
_cell_angle_alpha   114.01362976
_cell_angle_beta   90.00000000
_cell_angle_gamma   114.01362976
_symmetry_Int_Tables_number   1
_chemical_formula_structural   Ba10InSi4Ge
_chemical_formula_sum   'Ba10 In1 Si4 Ge1'
_cell_volume   630.71912578
_cell_formula_units_Z   1
loop_
 _symmetry_equiv_pos_site_id
 _symmetry_equiv_pos_as_xyz
  1  'x, y, z'
loop_
 _atom_site_type_symbol
 _atom_site_label
 _atom_site_symmetry_multiplicity
 _atom_site_fract_x
 _atom_site_fract_y
 _atom_site_fract_z
 _atom_site_occupancy
  Ba  Ba0  1  0.975917  0.951833  0.975917  1
  Ba  Ba1  1  0.524083  0.048167  0.524083  1
  Ba  Ba2  1  0.525597  0.722452  0.669017  1
  Ba  Ba3  1  0.196857  0.722452  0.053436  1
  Ba  Ba4  1  0.669017  0.722452  0.196857  1
  Ba  Ba5  1  0.053436  0.722452  0.525597  1
  Ba  Ba6  1  0.446564  0.277548  0.303143  1
  Ba  Ba7  1  0.830983  0.277548  0.974403  1
  Ba  Ba8  1  0.303143  0.277548  0.830983  1
  Ba  Ba9  1  0.974403  0.277548  0.446564  1
  In  In10  1  0.750000  0.500000  0.750000  1
  Si  Si11  1  0.899212  0.000000  0.600788  1
  Si  Si12  1  0.100788  0.000000  0.399212  1
  Si  Si13  1  0.600788  0.000000  0.100788  1
  Si  Si14  1  0.399212  0.000000  0.899212  1
  Ge  Ge15  1  0.250000  0.500000  0.250000  1
