# generated using pymatgen
data_Ce2CdGe2
_symmetry_space_group_name_H-M   'P 1'
_cell_length_a   7.52948981
_cell_length_b   7.52948981
_cell_length_c   4.30651800
_cell_angle_alpha   90.00000000
_cell_angle_beta   90.00000000
_cell_angle_gamma   89.78862272
_symmetry_Int_Tables_number   1
_chemical_formula_structural   Ce2CdGe2
_chemical_formula_sum   'Ce4 Cd2 Ge4'
_cell_volume   244.14869713
_cell_formula_units_Z   2
loop_
 _symmetry_equiv_pos_site_id
 _symmetry_equiv_pos_as_xyz
  1  'x, y, z'
loop_
 _atom_site_type_symbol
 _atom_site_label
 _atom_site_symmetry_multiplicity
 _atom_site_fract_x
 _atom_site_fract_y
 _atom_site_fract_z
 _atom_site_occupancy
  Ce  Ce0  1  0.320313  0.179686  0.500001  1
  Ce  Ce1  1  0.820165  0.320165  0.500001  1
  Ce  Ce2  1  0.179834  0.679834  0.500001  1
  Ce  Ce3  1  0.679686  0.820313  0.500001  1
  Cd  Cd4  1  0.000000  0.000000  0.000000  1
  Cd  Cd5  1  0.500000  0.500000  0.000000  1
  Ge  Ge6  1  0.619271  0.119271  0.000000  1
  Ge  Ge7  1  0.119403  0.380597  0.000000  1
  Ge  Ge8  1  0.880597  0.619403  0.000000  1
  Ge  Ge9  1  0.380729  0.880729  0.000000  1
