# generated using pymatgen
data_TbDy2Sc3FeSb2
_symmetry_space_group_name_H-M   'P 1'
_cell_length_a   7.85977622
_cell_length_b   7.85659141
_cell_length_c   4.14335900
_cell_angle_alpha   90.00000000
_cell_angle_beta   90.00000000
_cell_angle_gamma   119.98660506
_symmetry_Int_Tables_number   1
_chemical_formula_structural   TbDy2Sc3FeSb2
_chemical_formula_sum   'Tb1 Dy2 Sc3 Fe1 Sb2'
_cell_volume   221.60836432
_cell_formula_units_Z   1
loop_
 _symmetry_equiv_pos_site_id
 _symmetry_equiv_pos_as_xyz
  1  'x, y, z'
loop_
 _atom_site_type_symbol
 _atom_site_label
 _atom_site_symmetry_multiplicity
 _atom_site_fract_x
 _atom_site_fract_y
 _atom_site_fract_z
 _atom_site_occupancy
  Tb  Tb0  1  0.000000  0.606454  0.500000  1
  Dy  Dy1  1  0.606811  0.999807  0.500000  1
  Dy  Dy2  1  0.393189  0.392996  0.500000  1
  Sc  Sc3  1  0.225981  0.000567  0.000000  1
  Sc  Sc4  1  0.774019  0.774586  0.000000  1
  Sc  Sc5  1  0.000000  0.225457  0.000000  1
  Fe  Fe6  1  0.000000  0.000896  0.500000  1
  Sb  Sb7  1  0.334368  0.666803  0.000000  1
  Sb  Sb8  1  0.665632  0.332434  0.000000  1
