# generated using pymatgen
data_Hf16Ni4Mo3W
_symmetry_space_group_name_H-M   'P 1'
_cell_length_a   8.69522792
_cell_length_b   8.69522804
_cell_length_c   8.69522817
_cell_angle_alpha   59.98020580
_cell_angle_beta   59.98019669
_cell_angle_gamma   59.98020260
_symmetry_Int_Tables_number   1
_chemical_formula_structural   Hf16Ni4Mo3W
_chemical_formula_sum   'Hf16 Ni4 Mo3 W1'
_cell_volume   464.65746455
_cell_formula_units_Z   1
loop_
 _symmetry_equiv_pos_site_id
 _symmetry_equiv_pos_as_xyz
  1  'x, y, z'
loop_
 _atom_site_type_symbol
 _atom_site_label
 _atom_site_symmetry_multiplicity
 _atom_site_fract_x
 _atom_site_fract_y
 _atom_site_fract_z
 _atom_site_occupancy
  Hf  Hf0  1  0.690413  0.103408  0.103408  1
  Hf  Hf1  1  0.103408  0.690413  0.103408  1
  Hf  Hf2  1  0.103408  0.103408  0.690413  1
  Hf  Hf3  1  0.102832  0.102832  0.102832  1
  Hf  Hf4  1  0.314890  0.314890  0.684839  1
  Hf  Hf5  1  0.685063  0.685063  0.315137  1
  Hf  Hf6  1  0.314890  0.684839  0.314890  1
  Hf  Hf7  1  0.685063  0.315137  0.685063  1
  Hf  Hf8  1  0.684839  0.314890  0.314890  1
  Hf  Hf9  1  0.315137  0.685063  0.685063  1
  Hf  Hf10  1  0.950968  0.950968  0.549109  1
  Hf  Hf11  1  0.548323  0.548323  0.952040  1
  Hf  Hf12  1  0.950968  0.549109  0.950968  1
  Hf  Hf13  1  0.548323  0.952040  0.548323  1
  Hf  Hf14  1  0.549109  0.950968  0.950968  1
  Hf  Hf15  1  0.952040  0.548323  0.548323  1
  Ni  Ni16  1  0.323459  0.892298  0.892298  1
  Ni  Ni17  1  0.892298  0.323459  0.892298  1
  Ni  Ni18  1  0.892298  0.892298  0.323459  1
  Ni  Ni19  1  0.892179  0.892179  0.892179  1
  Mo  Mo20  1  0.999859  0.333534  0.333534  1
  Mo  Mo21  1  0.333534  0.999859  0.333534  1
  Mo  Mo22  1  0.333534  0.333534  0.999859  1
  W  W23  1  0.333164  0.333164  0.333164  1
