# generated using pymatgen
data_Cs4MgCrSe5
_symmetry_space_group_name_H-M   'P 1'
_cell_length_a   8.31644082
_cell_length_b   9.37310494
_cell_length_c   11.50402694
_cell_angle_alpha   75.37870929
_cell_angle_beta   86.39974971
_cell_angle_gamma   80.43904774
_symmetry_Int_Tables_number   1
_chemical_formula_structural   Cs4MgCrSe5
_chemical_formula_sum   'Cs8 Mg2 Cr2 Se10'
_cell_volume   855.45054087
_cell_formula_units_Z   2
loop_
 _symmetry_equiv_pos_site_id
 _symmetry_equiv_pos_as_xyz
  1  'x, y, z'
loop_
 _atom_site_type_symbol
 _atom_site_label
 _atom_site_symmetry_multiplicity
 _atom_site_fract_x
 _atom_site_fract_y
 _atom_site_fract_z
 _atom_site_occupancy
  Cs  Cs0  1  0.434656  0.311828  0.100406  1
  Cs  Cs1  1  0.565344  0.688172  0.899594  1
  Cs  Cs2  1  0.196598  0.079523  0.865587  1
  Cs  Cs3  1  0.063980  0.611565  0.745906  1
  Cs  Cs4  1  0.803402  0.920477  0.134413  1
  Cs  Cs5  1  0.936020  0.388435  0.254094  1
  Cs  Cs6  1  0.568593  0.725056  0.498311  1
  Cs  Cs7  1  0.431407  0.274944  0.501689  1
  Mg  Mg8  1  0.907463  0.086270  0.596825  1
  Mg  Mg9  1  0.092537  0.913730  0.403175  1
  Cr  Cr10  1  0.276898  0.720378  0.211315  1
  Cr  Cr11  1  0.723102  0.279622  0.788685  1
  Se  Se12  1  0.873326  0.365344  0.612336  1
  Se  Se13  1  0.206597  0.955598  0.593244  1
  Se  Se14  1  0.456094  0.400721  0.771993  1
  Se  Se15  1  0.161821  0.680305  0.046253  1
  Se  Se16  1  0.838179  0.319695  0.953747  1
  Se  Se17  1  0.543906  0.599279  0.228007  1
  Se  Se18  1  0.126674  0.634656  0.387664  1
  Se  Se19  1  0.265016  0.976962  0.200577  1
  Se  Se20  1  0.734984  0.023038  0.799423  1
  Se  Se21  1  0.793403  0.044402  0.406756  1
