# generated using pymatgen
data_Tb16Cd4TcPd2Pt
_symmetry_space_group_name_H-M   'P 1'
_cell_length_a   9.76696221
_cell_length_b   9.75104532
_cell_length_c   9.75104587
_cell_angle_alpha   59.38417879
_cell_angle_beta   59.39884412
_cell_angle_gamma   59.39884372
_symmetry_Int_Tables_number   1
_chemical_formula_structural   Tb16Cd4TcPd2Pt
_chemical_formula_sum   'Tb16 Cd4 Tc1 Pd2 Pt1'
_cell_volume   647.61280069
_cell_formula_units_Z   1
loop_
 _symmetry_equiv_pos_site_id
 _symmetry_equiv_pos_as_xyz
  1  'x, y, z'
loop_
 _atom_site_type_symbol
 _atom_site_label
 _atom_site_symmetry_multiplicity
 _atom_site_fract_x
 _atom_site_fract_y
 _atom_site_fract_z
 _atom_site_occupancy
  Tb  Tb0  1  0.353497  0.351867  0.351867  1
  Tb  Tb1  1  0.351295  0.349186  0.948412  1
  Tb  Tb2  1  0.351295  0.948412  0.349186  1
  Tb  Tb3  1  0.946770  0.350170  0.350170  1
  Tb  Tb4  1  0.815082  0.188388  0.188388  1
  Tb  Tb5  1  0.188981  0.809380  0.809380  1
  Tb  Tb6  1  0.188482  0.816377  0.188004  1
  Tb  Tb7  1  0.808257  0.188672  0.810481  1
  Tb  Tb8  1  0.188482  0.188004  0.816377  1
  Tb  Tb9  1  0.808257  0.810481  0.188672  1
  Tb  Tb10  1  0.934525  0.565886  0.565886  1
  Tb  Tb11  1  0.556747  0.937544  0.937544  1
  Tb  Tb12  1  0.565947  0.934820  0.564769  1
  Tb  Tb13  1  0.937226  0.557144  0.937066  1
  Tb  Tb14  1  0.565947  0.564769  0.934820  1
  Tb  Tb15  1  0.937226  0.937066  0.557144  1
  Cd  Cd16  1  0.580025  0.579874  0.579874  1
  Cd  Cd17  1  0.581188  0.580966  0.254043  1
  Cd  Cd18  1  0.581188  0.254043  0.580966  1
  Cd  Cd19  1  0.254153  0.580989  0.580989  1
  Tc  Tc20  1  0.144529  0.144183  0.144183  1
  Pd  Pd21  1  0.144389  0.145245  0.571385  1
  Pd  Pd22  1  0.144389  0.571385  0.145245  1
  Pt  Pt23  1  0.572125  0.145151  0.145151  1
