# generated using pymatgen
data_Ca2PuRu2
_symmetry_space_group_name_H-M   'P 1'
_cell_length_a   6.06783380
_cell_length_b   6.06783434
_cell_length_c   6.06783365
_cell_angle_alpha   139.71994878
_cell_angle_beta   123.71082241
_cell_angle_gamma   71.46432545
_symmetry_Int_Tables_number   1
_chemical_formula_structural   Ca2PuRu2
_chemical_formula_sum   'Ca2 Pu1 Ru2'
_cell_volume   117.81686545
_cell_formula_units_Z   1
loop_
 _symmetry_equiv_pos_site_id
 _symmetry_equiv_pos_as_xyz
  1  'x, y, z'
loop_
 _atom_site_type_symbol
 _atom_site_label
 _atom_site_symmetry_multiplicity
 _atom_site_fract_x
 _atom_site_fract_y
 _atom_site_fract_z
 _atom_site_occupancy
  Ca  Ca0  1  0.698500  0.198500  0.500000  1
  Ca  Ca1  1  0.301500  0.801500  0.499999  1
  Pu  Pu2  1  0.000000  0.000000  0.000000  1
  Ru  Ru3  1  0.744744  0.500000  0.244744  1
  Ru  Ru4  1  0.255257  0.499999  0.755256  1
