# generated using pymatgen
data_Tb5Mn2O12
_symmetry_space_group_name_H-M   'P 1'
_cell_length_a   6.83978008
_cell_length_b   6.83992316
_cell_length_c   7.28305670
_cell_angle_alpha   74.52727710
_cell_angle_beta   74.52711738
_cell_angle_gamma   50.06691097
_symmetry_Int_Tables_number   1
_chemical_formula_structural   Tb5Mn2O12
_chemical_formula_sum   'Tb5 Mn2 O12'
_cell_volume   249.68587051
_cell_formula_units_Z   1
loop_
 _symmetry_equiv_pos_site_id
 _symmetry_equiv_pos_as_xyz
  1  'x, y, z'
loop_
 _atom_site_type_symbol
 _atom_site_label
 _atom_site_symmetry_multiplicity
 _atom_site_fract_x
 _atom_site_fract_y
 _atom_site_fract_z
 _atom_site_occupancy
  Tb  Tb0  1  0.305495  0.305494  0.356134  1
  Tb  Tb1  1  0.694505  0.694506  0.643866  1
  Tb  Tb2  1  0.307339  0.307338  0.835671  1
  Tb  Tb3  1  0.692661  0.692662  0.164329  1
  Tb  Tb4  1  0.000000  0.000000  0.500000  1
  Mn  Mn5  1  0.754432  0.245566  0.999996  1
  Mn  Mn6  1  0.245568  0.754434  0.000004  1
  O  O7  1  0.901094  0.420840  0.919501  1
  O  O8  1  0.420844  0.901096  0.919502  1
  O  O9  1  0.098906  0.579160  0.080499  1
  O  O10  1  0.579156  0.098904  0.080498  1
  O  O11  1  0.096732  0.597651  0.574995  1
  O  O12  1  0.597649  0.096732  0.574996  1
  O  O13  1  0.903268  0.402349  0.425005  1
  O  O14  1  0.402351  0.903268  0.425004  1
  O  O15  1  0.000486  0.000484  0.822139  1
  O  O16  1  0.999514  0.999516  0.177861  1
  O  O17  1  0.499967  0.499967  0.821193  1
  O  O18  1  0.500033  0.500033  0.178807  1
