# generated using pymatgen
data_Hf4Fe3CoSi3P
_symmetry_space_group_name_H-M   'P 1'
_cell_length_a   3.85512200
_cell_length_b   6.33417855
_cell_length_c   7.04262440
_cell_angle_alpha   90.00438722
_cell_angle_beta   90.00000000
_cell_angle_gamma   90.00000000
_symmetry_Int_Tables_number   1
_chemical_formula_structural   Hf4Fe3CoSi3P
_chemical_formula_sum   'Hf4 Fe3 Co1 Si3 P1'
_cell_volume   171.97406361
_cell_formula_units_Z   1
loop_
 _symmetry_equiv_pos_site_id
 _symmetry_equiv_pos_as_xyz
  1  'x, y, z'
loop_
 _atom_site_type_symbol
 _atom_site_label
 _atom_site_symmetry_multiplicity
 _atom_site_fract_x
 _atom_site_fract_y
 _atom_site_fract_z
 _atom_site_occupancy
  Hf  Hf0  1  0.250000  0.010477  0.309054  1
  Hf  Hf1  1  0.250000  0.505883  0.192668  1
  Hf  Hf2  1  0.750000  0.998557  0.695468  1
  Hf  Hf3  1  0.750000  0.491929  0.803364  1
  Fe  Fe4  1  0.250000  0.153594  0.927607  1
  Fe  Fe5  1  0.250000  0.646803  0.565643  1
  Fe  Fe6  1  0.750000  0.343826  0.435790  1
  Co  Co7  1  0.750000  0.847910  0.067652  1
  Si  Si8  1  0.250000  0.785056  0.889968  1
  Si  Si9  1  0.750000  0.714581  0.395063  1
  Si  Si10  1  0.750000  0.215310  0.107831  1
  P  P11  1  0.250000  0.286074  0.609894  1
