# generated using pymatgen
data_La8Y2PdRu3
_symmetry_space_group_name_H-M   'P 1'
_cell_length_a   6.65921008
_cell_length_b   7.33053394
_cell_length_c   9.22420817
_cell_angle_alpha   95.17617658
_cell_angle_beta   111.42809007
_cell_angle_gamma   90.02180216
_symmetry_Int_Tables_number   1
_chemical_formula_structural   La8Y2PdRu3
_chemical_formula_sum   'La8 Y2 Pd1 Ru3'
_cell_volume   417.18044053
_cell_formula_units_Z   1
loop_
 _symmetry_equiv_pos_site_id
 _symmetry_equiv_pos_as_xyz
  1  'x, y, z'
loop_
 _atom_site_type_symbol
 _atom_site_label
 _atom_site_symmetry_multiplicity
 _atom_site_fract_x
 _atom_site_fract_y
 _atom_site_fract_z
 _atom_site_occupancy
  La  La0  1  0.992888  0.923407  0.178695  1
  La  La1  1  0.801425  0.594895  0.813150  1
  La  La2  1  0.013303  0.094960  0.815250  1
  La  La3  1  0.210859  0.406085  0.181950  1
  La  La4  1  0.629904  0.820492  0.425713  1
  La  La5  1  0.218790  0.682316  0.583575  1
  La  La6  1  0.359082  0.183722  0.576497  1
  La  La7  1  0.788389  0.309745  0.434276  1
  Y  Y8  1  0.428389  0.753063  0.998340  1
  Y  Y9  1  0.568090  0.243416  0.994277  1
  Pd  Pd10  1  0.808720  0.570452  0.213304  1
  Ru  Ru11  1  0.606528  0.916734  0.782917  1
  Ru  Ru12  1  0.175441  0.422568  0.779986  1
  Ru  Ru13  1  0.398193  0.078145  0.222070  1
