# generated using pymatgen
data_La6PtRhBr6
_symmetry_space_group_name_H-M   'P 1'
_cell_length_a   10.72592631
_cell_length_b   10.59860559
_cell_length_c   10.72440643
_cell_angle_alpha   109.35650563
_cell_angle_beta   110.16467804
_cell_angle_gamma   109.36780342
_symmetry_Int_Tables_number   1
_chemical_formula_structural   La6PtRhBr6
_chemical_formula_sum   'La12 Pt2 Rh2 Br12'
_cell_volume   932.90960615
_cell_formula_units_Z   2
loop_
 _symmetry_equiv_pos_site_id
 _symmetry_equiv_pos_as_xyz
  1  'x, y, z'
loop_
 _atom_site_type_symbol
 _atom_site_label
 _atom_site_symmetry_multiplicity
 _atom_site_fract_x
 _atom_site_fract_y
 _atom_site_fract_z
 _atom_site_occupancy
  La  La0  1  0.264770  0.750055  0.235286  1
  La  La1  1  0.485270  0.749969  0.014686  1
  La  La2  1  0.235724  0.471424  0.485771  1
  La  La3  1  0.014274  0.028647  0.264272  1
  La  La4  1  0.235614  0.265711  0.752731  1
  La  La5  1  0.017259  0.488295  0.754527  1
  La  La6  1  0.487021  0.234369  0.469915  1
  La  La7  1  0.266270  0.011741  0.028982  1
  La  La8  1  0.747286  0.234315  0.264419  1
  La  La9  1  0.745525  0.011737  0.482759  1
  La  La10  1  0.471020  0.488250  0.233808  1
  La  La11  1  0.030086  0.265654  0.012957  1
  Pt  Pt12  1  0.998746  0.249985  0.501245  1
  Pt  Pt13  1  0.251241  0.250005  0.248755  1
  Rh  Rh14  1  0.498769  0.997550  0.248760  1
  Rh  Rh15  1  0.251211  0.502415  0.001210  1
  Br  Br16  1  0.250376  0.995287  0.505422  1
  Br  Br17  1  0.510099  0.504667  0.755051  1
  Br  Br18  1  0.249832  0.754763  0.743804  1
  Br  Br19  1  0.989035  0.745223  0.995071  1
  Br  Br20  1  0.994567  0.504666  0.249613  1
  Br  Br21  1  0.744935  0.995303  0.989884  1
  Br  Br22  1  0.756172  0.745221  0.250133  1
  Br  Br23  1  0.504929  0.754765  0.510964  1
  Br  Br24  1  0.505180  0.250004  0.994828  1
  Br  Br25  1  0.755428  0.510906  0.505446  1
  Br  Br26  1  0.744813  0.249994  0.755171  1
  Br  Br27  1  0.994545  0.989080  0.744532  1
