# generated using pymatgen
data_Dy3YCoAg
_symmetry_space_group_name_H-M   'P 1'
_cell_length_a   9.42649326
_cell_length_b   9.42624123
_cell_length_c   9.42624200
_cell_angle_alpha   60.00177335
_cell_angle_beta   59.99911701
_cell_angle_gamma   59.99911743
_symmetry_Int_Tables_number   1
_chemical_formula_structural   Dy3YCoAg
_chemical_formula_sum   'Dy12 Y4 Co4 Ag4'
_cell_volume   592.25989287
_cell_formula_units_Z   4
loop_
 _symmetry_equiv_pos_site_id
 _symmetry_equiv_pos_as_xyz
  1  'x, y, z'
loop_
 _atom_site_type_symbol
 _atom_site_label
 _atom_site_symmetry_multiplicity
 _atom_site_fract_x
 _atom_site_fract_y
 _atom_site_fract_z
 _atom_site_occupancy
  Dy  Dy0  1  0.347655  0.347814  0.347814  1
  Dy  Dy1  1  0.347814  0.347655  0.956716  1
  Dy  Dy2  1  0.347814  0.956716  0.347655  1
  Dy  Dy3  1  0.956716  0.347814  0.347814  1
  Dy  Dy4  1  0.811621  0.188379  0.188379  1
  Dy  Dy5  1  0.188379  0.811621  0.811621  1
  Dy  Dy6  1  0.188351  0.811649  0.188351  1
  Dy  Dy7  1  0.811649  0.188351  0.811649  1
  Dy  Dy8  1  0.188351  0.188351  0.811649  1
  Dy  Dy9  1  0.811649  0.811649  0.188351  1
  Dy  Dy10  1  0.937593  0.562407  0.562407  1
  Dy  Dy11  1  0.562407  0.937593  0.937593  1
  Y  Y12  1  0.562636  0.937364  0.562636  1
  Y  Y13  1  0.937364  0.562636  0.937364  1
  Y  Y14  1  0.562636  0.562636  0.937364  1
  Y  Y15  1  0.937364  0.937364  0.562636  1
  Co  Co16  1  0.141213  0.141173  0.141173  1
  Co  Co17  1  0.141173  0.141213  0.576441  1
  Co  Co18  1  0.141173  0.576441  0.141213  1
  Co  Co19  1  0.576441  0.141173  0.141173  1
  Ag  Ag20  1  0.580990  0.580803  0.580803  1
  Ag  Ag21  1  0.580803  0.580990  0.257404  1
  Ag  Ag22  1  0.580803  0.257404  0.580990  1
  Ag  Ag23  1  0.257404  0.580803  0.580803  1
