# generated using pymatgen
data_Ba4Sc(OsO6)2
_symmetry_space_group_name_H-M   'P 1'
_cell_length_a   9.98326834
_cell_length_b   9.98326908
_cell_length_c   9.98326937
_cell_angle_alpha   33.84597479
_cell_angle_beta   33.84596729
_cell_angle_gamma   33.84597289
_symmetry_Int_Tables_number   1
_chemical_formula_structural   Ba4Sc(OsO6)2
_chemical_formula_sum   'Ba4 Sc1 Os2 O12'
_cell_volume   275.05505258
_cell_formula_units_Z   1
loop_
 _symmetry_equiv_pos_site_id
 _symmetry_equiv_pos_as_xyz
  1  'x, y, z'
loop_
 _atom_site_type_symbol
 _atom_site_label
 _atom_site_symmetry_multiplicity
 _atom_site_fract_x
 _atom_site_fract_y
 _atom_site_fract_z
 _atom_site_occupancy
  Ba  Ba0  1  0.709948  0.709948  0.709948  1
  Ba  Ba1  1  0.290052  0.290052  0.290052  1
  Ba  Ba2  1  0.867768  0.867768  0.867768  1
  Ba  Ba3  1  0.132232  0.132232  0.132232  1
  Sc  Sc4  1  0.000000  0.000000  0.000000  1
  Os  Os5  1  0.580985  0.580985  0.580985  1
  Os  Os6  1  0.419015  0.419015  0.419015  1
  O  O7  1  0.216378  0.696769  0.216378  1
  O  O8  1  0.216378  0.216378  0.696769  1
  O  O9  1  0.696769  0.216378  0.216378  1
  O  O10  1  0.783622  0.303231  0.783622  1
  O  O11  1  0.783622  0.783622  0.303231  1
  O  O12  1  0.303231  0.783622  0.783622  1
  O  O13  1  0.388583  0.860099  0.388583  1
  O  O14  1  0.388583  0.388583  0.860099  1
  O  O15  1  0.860099  0.388583  0.388583  1
  O  O16  1  0.611417  0.139901  0.611417  1
  O  O17  1  0.611417  0.611417  0.139901  1
  O  O18  1  0.139901  0.611417  0.611417  1
