# generated using pymatgen
data_Zr12Al8Fe3RuC4
_symmetry_space_group_name_H-M   'P 1'
_cell_length_a   8.59592216
_cell_length_b   8.59994543
_cell_length_c   8.59592300
_cell_angle_alpha   60.01547493
_cell_angle_beta   60.00000060
_cell_angle_gamma   60.01547474
_symmetry_Int_Tables_number   1
_chemical_formula_structural   Zr12Al8Fe3RuC4
_chemical_formula_sum   'Zr12 Al8 Fe3 Ru1 C4'
_cell_volume   449.43535437
_cell_formula_units_Z   1
loop_
 _symmetry_equiv_pos_site_id
 _symmetry_equiv_pos_as_xyz
  1  'x, y, z'
loop_
 _atom_site_type_symbol
 _atom_site_label
 _atom_site_symmetry_multiplicity
 _atom_site_fract_x
 _atom_site_fract_y
 _atom_site_fract_z
 _atom_site_occupancy
  Zr  Zr0  1  0.552206  0.947812  0.552206  1
  Zr  Zr1  1  0.302132  0.698826  0.696912  1
  Zr  Zr2  1  0.697794  0.302188  0.302224  1
  Zr  Zr3  1  0.302132  0.698826  0.302132  1
  Zr  Zr4  1  0.696912  0.698826  0.302132  1
  Zr  Zr5  1  0.302224  0.302188  0.697794  1
  Zr  Zr6  1  0.553088  0.551174  0.947868  1
  Zr  Zr7  1  0.947868  0.551174  0.553088  1
  Zr  Zr8  1  0.552206  0.947812  0.947776  1
  Zr  Zr9  1  0.947776  0.947812  0.552206  1
  Zr  Zr10  1  0.697794  0.302188  0.697794  1
  Zr  Zr11  1  0.947868  0.551174  0.947868  1
  Al  Al12  1  0.917729  0.925969  0.917729  1
  Al  Al13  1  0.011425  0.324031  0.332271  1
  Al  Al14  1  0.329721  0.010840  0.329721  1
  Al  Al15  1  0.332271  0.324031  0.011425  1
  Al  Al16  1  0.920279  0.239160  0.920279  1
  Al  Al17  1  0.917729  0.925969  0.238575  1
  Al  Al18  1  0.238575  0.925969  0.917729  1
  Al  Al19  1  0.332271  0.324031  0.332271  1
  Fe  Fe20  1  0.125000  0.125000  0.125000  1
  Fe  Fe21  1  0.625000  0.125000  0.125000  1
  Fe  Fe22  1  0.125000  0.125000  0.625000  1
  Ru  Ru23  1  0.125000  0.625000  0.125000  1
  C  C24  1  0.625000  0.625000  0.625000  1
  C  C25  1  0.125000  0.625000  0.625000  1
  C  C26  1  0.625000  0.125000  0.625000  1
  C  C27  1  0.625000  0.625000  0.125000  1
