# generated using pymatgen
data_DyEr3(LuSb5)4
_symmetry_space_group_name_H-M   'P 1'
_cell_length_a   4.20550300
_cell_length_b   13.14683241
_cell_length_c   14.57617300
_cell_angle_alpha   78.35915832
_cell_angle_beta   90.00000000
_cell_angle_gamma   90.00000000
_symmetry_Int_Tables_number   1
_chemical_formula_structural   DyEr3(LuSb5)4
_chemical_formula_sum   'Dy1 Er3 Lu4 Sb20'
_cell_volume   789.32658463
_cell_formula_units_Z   1
loop_
 _symmetry_equiv_pos_site_id
 _symmetry_equiv_pos_as_xyz
  1  'x, y, z'
loop_
 _atom_site_type_symbol
 _atom_site_label
 _atom_site_symmetry_multiplicity
 _atom_site_fract_x
 _atom_site_fract_y
 _atom_site_fract_z
 _atom_site_occupancy
  Dy  Dy0  1  0.750000  0.046578  0.641676  1
  Er  Er1  1  0.250000  0.668934  0.576064  1
  Er  Er2  1  0.750000  0.330929  0.423778  1
  Er  Er3  1  0.250000  0.953437  0.359110  1
  Lu  Lu4  1  0.250000  0.395917  0.770820  1
  Lu  Lu5  1  0.750000  0.604267  0.229164  1
  Lu  Lu6  1  0.250000  0.661435  0.856327  1
  Lu  Lu7  1  0.750000  0.338401  0.143773  1
  Sb  Sb8  1  0.250000  0.145050  0.779089  1
  Sb  Sb9  1  0.750000  0.855537  0.221236  1
  Sb  Sb10  1  0.250000  0.143619  0.482215  1
  Sb  Sb11  1  0.750000  0.856468  0.517025  1
  Sb  Sb12  1  0.250000  0.154092  0.170244  1
  Sb  Sb13  1  0.750000  0.845607  0.829816  1
  Sb  Sb14  1  0.250000  0.420716  0.975290  1
  Sb  Sb15  1  0.750000  0.579240  0.024726  1
  Sb  Sb16  1  0.750000  0.028621  0.910381  1
  Sb  Sb17  1  0.250000  0.971345  0.089538  1
  Sb  Sb18  1  0.750000  0.139633  0.321628  1
  Sb  Sb19  1  0.250000  0.859485  0.678344  1
  Sb  Sb20  1  0.750000  0.279472  0.936691  1
  Sb  Sb21  1  0.250000  0.720545  0.063285  1
  Sb  Sb22  1  0.750000  0.286140  0.653649  1
  Sb  Sb23  1  0.250000  0.714388  0.346315  1
  Sb  Sb24  1  0.750000  0.576245  0.735612  1
  Sb  Sb25  1  0.250000  0.423795  0.264355  1
  Sb  Sb26  1  0.750000  0.571581  0.446457  1
  Sb  Sb27  1  0.250000  0.428522  0.553389  1
