# generated using pymatgen
data_Er8Ta12Si15Ge
_symmetry_space_group_name_H-M   'P 1'
_cell_length_a   6.84410819
_cell_length_b   7.03292780
_cell_length_c   13.33421200
_cell_angle_alpha   90.00000000
_cell_angle_beta   90.00000000
_cell_angle_gamma   90.08035250
_symmetry_Int_Tables_number   1
_chemical_formula_structural   Er8Ta12Si15Ge
_chemical_formula_sum   'Er8 Ta12 Si15 Ge1'
_cell_volume   641.82991288
_cell_formula_units_Z   1
loop_
 _symmetry_equiv_pos_site_id
 _symmetry_equiv_pos_as_xyz
  1  'x, y, z'
loop_
 _atom_site_type_symbol
 _atom_site_label
 _atom_site_symmetry_multiplicity
 _atom_site_fract_x
 _atom_site_fract_y
 _atom_site_fract_z
 _atom_site_occupancy
  Er  Er0  1  0.502990  0.671727  0.595609  1
  Er  Er1  1  0.002833  0.828315  0.904376  1
  Er  Er2  1  0.495842  0.328872  0.094863  1
  Er  Er3  1  0.998953  0.169522  0.406212  1
  Er  Er4  1  0.495842  0.328872  0.405137  1
  Er  Er5  1  0.998953  0.169522  0.093788  1
  Er  Er6  1  0.502990  0.671727  0.904391  1
  Er  Er7  1  0.002833  0.828315  0.595624  1
  Ta  Ta8  1  0.663234  0.175553  0.625010  1
  Ta  Ta9  1  0.163339  0.324825  0.875046  1
  Ta  Ta10  1  0.336497  0.824965  0.124658  1
  Ta  Ta11  1  0.836639  0.677525  0.375563  1
  Ta  Ta12  1  0.336497  0.824965  0.375342  1
  Ta  Ta13  1  0.836639  0.677525  0.124437  1
  Ta  Ta14  1  0.663234  0.175553  0.874990  1
  Ta  Ta15  1  0.163339  0.324825  0.624954  1
  Ta  Ta16  1  0.836916  0.491316  0.750000  1
  Ta  Ta17  1  0.337228  0.009584  0.750000  1
  Ta  Ta18  1  0.165249  0.510370  0.250000  1
  Ta  Ta19  1  0.661882  0.987836  0.250000  1
  Si  Si20  1  0.664482  0.964894  0.459712  1
  Si  Si21  1  0.163782  0.535827  0.040734  1
  Si  Si22  1  0.335277  0.035725  0.958997  1
  Si  Si23  1  0.835298  0.464717  0.540607  1
  Si  Si24  1  0.335277  0.035725  0.541003  1
  Si  Si25  1  0.835298  0.464717  0.959393  1
  Si  Si26  1  0.664482  0.964894  0.040288  1
  Si  Si27  1  0.163782  0.535827  0.459266  1
  Si  Si28  1  0.458977  0.378529  0.750000  1
  Si  Si29  1  0.958861  0.122501  0.750000  1
  Si  Si30  1  0.539565  0.623188  0.250000  1
  Si  Si31  1  0.041336  0.877801  0.250000  1
  Si  Si32  1  0.704543  0.871903  0.750000  1
  Si  Si33  1  0.204836  0.628767  0.750000  1
  Si  Si34  1  0.295485  0.128693  0.250000  1
  Ge  Ge35  1  0.796790  0.364577  0.250000  1
