# generated using pymatgen
data_Ta4Be5Ga3
_symmetry_space_group_name_H-M   'P 1'
_cell_length_a   4.78495203
_cell_length_b   4.78495215
_cell_length_c   7.86874600
_cell_angle_alpha   90.00000000
_cell_angle_beta   90.00000000
_cell_angle_gamma   120.21171704
_symmetry_Int_Tables_number   1
_chemical_formula_structural   Ta4Be5Ga3
_chemical_formula_sum   'Ta4 Be5 Ga3'
_cell_volume   155.69005147
_cell_formula_units_Z   1
loop_
 _symmetry_equiv_pos_site_id
 _symmetry_equiv_pos_as_xyz
  1  'x, y, z'
loop_
 _atom_site_type_symbol
 _atom_site_label
 _atom_site_symmetry_multiplicity
 _atom_site_fract_x
 _atom_site_fract_y
 _atom_site_fract_z
 _atom_site_occupancy
  Ta  Ta0  1  0.334176  0.665824  0.437093  1
  Ta  Ta1  1  0.666831  0.333169  0.570813  1
  Ta  Ta2  1  0.666831  0.333169  0.929187  1
  Ta  Ta3  1  0.334176  0.665824  0.062907  1
  Be  Be4  1  0.819904  0.658653  0.250000  1
  Be  Be5  1  0.341347  0.180096  0.250000  1
  Be  Be6  1  0.183919  0.816081  0.750000  1
  Be  Be7  1  0.181590  0.361267  0.750000  1
  Be  Be8  1  0.638733  0.818410  0.750000  1
  Ga  Ga9  1  0.006085  0.993915  0.513259  1
  Ga  Ga10  1  0.006085  0.993915  0.986741  1
  Ga  Ga11  1  0.820323  0.179677  0.250000  1
