# generated using pymatgen
data_Ti8BeBi4S
_symmetry_space_group_name_H-M   'P 1'
_cell_length_a   7.80604134
_cell_length_b   7.80532393
_cell_length_c   7.80604227
_cell_angle_alpha   95.51782332
_cell_angle_beta   95.53407735
_cell_angle_gamma   143.85140155
_symmetry_Int_Tables_number   1
_chemical_formula_structural   Ti8BeBi4S
_chemical_formula_sum   'Ti8 Be1 Bi4 S1'
_cell_volume   266.69840924
_cell_formula_units_Z   1
loop_
 _symmetry_equiv_pos_site_id
 _symmetry_equiv_pos_as_xyz
  1  'x, y, z'
loop_
 _atom_site_type_symbol
 _atom_site_label
 _atom_site_symmetry_multiplicity
 _atom_site_fract_x
 _atom_site_fract_y
 _atom_site_fract_z
 _atom_site_occupancy
  Ti  Ti0  1  0.080067  0.193324  0.269957  1
  Ti  Ti1  1  0.923458  0.809995  0.730018  1
  Ti  Ti2  1  0.810083  0.080220  0.886747  1
  Ti  Ti3  1  0.420022  0.690005  0.113464  1
  Ti  Ti4  1  0.193324  0.923461  0.113358  1
  Ti  Ti5  1  0.576634  0.306676  0.886742  1
  Ti  Ti6  1  0.689896  0.576539  0.269862  1
  Ti  Ti7  1  0.306527  0.419780  0.729863  1
  Be  Be8  1  0.250179  0.250000  0.000179  1
  Bi  Bi9  1  0.140457  0.640604  0.781073  1
  Bi  Bi10  1  0.859427  0.359562  0.218974  1
  Bi  Bi11  1  0.359411  0.140438  0.499865  1
  Bi  Bi12  1  0.640470  0.859396  0.499853  1
  S  S13  1  0.750046  0.750000  0.000046  1
