# generated using pymatgen
data_PrCo4TcAs3
_symmetry_space_group_name_H-M   'P 1'
_cell_length_a   3.89033000
_cell_length_b   10.85208500
_cell_length_c   12.34348800
_cell_angle_alpha   90.00000000
_cell_angle_beta   90.00000000
_cell_angle_gamma   90.00000000
_symmetry_Int_Tables_number   1
_chemical_formula_structural   PrCo4TcAs3
_chemical_formula_sum   'Pr4 Co16 Tc4 As12'
_cell_volume   521.11974433
_cell_formula_units_Z   4
loop_
 _symmetry_equiv_pos_site_id
 _symmetry_equiv_pos_as_xyz
  1  'x, y, z'
loop_
 _atom_site_type_symbol
 _atom_site_label
 _atom_site_symmetry_multiplicity
 _atom_site_fract_x
 _atom_site_fract_y
 _atom_site_fract_z
 _atom_site_occupancy
  Pr  Pr0  1  0.250000  0.583090  0.703390  1
  Pr  Pr1  1  0.250000  0.916910  0.203390  1
  Pr  Pr2  1  0.750000  0.416910  0.296610  1
  Pr  Pr3  1  0.750000  0.083090  0.796610  1
  Co  Co4  1  0.250000  0.403569  0.490408  1
  Co  Co5  1  0.250000  0.096431  0.990408  1
  Co  Co6  1  0.750000  0.596431  0.509592  1
  Co  Co7  1  0.750000  0.903569  0.009592  1
  Co  Co8  1  0.250000  0.218510  0.173594  1
  Co  Co9  1  0.250000  0.281490  0.673594  1
  Co  Co10  1  0.750000  0.781490  0.826406  1
  Co  Co11  1  0.750000  0.718510  0.326406  1
  Co  Co12  1  0.250000  0.884173  0.700120  1
  Co  Co13  1  0.250000  0.615827  0.200120  1
  Co  Co14  1  0.750000  0.115827  0.299880  1
  Co  Co15  1  0.750000  0.384173  0.799880  1
  Co  Co16  1  0.250000  0.466533  0.932430  1
  Co  Co17  1  0.250000  0.033467  0.432430  1
  Co  Co18  1  0.750000  0.533467  0.067570  1
  Co  Co19  1  0.750000  0.966533  0.567570  1
  Tc  Tc20  1  0.250000  0.705805  0.990658  1
  Tc  Tc21  1  0.250000  0.794195  0.490658  1
  Tc  Tc22  1  0.750000  0.294195  0.009342  1
  Tc  Tc23  1  0.750000  0.205805  0.509342  1
  As  As24  1  0.250000  0.418938  0.112196  1
  As  As25  1  0.250000  0.081062  0.612196  1
  As  As26  1  0.750000  0.581062  0.887804  1
  As  As27  1  0.750000  0.918938  0.387804  1
  As  As28  1  0.250000  0.272681  0.865521  1
  As  As29  1  0.250000  0.227319  0.365521  1
  As  As30  1  0.750000  0.727319  0.134479  1
  As  As31  1  0.750000  0.772681  0.634479  1
  As  As32  1  0.250000  0.599635  0.392953  1
  As  As33  1  0.250000  0.900365  0.892953  1
  As  As34  1  0.750000  0.400365  0.607047  1
  As  As35  1  0.750000  0.099635  0.107047  1
