# generated using pymatgen
data_La3Sm5SiPd24
_symmetry_space_group_name_H-M   'P 1'
_cell_length_a   8.46141206
_cell_length_b   8.46141206
_cell_length_c   8.46007101
_cell_angle_alpha   90.00360247
_cell_angle_beta   90.00360247
_cell_angle_gamma   90.01354278
_symmetry_Int_Tables_number   1
_chemical_formula_structural   La3Sm5SiPd24
_chemical_formula_sum   'La3 Sm5 Si1 Pd24'
_cell_volume   605.70294469
_cell_formula_units_Z   1
loop_
 _symmetry_equiv_pos_site_id
 _symmetry_equiv_pos_as_xyz
  1  'x, y, z'
loop_
 _atom_site_type_symbol
 _atom_site_label
 _atom_site_symmetry_multiplicity
 _atom_site_fract_x
 _atom_site_fract_y
 _atom_site_fract_z
 _atom_site_occupancy
  La  La0  1  0.254352  0.254352  0.254345  1
  La  La1  1  0.745740  0.745740  0.745988  1
  La  La2  1  0.745642  0.745642  0.253946  1
  Sm  Sm3  1  0.746231  0.253328  0.746259  1
  Sm  Sm4  1  0.253720  0.253720  0.746723  1
  Sm  Sm5  1  0.253308  0.746845  0.253623  1
  Sm  Sm6  1  0.253328  0.746231  0.746259  1
  Sm  Sm7  1  0.746845  0.253308  0.253623  1
  Si  Si8  1  0.000165  0.000165  0.999953  1
  Pd  Pd9  1  0.257088  0.500793  0.998725  1
  Pd  Pd10  1  0.742984  0.497878  0.999760  1
  Pd  Pd11  1  0.999051  0.257079  0.501226  1
  Pd  Pd12  1  0.500793  0.257088  0.998725  1
  Pd  Pd13  1  0.002398  0.743082  0.500194  1
  Pd  Pd14  1  0.497878  0.742984  0.999760  1
  Pd  Pd15  1  0.499859  0.000224  0.256954  1
  Pd  Pd16  1  0.257079  0.999051  0.501226  1
  Pd  Pd17  1  0.498817  0.001272  0.742916  1
  Pd  Pd18  1  0.743082  0.002398  0.500194  1
  Pd  Pd19  1  0.000224  0.499859  0.256954  1
  Pd  Pd20  1  0.001272  0.498817  0.742916  1
  Pd  Pd21  1  0.252075  0.501056  0.501332  1
  Pd  Pd22  1  0.747936  0.497393  0.500197  1
  Pd  Pd23  1  0.501056  0.252075  0.501332  1
  Pd  Pd24  1  0.497393  0.747936  0.500197  1
  Pd  Pd25  1  0.499807  0.499807  0.251963  1
  Pd  Pd26  1  0.498651  0.498651  0.747984  1
  Pd  Pd27  1  0.280096  0.998677  0.998319  1
  Pd  Pd28  1  0.719615  0.003077  0.999802  1
  Pd  Pd29  1  0.998677  0.280096  0.998319  1
  Pd  Pd30  1  0.003077  0.719615  0.999802  1
  Pd  Pd31  1  0.000132  0.000132  0.280497  1
  Pd  Pd32  1  0.001627  0.001627  0.719988  1
