# generated using pymatgen
data_PmBiSe
_symmetry_space_group_name_H-M   'P 1'
_cell_length_a   4.34169000
_cell_length_b   4.34169000
_cell_length_c   9.16831600
_cell_angle_alpha   90.00000000
_cell_angle_beta   90.00000000
_cell_angle_gamma   90.00000000
_symmetry_Int_Tables_number   1
_chemical_formula_structural   PmBiSe
_chemical_formula_sum   'Pm2 Bi2 Se2'
_cell_volume   172.82525090
_cell_formula_units_Z   2
loop_
 _symmetry_equiv_pos_site_id
 _symmetry_equiv_pos_as_xyz
  1  'x, y, z'
loop_
 _atom_site_type_symbol
 _atom_site_label
 _atom_site_symmetry_multiplicity
 _atom_site_fract_x
 _atom_site_fract_y
 _atom_site_fract_z
 _atom_site_occupancy
  Pm  Pm0  1  0.000000  0.500000  0.696469  1
  Pm  Pm1  1  0.500000  0.000000  0.303531  1
  Bi  Bi2  1  0.000000  0.000000  0.000000  1
  Bi  Bi3  1  0.500000  0.500000  0.000000  1
  Se  Se4  1  0.000000  0.500000  0.371642  1
  Se  Se5  1  0.500000  0.000000  0.628358  1
