# generated using pymatgen
data_BaNa(PPt)2
_symmetry_space_group_name_H-M   'P 1'
_cell_length_a   6.48804667
_cell_length_b   6.48733400
_cell_length_c   6.45447907
_cell_angle_alpha   90.00000000
_cell_angle_beta   90.34230459
_cell_angle_gamma   90.00000000
_symmetry_Int_Tables_number   1
_chemical_formula_structural   BaNa(PPt)2
_chemical_formula_sum   'Ba2 Na2 P4 Pt4'
_cell_volume   271.66498761
_cell_formula_units_Z   2
loop_
 _symmetry_equiv_pos_site_id
 _symmetry_equiv_pos_as_xyz
  1  'x, y, z'
loop_
 _atom_site_type_symbol
 _atom_site_label
 _atom_site_symmetry_multiplicity
 _atom_site_fract_x
 _atom_site_fract_y
 _atom_site_fract_z
 _atom_site_occupancy
  Ba  Ba0  1  0.138193  0.133823  0.129817  1
  Ba  Ba1  1  0.861807  0.633823  0.370183  1
  Na  Na2  1  0.634979  0.359649  0.857702  1
  Na  Na3  1  0.365021  0.859649  0.642298  1
  P  P4  1  0.584204  0.918583  0.082004  1
  P  P5  1  0.086454  0.591109  0.910602  1
  P  P6  1  0.913546  0.091109  0.589398  1
  P  P7  1  0.415796  0.418583  0.417996  1
  Pt  Pt8  1  0.158045  0.345897  0.656045  1
  Pt  Pt9  1  0.648446  0.150939  0.350988  1
  Pt  Pt10  1  0.841955  0.845897  0.843955  1
  Pt  Pt11  1  0.351554  0.650939  0.149012  1
