# generated using pymatgen
data_ErPa2Ga5
_symmetry_space_group_name_H-M   'P 1'
_cell_length_a   6.09036400
_cell_length_b   9.50049000
_cell_length_c   11.63199900
_cell_angle_alpha   90.00000000
_cell_angle_beta   90.00000000
_cell_angle_gamma   90.00000000
_symmetry_Int_Tables_number   1
_chemical_formula_structural   ErPa2Ga5
_chemical_formula_sum   'Er4 Pa8 Ga20'
_cell_volume   673.04423872
_cell_formula_units_Z   4
loop_
 _symmetry_equiv_pos_site_id
 _symmetry_equiv_pos_as_xyz
  1  'x, y, z'
loop_
 _atom_site_type_symbol
 _atom_site_label
 _atom_site_symmetry_multiplicity
 _atom_site_fract_x
 _atom_site_fract_y
 _atom_site_fract_z
 _atom_site_occupancy
  Er  Er0  1  0.856333  0.750000  0.072633  1
  Er  Er1  1  0.643667  0.750000  0.572633  1
  Er  Er2  1  0.143667  0.250000  0.927367  1
  Er  Er3  1  0.356333  0.250000  0.427367  1
  Pa  Pa4  1  0.881852  0.504163  0.351954  1
  Pa  Pa5  1  0.618148  0.995837  0.851954  1
  Pa  Pa6  1  0.118148  0.004163  0.648046  1
  Pa  Pa7  1  0.381852  0.495837  0.148046  1
  Pa  Pa8  1  0.118148  0.495837  0.648046  1
  Pa  Pa9  1  0.381852  0.004163  0.148046  1
  Pa  Pa10  1  0.881852  0.995837  0.351954  1
  Pa  Pa11  1  0.618148  0.504163  0.851954  1
  Ga  Ga12  1  0.872446  0.051845  0.090477  1
  Ga  Ga13  1  0.627554  0.448155  0.590477  1
  Ga  Ga14  1  0.127554  0.551845  0.909523  1
  Ga  Ga15  1  0.372446  0.948155  0.409523  1
  Ga  Ga16  1  0.127554  0.948155  0.909523  1
  Ga  Ga17  1  0.372446  0.551845  0.409523  1
  Ga  Ga18  1  0.872446  0.448155  0.090477  1
  Ga  Ga19  1  0.627554  0.051845  0.590477  1
  Ga  Ga20  1  0.157268  0.750000  0.262932  1
  Ga  Ga21  1  0.342732  0.750000  0.762932  1
  Ga  Ga22  1  0.842732  0.250000  0.737068  1
  Ga  Ga23  1  0.657268  0.250000  0.237068  1
  Ga  Ga24  1  0.389399  0.750000  0.995384  1
  Ga  Ga25  1  0.110601  0.750000  0.495384  1
  Ga  Ga26  1  0.610601  0.250000  0.004616  1
  Ga  Ga27  1  0.889399  0.250000  0.504616  1
  Ga  Ga28  1  0.596481  0.750000  0.292683  1
  Ga  Ga29  1  0.903519  0.750000  0.792683  1
  Ga  Ga30  1  0.403519  0.250000  0.707317  1
  Ga  Ga31  1  0.096481  0.250000  0.207317  1
