# generated using pymatgen
data_Pr5Si3P9Ru9Rh10
_symmetry_space_group_name_H-M   'P 1'
_cell_length_a   12.78422800
_cell_length_b   12.78422868
_cell_length_c   3.99654100
_cell_angle_alpha   90.00000000
_cell_angle_beta   90.00000000
_cell_angle_gamma   119.99999824
_symmetry_Int_Tables_number   1
_chemical_formula_structural   Pr5Si3P9Ru9Rh10
_chemical_formula_sum   'Pr5 Si3 P9 Ru9 Rh10'
_cell_volume   565.67104628
_cell_formula_units_Z   1
loop_
 _symmetry_equiv_pos_site_id
 _symmetry_equiv_pos_as_xyz
  1  'x, y, z'
loop_
 _atom_site_type_symbol
 _atom_site_label
 _atom_site_symmetry_multiplicity
 _atom_site_fract_x
 _atom_site_fract_y
 _atom_site_fract_z
 _atom_site_occupancy
  Pr  Pr0  1  0.813237  0.998119  0.500000  1
  Pr  Pr1  1  0.001881  0.815118  0.500000  1
  Pr  Pr2  1  0.184882  0.186763  0.500000  1
  Pr  Pr3  1  0.333333  0.666667  0.000000  1
  Pr  Pr4  1  0.666667  0.333333  0.000000  1
  Si  Si5  1  0.522683  0.685617  0.500000  1
  Si  Si6  1  0.314383  0.837066  0.500000  1
  Si  Si7  1  0.162934  0.477317  0.500000  1
  P  P8  1  0.187224  0.002816  0.000000  1
  P  P9  1  0.997184  0.184407  0.000000  1
  P  P10  1  0.815593  0.812776  0.000000  1
  P  P11  1  0.480832  0.174384  0.500000  1
  P  P12  1  0.693551  0.519168  0.500000  1
  P  P13  1  0.825616  0.306449  0.500000  1
  P  P14  1  0.622862  0.996824  0.000000  1
  P  P15  1  0.003176  0.626039  0.000000  1
  P  P16  1  0.373961  0.377138  0.000000  1
  Ru  Ru17  1  0.286906  0.007467  0.500000  1
  Ru  Ru18  1  0.992533  0.279439  0.500000  1
  Ru  Ru19  1  0.720561  0.713094  0.500000  1
  Ru  Ru20  1  0.520028  0.879170  0.500000  1
  Ru  Ru21  1  0.120830  0.640858  0.500000  1
  Ru  Ru22  1  0.359142  0.479972  0.500000  1
  Ru  Ru23  1  0.491117  0.366559  0.500000  1
  Ru  Ru24  1  0.875442  0.508883  0.500000  1
  Ru  Ru25  1  0.633441  0.124558  0.500000  1
  Rh  Rh26  1  0.443961  0.996627  0.000000  1
  Rh  Rh27  1  0.003373  0.447334  0.000000  1
  Rh  Rh28  1  0.552666  0.556039  0.000000  1
  Rh  Rh29  1  0.627249  0.806511  0.000000  1
  Rh  Rh30  1  0.193489  0.820738  0.000000  1
  Rh  Rh31  1  0.179262  0.372751  0.000000  1
  Rh  Rh32  1  0.378908  0.187238  0.000000  1
  Rh  Rh33  1  0.808330  0.621092  0.000000  1
  Rh  Rh34  1  0.812762  0.191670  0.000000  1
  Rh  Rh35  1  0.000000  0.000000  0.000000  1
