# generated using pymatgen
data_Lu8Ta2Ti9Si16Mo
_symmetry_space_group_name_H-M   'P 1'
_cell_length_a   6.78617436
_cell_length_b   6.94636115
_cell_length_c   13.18888005
_cell_angle_alpha   90.04777318
_cell_angle_beta   89.95502269
_cell_angle_gamma   89.92262006
_symmetry_Int_Tables_number   1
_chemical_formula_structural   Lu8Ta2Ti9Si16Mo
_chemical_formula_sum   'Lu8 Ta2 Ti9 Si16 Mo1'
_cell_volume   621.71251554
_cell_formula_units_Z   1
loop_
 _symmetry_equiv_pos_site_id
 _symmetry_equiv_pos_as_xyz
  1  'x, y, z'
loop_
 _atom_site_type_symbol
 _atom_site_label
 _atom_site_symmetry_multiplicity
 _atom_site_fract_x
 _atom_site_fract_y
 _atom_site_fract_z
 _atom_site_occupancy
  Lu  Lu0  1  0.502788  0.326959  0.096274  1
  Lu  Lu1  1  0.002397  0.173003  0.403970  1
  Lu  Lu2  1  0.496556  0.672399  0.594802  1
  Lu  Lu3  1  0.997418  0.827718  0.903541  1
  Lu  Lu4  1  0.496750  0.672672  0.903565  1
  Lu  Lu5  1  0.998582  0.828348  0.595042  1
  Lu  Lu6  1  0.502025  0.326112  0.405619  1
  Lu  Lu7  1  0.003162  0.173078  0.096371  1
  Ta  Ta8  1  0.337269  0.992648  0.249959  1
  Ta  Ta9  1  0.838559  0.509715  0.250446  1
  Ti  Ti10  1  0.836878  0.324777  0.627177  1
  Ti  Ti11  1  0.335017  0.175315  0.873495  1
  Ti  Ti12  1  0.164982  0.674898  0.126519  1
  Ti  Ti13  1  0.662690  0.826503  0.374853  1
  Ti  Ti14  1  0.164114  0.675259  0.375067  1
  Ti  Ti15  1  0.664437  0.824343  0.126187  1
  Ti  Ti16  1  0.835579  0.324380  0.870976  1
  Ti  Ti17  1  0.660870  0.010303  0.748308  1
  Ti  Ti18  1  0.164468  0.488830  0.748160  1
  Si  Si19  1  0.659257  0.037143  0.542377  1
  Si  Si20  1  0.160756  0.462327  0.958660  1
  Si  Si21  1  0.338968  0.963271  0.040959  1
  Si  Si22  1  0.838687  0.535835  0.459019  1
  Si  Si23  1  0.336262  0.963059  0.460951  1
  Si  Si24  1  0.838183  0.537296  0.040470  1
  Si  Si25  1  0.662458  0.037409  0.958908  1
  Si  Si26  1  0.163752  0.460932  0.542015  1
  Si  Si27  1  0.537522  0.375581  0.748934  1
  Si  Si28  1  0.039961  0.122806  0.749384  1
  Si  Si29  1  0.460844  0.622689  0.250401  1
  Si  Si30  1  0.961157  0.878348  0.250567  1
  Si  Si31  1  0.794945  0.628420  0.749061  1
  Si  Si32  1  0.296332  0.871583  0.749675  1
  Si  Si33  1  0.205554  0.370643  0.250447  1
  Si  Si34  1  0.704712  0.130369  0.250014  1
  Mo  Mo35  1  0.336110  0.175027  0.627823  1
