# generated using pymatgen
data_TaTi2(NbB3)2
_symmetry_space_group_name_H-M   'P 1'
_cell_length_a   11.49384827
_cell_length_b   11.49384786
_cell_length_c   3.28859100
_cell_angle_alpha   90.00000000
_cell_angle_beta   90.00000000
_cell_angle_gamma   164.51644915
_symmetry_Int_Tables_number   1
_chemical_formula_structural   TaTi2(NbB3)2
_chemical_formula_sum   'Ta1 Ti2 Nb2 B6'
_cell_volume   115.98177497
_cell_formula_units_Z   1
loop_
 _symmetry_equiv_pos_site_id
 _symmetry_equiv_pos_as_xyz
  1  'x, y, z'
loop_
 _atom_site_type_symbol
 _atom_site_label
 _atom_site_symmetry_multiplicity
 _atom_site_fract_x
 _atom_site_fract_y
 _atom_site_fract_z
 _atom_site_occupancy
  Ta  Ta0  1  0.804644  0.195356  0.500000  1
  Ti  Ti1  1  0.194355  0.805645  0.500000  1
  Ti  Ti2  1  0.000363  0.999637  0.000000  1
  Nb  Nb3  1  0.386437  0.613563  0.000000  1
  Nb  Nb4  1  0.614755  0.385245  0.000000  1
  B  B5  1  0.461767  0.538233  0.500000  1
  B  B6  1  0.539582  0.460418  0.500000  1
  B  B7  1  0.269946  0.730054  0.000000  1
  B  B8  1  0.727002  0.272998  0.000000  1
  B  B9  1  0.080030  0.919970  0.500000  1
  B  B10  1  0.921119  0.078881  0.500000  1
