# generated using pymatgen
data_Y7Sn22BiRh6
_symmetry_space_group_name_H-M   'P 1'
_cell_length_a   9.85727400
_cell_length_b   9.85727613
_cell_length_c   10.20108800
_cell_angle_alpha   90.00000000
_cell_angle_beta   90.00000000
_cell_angle_gamma   120.00000628
_symmetry_Int_Tables_number   1
_chemical_formula_structural   Y7Sn22BiRh6
_chemical_formula_sum   'Y7 Sn22 Bi1 Rh6'
_cell_volume   858.40225423
_cell_formula_units_Z   1
loop_
 _symmetry_equiv_pos_site_id
 _symmetry_equiv_pos_as_xyz
  1  'x, y, z'
loop_
 _atom_site_type_symbol
 _atom_site_label
 _atom_site_symmetry_multiplicity
 _atom_site_fract_x
 _atom_site_fract_y
 _atom_site_fract_z
 _atom_site_occupancy
  Y  Y0  1  0.000000  0.000000  0.000000  1
  Y  Y1  1  0.044356  0.522178  0.308099  1
  Y  Y2  1  0.477822  0.955644  0.308099  1
  Y  Y3  1  0.477822  0.522178  0.308099  1
  Y  Y4  1  0.955644  0.477822  0.691901  1
  Y  Y5  1  0.522178  0.044356  0.691901  1
  Y  Y6  1  0.522178  0.477822  0.691901  1
  Sn  Sn7  1  0.121349  0.878651  0.275464  1
  Sn  Sn8  1  0.757301  0.878651  0.275464  1
  Sn  Sn9  1  0.121349  0.242699  0.275464  1
  Sn  Sn10  1  0.878651  0.121349  0.724536  1
  Sn  Sn11  1  0.242699  0.121349  0.724536  1
  Sn  Sn12  1  0.878651  0.757301  0.724536  1
  Sn  Sn13  1  0.349900  0.000000  0.000000  1
  Sn  Sn14  1  0.650100  0.650100  0.000000  1
  Sn  Sn15  1  0.000000  0.349900  0.000000  1
  Sn  Sn16  1  0.349900  0.349900  0.000000  1
  Sn  Sn17  1  0.000000  0.650100  0.000000  1
  Sn  Sn18  1  0.650100  0.000000  0.000000  1
  Sn  Sn19  1  0.778039  0.556078  0.454239  1
  Sn  Sn20  1  0.778039  0.221961  0.454239  1
  Sn  Sn21  1  0.443922  0.221961  0.454239  1
  Sn  Sn22  1  0.221961  0.443922  0.545761  1
  Sn  Sn23  1  0.221961  0.778039  0.545761  1
  Sn  Sn24  1  0.556078  0.778039  0.545761  1
  Sn  Sn25  1  0.666667  0.333333  0.180507  1
  Sn  Sn26  1  0.333333  0.666667  0.819493  1
  Sn  Sn27  1  0.666667  0.333333  0.881611  1
  Sn  Sn28  1  0.333333  0.666667  0.118389  1
  Bi  Bi29  1  0.000000  0.000000  0.500000  1
  Rh  Rh30  1  0.168597  0.831403  0.800839  1
  Rh  Rh31  1  0.662807  0.831403  0.800839  1
  Rh  Rh32  1  0.168597  0.337193  0.800839  1
  Rh  Rh33  1  0.831403  0.168597  0.199161  1
  Rh  Rh34  1  0.337193  0.168597  0.199161  1
  Rh  Rh35  1  0.831403  0.662807  0.199161  1
