# generated using pymatgen
data_Nd3SmFe4(WO6)4
_symmetry_space_group_name_H-M   'P 1'
_cell_length_a   5.37519085
_cell_length_b   7.54639702
_cell_length_c   11.11053700
_cell_angle_alpha   90.05671193
_cell_angle_beta   89.93818127
_cell_angle_gamma   89.98130095
_symmetry_Int_Tables_number   1
_chemical_formula_structural   Nd3SmFe4(WO6)4
_chemical_formula_sum   'Nd3 Sm1 Fe4 W4 O24'
_cell_volume   450.67980699
_cell_formula_units_Z   1
loop_
 _symmetry_equiv_pos_site_id
 _symmetry_equiv_pos_as_xyz
  1  'x, y, z'
loop_
 _atom_site_type_symbol
 _atom_site_label
 _atom_site_symmetry_multiplicity
 _atom_site_fract_x
 _atom_site_fract_y
 _atom_site_fract_z
 _atom_site_occupancy
  Nd  Nd0  1  0.543944  0.252981  0.044561  1
  Nd  Nd1  1  0.044631  0.753046  0.455196  1
  Nd  Nd2  1  0.955431  0.253059  0.544942  1
  Sm  Sm3  1  0.453287  0.752988  0.954885  1
  Fe  Fe4  1  0.043554  0.508484  0.138968  1
  Fe  Fe5  1  0.543213  0.007704  0.360304  1
  Fe  Fe6  1  0.456100  0.507941  0.640061  1
  Fe  Fe7  1  0.955704  0.006779  0.860609  1
  W  W8  1  0.050667  0.997463  0.142308  1
  W  W9  1  0.550778  0.498003  0.356961  1
  W  W10  1  0.449295  0.997860  0.643533  1
  W  W11  1  0.948686  0.499320  0.857451  1
  O  O12  1  0.763075  0.542643  0.019850  1
  O  O13  1  0.767396  0.959996  0.029144  1
  O  O14  1  0.166380  0.756280  0.120189  1
  O  O15  1  0.948878  0.245168  0.142931  1
  O  O16  1  0.366785  0.063726  0.209226  1
  O  O17  1  0.382515  0.442784  0.213632  1
  O  O18  1  0.883212  0.942440  0.285946  1
  O  O19  1  0.867857  0.563561  0.290532  1
  O  O20  1  0.448957  0.745544  0.355699  1
  O  O21  1  0.662747  0.256198  0.378289  1
  O  O22  1  0.268805  0.462347  0.470606  1
  O  O23  1  0.265336  0.039926  0.480275  1
  O  O24  1  0.734722  0.540048  0.520155  1
  O  O25  1  0.731277  0.962315  0.529824  1
  O  O26  1  0.337567  0.756362  0.621489  1
  O  O27  1  0.551286  0.245527  0.644957  1
  O  O28  1  0.131885  0.063527  0.709350  1
  O  O29  1  0.116154  0.443605  0.713629  1
  O  O30  1  0.615221  0.941711  0.787596  1
  O  O31  1  0.631560  0.565982  0.791903  1
  O  O32  1  0.056287  0.745801  0.855819  1
  O  O33  1  0.838834  0.256968  0.878916  1
  O  O34  1  0.231705  0.464096  0.970749  1
  O  O35  1  0.236276  0.038219  0.979516  1
