# generated using pymatgen
data_Dy3Ho7BiPb5
_symmetry_space_group_name_H-M   'P 1'
_cell_length_a   9.07081800
_cell_length_b   9.06683350
_cell_length_c   6.55283000
_cell_angle_alpha   90.00000000
_cell_angle_beta   90.00000000
_cell_angle_gamma   120.01454555
_symmetry_Int_Tables_number   1
_chemical_formula_structural   Dy3Ho7BiPb5
_chemical_formula_sum   'Dy3 Ho7 Bi1 Pb5'
_cell_volume   466.65718090
_cell_formula_units_Z   1
loop_
 _symmetry_equiv_pos_site_id
 _symmetry_equiv_pos_as_xyz
  1  'x, y, z'
loop_
 _atom_site_type_symbol
 _atom_site_label
 _atom_site_symmetry_multiplicity
 _atom_site_fract_x
 _atom_site_fract_y
 _atom_site_fract_z
 _atom_site_occupancy
  Dy  Dy0  1  0.236226  0.000000  0.250000  1
  Dy  Dy1  1  0.003306  0.239634  0.250000  1
  Dy  Dy2  1  0.763672  0.760366  0.250000  1
  Ho  Ho3  1  0.331669  0.664638  0.999936  1
  Ho  Ho4  1  0.667032  0.335362  0.500064  1
  Ho  Ho5  1  0.667032  0.335362  0.999936  1
  Ho  Ho6  1  0.331669  0.664638  0.500064  1
  Ho  Ho7  1  0.237306  0.237956  0.750000  1
  Ho  Ho8  1  0.999350  0.762044  0.750000  1
  Ho  Ho9  1  0.762537  0.000000  0.750000  1
  Bi  Bi10  1  0.606316  0.000000  0.250000  1
  Pb  Pb11  1  0.605482  0.606490  0.750000  1
  Pb  Pb12  1  0.998993  0.393510  0.750000  1
  Pb  Pb13  1  0.000179  0.605012  0.250000  1
  Pb  Pb14  1  0.395168  0.394988  0.250000  1
  Pb  Pb15  1  0.394062  0.000000  0.750000  1
