# generated using pymatgen
data_Tb4ReTc3F28
_symmetry_space_group_name_H-M   'P 1'
_cell_length_a   5.62813810
_cell_length_b   8.97311645
_cell_length_c   12.08806710
_cell_angle_alpha   62.45143659
_cell_angle_beta   90.01022616
_cell_angle_gamma   89.98821421
_symmetry_Int_Tables_number   1
_chemical_formula_structural   Tb4ReTc3F28
_chemical_formula_sum   'Tb4 Re1 Tc3 F28'
_cell_volume   541.25507826
_cell_formula_units_Z   1
loop_
 _symmetry_equiv_pos_site_id
 _symmetry_equiv_pos_as_xyz
  1  'x, y, z'
loop_
 _atom_site_type_symbol
 _atom_site_label
 _atom_site_symmetry_multiplicity
 _atom_site_fract_x
 _atom_site_fract_y
 _atom_site_fract_z
 _atom_site_occupancy
  Tb  Tb0  1  0.259141  0.813852  0.264864  1
  Tb  Tb1  1  0.741044  0.186557  0.735507  1
  Tb  Tb2  1  0.758661  0.186185  0.235363  1
  Tb  Tb3  1  0.241713  0.813692  0.764347  1
  Re  Re4  1  0.757565  0.726696  0.042941  1
  Tc  Tc5  1  0.242285  0.273502  0.956779  1
  Tc  Tc6  1  0.257535  0.273503  0.456856  1
  Tc  Tc7  1  0.742660  0.726413  0.543211  1
  F  F8  1  0.946031  0.707914  0.418606  1
  F  F9  1  0.053653  0.291931  0.581352  1
  F  F10  1  0.446050  0.292388  0.081229  1
  F  F11  1  0.552124  0.707143  0.917596  1
  F  F12  1  0.475151  0.729833  0.139588  1
  F  F13  1  0.522066  0.269848  0.860976  1
  F  F14  1  0.977924  0.270137  0.360708  1
  F  F15  1  0.022244  0.730129  0.639173  1
  F  F16  1  0.957311  0.745133  0.171699  1
  F  F17  1  0.043618  0.254931  0.829125  1
  F  F18  1  0.456335  0.255265  0.329004  1
  F  F19  1  0.543938  0.744943  0.670829  1
  F  F20  1  0.769767  0.478626  0.141330  1
  F  F21  1  0.229256  0.519526  0.859574  1
  F  F22  1  0.270189  0.519611  0.359263  1
  F  F23  1  0.729827  0.480359  0.640652  1
  F  F24  1  0.951742  0.279880  0.046230  1
  F  F25  1  0.050692  0.720261  0.953416  1
  F  F26  1  0.452196  0.720346  0.453644  1
  F  F27  1  0.547950  0.279437  0.546461  1
  F  F28  1  0.741551  0.971848  0.446874  1
  F  F29  1  0.258213  0.028151  0.553123  1
  F  F30  1  0.241414  0.027953  0.052832  1
  F  F31  1  0.758906  0.974249  0.946479  1
  F  F32  1  0.582459  0.970957  0.230950  1
  F  F33  1  0.418422  0.028749  0.768777  1
  F  F34  1  0.082300  0.029489  0.268114  1
  F  F35  1  0.918066  0.970564  0.732527  1
