# generated using pymatgen
data_Er2Tm3ReMoC7
_symmetry_space_group_name_H-M   'P 1'
_cell_length_a   8.28142429
_cell_length_b   8.28702000
_cell_length_c   3.38272400
_cell_angle_alpha   90.00000000
_cell_angle_beta   90.00000000
_cell_angle_gamma   122.16944392
_symmetry_Int_Tables_number   1
_chemical_formula_structural   Er2Tm3ReMoC7
_chemical_formula_sum   'Er2 Tm3 Re1 Mo1 C7'
_cell_volume   196.51027711
_cell_formula_units_Z   1
loop_
 _symmetry_equiv_pos_site_id
 _symmetry_equiv_pos_as_xyz
  1  'x, y, z'
loop_
 _atom_site_type_symbol
 _atom_site_label
 _atom_site_symmetry_multiplicity
 _atom_site_fract_x
 _atom_site_fract_y
 _atom_site_fract_z
 _atom_site_occupancy
  Er  Er0  1  0.665161  0.922396  0.500000  1
  Er  Er1  1  0.333833  0.075524  0.500000  1
  Tm  Tm2  1  0.498980  0.501008  0.000000  1
  Tm  Tm3  1  0.077970  0.336527  0.500000  1
  Tm  Tm4  1  0.924072  0.664400  0.500000  1
  Re  Re5  1  0.285947  0.713858  0.000000  1
  Mo  Mo6  1  0.714117  0.286095  0.000000  1
  C  C7  1  0.622084  0.378500  0.500000  1
  C  C8  1  0.375640  0.623813  0.500000  1
  C  C9  1  0.999946  0.000187  0.000000  1
  C  C10  1  0.168780  0.169656  0.000000  1
  C  C11  1  0.832234  0.829403  0.000000  1
  C  C12  1  0.001932  0.500624  0.000000  1
  C  C13  1  0.499302  0.998011  0.000000  1
