# generated using pymatgen
data_ScTa(SiOs)2
_symmetry_space_group_name_H-M   'P 1'
_cell_length_a   7.51550263
_cell_length_b   7.53576855
_cell_length_c   7.51550260
_cell_angle_alpha   127.74301297
_cell_angle_beta   121.80274750
_cell_angle_gamma   81.92962801
_symmetry_Int_Tables_number   1
_chemical_formula_structural   ScTa(SiOs)2
_chemical_formula_sum   'Sc3 Ta3 Si6 Os6'
_cell_volume   275.33707910
_cell_formula_units_Z   3
loop_
 _symmetry_equiv_pos_site_id
 _symmetry_equiv_pos_as_xyz
  1  'x, y, z'
loop_
 _atom_site_type_symbol
 _atom_site_label
 _atom_site_symmetry_multiplicity
 _atom_site_fract_x
 _atom_site_fract_y
 _atom_site_fract_z
 _atom_site_occupancy
  Sc  Sc0  1  0.529435  0.047403  0.017968  1
  Sc  Sc1  1  0.471756  0.489624  0.517867  1
  Sc  Sc2  1  0.944637  0.487407  0.042769  1
  Ta  Ta3  1  0.054978  0.096252  0.541274  1
  Ta  Ta4  1  0.746091  0.919270  0.673179  1
  Ta  Ta5  1  0.253134  0.921717  0.168583  1
  Si  Si6  1  0.719994  0.478798  0.258804  1
  Si  Si7  1  0.284723  0.551462  0.766739  1
  Si  Si8  1  0.323021  0.822670  0.482545  1
  Si  Si9  1  0.675511  0.161626  0.501886  1
  Si  Si10  1  0.840125  0.822670  0.999649  1
  Si  Si11  1  0.159739  0.161626  0.986115  1
  Os  Os12  1  0.490318  0.244640  0.738539  1
  Os  Os13  1  0.006101  0.244640  0.254321  1
  Os  Os14  1  0.087711  0.750088  0.589921  1
  Os  Os15  1  0.910650  0.496108  0.654199  1
  Os  Os16  1  0.660167  0.750088  0.162378  1
  Os  Os17  1  0.341909  0.496108  0.085458  1
