# generated using pymatgen
data_Tb4Pr2TcSb2
_symmetry_space_group_name_H-M   'P 1'
_cell_length_a   8.28940700
_cell_length_b   8.38191302
_cell_length_c   4.29780100
_cell_angle_alpha   90.00000000
_cell_angle_beta   90.00000000
_cell_angle_gamma   120.36985700
_symmetry_Int_Tables_number   1
_chemical_formula_structural   Tb4Pr2TcSb2
_chemical_formula_sum   'Tb4 Pr2 Tc1 Sb2'
_cell_volume   257.63975060
_cell_formula_units_Z   1
loop_
 _symmetry_equiv_pos_site_id
 _symmetry_equiv_pos_as_xyz
  1  'x, y, z'
loop_
 _atom_site_type_symbol
 _atom_site_label
 _atom_site_symmetry_multiplicity
 _atom_site_fract_x
 _atom_site_fract_y
 _atom_site_fract_z
 _atom_site_occupancy
  Tb  Tb0  1  0.239762  0.002926  0.000000  1
  Tb  Tb1  1  0.760238  0.763163  0.000000  1
  Tb  Tb2  1  0.000000  0.228506  0.000000  1
  Tb  Tb3  1  0.000000  0.603674  0.500000  1
  Pr  Pr4  1  0.598020  0.003071  0.500000  1
  Pr  Pr5  1  0.401980  0.405051  0.500000  1
  Tc  Tc6  1  0.000000  0.987014  0.500000  1
  Sb  Sb7  1  0.323069  0.664833  0.000000  1
  Sb  Sb8  1  0.676931  0.341763  0.000000  1
