# generated using pymatgen
data_Rb2TlCuSe13
_symmetry_space_group_name_H-M   'P 1'
_cell_length_a   5.12393700
_cell_length_b   13.83086874
_cell_length_c   15.43942800
_cell_angle_alpha   85.45985119
_cell_angle_beta   90.00000000
_cell_angle_gamma   90.00000000
_symmetry_Int_Tables_number   1
_chemical_formula_structural   Rb2TlCuSe13
_chemical_formula_sum   'Rb4 Tl2 Cu2 Se26'
_cell_volume   1090.73572252
_cell_formula_units_Z   2
loop_
 _symmetry_equiv_pos_site_id
 _symmetry_equiv_pos_as_xyz
  1  'x, y, z'
loop_
 _atom_site_type_symbol
 _atom_site_label
 _atom_site_symmetry_multiplicity
 _atom_site_fract_x
 _atom_site_fract_y
 _atom_site_fract_z
 _atom_site_occupancy
  Rb  Rb0  1  0.224132  0.163162  0.716200  1
  Rb  Rb1  1  0.224132  0.336838  0.283800  1
  Rb  Rb2  1  0.775868  0.836838  0.283800  1
  Rb  Rb3  1  0.775868  0.663162  0.716200  1
  Tl  Tl4  1  0.129286  0.250000  0.000000  1
  Tl  Tl5  1  0.870714  0.750000  0.000000  1
  Cu  Cu6  1  0.000000  0.500000  0.500000  1
  Cu  Cu7  1  0.000000  0.000000  0.500000  1
  Se  Se8  1  0.282630  0.546838  0.610488  1
  Se  Se9  1  0.647105  0.577502  0.275748  1
  Se  Se10  1  0.352895  0.077502  0.275748  1
  Se  Se11  1  0.352895  0.422498  0.724252  1
  Se  Se12  1  0.920616  0.535116  0.157176  1
  Se  Se13  1  0.920616  0.964884  0.842824  1
  Se  Se14  1  0.079384  0.464884  0.842824  1
  Se  Se15  1  0.079384  0.035116  0.157176  1
  Se  Se16  1  0.668648  0.423257  0.082157  1
  Se  Se17  1  0.647105  0.922498  0.724252  1
  Se  Se18  1  0.331352  0.576743  0.917843  1
  Se  Se19  1  0.331352  0.923257  0.082157  1
  Se  Se20  1  0.714894  0.264138  0.148856  1
  Se  Se21  1  0.714894  0.235862  0.851144  1
  Se  Se22  1  0.285106  0.735862  0.851144  1
  Se  Se23  1  0.285106  0.764138  0.148856  1
  Se  Se24  1  0.075533  0.650506  0.420128  1
  Se  Se25  1  0.075533  0.849494  0.579872  1
  Se  Se26  1  0.924467  0.349494  0.579872  1
  Se  Se27  1  0.924467  0.150506  0.420128  1
  Se  Se28  1  0.645496  0.250000  0.500000  1
  Se  Se29  1  0.354504  0.750000  0.500000  1
  Se  Se30  1  0.717370  0.453162  0.389512  1
  Se  Se31  1  0.717370  0.046838  0.610488  1
  Se  Se32  1  0.668648  0.076743  0.917843  1
  Se  Se33  1  0.282630  0.953162  0.389512  1
