# generated using pymatgen
data_Dy4Ta5ReSi8
_symmetry_space_group_name_H-M   'P 1'
_cell_length_a   7.01725102
_cell_length_b   6.88663923
_cell_length_c   6.99001623
_cell_angle_alpha   70.77266460
_cell_angle_beta   89.96000051
_cell_angle_gamma   90.11818160
_symmetry_Int_Tables_number   1
_chemical_formula_structural   Dy4Ta5ReSi8
_chemical_formula_sum   'Dy4 Ta5 Re1 Si8'
_cell_volume   318.95105619
_cell_formula_units_Z   1
loop_
 _symmetry_equiv_pos_site_id
 _symmetry_equiv_pos_as_xyz
  1  'x, y, z'
loop_
 _atom_site_type_symbol
 _atom_site_label
 _atom_site_symmetry_multiplicity
 _atom_site_fract_x
 _atom_site_fract_y
 _atom_site_fract_z
 _atom_site_occupancy
  Dy  Dy0  1  0.667903  0.437779  0.187447  1
  Dy  Dy1  1  0.170102  0.062140  0.812805  1
  Dy  Dy2  1  0.330075  0.563269  0.810894  1
  Dy  Dy3  1  0.830661  0.937581  0.186398  1
  Ta  Ta4  1  0.498922  0.999776  0.499985  1
  Ta  Ta5  1  0.000518  0.500593  0.498191  1
  Ta  Ta6  1  0.174262  0.253905  0.254180  1
  Ta  Ta7  1  0.670571  0.248710  0.743786  1
  Ta  Ta8  1  0.824813  0.748182  0.744850  1
  Re  Re9  1  0.330734  0.750869  0.256127  1
  Si  Si10  1  0.461766  0.130386  0.086835  1
  Si  Si11  1  0.962028  0.365468  0.916037  1
  Si  Si12  1  0.536030  0.863359  0.920996  1
  Si  Si13  1  0.042213  0.634905  0.087772  1
  Si  Si14  1  0.874050  0.127518  0.495542  1
  Si  Si15  1  0.371601  0.374519  0.503820  1
  Si  Si16  1  0.129548  0.871569  0.500568  1
  Si  Si17  1  0.624205  0.629474  0.493766  1
