# generated using pymatgen
data_La16Tb4Ir7Pt5
_symmetry_space_group_name_H-M   'P 1'
_cell_length_a   11.50188140
_cell_length_b   11.50188140
_cell_length_c   6.54141146
_cell_angle_alpha   90.03064964
_cell_angle_beta   90.03064964
_cell_angle_gamma   89.84898887
_symmetry_Int_Tables_number   1
_chemical_formula_structural   La16Tb4Ir7Pt5
_chemical_formula_sum   'La16 Tb4 Ir7 Pt5'
_cell_volume   865.38149791
_cell_formula_units_Z   1
loop_
 _symmetry_equiv_pos_site_id
 _symmetry_equiv_pos_as_xyz
  1  'x, y, z'
loop_
 _atom_site_type_symbol
 _atom_site_label
 _atom_site_symmetry_multiplicity
 _atom_site_fract_x
 _atom_site_fract_y
 _atom_site_fract_z
 _atom_site_occupancy
  La  La0  1  0.293149  0.090857  0.381515  1
  La  La1  1  0.293867  0.908755  0.880947  1
  La  La2  1  0.706692  0.087263  0.881171  1
  La  La3  1  0.706625  0.908755  0.380981  1
  La  La4  1  0.587164  0.787591  0.888073  1
  La  La5  1  0.584847  0.208671  0.381906  1
  La  La6  1  0.413048  0.788708  0.388063  1
  La  La7  1  0.409946  0.210367  0.889101  1
  La  La8  1  0.212409  0.412836  0.611927  1
  La  La9  1  0.211292  0.586952  0.111937  1
  La  La10  1  0.791329  0.415153  0.118094  1
  La  La11  1  0.789633  0.590054  0.610899  1
  La  La12  1  0.909143  0.706851  0.118485  1
  La  La13  1  0.912737  0.293308  0.618829  1
  La  La14  1  0.091245  0.706133  0.619053  1
  La  La15  1  0.091245  0.293375  0.119019  1
  Tb  Tb16  1  0.999960  0.999836  0.499685  1
  Tb  Tb17  1  0.000164  0.000040  0.000315  1
  Tb  Tb18  1  0.498001  0.501819  0.001271  1
  Tb  Tb19  1  0.498181  0.501999  0.498729  1
  Ir  Ir20  1  0.649890  0.648415  0.250215  1
  Ir  Ir21  1  0.351585  0.350110  0.249785  1
  Ir  Ir22  1  0.350237  0.649763  0.750000  1
  Ir  Ir23  1  0.500549  0.000493  0.119849  1
  Ir  Ir24  1  0.500419  0.001366  0.620018  1
  Ir  Ir25  1  0.998634  0.499581  0.879982  1
  Ir  Ir26  1  0.999507  0.499451  0.380151  1
  Pt  Pt27  1  0.851566  0.148434  0.250000  1
  Pt  Pt28  1  0.852347  0.852790  0.749967  1
  Pt  Pt29  1  0.147210  0.147653  0.750033  1
  Pt  Pt30  1  0.147879  0.852121  0.250000  1
  Pt  Pt31  1  0.649500  0.350500  0.750000  1
