# generated using pymatgen
data_CeSmHo4Ta2O14
_symmetry_space_group_name_H-M   'P 1'
_cell_length_a   6.48147604
_cell_length_b   6.48147506
_cell_length_c   7.56430301
_cell_angle_alpha   89.99587961
_cell_angle_beta   90.00411594
_cell_angle_gamma   109.13938089
_symmetry_Int_Tables_number   1
_chemical_formula_structural   CeSmHo4Ta2O14
_chemical_formula_sum   'Ce1 Sm1 Ho4 Ta2 O14'
_cell_volume   300.20750055
_cell_formula_units_Z   1
loop_
 _symmetry_equiv_pos_site_id
 _symmetry_equiv_pos_as_xyz
  1  'x, y, z'
loop_
 _atom_site_type_symbol
 _atom_site_label
 _atom_site_symmetry_multiplicity
 _atom_site_fract_x
 _atom_site_fract_y
 _atom_site_fract_z
 _atom_site_occupancy
  Ce  Ce0  1  0.500000  0.500000  0.500000  1
  Sm  Sm1  1  0.500000  0.500000  0.000000  1
  Ho  Ho2  1  0.533435  0.001155  0.750465  1
  Ho  Ho3  1  0.001155  0.533435  0.249535  1
  Ho  Ho4  1  0.466565  0.998845  0.249535  1
  Ho  Ho5  1  0.998845  0.466565  0.750465  1
  Ta  Ta6  1  0.000000  0.000000  0.500000  1
  Ta  Ta7  1  0.000000  0.000000  0.000000  1
  O  O8  1  0.679355  0.932627  0.467089  1
  O  O9  1  0.932627  0.679355  0.532911  1
  O  O10  1  0.679198  0.929868  0.032576  1
  O  O11  1  0.929868  0.679198  0.967424  1
  O  O12  1  0.320645  0.067373  0.532911  1
  O  O13  1  0.067373  0.320645  0.467089  1
  O  O14  1  0.320802  0.070132  0.967424  1
  O  O15  1  0.070132  0.320802  0.032576  1
  O  O16  1  0.934401  0.065599  0.750115  1
  O  O17  1  0.065599  0.934401  0.249885  1
  O  O18  1  0.364538  0.635461  0.752936  1
  O  O19  1  0.635461  0.364538  0.247064  1
  O  O20  1  0.642358  0.357642  0.752318  1
  O  O21  1  0.357642  0.642358  0.247682  1
