# generated using pymatgen
data_Al3Cu3(Mo3C)2
_symmetry_space_group_name_H-M   'P 1'
_cell_length_a   8.01090221
_cell_length_b   8.01090168
_cell_length_c   8.01090208
_cell_angle_alpha   119.93712748
_cell_angle_beta   119.97848402
_cell_angle_gamma   90.07310095
_symmetry_Int_Tables_number   1
_chemical_formula_structural   Al3Cu3(Mo3C)2
_chemical_formula_sum   'Al6 Cu6 Mo12 C4'
_cell_volume   363.75225754
_cell_formula_units_Z   2
loop_
 _symmetry_equiv_pos_site_id
 _symmetry_equiv_pos_as_xyz
  1  'x, y, z'
loop_
 _atom_site_type_symbol
 _atom_site_label
 _atom_site_symmetry_multiplicity
 _atom_site_fract_x
 _atom_site_fract_y
 _atom_site_fract_z
 _atom_site_occupancy
  Al  Al0  1  0.257168  0.508159  0.749009  1
  Al  Al1  1  0.759149  0.508159  0.250991  1
  Al  Al2  1  0.248011  0.513089  0.265078  1
  Al  Al3  1  0.248011  0.982934  0.734922  1
  Al  Al4  1  0.462054  0.290178  0.171875  1
  Al  Al5  1  0.118302  0.290178  0.828125  1
  Cu  Cu6  1  0.453266  0.290513  0.837248  1
  Cu  Cu7  1  0.453266  0.616018  0.162752  1
  Cu  Cu8  1  0.039932  0.709697  0.330233  1
  Cu  Cu9  1  0.379464  0.709697  0.669767  1
  Cu  Cu10  1  0.040861  0.707508  0.666646  1
  Cu  Cu11  1  0.040861  0.374215  0.333354  1
  Mo  Mo12  1  0.069304  0.069304  0.000000  1
  Mo  Mo13  1  0.687140  0.687140  0.000000  1
  Mo  Mo14  1  0.685025  0.066236  0.001899  1
  Mo  Mo15  1  0.064337  0.683126  0.998101  1
  Mo  Mo16  1  0.064337  0.066236  0.381211  1
  Mo  Mo17  1  0.685025  0.683126  0.618789  1
  Mo  Mo18  1  0.437873  0.937873  0.500000  1
  Mo  Mo19  1  0.816981  0.316981  0.500000  1
  Mo  Mo20  1  0.810838  0.932103  0.497333  1
  Mo  Mo21  1  0.434772  0.313505  0.502667  1
  Mo  Mo22  1  0.434772  0.932103  0.121265  1
  Mo  Mo23  1  0.810838  0.313505  0.878735  1
  C  C24  1  0.750718  0.999475  0.751243  1
  C  C25  1  0.248232  0.999475  0.248757  1
  C  C26  1  0.749731  0.000110  0.250380  1
  C  C27  1  0.749731  0.499351  0.749620  1
