# generated using pymatgen
data_Pr4Co17(ReP4)3
_symmetry_space_group_name_H-M   'P 1'
_cell_length_a   3.75222100
_cell_length_b   10.49194174
_cell_length_c   11.91431626
_cell_angle_alpha   89.83583071
_cell_angle_beta   90.00000000
_cell_angle_gamma   90.00000000
_symmetry_Int_Tables_number   1
_chemical_formula_structural   Pr4Co17(ReP4)3
_chemical_formula_sum   'Pr4 Co17 Re3 P12'
_cell_volume   469.04187936
_cell_formula_units_Z   1
loop_
 _symmetry_equiv_pos_site_id
 _symmetry_equiv_pos_as_xyz
  1  'x, y, z'
loop_
 _atom_site_type_symbol
 _atom_site_label
 _atom_site_symmetry_multiplicity
 _atom_site_fract_x
 _atom_site_fract_y
 _atom_site_fract_z
 _atom_site_occupancy
  Pr  Pr0  1  0.250000  0.581803  0.701765  1
  Pr  Pr1  1  0.250000  0.915318  0.203848  1
  Pr  Pr2  1  0.750000  0.414613  0.297487  1
  Pr  Pr3  1  0.750000  0.083935  0.795462  1
  Co  Co4  1  0.750000  0.212233  0.511292  1
  Co  Co5  1  0.250000  0.404603  0.490707  1
  Co  Co6  1  0.250000  0.095844  0.990757  1
  Co  Co7  1  0.750000  0.595921  0.508475  1
  Co  Co8  1  0.750000  0.903782  0.008713  1
  Co  Co9  1  0.250000  0.220786  0.175424  1
  Co  Co10  1  0.250000  0.278079  0.675459  1
  Co  Co11  1  0.750000  0.777440  0.823866  1
  Co  Co12  1  0.750000  0.722398  0.324861  1
  Co  Co13  1  0.250000  0.885430  0.699570  1
  Co  Co14  1  0.250000  0.614538  0.200850  1
  Co  Co15  1  0.750000  0.116387  0.302778  1
  Co  Co16  1  0.750000  0.384750  0.799514  1
  Co  Co17  1  0.250000  0.464763  0.933861  1
  Co  Co18  1  0.250000  0.034299  0.433305  1
  Co  Co19  1  0.750000  0.535402  0.066918  1
  Co  Co20  1  0.750000  0.967536  0.566724  1
  Re  Re21  1  0.250000  0.707404  0.988660  1
  Re  Re22  1  0.250000  0.792825  0.488645  1
  Re  Re23  1  0.750000  0.292210  0.011242  1
  P  P24  1  0.250000  0.418799  0.111797  1
  P  P25  1  0.250000  0.083167  0.608895  1
  P  P26  1  0.750000  0.579754  0.888460  1
  P  P27  1  0.750000  0.920605  0.389323  1
  P  P28  1  0.250000  0.274847  0.865088  1
  P  P29  1  0.250000  0.224809  0.368662  1
  P  P30  1  0.750000  0.724914  0.134892  1
  P  P31  1  0.750000  0.775827  0.633068  1
  P  P32  1  0.250000  0.599622  0.393550  1
  P  P33  1  0.250000  0.900206  0.892836  1
  P  P34  1  0.750000  0.394262  0.604817  1
  P  P35  1  0.750000  0.100888  0.108429  1
