# generated using pymatgen
data_Lu2UAl2GaIr3
_symmetry_space_group_name_H-M   'P 1'
_cell_length_a   7.04127370
_cell_length_b   7.18498455
_cell_length_c   3.85337000
_cell_angle_alpha   90.00000000
_cell_angle_beta   90.00000000
_cell_angle_gamma   120.52535501
_symmetry_Int_Tables_number   1
_chemical_formula_structural   Lu2UAl2GaIr3
_chemical_formula_sum   'Lu2 U1 Al2 Ga1 Ir3'
_cell_volume   167.92869008
_cell_formula_units_Z   1
loop_
 _symmetry_equiv_pos_site_id
 _symmetry_equiv_pos_as_xyz
  1  'x, y, z'
loop_
 _atom_site_type_symbol
 _atom_site_label
 _atom_site_symmetry_multiplicity
 _atom_site_fract_x
 _atom_site_fract_y
 _atom_site_fract_z
 _atom_site_occupancy
  Lu  Lu0  1  0.411835  0.415614  0.500000  1
  Lu  Lu1  1  0.592174  0.000851  0.500000  1
  U  U2  1  0.997258  0.579214  0.500000  1
  Al  Al3  1  0.256277  0.011098  0.000000  1
  Al  Al4  1  0.002976  0.231788  0.000000  1
  Ga  Ga5  1  0.738418  0.749682  0.000000  1
  Ir  Ir6  1  0.693562  0.352283  0.000000  1
  Ir  Ir7  1  0.300570  0.664399  0.000000  1
  Ir  Ir8  1  0.006930  0.995071  0.500000  1
