# generated using pymatgen
data_Sc12Al(PdI8)2
_symmetry_space_group_name_H-M   'P 1'
_cell_length_a   9.20579559
_cell_length_b   12.05883309
_cell_length_c   12.68522900
_cell_angle_alpha   117.31695408
_cell_angle_beta   101.19383469
_cell_angle_gamma   100.65846228
_symmetry_Int_Tables_number   1
_chemical_formula_structural   Sc12Al(PdI8)2
_chemical_formula_sum   'Sc12 Al1 Pd2 I16'
_cell_volume   1165.11227536
_cell_formula_units_Z   1
loop_
 _symmetry_equiv_pos_site_id
 _symmetry_equiv_pos_as_xyz
  1  'x, y, z'
loop_
 _atom_site_type_symbol
 _atom_site_label
 _atom_site_symmetry_multiplicity
 _atom_site_fract_x
 _atom_site_fract_y
 _atom_site_fract_z
 _atom_site_occupancy
  Sc  Sc0  1  0.090724  0.266761  0.356370  1
  Sc  Sc1  1  0.909276  0.733239  0.643630  1
  Sc  Sc2  1  0.775460  0.535645  0.326750  1
  Sc  Sc3  1  0.224540  0.464355  0.673250  1
  Sc  Sc4  1  0.281241  0.733790  0.643096  1
  Sc  Sc5  1  0.718759  0.266210  0.356904  1
  Sc  Sc6  1  0.147566  0.535611  0.326894  1
  Sc  Sc7  1  0.852434  0.464389  0.673106  1
  Sc  Sc8  1  0.407094  0.360764  0.277065  1
  Sc  Sc9  1  0.592906  0.639236  0.722935  1
  Sc  Sc10  1  0.459449  0.311218  0.520982  1
  Sc  Sc11  1  0.540551  0.688782  0.479018  1
  Al  Al12  1  0.000000  0.500000  0.500000  1
  Pd  Pd13  1  0.337684  0.500144  0.499649  1
  Pd  Pd14  1  0.662317  0.499856  0.500351  1
  I  I15  1  0.396256  0.739932  0.883078  1
  I  I16  1  0.603744  0.260068  0.116922  1
  I  I17  1  0.187128  0.961509  0.781742  1
  I  I18  1  0.812872  0.038491  0.218258  1
  I  I19  1  0.338058  0.096023  0.251596  1
  I  I20  1  0.661942  0.903977  0.748404  1
  I  I21  1  0.557613  0.438510  0.799995  1
  I  I22  1  0.442387  0.561490  0.200005  1
  I  I23  1  0.307291  0.824749  0.461785  1
  I  I24  1  0.692709  0.175251  0.538215  1
  I  I25  1  0.167701  0.173996  0.534771  1
  I  I26  1  0.832299  0.826004  0.465229  1
  I  I27  1  0.925717  0.573089  0.159971  1
  I  I28  1  0.074283  0.426911  0.840029  1
  I  I29  1  0.922794  0.738443  0.883505  1
  I  I30  1  0.077206  0.261557  0.116495  1
