# generated using pymatgen
data_Pr16Mg2Hg2IrOs3
_symmetry_space_group_name_H-M   'P 1'
_cell_length_a   10.02268745
_cell_length_b   10.05191211
_cell_length_c   10.10777300
_cell_angle_alpha   59.81985902
_cell_angle_beta   59.72240223
_cell_angle_gamma   59.94434738
_symmetry_Int_Tables_number   1
_chemical_formula_structural   Pr16Mg2Hg2IrOs3
_chemical_formula_sum   'Pr16 Mg2 Hg2 Ir1 Os3'
_cell_volume   717.26547617
_cell_formula_units_Z   1
loop_
 _symmetry_equiv_pos_site_id
 _symmetry_equiv_pos_as_xyz
  1  'x, y, z'
loop_
 _atom_site_type_symbol
 _atom_site_label
 _atom_site_symmetry_multiplicity
 _atom_site_fract_x
 _atom_site_fract_y
 _atom_site_fract_z
 _atom_site_occupancy
  Pr  Pr0  1  0.344011  0.345363  0.345808  1
  Pr  Pr1  1  0.344039  0.345323  0.964817  1
  Pr  Pr2  1  0.345370  0.960102  0.347228  1
  Pr  Pr3  1  0.963481  0.344969  0.345794  1
  Pr  Pr4  1  0.810426  0.190160  0.190018  1
  Pr  Pr5  1  0.189879  0.809075  0.810702  1
  Pr  Pr6  1  0.189863  0.809106  0.190321  1
  Pr  Pr7  1  0.810440  0.190157  0.809406  1
  Pr  Pr8  1  0.189624  0.189688  0.810345  1
  Pr  Pr9  1  0.807518  0.803473  0.194520  1
  Pr  Pr10  1  0.937957  0.559501  0.559967  1
  Pr  Pr11  1  0.558307  0.938454  0.941231  1
  Pr  Pr12  1  0.558224  0.938507  0.561988  1
  Pr  Pr13  1  0.938044  0.559411  0.942666  1
  Pr  Pr14  1  0.557143  0.561984  0.940435  1
  Pr  Pr15  1  0.939064  0.941602  0.559682  1
  Mg  Mg16  1  0.579812  0.276598  0.571809  1
  Mg  Mg17  1  0.275837  0.580005  0.572074  1
  Hg  Hg18  1  0.580588  0.580467  0.588317  1
  Hg  Hg19  1  0.580582  0.580443  0.250656  1
  Ir  Ir20  1  0.581329  0.138128  0.140267  1
  Os  Os21  1  0.139494  0.137366  0.138735  1
  Os  Os22  1  0.139502  0.137342  0.584375  1
  Os  Os23  1  0.139468  0.582778  0.138842  1
