# generated using pymatgen
data_Lu12Mn2In2Os
_symmetry_space_group_name_H-M   'P 1'
_cell_length_a   8.21081476
_cell_length_b   8.21081544
_cell_length_c   8.21081427
_cell_angle_alpha   108.56668293
_cell_angle_beta   108.56669121
_cell_angle_gamma   111.29583809
_symmetry_Int_Tables_number   1
_chemical_formula_structural   Lu12Mn2In2Os
_chemical_formula_sum   'Lu12 Mn2 In2 Os1'
_cell_volume   425.79961228
_cell_formula_units_Z   1
loop_
 _symmetry_equiv_pos_site_id
 _symmetry_equiv_pos_as_xyz
  1  'x, y, z'
loop_
 _atom_site_type_symbol
 _atom_site_label
 _atom_site_symmetry_multiplicity
 _atom_site_fract_x
 _atom_site_fract_y
 _atom_site_fract_z
 _atom_site_occupancy
  Lu  Lu0  1  0.307635  0.307635  0.615271  1
  Lu  Lu1  1  0.692365  0.692365  0.384729  1
  Lu  Lu2  1  0.692365  0.307635  0.000000  1
  Lu  Lu3  1  0.307635  0.692365  0.000000  1
  Lu  Lu4  1  0.192396  0.429735  0.237339  1
  Lu  Lu5  1  0.807604  0.570265  0.762661  1
  Lu  Lu6  1  0.192396  0.955055  0.762661  1
  Lu  Lu7  1  0.955055  0.192396  0.762661  1
  Lu  Lu8  1  0.807604  0.044945  0.237339  1
  Lu  Lu9  1  0.044945  0.807604  0.237339  1
  Lu  Lu10  1  0.429735  0.192396  0.237339  1
  Lu  Lu11  1  0.570265  0.807604  0.762661  1
  Mn  Mn12  1  0.384057  0.384057  0.000000  1
  Mn  Mn13  1  0.615943  0.615943  0.000000  1
  In  In14  1  0.000000  0.500000  0.500000  1
  In  In15  1  0.500000  0.000000  0.500000  1
  Os  Os16  1  0.000000  0.000000  0.000000  1
