# generated using pymatgen
data_CoRh7S16
_symmetry_space_group_name_H-M   'P 1'
_cell_length_a   3.54863000
_cell_length_b   5.70349793
_cell_length_c   19.84929435
_cell_angle_alpha   90.14223315
_cell_angle_beta   90.00000000
_cell_angle_gamma   90.00000000
_symmetry_Int_Tables_number   1
_chemical_formula_structural   CoRh7S16
_chemical_formula_sum   'Co1 Rh7 S16'
_cell_volume   401.74061654
_cell_formula_units_Z   1
loop_
 _symmetry_equiv_pos_site_id
 _symmetry_equiv_pos_as_xyz
  1  'x, y, z'
loop_
 _atom_site_type_symbol
 _atom_site_label
 _atom_site_symmetry_multiplicity
 _atom_site_fract_x
 _atom_site_fract_y
 _atom_site_fract_z
 _atom_site_occupancy
  Co  Co0  1  0.250000  0.577486  0.076912  1
  Rh  Rh1  1  0.250000  0.945759  0.805853  1
  Rh  Rh2  1  0.750000  0.051550  0.192489  1
  Rh  Rh3  1  0.750000  0.445637  0.696176  1
  Rh  Rh4  1  0.250000  0.554293  0.302511  1
  Rh  Rh5  1  0.250000  0.921224  0.576145  1
  Rh  Rh6  1  0.750000  0.079572  0.422802  1
  Rh  Rh7  1  0.750000  0.424903  0.926763  1
  S  S8  1  0.250000  0.223808  0.492746  1
  S  S9  1  0.750000  0.776732  0.506277  1
  S  S10  1  0.750000  0.716959  0.012577  1
  S  S11  1  0.250000  0.290424  0.997878  1
  S  S12  1  0.250000  0.170256  0.264020  1
  S  S13  1  0.750000  0.830450  0.734277  1
  S  S14  1  0.750000  0.668282  0.230913  1
  S  S15  1  0.250000  0.330407  0.767638  1
  S  S16  1  0.250000  0.941641  0.354433  1
  S  S17  1  0.750000  0.059430  0.644192  1
  S  S18  1  0.750000  0.443320  0.139202  1
  S  S19  1  0.250000  0.560690  0.857662  1
  S  S20  1  0.250000  0.541949  0.621860  1
  S  S21  1  0.750000  0.458717  0.377065  1
  S  S22  1  0.750000  0.043191  0.880620  1
  S  S23  1  0.250000  0.943320  0.118994  1
