# generated using pymatgen
data_Na15MnCr2P6(O4F)6
_symmetry_space_group_name_H-M   'P 1'
_cell_length_a   10.71576200
_cell_length_b   10.71576190
_cell_length_c   6.76644900
_cell_angle_alpha   90.00000000
_cell_angle_beta   90.00000000
_cell_angle_gamma   120.00000030
_symmetry_Int_Tables_number   1
_chemical_formula_structural   Na15MnCr2P6(O4F)6
_chemical_formula_sum   'Na15 Mn1 Cr2 P6 O24 F6'
_cell_volume   672.87990354
_cell_formula_units_Z   1
loop_
 _symmetry_equiv_pos_site_id
 _symmetry_equiv_pos_as_xyz
  1  'x, y, z'
loop_
 _atom_site_type_symbol
 _atom_site_label
 _atom_site_symmetry_multiplicity
 _atom_site_fract_x
 _atom_site_fract_y
 _atom_site_fract_z
 _atom_site_occupancy
  Na  Na0  1  0.667449  0.334666  0.569661  1
  Na  Na1  1  0.000000  0.000000  0.500000  1
  Na  Na2  1  0.332551  0.665334  0.430339  1
  Na  Na3  1  0.667327  0.334834  0.006792  1
  Na  Na4  1  0.172771  0.856343  0.240618  1
  Na  Na5  1  0.316884  0.173548  0.758411  1
  Na  Na6  1  0.500000  0.500000  0.500000  1
  Na  Na7  1  0.144453  0.318670  0.242055  1
  Na  Na8  1  0.827229  0.143657  0.759382  1
  Na  Na9  1  0.683116  0.826452  0.241589  1
  Na  Na10  1  0.500000  0.000000  0.500000  1
  Na  Na11  1  0.332673  0.665166  0.993208  1
  Na  Na12  1  0.000000  0.000000  0.000000  1
  Na  Na13  1  0.855547  0.681330  0.757945  1
  Na  Na14  1  0.000000  0.500000  0.500000  1
  Mn  Mn15  1  0.500000  0.500000  0.000000  1
  Cr  Cr16  1  0.000000  0.500000  0.000000  1
  Cr  Cr17  1  0.500000  0.000000  0.000000  1
  P  P18  1  0.813946  0.183015  0.250327  1
  P  P19  1  0.817492  0.631486  0.248267  1
  P  P20  1  0.369163  0.187466  0.249907  1
  P  P21  1  0.182508  0.368514  0.751733  1
  P  P22  1  0.630837  0.812534  0.750093  1
  P  P23  1  0.186054  0.816985  0.749673  1
  O  O24  1  0.739786  0.170478  0.449649  1
  O  O25  1  0.422621  0.077366  0.209499  1
  O  O26  1  0.830599  0.570106  0.446759  1
  O  O27  1  0.347637  0.422379  0.788477  1
  O  O28  1  0.891529  0.093963  0.244617  1
  O  O29  1  0.169401  0.429894  0.553241  1
  O  O30  1  0.260214  0.829522  0.550351  1
  O  O31  1  0.797108  0.890131  0.758166  1
  O  O32  1  0.430451  0.260152  0.449223  1
  O  O33  1  0.565323  0.700601  0.926147  1
  O  O34  1  0.434677  0.299399  0.073853  1
  O  O35  1  0.569549  0.739848  0.550777  1
  O  O36  1  0.704005  0.137343  0.074120  1
  O  O37  1  0.652363  0.577621  0.211523  1
  O  O38  1  0.925059  0.347019  0.212842  1
  O  O39  1  0.577379  0.922634  0.790501  1
  O  O40  1  0.904926  0.798143  0.242817  1
  O  O41  1  0.863111  0.567649  0.072360  1
  O  O42  1  0.108471  0.906037  0.755383  1
  O  O43  1  0.074941  0.652981  0.787158  1
  O  O44  1  0.095074  0.201857  0.757183  1
  O  O45  1  0.136889  0.432351  0.927640  1
  O  O46  1  0.295995  0.862657  0.925880  1
  O  O47  1  0.202892  0.109869  0.241834  1
  F  F48  1  0.629491  0.479348  0.782495  1
  F  F49  1  0.370509  0.520652  0.217505  1
  F  F50  1  0.860515  0.376430  0.797434  1
  F  F51  1  0.482665  0.860290  0.203134  1
  F  F52  1  0.517335  0.139710  0.796866  1
  F  F53  1  0.139485  0.623570  0.202566  1
