# generated using pymatgen
data_Dy2LuSc3Bi2Ru
_symmetry_space_group_name_H-M   'P 1'
_cell_length_a   4.18679300
_cell_length_b   7.96269381
_cell_length_c   7.96270372
_cell_angle_alpha   119.91627966
_cell_angle_beta   90.00000000
_cell_angle_gamma   90.00000000
_symmetry_Int_Tables_number   1
_chemical_formula_structural   Dy2LuSc3Bi2Ru
_chemical_formula_sum   'Dy2 Lu1 Sc3 Bi2 Ru1'
_cell_volume   230.09037750
_cell_formula_units_Z   1
loop_
 _symmetry_equiv_pos_site_id
 _symmetry_equiv_pos_as_xyz
  1  'x, y, z'
loop_
 _atom_site_type_symbol
 _atom_site_label
 _atom_site_symmetry_multiplicity
 _atom_site_fract_x
 _atom_site_fract_y
 _atom_site_fract_z
 _atom_site_occupancy
  Dy  Dy0  1  0.000000  0.999037  0.609632  1
  Dy  Dy1  1  0.000000  0.609631  0.999040  1
  Lu  Lu2  1  0.000000  0.381132  0.381132  1
  Sc  Sc3  1  0.500000  0.779113  0.779115  1
  Sc  Sc4  1  0.500000  0.998543  0.226497  1
  Sc  Sc5  1  0.500000  0.226500  0.998543  1
  Bi  Bi6  1  0.500000  0.662166  0.334794  1
  Bi  Bi7  1  0.500000  0.334796  0.662168  1
  Ru  Ru8  1  0.000000  0.009081  0.009080  1
