# generated using pymatgen
data_YHo3Cu3Pd
_symmetry_space_group_name_H-M   'P 1'
_cell_length_a   4.50134500
_cell_length_b   5.43691524
_cell_length_c   7.12639739
_cell_angle_alpha   90.04639438
_cell_angle_beta   90.00000000
_cell_angle_gamma   90.00000000
_symmetry_Int_Tables_number   1
_chemical_formula_structural   YHo3Cu3Pd
_chemical_formula_sum   'Y1 Ho3 Cu3 Pd1'
_cell_volume   174.40733933
_cell_formula_units_Z   1
loop_
 _symmetry_equiv_pos_site_id
 _symmetry_equiv_pos_as_xyz
  1  'x, y, z'
loop_
 _atom_site_type_symbol
 _atom_site_label
 _atom_site_symmetry_multiplicity
 _atom_site_fract_x
 _atom_site_fract_y
 _atom_site_fract_z
 _atom_site_occupancy
  Y  Y0  1  0.250000  0.135290  0.181965  1
  Ho  Ho1  1  0.250000  0.363224  0.682287  1
  Ho  Ho2  1  0.750000  0.638321  0.319730  1
  Ho  Ho3  1  0.750000  0.863783  0.816071  1
  Cu  Cu4  1  0.250000  0.623833  0.032317  1
  Cu  Cu5  1  0.750000  0.137007  0.463209  1
  Cu  Cu6  1  0.750000  0.375552  0.967763  1
  Pd  Pd7  1  0.250000  0.862991  0.536659  1
