# generated using pymatgen
data_CaAcSnIr2
_symmetry_space_group_name_H-M   'P 1'
_cell_length_a   5.94134698
_cell_length_b   5.94134773
_cell_length_c   8.23344733
_cell_angle_alpha   101.18287114
_cell_angle_beta   101.18287430
_cell_angle_gamma   59.57671343
_symmetry_Int_Tables_number   1
_chemical_formula_structural   CaAcSnIr2
_chemical_formula_sum   'Ca2 Ac2 Sn2 Ir4'
_cell_volume   244.28110760
_cell_formula_units_Z   2
loop_
 _symmetry_equiv_pos_site_id
 _symmetry_equiv_pos_as_xyz
  1  'x, y, z'
loop_
 _atom_site_type_symbol
 _atom_site_label
 _atom_site_symmetry_multiplicity
 _atom_site_fract_x
 _atom_site_fract_y
 _atom_site_fract_z
 _atom_site_occupancy
  Ca  Ca0  1  0.505763  0.793772  0.655664  1
  Ca  Ca1  1  0.206228  0.494237  0.844335  1
  Ac  Ac2  1  0.785563  0.501572  0.133632  1
  Ac  Ac3  1  0.498428  0.214437  0.366368  1
  Sn  Sn4  1  0.129588  0.870413  0.250000  1
  Sn  Sn5  1  0.889498  0.110502  0.750000  1
  Ir  Ir6  1  0.285201  0.007272  0.005911  1
  Ir  Ir7  1  0.992728  0.714799  0.494088  1
  Ir  Ir8  1  0.991142  0.284139  0.499876  1
  Ir  Ir9  1  0.715861  0.008858  0.000123  1
