# generated using pymatgen
data_CePaNi12P7
_symmetry_space_group_name_H-M   'P 1'
_cell_length_a   9.07010400
_cell_length_b   9.07010309
_cell_length_c   3.71345700
_cell_angle_alpha   90.00000000
_cell_angle_beta   90.00000000
_cell_angle_gamma   119.99999604
_symmetry_Int_Tables_number   1
_chemical_formula_structural   CePaNi12P7
_chemical_formula_sum   'Ce1 Pa1 Ni12 P7'
_cell_volume   264.56569966
_cell_formula_units_Z   1
loop_
 _symmetry_equiv_pos_site_id
 _symmetry_equiv_pos_as_xyz
  1  'x, y, z'
loop_
 _atom_site_type_symbol
 _atom_site_label
 _atom_site_symmetry_multiplicity
 _atom_site_fract_x
 _atom_site_fract_y
 _atom_site_fract_z
 _atom_site_occupancy
  Ce  Ce0  1  0.666667  0.333333  0.500000  1
  Pa  Pa1  1  0.333333  0.666667  0.000000  1
  Ni  Ni2  1  0.382631  0.431524  0.500000  1
  Ni  Ni3  1  0.149394  0.275130  0.000000  1
  Ni  Ni4  1  0.125737  0.850606  0.000000  1
  Ni  Ni5  1  0.724870  0.874263  0.000000  1
  Ni  Ni6  1  0.880646  0.785117  0.500000  1
  Ni  Ni7  1  0.904471  0.119354  0.500000  1
  Ni  Ni8  1  0.048894  0.617369  0.500000  1
  Ni  Ni9  1  0.941560  0.378067  0.000000  1
  Ni  Ni10  1  0.214883  0.095529  0.500000  1
  Ni  Ni11  1  0.568476  0.951106  0.500000  1
  Ni  Ni12  1  0.621933  0.563494  0.000000  1
  Ni  Ni13  1  0.436506  0.058440  0.000000  1
  P  P14  1  0.598458  0.705726  0.500000  1
  P  P15  1  0.107266  0.401542  0.500000  1
  P  P16  1  0.890318  0.599484  0.000000  1
  P  P17  1  0.294274  0.892734  0.500000  1
  P  P18  1  0.000000  0.000000  0.000000  1
  P  P19  1  0.709165  0.109682  0.000000  1
  P  P20  1  0.400516  0.290835  0.000000  1
