# generated using pymatgen
data_Eu3TiOsC6
_symmetry_space_group_name_H-M   'P 1'
_cell_length_a   8.46122400
_cell_length_b   8.46122256
_cell_length_c   5.12077600
_cell_angle_alpha   90.00000000
_cell_angle_beta   90.00000000
_cell_angle_gamma   119.99998217
_symmetry_Int_Tables_number   1
_chemical_formula_structural   Eu3TiOsC6
_chemical_formula_sum   'Eu6 Ti2 Os2 C12'
_cell_volume   317.49200955
_cell_formula_units_Z   2
loop_
 _symmetry_equiv_pos_site_id
 _symmetry_equiv_pos_as_xyz
  1  'x, y, z'
loop_
 _atom_site_type_symbol
 _atom_site_label
 _atom_site_symmetry_multiplicity
 _atom_site_fract_x
 _atom_site_fract_y
 _atom_site_fract_z
 _atom_site_occupancy
  Eu  Eu0  1  0.609419  0.686658  0.750000  1
  Eu  Eu1  1  0.922761  0.609419  0.250000  1
  Eu  Eu2  1  0.686658  0.077239  0.250000  1
  Eu  Eu3  1  0.313342  0.922761  0.750000  1
  Eu  Eu4  1  0.077239  0.390581  0.750000  1
  Eu  Eu5  1  0.390581  0.313342  0.250000  1
  Ti  Ti6  1  0.000000  0.000000  0.500000  1
  Ti  Ti7  1  0.000000  0.000000  0.000000  1
  Os  Os8  1  0.666667  0.333333  0.750000  1
  Os  Os9  1  0.333333  0.666667  0.250000  1
  C  C10  1  0.953022  0.765850  0.750000  1
  C  C11  1  0.187171  0.953022  0.250000  1
  C  C12  1  0.765850  0.812829  0.250000  1
  C  C13  1  0.234150  0.187171  0.750000  1
  C  C14  1  0.812829  0.046978  0.750000  1
  C  C15  1  0.046978  0.234150  0.250000  1
  C  C16  1  0.857377  0.582427  0.750000  1
  C  C17  1  0.274949  0.857377  0.250000  1
  C  C18  1  0.582427  0.725051  0.250000  1
  C  C19  1  0.417573  0.274949  0.750000  1
  C  C20  1  0.142623  0.417573  0.250000  1
  C  C21  1  0.725051  0.142623  0.750000  1
