# generated using pymatgen
data_Sc2Ga9Ru5
_symmetry_space_group_name_H-M   'P 1'
_cell_length_a   7.92456506
_cell_length_b   7.92456478
_cell_length_c   7.92456515
_cell_angle_alpha   134.60766471
_cell_angle_beta   134.60766235
_cell_angle_gamma   66.14041837
_symmetry_Int_Tables_number   1
_chemical_formula_structural   Sc2Ga9Ru5
_chemical_formula_sum   'Sc2 Ga9 Ru5'
_cell_volume   248.34527680
_cell_formula_units_Z   1
loop_
 _symmetry_equiv_pos_site_id
 _symmetry_equiv_pos_as_xyz
  1  'x, y, z'
loop_
 _atom_site_type_symbol
 _atom_site_label
 _atom_site_symmetry_multiplicity
 _atom_site_fract_x
 _atom_site_fract_y
 _atom_site_fract_z
 _atom_site_occupancy
  Sc  Sc0  1  0.000000  0.500000  0.500000  1
  Sc  Sc1  1  0.500000  0.000000  0.500000  1
  Ga  Ga2  1  0.431638  0.856769  0.000000  1
  Ga  Ga3  1  0.143231  0.143231  0.574869  1
  Ga  Ga4  1  0.856769  0.431638  0.000000  1
  Ga  Ga5  1  0.856769  0.856769  0.425131  1
  Ga  Ga6  1  0.568362  0.143231  0.000000  1
  Ga  Ga7  1  0.143231  0.568362  0.000000  1
  Ga  Ga8  1  0.568362  0.568362  0.425131  1
  Ga  Ga9  1  0.000000  0.000000  0.000000  1
  Ga  Ga10  1  0.431638  0.431638  0.574869  1
  Ru  Ru11  1  0.184413  0.184413  0.000000  1
  Ru  Ru12  1  0.815587  0.815587  0.000000  1
  Ru  Ru13  1  0.250000  0.750000  0.500000  1
  Ru  Ru14  1  0.750000  0.250000  0.500000  1
  Ru  Ru15  1  0.500000  0.500000  0.000000  1
