# generated using pymatgen
data_Cs12Nb3TcS16
_symmetry_space_group_name_H-M   'P 1'
_cell_length_a   10.05228601
_cell_length_b   10.11514518
_cell_length_c   11.92086800
_cell_angle_alpha   90.00000000
_cell_angle_beta   90.00000000
_cell_angle_gamma   89.97423321
_symmetry_Int_Tables_number   1
_chemical_formula_structural   Cs12Nb3TcS16
_chemical_formula_sum   'Cs12 Nb3 Tc1 S16'
_cell_volume   1212.11769712
_cell_formula_units_Z   1
loop_
 _symmetry_equiv_pos_site_id
 _symmetry_equiv_pos_as_xyz
  1  'x, y, z'
loop_
 _atom_site_type_symbol
 _atom_site_label
 _atom_site_symmetry_multiplicity
 _atom_site_fract_x
 _atom_site_fract_y
 _atom_site_fract_z
 _atom_site_occupancy
  Cs  Cs0  1  0.547663  0.211829  0.044425  1
  Cs  Cs1  1  0.043931  0.291600  0.455763  1
  Cs  Cs2  1  0.454633  0.789547  0.542209  1
  Cs  Cs3  1  0.953198  0.708675  0.958367  1
  Cs  Cs4  1  0.454633  0.789547  0.957791  1
  Cs  Cs5  1  0.953198  0.708675  0.541633  1
  Cs  Cs6  1  0.547663  0.211829  0.455575  1
  Cs  Cs7  1  0.043931  0.291600  0.044237  1
  Cs  Cs8  1  0.648068  0.412765  0.750000  1
  Cs  Cs9  1  0.147833  0.086742  0.750000  1
  Cs  Cs10  1  0.353723  0.585168  0.250000  1
  Cs  Cs11  1  0.851163  0.913347  0.250000  1
  Nb  Nb12  1  0.722719  0.982691  0.750000  1
  Nb  Nb13  1  0.223062  0.517208  0.750000  1
  Nb  Nb14  1  0.277115  0.016899  0.250000  1
  Tc  Tc15  1  0.777251  0.482681  0.250000  1
  S  S16  1  0.832423  0.048563  0.590717  1
  S  S17  1  0.333054  0.451728  0.909409  1
  S  S18  1  0.167310  0.950869  0.090869  1
  S  S19  1  0.670672  0.547037  0.404095  1
  S  S20  1  0.167310  0.950869  0.409131  1
  S  S21  1  0.670672  0.547037  0.095905  1
  S  S22  1  0.832423  0.048563  0.909283  1
  S  S23  1  0.333054  0.451728  0.590591  1
  S  S24  1  0.511088  0.069328  0.750000  1
  S  S25  1  0.011294  0.430718  0.750000  1
  S  S26  1  0.489117  0.930514  0.250000  1
  S  S27  1  0.982679  0.566700  0.250000  1
  S  S28  1  0.709165  0.755746  0.750000  1
  S  S29  1  0.209247  0.743816  0.750000  1
  S  S30  1  0.290398  0.243648  0.250000  1
  S  S31  1  0.790308  0.262331  0.250000  1
