# generated using pymatgen
data_Pu3Hf(NiAs)4
_symmetry_space_group_name_H-M   'P 1'
_cell_length_a   4.05525700
_cell_length_b   4.05525761
_cell_length_c   15.35609700
_cell_angle_alpha   90.00000000
_cell_angle_beta   90.00000000
_cell_angle_gamma   120.00000316
_symmetry_Int_Tables_number   1
_chemical_formula_structural   Pu3Hf(NiAs)4
_chemical_formula_sum   'Pu3 Hf1 Ni4 As4'
_cell_volume   218.69975451
_cell_formula_units_Z   1
loop_
 _symmetry_equiv_pos_site_id
 _symmetry_equiv_pos_as_xyz
  1  'x, y, z'
loop_
 _atom_site_type_symbol
 _atom_site_label
 _atom_site_symmetry_multiplicity
 _atom_site_fract_x
 _atom_site_fract_y
 _atom_site_fract_z
 _atom_site_occupancy
  Pu  Pu0  1  0.000000  0.000000  0.750000  1
  Pu  Pu1  1  0.000000  0.000000  0.007440  1
  Pu  Pu2  1  0.000000  0.000000  0.492560  1
  Hf  Hf3  1  0.000000  0.000000  0.250000  1
  Ni  Ni4  1  0.333333  0.666667  0.163173  1
  Ni  Ni5  1  0.666667  0.333333  0.877564  1
  Ni  Ni6  1  0.666667  0.333333  0.622436  1
  Ni  Ni7  1  0.333333  0.666667  0.336827  1
  As  As8  1  0.333333  0.666667  0.619890  1
  As  As9  1  0.666667  0.333333  0.373537  1
  As  As10  1  0.666667  0.333333  0.126463  1
  As  As11  1  0.333333  0.666667  0.880110  1
