# generated using pymatgen
data_Hf2Al9OsRh2
_symmetry_space_group_name_H-M   'P 1'
_cell_length_a   7.44372226
_cell_length_b   7.44372226
_cell_length_c   9.21627500
_cell_angle_alpha   90.00000000
_cell_angle_beta   90.00000000
_cell_angle_gamma   119.43865308
_symmetry_Int_Tables_number   1
_chemical_formula_structural   Hf2Al9OsRh2
_chemical_formula_sum   'Hf4 Al18 Os2 Rh4'
_cell_volume   444.72882402
_cell_formula_units_Z   2
loop_
 _symmetry_equiv_pos_site_id
 _symmetry_equiv_pos_as_xyz
  1  'x, y, z'
loop_
 _atom_site_type_symbol
 _atom_site_label
 _atom_site_symmetry_multiplicity
 _atom_site_fract_x
 _atom_site_fract_y
 _atom_site_fract_z
 _atom_site_occupancy
  Hf  Hf0  1  0.991569  0.679993  0.250000  1
  Hf  Hf1  1  0.008431  0.320007  0.750000  1
  Hf  Hf2  1  0.679993  0.991569  0.250000  1
  Hf  Hf3  1  0.320007  0.008431  0.750000  1
  Al  Al4  1  0.131691  0.131691  0.250000  1
  Al  Al5  1  0.868309  0.868309  0.750000  1
  Al  Al6  1  0.997442  0.336756  0.078368  1
  Al  Al7  1  0.002558  0.663244  0.921632  1
  Al  Al8  1  0.002558  0.663244  0.578368  1
  Al  Al9  1  0.336756  0.997442  0.421632  1
  Al  Al10  1  0.997442  0.336756  0.421632  1
  Al  Al11  1  0.663244  0.002558  0.578368  1
  Al  Al12  1  0.663244  0.002558  0.921632  1
  Al  Al13  1  0.336756  0.997442  0.078368  1
  Al  Al14  1  0.331014  0.331014  0.556408  1
  Al  Al15  1  0.668986  0.668986  0.443592  1
  Al  Al16  1  0.668986  0.668986  0.056408  1
  Al  Al17  1  0.331014  0.331014  0.943592  1
  Al  Al18  1  0.342683  0.561162  0.250000  1
  Al  Al19  1  0.657317  0.438838  0.750000  1
  Al  Al20  1  0.561162  0.342683  0.250000  1
  Al  Al21  1  0.438838  0.657317  0.750000  1
  Os  Os22  1  0.000000  0.000000  0.000000  1
  Os  Os23  1  0.000000  0.000000  0.500000  1
  Rh  Rh24  1  0.672872  0.327128  0.000000  1
  Rh  Rh25  1  0.327128  0.672872  0.000000  1
  Rh  Rh26  1  0.327128  0.672872  0.500000  1
  Rh  Rh27  1  0.672872  0.327128  0.500000  1
