# generated using pymatgen
data_Na10TaAlAs6
_symmetry_space_group_name_H-M   'P 1'
_cell_length_a   7.53862800
_cell_length_b   8.38571713
_cell_length_c   15.90591393
_cell_angle_alpha   59.06814771
_cell_angle_beta   90.00000000
_cell_angle_gamma   90.00000000
_symmetry_Int_Tables_number   1
_chemical_formula_structural   Na10TaAlAs6
_chemical_formula_sum   'Na20 Ta2 Al2 As12'
_cell_volume   862.51509040
_cell_formula_units_Z   2
loop_
 _symmetry_equiv_pos_site_id
 _symmetry_equiv_pos_as_xyz
  1  'x, y, z'
loop_
 _atom_site_type_symbol
 _atom_site_label
 _atom_site_symmetry_multiplicity
 _atom_site_fract_x
 _atom_site_fract_y
 _atom_site_fract_z
 _atom_site_occupancy
  Na  Na0  1  0.737870  0.942348  0.245339  1
  Na  Na1  1  0.262130  0.942348  0.745339  1
  Na  Na2  1  0.771131  0.055500  0.759251  1
  Na  Na3  1  0.228869  0.055500  0.259251  1
  Na  Na4  1  0.268548  0.247162  0.418714  1
  Na  Na5  1  0.731452  0.247162  0.918714  1
  Na  Na6  1  0.220685  0.752126  0.579260  1
  Na  Na7  1  0.779315  0.752126  0.079260  1
  Na  Na8  1  0.088912  0.346627  0.582669  1
  Na  Na9  1  0.911088  0.346627  0.082669  1
  Na  Na10  1  0.406016  0.655818  0.418590  1
  Na  Na11  1  0.593984  0.655818  0.918590  1
  Na  Na12  1  0.596720  0.335341  0.242587  1
  Na  Na13  1  0.403280  0.335341  0.742587  1
  Na  Na14  1  0.908373  0.663292  0.760134  1
  Na  Na15  1  0.091627  0.663292  0.260134  1
  Na  Na16  1  0.769668  0.421327  0.408356  1
  Na  Na17  1  0.230332  0.421327  0.908356  1
  Na  Na18  1  0.739856  0.580328  0.589308  1
  Na  Na19  1  0.260144  0.580328  0.089308  1
  Ta  Ta20  1  0.616003  0.988798  0.578760  1
  Ta  Ta21  1  0.383997  0.988798  0.078760  1
  Al  Al22  1  0.889904  0.012483  0.416343  1
  Al  Al23  1  0.110096  0.012483  0.916343  1
  As  As24  1  0.982791  0.316964  0.272144  1
  As  As25  1  0.017209  0.316964  0.772144  1
  As  As26  1  0.518813  0.690571  0.725877  1
  As  As27  1  0.481187  0.690571  0.225877  1
  As  As28  1  0.948190  0.019697  0.574100  1
  As  As29  1  0.051810  0.019697  0.074100  1
  As  As30  1  0.543554  0.979294  0.427603  1
  As  As31  1  0.456446  0.979294  0.927603  1
  As  As32  1  0.004442  0.725758  0.421799  1
  As  As33  1  0.995558  0.725758  0.921799  1
  As  As34  1  0.492275  0.266564  0.579165  1
  As  As35  1  0.507725  0.266564  0.079165  1
