# generated using pymatgen
data_ThZr(GaAu)2
_symmetry_space_group_name_H-M   'P 1'
_cell_length_a   4.47198300
_cell_length_b   4.47198249
_cell_length_c   7.23834100
_cell_angle_alpha   90.00000000
_cell_angle_beta   90.00000000
_cell_angle_gamma   120.00001121
_symmetry_Int_Tables_number   1
_chemical_formula_structural   ThZr(GaAu)2
_chemical_formula_sum   'Th1 Zr1 Ga2 Au2'
_cell_volume   125.36313943
_cell_formula_units_Z   1
loop_
 _symmetry_equiv_pos_site_id
 _symmetry_equiv_pos_as_xyz
  1  'x, y, z'
loop_
 _atom_site_type_symbol
 _atom_site_label
 _atom_site_symmetry_multiplicity
 _atom_site_fract_x
 _atom_site_fract_y
 _atom_site_fract_z
 _atom_site_occupancy
  Th  Th0  1  0.000000  0.000000  0.000000  1
  Zr  Zr1  1  0.000000  0.000000  0.500000  1
  Ga  Ga2  1  0.666667  0.333333  0.257016  1
  Ga  Ga3  1  0.666667  0.333333  0.742984  1
  Au  Au4  1  0.333333  0.666667  0.703298  1
  Au  Au5  1  0.333333  0.666667  0.296702  1
