# generated using pymatgen
data_GdH2Cl
_symmetry_space_group_name_H-M   'P 1'
_cell_length_a   10.42111844
_cell_length_b   10.42111831
_cell_length_c   10.42111744
_cell_angle_alpha   20.84526454
_cell_angle_beta   20.84526690
_cell_angle_gamma   20.84526403
_symmetry_Int_Tables_number   1
_chemical_formula_structural   GdH2Cl
_chemical_formula_sum   'Gd2 H4 Cl2'
_cell_volume   125.47548783
_cell_formula_units_Z   2
loop_
 _symmetry_equiv_pos_site_id
 _symmetry_equiv_pos_as_xyz
  1  'x, y, z'
loop_
 _atom_site_type_symbol
 _atom_site_label
 _atom_site_symmetry_multiplicity
 _atom_site_fract_x
 _atom_site_fract_y
 _atom_site_fract_z
 _atom_site_occupancy
  Gd  Gd0  1  0.887018  0.887018  0.887018  1
  Gd  Gd1  1  0.112982  0.112982  0.112982  1
  H  H2  1  0.813246  0.813246  0.813246  1
  H  H3  1  0.186754  0.186754  0.186754  1
  H  H4  1  0.546033  0.546033  0.546033  1
  H  H5  1  0.453967  0.453967  0.453967  1
  Cl  Cl6  1  0.721467  0.721467  0.721467  1
  Cl  Cl7  1  0.278532  0.278532  0.278532  1
