# generated using pymatgen
data_LaDy2Np7O20
_symmetry_space_group_name_H-M   'P 1'
_cell_length_a   6.59137040
_cell_length_b   7.65592366
_cell_length_c   8.56176444
_cell_angle_alpha   102.90982594
_cell_angle_beta   97.25329651
_cell_angle_gamma   106.83535505
_symmetry_Int_Tables_number   1
_chemical_formula_structural   LaDy2Np7O20
_chemical_formula_sum   'La1 Dy2 Np7 O20'
_cell_volume   394.54791798
_cell_formula_units_Z   1
loop_
 _symmetry_equiv_pos_site_id
 _symmetry_equiv_pos_as_xyz
  1  'x, y, z'
loop_
 _atom_site_type_symbol
 _atom_site_label
 _atom_site_symmetry_multiplicity
 _atom_site_fract_x
 _atom_site_fract_y
 _atom_site_fract_z
 _atom_site_occupancy
  La  La0  1  0.001093  0.500395  0.997755  1
  Dy  Dy1  1  0.798731  0.600464  0.599870  1
  Dy  Dy2  1  0.000981  0.999519  0.999328  1
  Np  Np3  1  0.603269  0.201028  0.201825  1
  Np  Np4  1  0.397518  0.801013  0.799016  1
  Np  Np5  1  0.796726  0.098006  0.598464  1
  Np  Np6  1  0.201637  0.399935  0.400892  1
  Np  Np7  1  0.603324  0.701580  0.201878  1
  Np  Np8  1  0.398420  0.297626  0.799000  1
  Np  Np9  1  0.198151  0.900148  0.400605  1
  O  O10  1  0.640450  0.927060  0.057736  1
  O  O11  1  0.433275  0.518776  0.644385  1
  O  O12  1  0.727445  0.360126  0.741670  1
  O  O13  1  0.262673  0.126362  0.255414  1
  O  O14  1  0.636847  0.421120  0.054150  1
  O  O15  1  0.554062  0.978656  0.355719  1
  O  O16  1  0.437927  0.020805  0.646054  1
  O  O17  1  0.064582  0.735564  0.841603  1
  O  O18  1  0.729058  0.875891  0.751386  1
  O  O19  1  0.372257  0.579079  0.946353  1
  O  O20  1  0.854220  0.320956  0.453800  1
  O  O21  1  0.269596  0.634771  0.257787  1
  O  O22  1  0.551649  0.472704  0.345926  1
  O  O23  1  0.148798  0.171408  0.544156  1
  O  O24  1  0.056837  0.215214  0.836008  1
  O  O25  1  0.363606  0.080718  0.950474  1
  O  O26  1  0.848554  0.831592  0.453602  1
  O  O27  1  0.944571  0.783420  0.162140  1
  O  O28  1  0.151364  0.674204  0.539399  1
  O  O29  1  0.952380  0.271859  0.163605  1
