# generated using pymatgen
data_YbHf7(V3Ge4)4
_symmetry_space_group_name_H-M   'P 1'
_cell_length_a   6.63709868
_cell_length_b   6.76269457
_cell_length_c   12.80826235
_cell_angle_alpha   89.91172730
_cell_angle_beta   89.93235717
_cell_angle_gamma   89.98941067
_symmetry_Int_Tables_number   1
_chemical_formula_structural   YbHf7(V3Ge4)4
_chemical_formula_sum   'Yb1 Hf7 V12 Ge16'
_cell_volume   574.89355191
_cell_formula_units_Z   1
loop_
 _symmetry_equiv_pos_site_id
 _symmetry_equiv_pos_as_xyz
  1  'x, y, z'
loop_
 _atom_site_type_symbol
 _atom_site_label
 _atom_site_symmetry_multiplicity
 _atom_site_fract_x
 _atom_site_fract_y
 _atom_site_fract_z
 _atom_site_occupancy
  Yb  Yb0  1  0.991406  0.828811  0.090927  1
  Hf  Hf1  1  0.490598  0.671604  0.091842  1
  Hf  Hf2  1  0.988020  0.825874  0.407875  1
  Hf  Hf3  1  0.512500  0.327045  0.590790  1
  Hf  Hf4  1  0.013044  0.176646  0.906661  1
  Hf  Hf5  1  0.513122  0.326447  0.907752  1
  Hf  Hf6  1  0.012371  0.172991  0.591269  1
  Hf  Hf7  1  0.488285  0.673377  0.409452  1
  V  V8  1  0.340621  0.010518  0.252055  1
  V  V9  1  0.837107  0.487955  0.252859  1
  V  V10  1  0.661508  0.990925  0.749151  1
  V  V11  1  0.161604  0.507369  0.749365  1
  V  V12  1  0.658180  0.163523  0.126869  1
  V  V13  1  0.162893  0.340107  0.375763  1
  V  V14  1  0.336910  0.840976  0.625294  1
  V  V15  1  0.832602  0.655306  0.872801  1
  V  V16  1  0.336064  0.841578  0.874157  1
  V  V17  1  0.836208  0.658250  0.625026  1
  V  V18  1  0.662510  0.160898  0.375109  1
  V  V19  1  0.164299  0.339575  0.126300  1
  Ge  Ge20  1  0.691467  0.853320  0.249812  1
  Ge  Ge21  1  0.191690  0.646809  0.249922  1
  Ge  Ge22  1  0.309159  0.146578  0.749642  1
  Ge  Ge23  1  0.808412  0.352662  0.749180  1
  Ge  Ge24  1  0.675453  0.954561  0.955395  1
  Ge  Ge25  1  0.177643  0.546666  0.543474  1
  Ge  Ge26  1  0.321281  0.045749  0.457003  1
  Ge  Ge27  1  0.822765  0.453370  0.043644  1
  Ge  Ge28  1  0.325168  0.046953  0.043083  1
  Ge  Ge29  1  0.822238  0.454142  0.457053  1
  Ge  Ge30  1  0.678910  0.953593  0.543168  1
  Ge  Ge31  1  0.178876  0.544786  0.955545  1
  Ge  Ge32  1  0.466917  0.375409  0.251063  1
  Ge  Ge33  1  0.967945  0.126561  0.250365  1
  Ge  Ge34  1  0.530752  0.625785  0.749674  1
  Ge  Ge35  1  0.031473  0.873279  0.750661  1
