# generated using pymatgen
data_Tb2Fe3Co9Si4P3
_symmetry_space_group_name_H-M   'P 1'
_cell_length_a   3.62668900
_cell_length_b   9.07141511
_cell_length_c   9.06890209
_cell_angle_alpha   119.98277168
_cell_angle_beta   90.00000000
_cell_angle_gamma   90.00000000
_symmetry_Int_Tables_number   1
_chemical_formula_structural   Tb2Fe3Co9Si4P3
_chemical_formula_sum   'Tb2 Fe3 Co9 Si4 P3'
_cell_volume   258.43186972
_cell_formula_units_Z   1
loop_
 _symmetry_equiv_pos_site_id
 _symmetry_equiv_pos_as_xyz
  1  'x, y, z'
loop_
 _atom_site_type_symbol
 _atom_site_label
 _atom_site_symmetry_multiplicity
 _atom_site_fract_x
 _atom_site_fract_y
 _atom_site_fract_z
 _atom_site_occupancy
  Tb  Tb0  1  0.000000  0.666651  0.333323  1
  Tb  Tb1  1  0.500000  0.333374  0.666708  1
  Fe  Fe2  1  0.500000  0.124518  0.901211  1
  Fe  Fe3  1  0.500000  0.098792  0.223293  1
  Fe  Fe4  1  0.500000  0.776737  0.875516  1
  Co  Co5  1  0.000000  0.379511  0.946555  1
  Co  Co6  1  0.000000  0.053423  0.432875  1
  Co  Co7  1  0.000000  0.567074  0.620518  1
  Co  Co8  1  0.000000  0.871778  0.719615  1
  Co  Co9  1  0.000000  0.280317  0.152103  1
  Co  Co10  1  0.000000  0.847856  0.128291  1
  Co  Co11  1  0.500000  0.944120  0.563086  1
  Co  Co12  1  0.500000  0.436949  0.381082  1
  Co  Co13  1  0.500000  0.618926  0.055861  1
  Si  Si14  1  0.000000  0.111861  0.711799  1
  Si  Si15  1  0.000000  0.288207  0.400098  1
  Si  Si16  1  0.000000  0.599875  0.888073  1
  Si  Si17  1  0.000000  0.000033  0.999982  1
  P  P18  1  0.500000  0.708255  0.599964  1
  P  P19  1  0.500000  0.400069  0.108306  1
  P  P20  1  0.500000  0.891673  0.291739  1
