# generated using pymatgen
data_SmAl6Cu7
_symmetry_space_group_name_H-M   'P 1'
_cell_length_a   8.37186675
_cell_length_b   8.37186586
_cell_length_c   8.37186622
_cell_angle_alpha   121.95050725
_cell_angle_beta   118.32719768
_cell_angle_gamma   89.78842353
_symmetry_Int_Tables_number   1
_chemical_formula_structural   SmAl6Cu7
_chemical_formula_sum   'Sm2 Al12 Cu14'
_cell_volume   413.51428045
_cell_formula_units_Z   2
loop_
 _symmetry_equiv_pos_site_id
 _symmetry_equiv_pos_as_xyz
  1  'x, y, z'
loop_
 _atom_site_type_symbol
 _atom_site_label
 _atom_site_symmetry_multiplicity
 _atom_site_fract_x
 _atom_site_fract_y
 _atom_site_fract_z
 _atom_site_occupancy
  Sm  Sm0  1  0.250000  0.750000  0.500000  1
  Sm  Sm1  1  0.750000  0.250000  0.500000  1
  Al  Al2  1  0.555344  0.546349  0.358194  1
  Al  Al3  1  0.444656  0.453651  0.641806  1
  Al  Al4  1  0.188155  0.197150  0.641806  1
  Al  Al5  1  0.311845  0.953651  0.008994  1
  Al  Al6  1  0.811845  0.802850  0.358194  1
  Al  Al7  1  0.688155  0.046349  0.991006  1
  Al  Al8  1  0.944656  0.302850  0.991006  1
  Al  Al9  1  0.055344  0.697150  0.008994  1
  Al  Al10  1  0.052016  0.311606  0.363621  1
  Al  Al11  1  0.947984  0.688394  0.636379  1
  Al  Al12  1  0.552016  0.188394  0.740409  1
  Al  Al13  1  0.447984  0.811606  0.259591  1
  Cu  Cu14  1  0.285278  0.299274  0.232812  1
  Cu  Cu15  1  0.714722  0.700726  0.767188  1
  Cu  Cu16  1  0.066462  0.052466  0.767188  1
  Cu  Cu17  1  0.433538  0.200726  0.986004  1
  Cu  Cu18  1  0.933538  0.947534  0.232812  1
  Cu  Cu19  1  0.566462  0.799274  0.013996  1
  Cu  Cu20  1  0.214722  0.447534  0.013996  1
  Cu  Cu21  1  0.785278  0.552466  0.986004  1
  Cu  Cu22  1  0.000000  0.000000  0.000000  1
  Cu  Cu23  1  0.500000  0.500000  0.000000  1
  Cu  Cu24  1  0.286015  0.066088  0.352104  1
  Cu  Cu25  1  0.713985  0.933912  0.647896  1
  Cu  Cu26  1  0.786015  0.433912  0.219926  1
  Cu  Cu27  1  0.213985  0.566088  0.780074  1
