# generated using pymatgen
data_CsMo3(SeO6)2
_symmetry_space_group_name_H-M   'P 1'
_cell_length_a   7.41035500
_cell_length_b   7.41039311
_cell_length_c   12.84846400
_cell_angle_alpha   90.00000000
_cell_angle_beta   90.00000000
_cell_angle_gamma   120.00015744
_symmetry_Int_Tables_number   1
_chemical_formula_structural   CsMo3(SeO6)2
_chemical_formula_sum   'Cs2 Mo6 Se4 O24'
_cell_volume   611.02842695
_cell_formula_units_Z   2
loop_
 _symmetry_equiv_pos_site_id
 _symmetry_equiv_pos_as_xyz
  1  'x, y, z'
loop_
 _atom_site_type_symbol
 _atom_site_label
 _atom_site_symmetry_multiplicity
 _atom_site_fract_x
 _atom_site_fract_y
 _atom_site_fract_z
 _atom_site_occupancy
  Cs  Cs0  1  0.666667  0.333333  0.471947  1
  Cs  Cs1  1  0.333333  0.666667  0.971947  1
  Mo  Mo2  1  0.841641  0.668500  0.794627  1
  Mo  Mo3  1  0.826859  0.158358  0.794627  1
  Mo  Mo4  1  0.668499  0.826858  0.294627  1
  Mo  Mo5  1  0.158359  0.331500  0.294627  1
  Mo  Mo6  1  0.331501  0.173142  0.794627  1
  Mo  Mo7  1  0.173141  0.841642  0.294627  1
  Se  Se8  1  0.000000  0.000000  0.581607  1
  Se  Se9  1  0.666667  0.333333  0.008969  1
  Se  Se10  1  0.333333  0.666667  0.508969  1
  Se  Se11  1  0.000000  0.000000  0.081607  1
  O  O12  1  0.246817  0.136714  0.325069  1
  O  O13  1  0.110104  0.246817  0.825068  1
  O  O14  1  0.136714  0.889897  0.825068  1
  O  O15  1  0.863286  0.110103  0.325068  1
  O  O16  1  0.889896  0.753183  0.325068  1
  O  O17  1  0.753183  0.863286  0.825069  1
  O  O18  1  0.447209  0.910046  0.269510  1
  O  O19  1  0.537162  0.447208  0.769510  1
  O  O20  1  0.910046  0.462839  0.769509  1
  O  O21  1  0.089954  0.537161  0.269509  1
  O  O22  1  0.462838  0.552792  0.269510  1
  O  O23  1  0.552791  0.089954  0.769510  1
  O  O24  1  0.785019  0.204568  0.953959  1
  O  O25  1  0.580452  0.785019  0.453959  1
  O  O26  1  0.204566  0.419548  0.453960  1
  O  O27  1  0.795434  0.580452  0.953960  1
  O  O28  1  0.419548  0.214981  0.953959  1
  O  O29  1  0.214981  0.795432  0.453959  1
  O  O30  1  0.874680  0.120743  0.638522  1
  O  O31  1  0.753936  0.874680  0.138522  1
  O  O32  1  0.120743  0.246063  0.138521  1
  O  O33  1  0.879257  0.753937  0.638521  1
  O  O34  1  0.246064  0.125320  0.638522  1
  O  O35  1  0.125320  0.879257  0.138522  1
