# generated using pymatgen
data_Yb3SnPt3Pb2
_symmetry_space_group_name_H-M   'P 1'
_cell_length_a   7.65456400
_cell_length_b   7.68549760
_cell_length_c   4.03330900
_cell_angle_alpha   90.00000000
_cell_angle_beta   90.00000000
_cell_angle_gamma   119.86694540
_symmetry_Int_Tables_number   1
_chemical_formula_structural   Yb3SnPt3Pb2
_chemical_formula_sum   'Yb3 Sn1 Pt3 Pb2'
_cell_volume   205.76205849
_cell_formula_units_Z   1
loop_
 _symmetry_equiv_pos_site_id
 _symmetry_equiv_pos_as_xyz
  1  'x, y, z'
loop_
 _atom_site_type_symbol
 _atom_site_label
 _atom_site_symmetry_multiplicity
 _atom_site_fract_x
 _atom_site_fract_y
 _atom_site_fract_z
 _atom_site_occupancy
  Yb  Yb0  1  0.405084  0.402918  0.000000  1
  Yb  Yb1  1  0.593292  0.000000  0.000000  1
  Yb  Yb2  1  0.002166  0.597082  0.000000  1
  Sn  Sn3  1  0.262537  0.000000  0.500000  1
  Pt  Pt4  1  0.653606  0.323188  0.500000  1
  Pt  Pt5  1  0.014950  0.000000  0.000000  1
  Pt  Pt6  1  0.330418  0.676812  0.500000  1
  Pb  Pb7  1  0.001147  0.264348  0.500000  1
  Pb  Pb8  1  0.736800  0.735652  0.500000  1
