# generated using pymatgen
data_DyYTm6(WO6)4
_symmetry_space_group_name_H-M   'P 1'
_cell_length_a   5.35508800
_cell_length_b   7.65045512
_cell_length_c   11.39136706
_cell_angle_alpha   75.26855569
_cell_angle_beta   90.00000000
_cell_angle_gamma   90.00000000
_symmetry_Int_Tables_number   1
_chemical_formula_structural   DyYTm6(WO6)4
_chemical_formula_sum   'Dy1 Y1 Tm6 W4 O24'
_cell_volume   451.35040950
_cell_formula_units_Z   1
loop_
 _symmetry_equiv_pos_site_id
 _symmetry_equiv_pos_as_xyz
  1  'x, y, z'
loop_
 _atom_site_type_symbol
 _atom_site_label
 _atom_site_symmetry_multiplicity
 _atom_site_fract_x
 _atom_site_fract_y
 _atom_site_fract_z
 _atom_site_occupancy
  Dy  Dy0  1  0.315334  0.500000  0.750000  1
  Y  Y1  1  0.684623  0.500000  0.250000  1
  Tm  Tm2  1  0.184241  0.795632  0.077987  1
  Tm  Tm3  1  0.259782  0.000000  0.750000  1
  Tm  Tm4  1  0.741009  0.000000  0.250000  1
  Tm  Tm5  1  0.184241  0.204368  0.422013  1
  Tm  Tm6  1  0.816002  0.204597  0.921637  1
  Tm  Tm7  1  0.816002  0.795403  0.578363  1
  W  W8  1  0.744513  0.724580  0.885092  1
  W  W9  1  0.255429  0.724880  0.385299  1
  W  W10  1  0.744513  0.275420  0.614908  1
  W  W11  1  0.255429  0.275120  0.114701  1
  O  O12  1  0.852641  0.364442  0.451248  1
  O  O13  1  0.462830  0.847519  0.930678  1
  O  O14  1  0.852641  0.635558  0.048752  1
  O  O15  1  0.019398  0.287162  0.729907  1
  O  O16  1  0.980480  0.285852  0.230103  1
  O  O17  1  0.148478  0.363957  0.950716  1
  O  O18  1  0.641397  0.488534  0.886121  1
  O  O19  1  0.537610  0.152731  0.069306  1
  O  O20  1  0.148478  0.636043  0.549284  1
  O  O21  1  0.019398  0.712838  0.770093  1
  O  O22  1  0.458393  0.206036  0.274283  1
  O  O23  1  0.041590  0.941614  0.395946  1
  O  O24  1  0.462830  0.152481  0.569322  1
  O  O25  1  0.980480  0.714148  0.269897  1
  O  O26  1  0.958091  0.058238  0.604894  1
  O  O27  1  0.541012  0.206498  0.774257  1
  O  O28  1  0.541012  0.793502  0.725743  1
  O  O29  1  0.041590  0.058386  0.104054  1
  O  O30  1  0.641397  0.511466  0.613879  1
  O  O31  1  0.357521  0.511373  0.113688  1
  O  O32  1  0.458393  0.793964  0.225717  1
  O  O33  1  0.357521  0.488627  0.386312  1
  O  O34  1  0.537610  0.847269  0.430694  1
  O  O35  1  0.958091  0.941762  0.895106  1
