# generated using pymatgen
data_Th3Zn3Ir2Pd
_symmetry_space_group_name_H-M   'P 1'
_cell_length_a   7.50453600
_cell_length_b   7.50453616
_cell_length_c   3.88313000
_cell_angle_alpha   90.00000000
_cell_angle_beta   90.00000000
_cell_angle_gamma   119.99999931
_symmetry_Int_Tables_number   1
_chemical_formula_structural   Th3Zn3Ir2Pd
_chemical_formula_sum   'Th3 Zn3 Ir2 Pd1'
_cell_volume   189.39140441
_cell_formula_units_Z   1
loop_
 _symmetry_equiv_pos_site_id
 _symmetry_equiv_pos_as_xyz
  1  'x, y, z'
loop_
 _atom_site_type_symbol
 _atom_site_label
 _atom_site_symmetry_multiplicity
 _atom_site_fract_x
 _atom_site_fract_y
 _atom_site_fract_z
 _atom_site_occupancy
  Th  Th0  1  0.414893  0.000000  0.000000  1
  Th  Th1  1  0.000000  0.414893  0.000000  1
  Th  Th2  1  0.585107  0.585107  0.000000  1
  Zn  Zn3  1  0.754272  0.000000  0.500000  1
  Zn  Zn4  1  0.000000  0.754272  0.500000  1
  Zn  Zn5  1  0.245728  0.245728  0.500000  1
  Ir  Ir6  1  0.333333  0.666667  0.500000  1
  Ir  Ir7  1  0.666667  0.333333  0.500000  1
  Pd  Pd8  1  0.000000  0.000000  0.000000  1
