# generated using pymatgen
data_Zr4Ti3P4W
_symmetry_space_group_name_H-M   'P 1'
_cell_length_a   3.55154300
_cell_length_b   6.79116617
_cell_length_c   8.18646910
_cell_angle_alpha   90.21090084
_cell_angle_beta   90.00000000
_cell_angle_gamma   90.00000000
_symmetry_Int_Tables_number   1
_chemical_formula_structural   Zr4Ti3P4W
_chemical_formula_sum   'Zr4 Ti3 P4 W1'
_cell_volume   197.44908205
_cell_formula_units_Z   1
loop_
 _symmetry_equiv_pos_site_id
 _symmetry_equiv_pos_as_xyz
  1  'x, y, z'
loop_
 _atom_site_type_symbol
 _atom_site_label
 _atom_site_symmetry_multiplicity
 _atom_site_fract_x
 _atom_site_fract_y
 _atom_site_fract_z
 _atom_site_occupancy
  Zr  Zr0  1  0.250000  0.036211  0.829297  1
  Zr  Zr1  1  0.750000  0.964430  0.169387  1
  Zr  Zr2  1  0.250000  0.535827  0.669386  1
  Zr  Zr3  1  0.750000  0.460143  0.330619  1
  Ti  Ti4  1  0.750000  0.363885  0.939660  1
  Ti  Ti5  1  0.250000  0.634021  0.060863  1
  Ti  Ti6  1  0.750000  0.867841  0.559123  1
  P  P7  1  0.250000  0.762472  0.360782  1
  P  P8  1  0.750000  0.238554  0.640684  1
  P  P9  1  0.250000  0.261391  0.136523  1
  P  P10  1  0.750000  0.738371  0.862655  1
  W  W11  1  0.250000  0.136855  0.441023  1
