# generated using pymatgen
data_V10Si5Ge
_symmetry_space_group_name_H-M   'P 1'
_cell_length_a   4.76169672
_cell_length_b   7.08291714
_cell_length_c   7.08291660
_cell_angle_alpha   96.48769649
_cell_angle_beta   109.64183492
_cell_angle_gamma   70.35815874
_symmetry_Int_Tables_number   1
_chemical_formula_structural   V10Si5Ge
_chemical_formula_sum   'V10 Si5 Ge1'
_cell_volume   211.89206358
_cell_formula_units_Z   1
loop_
 _symmetry_equiv_pos_site_id
 _symmetry_equiv_pos_as_xyz
  1  'x, y, z'
loop_
 _atom_site_type_symbol
 _atom_site_label
 _atom_site_symmetry_multiplicity
 _atom_site_fract_x
 _atom_site_fract_y
 _atom_site_fract_z
 _atom_site_occupancy
  V  V0  1  0.421829  0.847110  0.697339  1
  V  V1  1  0.571600  0.152890  0.302661  1
  V  V2  1  0.928400  0.302661  0.152890  1
  V  V3  1  0.078171  0.697339  0.847110  1
  V  V4  1  0.724491  0.697339  0.152890  1
  V  V5  1  0.268939  0.302661  0.847110  1
  V  V6  1  0.775509  0.152890  0.697339  1
  V  V7  1  0.231061  0.847110  0.302661  1
  V  V8  1  0.250000  0.500000  0.500000  1
  V  V9  1  0.750000  0.500000  0.500000  1
  Si  Si10  1  0.334041  0.500000  0.168084  1
  Si  Si11  1  0.665959  0.500000  0.831916  1
  Si  Si12  1  0.834041  0.831916  0.500000  1
  Si  Si13  1  0.165959  0.168084  0.500000  1
  Si  Si14  1  0.250000  0.000000  0.000000  1
  Ge  Ge15  1  0.750000  0.000000  0.000000  1
