# generated using pymatgen
data_Hf5Ti3Ga15Ir7
_symmetry_space_group_name_H-M   'P 1'
_cell_length_a   8.78146859
_cell_length_b   8.78192442
_cell_length_c   8.78210900
_cell_angle_alpha   120.21018279
_cell_angle_beta   120.00097718
_cell_angle_gamma   89.81789378
_symmetry_Int_Tables_number   1
_chemical_formula_structural   Hf5Ti3Ga15Ir7
_chemical_formula_sum   'Hf5 Ti3 Ga15 Ir7'
_cell_volume   478.12415985
_cell_formula_units_Z   1
loop_
 _symmetry_equiv_pos_site_id
 _symmetry_equiv_pos_as_xyz
  1  'x, y, z'
loop_
 _atom_site_type_symbol
 _atom_site_label
 _atom_site_symmetry_multiplicity
 _atom_site_fract_x
 _atom_site_fract_y
 _atom_site_fract_z
 _atom_site_occupancy
  Hf  Hf0  1  0.798790  0.289888  0.074525  1
  Hf  Hf1  1  0.215387  0.289903  0.491078  1
  Hf  Hf2  1  0.198619  0.698615  0.500022  1
  Hf  Hf3  1  0.215349  0.724294  0.925475  1
  Hf  Hf4  1  0.798816  0.724299  0.508921  1
  Ti  Ti5  1  0.782036  0.281978  0.499988  1
  Ti  Ti6  1  0.378520  0.125749  0.747222  1
  Ti  Ti7  1  0.378486  0.631302  0.252741  1
  Ga  Ga8  1  0.985198  0.485184  0.499985  1
  Ga  Ga9  1  0.159857  0.342092  0.182195  1
  Ga  Ga10  1  0.159894  0.977675  0.817782  1
  Ga  Ga11  1  0.148802  0.348333  0.800462  1
  Ga  Ga12  1  0.547840  0.348331  0.199534  1
  Ga  Ga13  1  0.844071  0.647509  0.803405  1
  Ga  Ga14  1  0.844109  0.040668  0.196584  1
  Ga  Ga15  1  0.840812  0.655240  0.185571  1
  Ga  Ga16  1  0.469702  0.655257  0.814472  1
  Ga  Ga17  1  0.387042  0.125975  0.261053  1
  Ga  Ga18  1  0.864936  0.125983  0.738971  1
  Ga  Ga19  1  0.619732  0.875591  0.255840  1
  Ga  Ga20  1  0.619745  0.363897  0.744162  1
  Ga  Ga21  1  0.614004  0.874916  0.739107  1
  Ga  Ga22  1  0.135808  0.874915  0.260929  1
  Ir  Ir23  1  0.002776  0.000782  0.502553  1
  Ir  Ir24  1  0.498243  0.000788  0.997976  1
  Ir  Ir25  1  0.495559  0.495554  0.000008  1
  Ir  Ir26  1  0.498205  0.500230  0.497424  1
  Ir  Ir27  1  0.002782  0.500219  0.001973  1
  Ir  Ir28  1  0.999107  0.999065  0.000019  1
  Ir  Ir29  1  0.495768  0.995763  0.500027  1
