# generated using pymatgen
data_Ta6Zn6PtRh11
_symmetry_space_group_name_H-M   'P 1'
_cell_length_a   4.06903600
_cell_length_b   7.24757400
_cell_length_c   12.20134000
_cell_angle_alpha   90.00045936
_cell_angle_beta   90.00005164
_cell_angle_gamma   90.00000000
_symmetry_Int_Tables_number   1
_chemical_formula_structural   Ta6Zn6PtRh11
_chemical_formula_sum   'Ta6 Zn6 Pt1 Rh11'
_cell_volume   359.82531958
_cell_formula_units_Z   1
loop_
 _symmetry_equiv_pos_site_id
 _symmetry_equiv_pos_as_xyz
  1  'x, y, z'
loop_
 _atom_site_type_symbol
 _atom_site_label
 _atom_site_symmetry_multiplicity
 _atom_site_fract_x
 _atom_site_fract_y
 _atom_site_fract_z
 _atom_site_occupancy
  Ta  Ta0  1  0.000001  0.508250  0.000053  1
  Ta  Ta1  1  0.500001  0.996458  0.168397  1
  Ta  Ta2  1  0.000001  0.499031  0.333393  1
  Ta  Ta3  1  0.500001  0.000240  0.499950  1
  Ta  Ta4  1  0.999999  0.499032  0.666554  1
  Ta  Ta5  1  0.500000  0.996449  0.831657  1
  Zn  Zn6  1  0.000001  0.995998  0.000029  1
  Zn  Zn7  1  0.500002  0.501982  0.166990  1
  Zn  Zn8  1  0.000002  0.000636  0.333657  1
  Zn  Zn9  1  0.500001  0.498982  0.499982  1
  Zn  Zn10  1  0.999998  0.000639  0.666315  1
  Zn  Zn11  1  0.499999  0.501997  0.833028  1
  Pt  Pt12  1  0.500000  0.249174  0.000043  1
  Rh  Rh13  1  0.499999  0.750874  0.000050  1
  Rh  Rh14  1  0.000001  0.250306  0.165638  1
  Rh  Rh15  1  0.000000  0.750572  0.167595  1
  Rh  Rh16  1  0.500000  0.250388  0.332422  1
  Rh  Rh17  1  0.500003  0.749335  0.334015  1
  Rh  Rh18  1  0.999999  0.249717  0.499947  1
  Rh  Rh19  1  0.000002  0.749301  0.499952  1
  Rh  Rh20  1  0.499996  0.250337  0.667524  1
  Rh  Rh21  1  0.500000  0.749388  0.665940  1
  Rh  Rh22  1  0.999998  0.250353  0.834406  1
  Rh  Rh23  1  0.999999  0.750559  0.832461  1
