# generated using pymatgen
data_PmYCuSi3
_symmetry_space_group_name_H-M   'P 1'
_cell_length_a   5.78915879
_cell_length_b   5.78968879
_cell_length_c   5.78969000
_cell_angle_alpha   138.65312709
_cell_angle_beta   104.65506532
_cell_angle_gamma   89.78798508
_symmetry_Int_Tables_number   1
_chemical_formula_structural   PmYCuSi3
_chemical_formula_sum   'Pm1 Y1 Cu1 Si3'
_cell_volume   118.64346474
_cell_formula_units_Z   1
loop_
 _symmetry_equiv_pos_site_id
 _symmetry_equiv_pos_as_xyz
  1  'x, y, z'
loop_
 _atom_site_type_symbol
 _atom_site_label
 _atom_site_symmetry_multiplicity
 _atom_site_fract_x
 _atom_site_fract_y
 _atom_site_fract_z
 _atom_site_occupancy
  Pm  Pm0  1  0.003957  0.003266  0.000691  1
  Y  Y1  1  0.497675  0.496966  0.000708  1
  Cu  Cu2  1  0.580042  0.249516  0.330527  1
  Si  Si3  1  0.087152  0.750247  0.336904  1
  Si  Si4  1  0.904790  0.249204  0.655585  1
  Si  Si5  1  0.426382  0.750799  0.675582  1
