# generated using pymatgen
data_Sc5Si12Ir17Ru2
_symmetry_space_group_name_H-M   'P 1'
_cell_length_a   12.72264810
_cell_length_b   12.72264830
_cell_length_c   3.94367800
_cell_angle_alpha   90.00000000
_cell_angle_beta   90.00000000
_cell_angle_gamma   120.09205113
_symmetry_Int_Tables_number   1
_chemical_formula_structural   Sc5Si12Ir17Ru2
_chemical_formula_sum   'Sc5 Si12 Ir17 Ru2'
_cell_volume   552.31079391
_cell_formula_units_Z   1
loop_
 _symmetry_equiv_pos_site_id
 _symmetry_equiv_pos_as_xyz
  1  'x, y, z'
loop_
 _atom_site_type_symbol
 _atom_site_label
 _atom_site_symmetry_multiplicity
 _atom_site_fract_x
 _atom_site_fract_y
 _atom_site_fract_z
 _atom_site_occupancy
  Sc  Sc0  1  0.331541  0.667200  0.000000  1
  Sc  Sc1  1  0.667200  0.331541  0.000000  1
  Sc  Sc2  1  0.814538  0.000828  0.500000  1
  Sc  Sc3  1  0.000828  0.814538  0.500000  1
  Sc  Sc4  1  0.184791  0.184791  0.500000  1
  Si  Si5  1  0.179631  0.000953  0.000000  1
  Si  Si6  1  0.000953  0.179631  0.000000  1
  Si  Si7  1  0.820659  0.820659  0.000000  1
  Si  Si8  1  0.168335  0.481949  0.500000  1
  Si  Si9  1  0.518176  0.688552  0.500000  1
  Si  Si10  1  0.312803  0.832641  0.500000  1
  Si  Si11  1  0.688552  0.518176  0.500000  1
  Si  Si12  1  0.832641  0.312803  0.500000  1
  Si  Si13  1  0.481949  0.168335  0.500000  1
  Si  Si14  1  0.630698  0.999756  0.000000  1
  Si  Si15  1  0.999756  0.630698  0.000000  1
  Si  Si16  1  0.366010  0.366010  0.000000  1
  Ir  Ir17  1  0.553067  0.553067  0.000000  1
  Ir  Ir18  1  0.361134  0.489111  0.500000  1
  Ir  Ir19  1  0.511337  0.872605  0.500000  1
  Ir  Ir20  1  0.127773  0.639766  0.500000  1
  Ir  Ir21  1  0.872605  0.511337  0.500000  1
  Ir  Ir22  1  0.639766  0.127773  0.500000  1
  Ir  Ir23  1  0.489111  0.361134  0.500000  1
  Ir  Ir24  1  0.183278  0.375818  0.000000  1
  Ir  Ir25  1  0.625476  0.808098  0.000000  1
  Ir  Ir26  1  0.191306  0.817878  0.000000  1
  Ir  Ir27  1  0.808098  0.625476  0.000000  1
  Ir  Ir28  1  0.817878  0.191306  0.000000  1
  Ir  Ir29  1  0.375818  0.183278  0.000000  1
  Ir  Ir30  1  0.279619  0.000789  0.500000  1
  Ir  Ir31  1  0.000789  0.279619  0.500000  1
  Ir  Ir32  1  0.719191  0.719191  0.500000  1
  Ir  Ir33  1  0.000078  0.000078  0.000000  1
  Ru  Ru34  1  0.444600  0.000014  0.000000  1
  Ru  Ru35  1  0.000014  0.444600  0.000000  1
