# generated using pymatgen
data_La5Nd(ScAu5)2
_symmetry_space_group_name_H-M   'P 1'
_cell_length_a   8.20318694
_cell_length_b   8.22521717
_cell_length_c   8.20361747
_cell_angle_alpha   65.98208302
_cell_angle_beta   66.13679772
_cell_angle_gamma   66.03369236
_symmetry_Int_Tables_number   1
_chemical_formula_structural   La5Nd(ScAu5)2
_chemical_formula_sum   'La5 Nd1 Sc2 Au10'
_cell_volume   442.62517207
_cell_formula_units_Z   1
loop_
 _symmetry_equiv_pos_site_id
 _symmetry_equiv_pos_as_xyz
  1  'x, y, z'
loop_
 _atom_site_type_symbol
 _atom_site_label
 _atom_site_symmetry_multiplicity
 _atom_site_fract_x
 _atom_site_fract_y
 _atom_site_fract_z
 _atom_site_occupancy
  La  La0  1  0.892191  0.188050  0.620346  1
  La  La1  1  0.621320  0.892313  0.187706  1
  La  La2  1  0.187313  0.620454  0.892978  1
  La  La3  1  0.107623  0.812458  0.378792  1
  La  La4  1  0.378619  0.107326  0.812451  1
  Nd  Nd5  1  0.811272  0.379152  0.107873  1
  Sc  Sc6  1  0.656969  0.656133  0.657185  1
  Sc  Sc7  1  0.344500  0.343600  0.342457  1
  Au  Au8  1  0.999071  0.001836  0.000444  1
  Au  Au9  1  0.500859  0.499646  0.499336  1
  Au  Au10  1  0.800375  0.799486  0.801296  1
  Au  Au11  1  0.198172  0.200392  0.198939  1
  Au  Au12  1  0.939880  0.546846  0.325298  1
  Au  Au13  1  0.325879  0.939922  0.547763  1
  Au  Au14  1  0.548434  0.325872  0.940450  1
  Au  Au15  1  0.059357  0.452102  0.675317  1
  Au  Au16  1  0.674917  0.061029  0.451157  1
  Au  Au17  1  0.453248  0.673383  0.060211  1
