# generated using pymatgen
data_NaTaSiO5
_symmetry_space_group_name_H-M   'P 1'
_cell_length_a   5.56857111
_cell_length_b   7.64757711
_cell_length_c   10.41394445
_cell_angle_alpha   75.04323863
_cell_angle_beta   93.76661080
_cell_angle_gamma   72.75796373
_symmetry_Int_Tables_number   1
_chemical_formula_structural   NaTaSiO5
_chemical_formula_sum   'Na4 Ta4 Si4 O20'
_cell_volume   404.32117345
_cell_formula_units_Z   4
loop_
 _symmetry_equiv_pos_site_id
 _symmetry_equiv_pos_as_xyz
  1  'x, y, z'
loop_
 _atom_site_type_symbol
 _atom_site_label
 _atom_site_symmetry_multiplicity
 _atom_site_fract_x
 _atom_site_fract_y
 _atom_site_fract_z
 _atom_site_occupancy
  Na  Na0  1  0.129802  0.540114  0.210065  1
  Na  Na1  1  0.629849  0.040057  0.710023  1
  Na  Na2  1  0.870150  0.459945  0.789953  1
  Na  Na3  1  0.370191  0.959885  0.289948  1
  Ta  Ta4  1  0.500007  0.500006  0.500043  1
  Ta  Ta5  1  0.249999  0.750009  0.750003  1
  Ta  Ta6  1  0.999996  0.999996  0.999960  1
  Ta  Ta7  1  0.749999  0.249993  0.249999  1
  Si  Si8  1  0.605171  0.715079  0.035255  1
  Si  Si9  1  0.105160  0.215106  0.535293  1
  Si  Si10  1  0.394821  0.284917  0.964713  1
  Si  Si11  1  0.894855  0.784903  0.464740  1
  O  O12  1  0.521025  0.409207  0.340514  1
  O  O13  1  0.020891  0.909217  0.840507  1
  O  O14  1  0.479079  0.590791  0.659490  1
  O  O15  1  0.979005  0.090784  0.159484  1
  O  O16  1  0.799641  0.827204  0.070754  1
  O  O17  1  0.299603  0.327250  0.570767  1
  O  O18  1  0.200362  0.172776  0.929236  1
  O  O19  1  0.700404  0.672763  0.429254  1
  O  O20  1  0.755366  0.488001  0.114753  1
  O  O21  1  0.255359  0.988071  0.614758  1
  O  O22  1  0.244646  0.511945  0.885251  1
  O  O23  1  0.744607  0.011986  0.385239  1
  O  O24  1  0.551404  0.747324  0.871431  1
  O  O25  1  0.051400  0.247318  0.371424  1
  O  O26  1  0.448612  0.252652  0.128580  1
  O  O27  1  0.948592  0.752699  0.628566  1
  O  O28  1  0.332712  0.791601  0.090312  1
  O  O29  1  0.832718  0.291629  0.590361  1
  O  O30  1  0.667270  0.208374  0.909651  1
  O  O31  1  0.167305  0.708399  0.409675  1
