# generated using pymatgen
data_Lu8Nb9Si16W3
_symmetry_space_group_name_H-M   'P 1'
_cell_length_a   6.74604438
_cell_length_b   6.98496582
_cell_length_c   13.23169700
_cell_angle_alpha   90.00000000
_cell_angle_beta   90.00000000
_cell_angle_gamma   89.99157904
_symmetry_Int_Tables_number   1
_chemical_formula_structural   Lu8Nb9Si16W3
_chemical_formula_sum   'Lu8 Nb9 Si16 W3'
_cell_volume   623.48932422
_cell_formula_units_Z   1
loop_
 _symmetry_equiv_pos_site_id
 _symmetry_equiv_pos_as_xyz
  1  'x, y, z'
loop_
 _atom_site_type_symbol
 _atom_site_label
 _atom_site_symmetry_multiplicity
 _atom_site_fract_x
 _atom_site_fract_y
 _atom_site_fract_z
 _atom_site_occupancy
  Lu  Lu0  1  0.500922  0.327560  0.094747  1
  Lu  Lu1  1  0.000852  0.172581  0.405064  1
  Lu  Lu2  1  0.498586  0.672682  0.594897  1
  Lu  Lu3  1  0.998470  0.827309  0.905405  1
  Lu  Lu4  1  0.498586  0.672682  0.905103  1
  Lu  Lu5  1  0.998470  0.827309  0.594595  1
  Lu  Lu6  1  0.500922  0.327560  0.405253  1
  Lu  Lu7  1  0.000852  0.172581  0.094936  1
  Nb  Nb8  1  0.834275  0.329591  0.625328  1
  Nb  Nb9  1  0.333507  0.171310  0.874905  1
  Nb  Nb10  1  0.166302  0.670051  0.126123  1
  Nb  Nb11  1  0.666965  0.829734  0.373298  1
  Nb  Nb12  1  0.166302  0.670051  0.373877  1
  Nb  Nb13  1  0.666965  0.829734  0.126702  1
  Nb  Nb14  1  0.834275  0.329591  0.874672  1
  Nb  Nb15  1  0.333507  0.171310  0.625095  1
  Nb  Nb16  1  0.661083  0.006278  0.750000  1
  Si  Si17  1  0.665267  0.036391  0.541046  1
  Si  Si18  1  0.165268  0.463224  0.957480  1
  Si  Si19  1  0.335289  0.963209  0.043137  1
  Si  Si20  1  0.834896  0.536818  0.457161  1
  Si  Si21  1  0.335289  0.963209  0.456863  1
  Si  Si22  1  0.834896  0.536818  0.042839  1
  Si  Si23  1  0.665267  0.036391  0.958954  1
  Si  Si24  1  0.165268  0.463224  0.542520  1
  Si  Si25  1  0.533048  0.382900  0.750000  1
  Si  Si26  1  0.037626  0.120182  0.750000  1
  Si  Si27  1  0.465856  0.618760  0.250000  1
  Si  Si28  1  0.966812  0.881530  0.250000  1
  Si  Si29  1  0.798430  0.632410  0.750000  1
  Si  Si30  1  0.293314  0.862799  0.750000  1
  Si  Si31  1  0.201798  0.364092  0.250000  1
  Si  Si32  1  0.701880  0.136338  0.250000  1
  W  W33  1  0.161065  0.493669  0.750000  1
  W  W34  1  0.339227  0.994398  0.250000  1
  W  W35  1  0.838663  0.505727  0.250000  1
