# generated using pymatgen
data_Lu4ScFeSb2
_symmetry_space_group_name_H-M   'P 1'
_cell_length_a   5.85132545
_cell_length_b   8.66080178
_cell_length_c   8.66080114
_cell_angle_alpha   83.43350474
_cell_angle_beta   70.23828444
_cell_angle_gamma   70.23827207
_symmetry_Int_Tables_number   1
_chemical_formula_structural   Lu4ScFeSb2
_chemical_formula_sum   'Lu8 Sc2 Fe2 Sb4'
_cell_volume   388.73021716
_cell_formula_units_Z   2
loop_
 _symmetry_equiv_pos_site_id
 _symmetry_equiv_pos_as_xyz
  1  'x, y, z'
loop_
 _atom_site_type_symbol
 _atom_site_label
 _atom_site_symmetry_multiplicity
 _atom_site_fract_x
 _atom_site_fract_y
 _atom_site_fract_z
 _atom_site_occupancy
  Lu  Lu0  1  0.073361  0.117211  0.736036  1
  Lu  Lu1  1  0.926639  0.882789  0.263964  1
  Lu  Lu2  1  0.809446  0.263962  0.117185  1
  Lu  Lu3  1  0.426639  0.263964  0.882789  1
  Lu  Lu4  1  0.190554  0.736038  0.882815  1
  Lu  Lu5  1  0.573361  0.736036  0.117211  1
  Lu  Lu6  1  0.690554  0.882815  0.736038  1
  Lu  Lu7  1  0.309446  0.117185  0.263962  1
  Sc  Sc8  1  0.250000  0.500188  0.499812  1
  Sc  Sc9  1  0.750000  0.499812  0.500188  1
  Fe  Fe10  1  0.250000  0.999872  0.000128  1
  Fe  Fe11  1  0.750000  0.000128  0.999872  1
  Sb  Sb12  1  0.156634  0.499958  0.186659  1
  Sb  Sb13  1  0.843366  0.500042  0.813341  1
  Sb  Sb14  1  0.343366  0.813341  0.500042  1
  Sb  Sb15  1  0.656634  0.186659  0.499958  1
