# generated using pymatgen
data_Zn2Co2P7Ru10
_symmetry_space_group_name_H-M   'P 1'
_cell_length_a   9.50239626
_cell_length_b   9.36973829
_cell_length_c   3.68558700
_cell_angle_alpha   90.00000000
_cell_angle_beta   90.00000000
_cell_angle_gamma   120.56151379
_symmetry_Int_Tables_number   1
_chemical_formula_structural   Zn2Co2P7Ru10
_chemical_formula_sum   'Zn2 Co2 P7 Ru10'
_cell_volume   282.56128983
_cell_formula_units_Z   1
loop_
 _symmetry_equiv_pos_site_id
 _symmetry_equiv_pos_as_xyz
  1  'x, y, z'
loop_
 _atom_site_type_symbol
 _atom_site_label
 _atom_site_symmetry_multiplicity
 _atom_site_fract_x
 _atom_site_fract_y
 _atom_site_fract_z
 _atom_site_occupancy
  Zn  Zn0  1  0.329512  0.661070  0.000000  1
  Zn  Zn1  1  0.666961  0.331257  0.500000  1
  Co  Co2  1  0.726514  0.859630  0.000000  1
  Co  Co3  1  0.142363  0.871478  0.000000  1
  P  P4  1  0.079185  0.387137  0.500000  1
  P  P5  1  0.622313  0.698103  0.500000  1
  P  P6  1  0.303645  0.916258  0.500000  1
  P  P7  1  0.993988  0.990837  0.000000  1
  P  P8  1  0.391120  0.303738  0.000000  1
  P  P9  1  0.692350  0.077101  0.000000  1
  P  P10  1  0.922905  0.620647  0.000000  1
  Ru  Ru11  1  0.459494  0.092968  0.000000  1
  Ru  Ru12  1  0.895534  0.361640  0.000000  1
  Ru  Ru13  1  0.646832  0.543051  0.000000  1
  Ru  Ru14  1  0.367861  0.466848  0.500000  1
  Ru  Ru15  1  0.530276  0.887237  0.500000  1
  Ru  Ru16  1  0.094656  0.639936  0.500000  1
  Ru  Ru17  1  0.126140  0.267174  0.000000  1
  Ru  Ru18  1  0.241112  0.123569  0.500000  1
  Ru  Ru19  1  0.865829  0.106129  0.500000  1
  Ru  Ru20  1  0.901410  0.794196  0.500000  1
