# generated using pymatgen
data_YHo3Lu4(B6Rh)4
_symmetry_space_group_name_H-M   'P 1'
_cell_length_a   3.61817400
_cell_length_b   9.10180500
_cell_length_c   11.44457100
_cell_angle_alpha   90.00009413
_cell_angle_beta   90.00000000
_cell_angle_gamma   90.00000000
_symmetry_Int_Tables_number   1
_chemical_formula_structural   YHo3Lu4(B6Rh)4
_chemical_formula_sum   'Y1 Ho3 Lu4 B24 Rh4'
_cell_volume   376.89163027
_cell_formula_units_Z   1
loop_
 _symmetry_equiv_pos_site_id
 _symmetry_equiv_pos_as_xyz
  1  'x, y, z'
loop_
 _atom_site_type_symbol
 _atom_site_label
 _atom_site_symmetry_multiplicity
 _atom_site_fract_x
 _atom_site_fract_y
 _atom_site_fract_z
 _atom_site_occupancy
  Y  Y0  1  0.500000  0.321580  0.414164  1
  Ho  Ho1  1  0.500000  0.678669  0.586049  1
  Ho  Ho2  1  0.500000  0.178647  0.913993  1
  Ho  Ho3  1  0.500000  0.821209  0.085965  1
  Lu  Lu4  1  0.500000  0.444145  0.126818  1
  Lu  Lu5  1  0.500000  0.555822  0.873130  1
  Lu  Lu6  1  0.500000  0.055749  0.627142  1
  Lu  Lu7  1  0.500000  0.944093  0.372992  1
  B  B8  1  0.000000  0.105176  0.471775  1
  B  B9  1  0.000000  0.894480  0.528407  1
  B  B10  1  0.000000  0.394331  0.971549  1
  B  B11  1  0.000000  0.605719  0.028362  1
  B  B12  1  0.000000  0.131691  0.316864  1
  B  B13  1  0.000000  0.867923  0.682897  1
  B  B14  1  0.000000  0.367972  0.817267  1
  B  B15  1  0.000000  0.632100  0.182676  1
  B  B16  1  0.000000  0.054376  0.065221  1
  B  B17  1  0.000000  0.945456  0.934587  1
  B  B18  1  0.000000  0.445898  0.565849  1
  B  B19  1  0.000000  0.554918  0.434653  1
  B  B20  1  0.000000  0.482869  0.285815  1
  B  B21  1  0.000000  0.517596  0.713965  1
  B  B22  1  0.000000  0.017373  0.786236  1
  B  B23  1  0.000000  0.982431  0.213747  1
  B  B24  1  0.000000  0.250965  0.079784  1
  B  B25  1  0.000000  0.748984  0.920005  1
  B  B26  1  0.000000  0.248923  0.580523  1
  B  B27  1  0.000000  0.751061  0.420021  1
  B  B28  1  0.000000  0.294503  0.235836  1
  B  B29  1  0.000000  0.705338  0.763797  1
  B  B30  1  0.000000  0.205252  0.736521  1
  B  B31  1  0.000000  0.794681  0.263606  1
  Rh  Rh32  1  0.500000  0.139779  0.179357  1
  Rh  Rh33  1  0.500000  0.859919  0.820189  1
  Rh  Rh34  1  0.500000  0.359899  0.680436  1
  Rh  Rh35  1  0.500000  0.640473  0.319804  1
