# generated using pymatgen
data_Sc10CoBi5
_symmetry_space_group_name_H-M   'P 1'
_cell_length_a   7.56987300
_cell_length_b   8.90021500
_cell_length_c   11.38889000
_cell_angle_alpha   90.00000000
_cell_angle_beta   90.00000000
_cell_angle_gamma   90.00000000
_symmetry_Int_Tables_number   1
_chemical_formula_structural   Sc10CoBi5
_chemical_formula_sum   'Sc20 Co2 Bi10'
_cell_volume   767.30934878
_cell_formula_units_Z   2
loop_
 _symmetry_equiv_pos_site_id
 _symmetry_equiv_pos_as_xyz
  1  'x, y, z'
loop_
 _atom_site_type_symbol
 _atom_site_label
 _atom_site_symmetry_multiplicity
 _atom_site_fract_x
 _atom_site_fract_y
 _atom_site_fract_z
 _atom_site_occupancy
  Sc  Sc0  1  0.427595  0.173804  0.561986  1
  Sc  Sc1  1  0.572405  0.826196  0.061986  1
  Sc  Sc2  1  0.068623  0.729711  0.436890  1
  Sc  Sc3  1  0.931377  0.270289  0.936890  1
  Sc  Sc4  1  0.068623  0.270289  0.436890  1
  Sc  Sc5  1  0.931377  0.729711  0.936890  1
  Sc  Sc6  1  0.427595  0.826196  0.561986  1
  Sc  Sc7  1  0.572405  0.173804  0.061986  1
  Sc  Sc8  1  0.571064  0.500000  0.770793  1
  Sc  Sc9  1  0.428936  0.500000  0.270793  1
  Sc  Sc10  1  0.907369  0.000000  0.199892  1
  Sc  Sc11  1  0.092631  0.000000  0.699892  1
  Sc  Sc12  1  0.258601  0.500000  0.992905  1
  Sc  Sc13  1  0.741399  0.500000  0.492905  1
  Sc  Sc14  1  0.196540  0.000000  0.997556  1
  Sc  Sc15  1  0.803460  0.000000  0.497556  1
  Sc  Sc16  1  0.089219  0.500000  0.721246  1
  Sc  Sc17  1  0.910781  0.500000  0.221246  1
  Sc  Sc18  1  0.371403  0.000000  0.310177  1
  Sc  Sc19  1  0.628597  0.000000  0.810177  1
  Co  Co20  1  0.171067  0.000000  0.487522  1
  Co  Co21  1  0.828933  0.000000  0.987522  1
  Bi  Bi22  1  0.814529  0.742077  0.672385  1
  Bi  Bi23  1  0.185471  0.257923  0.172385  1
  Bi  Bi24  1  0.680848  0.240312  0.325477  1
  Bi  Bi25  1  0.319152  0.759688  0.825477  1
  Bi  Bi26  1  0.680848  0.759688  0.325477  1
  Bi  Bi27  1  0.319152  0.240312  0.825477  1
  Bi  Bi28  1  0.814529  0.257923  0.672385  1
  Bi  Bi29  1  0.185471  0.742077  0.172385  1
  Bi  Bi30  1  0.343471  0.500000  0.526433  1
  Bi  Bi31  1  0.656529  0.500000  0.026433  1
