# generated using pymatgen
data_Sc2Co7(P2Ru)3
_symmetry_space_group_name_H-M   'P 1'
_cell_length_a   3.66329200
_cell_length_b   10.32396400
_cell_length_c   11.73964500
_cell_angle_alpha   90.00000000
_cell_angle_beta   90.00000000
_cell_angle_gamma   90.00000000
_symmetry_Int_Tables_number   1
_chemical_formula_structural   Sc2Co7(P2Ru)3
_chemical_formula_sum   'Sc4 Co14 P12 Ru6'
_cell_volume   443.98979013
_cell_formula_units_Z   2
loop_
 _symmetry_equiv_pos_site_id
 _symmetry_equiv_pos_as_xyz
  1  'x, y, z'
loop_
 _atom_site_type_symbol
 _atom_site_label
 _atom_site_symmetry_multiplicity
 _atom_site_fract_x
 _atom_site_fract_y
 _atom_site_fract_z
 _atom_site_occupancy
  Sc  Sc0  1  0.250000  0.585966  0.704618  1
  Sc  Sc1  1  0.250000  0.914034  0.204618  1
  Sc  Sc2  1  0.750000  0.415341  0.291938  1
  Sc  Sc3  1  0.750000  0.084659  0.791938  1
  Co  Co4  1  0.750000  0.596138  0.516212  1
  Co  Co5  1  0.750000  0.903862  0.016212  1
  Co  Co6  1  0.250000  0.225436  0.179394  1
  Co  Co7  1  0.250000  0.274565  0.679394  1
  Co  Co8  1  0.750000  0.776304  0.821744  1
  Co  Co9  1  0.750000  0.723696  0.321744  1
  Co  Co10  1  0.250000  0.884728  0.701320  1
  Co  Co11  1  0.250000  0.615272  0.201320  1
  Co  Co12  1  0.750000  0.113176  0.297551  1
  Co  Co13  1  0.750000  0.386824  0.797551  1
  Co  Co14  1  0.250000  0.465321  0.930039  1
  Co  Co15  1  0.250000  0.034679  0.430039  1
  Co  Co16  1  0.750000  0.537989  0.069306  1
  Co  Co17  1  0.750000  0.962011  0.569306  1
  P  P18  1  0.250000  0.422685  0.115060  1
  P  P19  1  0.250000  0.077315  0.615060  1
  P  P20  1  0.750000  0.579220  0.884274  1
  P  P21  1  0.750000  0.920780  0.384274  1
  P  P22  1  0.250000  0.269113  0.865070  1
  P  P23  1  0.250000  0.230887  0.365070  1
  P  P24  1  0.750000  0.734306  0.134134  1
  P  P25  1  0.750000  0.765694  0.634134  1
  P  P26  1  0.250000  0.598824  0.385110  1
  P  P27  1  0.250000  0.901176  0.885110  1
  P  P28  1  0.750000  0.405944  0.613783  1
  P  P29  1  0.750000  0.094056  0.113783  1
  Ru  Ru30  1  0.250000  0.715615  0.990895  1
  Ru  Ru31  1  0.250000  0.784385  0.490895  1
  Ru  Ru32  1  0.750000  0.289720  0.013521  1
  Ru  Ru33  1  0.750000  0.210280  0.513521  1
  Ru  Ru34  1  0.250000  0.409743  0.486033  1
  Ru  Ru35  1  0.250000  0.090257  0.986033  1
