# generated using pymatgen
data_Hf2Ta2GaC3
_symmetry_space_group_name_H-M   'P 1'
_cell_length_a   3.20940800
_cell_length_b   3.20940899
_cell_length_c   24.25323400
_cell_angle_alpha   90.00000000
_cell_angle_beta   90.00000000
_cell_angle_gamma   119.99998982
_symmetry_Int_Tables_number   1
_chemical_formula_structural   Hf2Ta2GaC3
_chemical_formula_sum   'Hf4 Ta4 Ga2 C6'
_cell_volume   216.34672661
_cell_formula_units_Z   2
loop_
 _symmetry_equiv_pos_site_id
 _symmetry_equiv_pos_as_xyz
  1  'x, y, z'
loop_
 _atom_site_type_symbol
 _atom_site_label
 _atom_site_symmetry_multiplicity
 _atom_site_fract_x
 _atom_site_fract_y
 _atom_site_fract_z
 _atom_site_occupancy
  Hf  Hf0  1  0.333333  0.666667  0.445220  1
  Hf  Hf1  1  0.666667  0.333333  0.554780  1
  Hf  Hf2  1  0.666667  0.333333  0.945220  1
  Hf  Hf3  1  0.333333  0.666667  0.054780  1
  Ta  Ta4  1  0.000000  0.000000  0.338839  1
  Ta  Ta5  1  0.000000  0.000000  0.661161  1
  Ta  Ta6  1  0.000000  0.000000  0.838839  1
  Ta  Ta7  1  0.000000  0.000000  0.161161  1
  Ga  Ga8  1  0.333333  0.666667  0.250000  1
  Ga  Ga9  1  0.666667  0.333333  0.750000  1
  C  C10  1  0.000000  0.000000  0.500000  1
  C  C11  1  0.000000  0.000000  0.000000  1
  C  C12  1  0.666667  0.333333  0.386581  1
  C  C13  1  0.333333  0.666667  0.613419  1
  C  C14  1  0.333333  0.666667  0.886581  1
  C  C15  1  0.666667  0.333333  0.113419  1
