# generated using pymatgen
data_Pr3Ho5(HgIr)2
_symmetry_space_group_name_H-M   'P 1'
_cell_length_a   9.74137370
_cell_length_b   9.74137451
_cell_length_c   9.74137400
_cell_angle_alpha   60.00000175
_cell_angle_beta   59.99999897
_cell_angle_gamma   59.99999817
_symmetry_Int_Tables_number   1
_chemical_formula_structural   Pr3Ho5(HgIr)2
_chemical_formula_sum   'Pr6 Ho10 Hg4 Ir4'
_cell_volume   653.65059428
_cell_formula_units_Z   2
loop_
 _symmetry_equiv_pos_site_id
 _symmetry_equiv_pos_as_xyz
  1  'x, y, z'
loop_
 _atom_site_type_symbol
 _atom_site_label
 _atom_site_symmetry_multiplicity
 _atom_site_fract_x
 _atom_site_fract_y
 _atom_site_fract_z
 _atom_site_occupancy
  Pr  Pr0  1  0.941529  0.558471  0.558471  1
  Pr  Pr1  1  0.558471  0.941529  0.941529  1
  Pr  Pr2  1  0.558471  0.941529  0.558471  1
  Pr  Pr3  1  0.941529  0.558471  0.941529  1
  Pr  Pr4  1  0.558471  0.558471  0.941529  1
  Pr  Pr5  1  0.941529  0.941529  0.558471  1
  Ho  Ho6  1  0.348083  0.348083  0.348083  1
  Ho  Ho7  1  0.348083  0.348083  0.955750  1
  Ho  Ho8  1  0.348083  0.955750  0.348083  1
  Ho  Ho9  1  0.955750  0.348083  0.348083  1
  Ho  Ho10  1  0.812505  0.187495  0.187495  1
  Ho  Ho11  1  0.187495  0.812505  0.812505  1
  Ho  Ho12  1  0.187495  0.812505  0.187495  1
  Ho  Ho13  1  0.812505  0.187495  0.812505  1
  Ho  Ho14  1  0.187495  0.187495  0.812505  1
  Ho  Ho15  1  0.812505  0.812505  0.187495  1
  Hg  Hg16  1  0.582216  0.582216  0.582216  1
  Hg  Hg17  1  0.582216  0.582216  0.253351  1
  Hg  Hg18  1  0.582216  0.253351  0.582216  1
  Hg  Hg19  1  0.253351  0.582216  0.582216  1
  Ir  Ir20  1  0.141304  0.141304  0.141304  1
  Ir  Ir21  1  0.141304  0.141304  0.576090  1
  Ir  Ir22  1  0.141304  0.576090  0.141304  1
  Ir  Ir23  1  0.576090  0.141304  0.141304  1
