# generated using pymatgen
data_Ce2Sn(AsRh2)6
_symmetry_space_group_name_H-M   'P 1'
_cell_length_a   10.07001700
_cell_length_b   10.07001728
_cell_length_c   3.99423300
_cell_angle_alpha   90.00000000
_cell_angle_beta   90.00000000
_cell_angle_gamma   119.99999754
_symmetry_Int_Tables_number   1
_chemical_formula_structural   Ce2Sn(AsRh2)6
_chemical_formula_sum   'Ce2 Sn1 As6 Rh12'
_cell_volume   350.77162733
_cell_formula_units_Z   1
loop_
 _symmetry_equiv_pos_site_id
 _symmetry_equiv_pos_as_xyz
  1  'x, y, z'
loop_
 _atom_site_type_symbol
 _atom_site_label
 _atom_site_symmetry_multiplicity
 _atom_site_fract_x
 _atom_site_fract_y
 _atom_site_fract_z
 _atom_site_occupancy
  Ce  Ce0  1  0.333333  0.666667  0.247847  1
  Ce  Ce1  1  0.666667  0.333333  0.752153  1
  Sn  Sn2  1  0.000000  0.000000  0.500000  1
  As  As3  1  0.403775  0.114807  0.254612  1
  As  As4  1  0.711032  0.596225  0.254612  1
  As  As5  1  0.885193  0.288968  0.254612  1
  As  As6  1  0.596225  0.885193  0.745388  1
  As  As7  1  0.288968  0.403775  0.745388  1
  As  As8  1  0.114807  0.711032  0.745388  1
  Rh  Rh9  1  0.448615  0.382555  0.251807  1
  Rh  Rh10  1  0.933940  0.551385  0.251807  1
  Rh  Rh11  1  0.617445  0.066060  0.251807  1
  Rh  Rh12  1  0.551385  0.617445  0.748193  1
  Rh  Rh13  1  0.066060  0.448615  0.748193  1
  Rh  Rh14  1  0.382555  0.933940  0.748193  1
  Rh  Rh15  1  0.156338  0.875855  0.239105  1
  Rh  Rh16  1  0.719517  0.843662  0.239105  1
  Rh  Rh17  1  0.124145  0.280483  0.239105  1
  Rh  Rh18  1  0.843662  0.124145  0.760895  1
  Rh  Rh19  1  0.280483  0.156338  0.760895  1
  Rh  Rh20  1  0.875855  0.719517  0.760895  1
