# generated using pymatgen
data_MgCo3(AuO2)4
_symmetry_space_group_name_H-M   'P 1'
_cell_length_a   5.12522846
_cell_length_b   5.93438278
_cell_length_c   6.96465245
_cell_angle_alpha   64.80272401
_cell_angle_beta   75.78328111
_cell_angle_gamma   90.02548780
_symmetry_Int_Tables_number   1
_chemical_formula_structural   MgCo3(AuO2)4
_chemical_formula_sum   'Mg1 Co3 Au4 O8'
_cell_volume   184.46775142
_cell_formula_units_Z   1
loop_
 _symmetry_equiv_pos_site_id
 _symmetry_equiv_pos_as_xyz
  1  'x, y, z'
loop_
 _atom_site_type_symbol
 _atom_site_label
 _atom_site_symmetry_multiplicity
 _atom_site_fract_x
 _atom_site_fract_y
 _atom_site_fract_z
 _atom_site_occupancy
  Mg  Mg0  1  0.499999  0.749936  0.999999  1
  Co  Co1  1  0.999992  0.497715  0.000005  1
  Co  Co2  1  0.499999  0.249997  0.000000  1
  Co  Co3  1  0.000008  0.002313  0.999995  1
  Au  Au4  1  0.007842  0.000200  0.499621  1
  Au  Au5  1  0.992156  0.499860  0.500381  1
  Au  Au6  1  0.500007  0.749972  0.499985  1
  Au  Au7  1  0.499998  0.249958  0.500012  1
  O  O8  1  0.904667  0.830607  0.838816  1
  O  O9  1  0.885493  0.328666  0.842680  1
  O  O10  1  0.379193  0.567986  0.839208  1
  O  O11  1  0.379189  0.092764  0.839206  1
  O  O12  1  0.114507  0.171348  0.157320  1
  O  O13  1  0.095332  0.669453  0.161184  1
  O  O14  1  0.620832  0.932002  0.160792  1
  O  O15  1  0.620787  0.407221  0.160793  1
