# generated using pymatgen
data_Y4Ho6CoRu3
_symmetry_space_group_name_H-M   'P 1'
_cell_length_a   6.30720640
_cell_length_b   7.24244161
_cell_length_c   8.48087363
_cell_angle_alpha   96.88394149
_cell_angle_beta   111.94382934
_cell_angle_gamma   89.87949905
_symmetry_Int_Tables_number   1
_chemical_formula_structural   Y4Ho6CoRu3
_chemical_formula_sum   'Y4 Ho6 Co1 Ru3'
_cell_volume   356.36165573
_cell_formula_units_Z   1
loop_
 _symmetry_equiv_pos_site_id
 _symmetry_equiv_pos_as_xyz
  1  'x, y, z'
loop_
 _atom_site_type_symbol
 _atom_site_label
 _atom_site_symmetry_multiplicity
 _atom_site_fract_x
 _atom_site_fract_y
 _atom_site_fract_z
 _atom_site_occupancy
  Y  Y0  1  0.976947  0.911836  0.188288  1
  Y  Y1  1  0.789402  0.583269  0.809029  1
  Y  Y2  1  0.022241  0.083073  0.812941  1
  Y  Y3  1  0.201980  0.416910  0.187873  1
  Ho  Ho4  1  0.641092  0.812648  0.432971  1
  Ho  Ho5  1  0.207599  0.685866  0.566487  1
  Ho  Ho6  1  0.359957  0.185912  0.564891  1
  Ho  Ho7  1  0.793338  0.317843  0.432198  1
  Ho  Ho8  1  0.423722  0.747666  0.001834  1
  Ho  Ho9  1  0.580843  0.253234  0.001883  1
  Co  Co10  1  0.822081  0.576401  0.224149  1
  Ru  Ru11  1  0.597923  0.925201  0.778513  1
  Ru  Ru12  1  0.180564  0.425923  0.777090  1
  Ru  Ru13  1  0.402311  0.074219  0.221853  1
