# generated using pymatgen
data_CsDyLu2Te5
_symmetry_space_group_name_H-M   'P 1'
_cell_length_a   4.37115500
_cell_length_b   13.29182800
_cell_length_c   23.57116000
_cell_angle_alpha   90.00000000
_cell_angle_beta   90.00000000
_cell_angle_gamma   90.00000000
_symmetry_Int_Tables_number   1
_chemical_formula_structural   CsDyLu2Te5
_chemical_formula_sum   'Cs4 Dy4 Lu8 Te20'
_cell_volume   1369.49949147
_cell_formula_units_Z   4
loop_
 _symmetry_equiv_pos_site_id
 _symmetry_equiv_pos_as_xyz
  1  'x, y, z'
loop_
 _atom_site_type_symbol
 _atom_site_label
 _atom_site_symmetry_multiplicity
 _atom_site_fract_x
 _atom_site_fract_y
 _atom_site_fract_z
 _atom_site_occupancy
  Cs  Cs0  1  0.250000  0.355218  0.088679  1
  Cs  Cs1  1  0.750000  0.644782  0.911321  1
  Cs  Cs2  1  0.750000  0.855218  0.411321  1
  Cs  Cs3  1  0.250000  0.144782  0.588679  1
  Dy  Dy4  1  0.250000  0.454821  0.697748  1
  Dy  Dy5  1  0.750000  0.545179  0.302252  1
  Dy  Dy6  1  0.750000  0.954821  0.802252  1
  Dy  Dy7  1  0.250000  0.045179  0.197748  1
  Lu  Lu8  1  0.250000  0.796627  0.674754  1
  Lu  Lu9  1  0.750000  0.203373  0.325246  1
  Lu  Lu10  1  0.750000  0.296627  0.825246  1
  Lu  Lu11  1  0.250000  0.703373  0.174754  1
  Lu  Lu12  1  0.250000  0.392250  0.444008  1
  Lu  Lu13  1  0.750000  0.607750  0.555992  1
  Lu  Lu14  1  0.750000  0.892250  0.055992  1
  Lu  Lu15  1  0.250000  0.107750  0.944008  1
  Te  Te16  1  0.250000  0.446107  0.567822  1
  Te  Te17  1  0.750000  0.553893  0.432178  1
  Te  Te18  1  0.750000  0.946107  0.932178  1
  Te  Te19  1  0.250000  0.053893  0.067822  1
  Te  Te20  1  0.250000  0.765837  0.547552  1
  Te  Te21  1  0.750000  0.234163  0.452448  1
  Te  Te22  1  0.750000  0.265837  0.952448  1
  Te  Te23  1  0.250000  0.734163  0.047552  1
  Te  Te24  1  0.250000  0.797568  0.802429  1
  Te  Te25  1  0.750000  0.202432  0.197571  1
  Te  Te26  1  0.750000  0.297568  0.697571  1
  Te  Te27  1  0.250000  0.702432  0.302429  1
  Te  Te28  1  0.250000  0.450589  0.827729  1
  Te  Te29  1  0.750000  0.549411  0.172271  1
  Te  Te30  1  0.750000  0.950589  0.672271  1
  Te  Te31  1  0.250000  0.049411  0.327729  1
  Te  Te32  1  0.250000  0.372700  0.314124  1
  Te  Te33  1  0.750000  0.627300  0.685876  1
  Te  Te34  1  0.750000  0.872700  0.185876  1
  Te  Te35  1  0.250000  0.127300  0.814124  1
