# generated using pymatgen
data_U3Ga3Ir2Pt
_symmetry_space_group_name_H-M   'P 1'
_cell_length_a   7.02047600
_cell_length_b   7.02047501
_cell_length_c   4.04453400
_cell_angle_alpha   90.00000000
_cell_angle_beta   90.00000000
_cell_angle_gamma   119.99999523
_symmetry_Int_Tables_number   1
_chemical_formula_structural   U3Ga3Ir2Pt
_chemical_formula_sum   'U3 Ga3 Ir2 Pt1'
_cell_volume   172.63633207
_cell_formula_units_Z   1
loop_
 _symmetry_equiv_pos_site_id
 _symmetry_equiv_pos_as_xyz
  1  'x, y, z'
loop_
 _atom_site_type_symbol
 _atom_site_label
 _atom_site_symmetry_multiplicity
 _atom_site_fract_x
 _atom_site_fract_y
 _atom_site_fract_z
 _atom_site_occupancy
  U  U0  1  0.425455  0.000000  0.500000  1
  U  U1  1  0.000000  0.425455  0.500000  1
  U  U2  1  0.574545  0.574545  0.500000  1
  Ga  Ga3  1  0.755908  0.000000  0.000000  1
  Ga  Ga4  1  0.000000  0.755908  0.000000  1
  Ga  Ga5  1  0.244092  0.244092  0.000000  1
  Ir  Ir6  1  0.333333  0.666667  0.000000  1
  Ir  Ir7  1  0.666667  0.333333  0.000000  1
  Pt  Pt8  1  0.000000  0.000000  0.500000  1
