# generated using pymatgen
data_Tb8Cd2OsPd
_symmetry_space_group_name_H-M   'P 1'
_cell_length_a   9.70385108
_cell_length_b   9.70385142
_cell_length_c   9.78049700
_cell_angle_alpha   59.73837153
_cell_angle_beta   59.73837034
_cell_angle_gamma   59.56859457
_symmetry_Int_Tables_number   1
_chemical_formula_structural   Tb8Cd2OsPd
_chemical_formula_sum   'Tb16 Cd4 Os2 Pd2'
_cell_volume   646.51801514
_cell_formula_units_Z   2
loop_
 _symmetry_equiv_pos_site_id
 _symmetry_equiv_pos_as_xyz
  1  'x, y, z'
loop_
 _atom_site_type_symbol
 _atom_site_label
 _atom_site_symmetry_multiplicity
 _atom_site_fract_x
 _atom_site_fract_y
 _atom_site_fract_z
 _atom_site_occupancy
  Tb  Tb0  1  0.349755  0.349755  0.353905  1
  Tb  Tb1  1  0.349755  0.349755  0.946585  1
  Tb  Tb2  1  0.346062  0.953455  0.350242  1
  Tb  Tb3  1  0.953455  0.346062  0.350242  1
  Tb  Tb4  1  0.815413  0.187611  0.191013  1
  Tb  Tb5  1  0.187611  0.815413  0.805964  1
  Tb  Tb6  1  0.187611  0.815413  0.191013  1
  Tb  Tb7  1  0.815413  0.187611  0.805964  1
  Tb  Tb8  1  0.188227  0.188227  0.811773  1
  Tb  Tb9  1  0.808586  0.808586  0.191414  1
  Tb  Tb10  1  0.937399  0.557080  0.567403  1
  Tb  Tb11  1  0.557080  0.937399  0.938119  1
  Tb  Tb12  1  0.557080  0.937399  0.567403  1
  Tb  Tb13  1  0.937399  0.557080  0.938119  1
  Tb  Tb14  1  0.564106  0.564106  0.935894  1
  Tb  Tb15  1  0.939997  0.939997  0.560003  1
  Cd  Cd16  1  0.580506  0.580506  0.581591  1
  Cd  Cd17  1  0.580506  0.580506  0.257395  1
  Cd  Cd18  1  0.581228  0.254743  0.582014  1
  Cd  Cd19  1  0.254743  0.581228  0.582014  1
  Os  Os20  1  0.144736  0.144736  0.137034  1
  Os  Os21  1  0.144736  0.144736  0.573494  1
  Pd  Pd22  1  0.146431  0.572166  0.140702  1
  Pd  Pd23  1  0.572166  0.146431  0.140702  1
