# generated using pymatgen
data_Th10CuSn6Se
_symmetry_space_group_name_H-M   'P 1'
_cell_length_a   6.55787902
_cell_length_b   9.54541643
_cell_length_c   9.54524718
_cell_angle_alpha   120.00058803
_cell_angle_beta   90.00030817
_cell_angle_gamma   89.99937783
_symmetry_Int_Tables_number   1
_chemical_formula_structural   Th10CuSn6Se
_chemical_formula_sum   'Th10 Cu1 Sn6 Se1'
_cell_volume   517.45610840
_cell_formula_units_Z   1
loop_
 _symmetry_equiv_pos_site_id
 _symmetry_equiv_pos_as_xyz
  1  'x, y, z'
loop_
 _atom_site_type_symbol
 _atom_site_label
 _atom_site_symmetry_multiplicity
 _atom_site_fract_x
 _atom_site_fract_y
 _atom_site_fract_z
 _atom_site_occupancy
  Th  Th0  1  0.751037  0.264172  0.000000  1
  Th  Th1  1  0.751019  0.735740  0.735799  1
  Th  Th2  1  0.751019  0.999940  0.264201  1
  Th  Th3  1  0.248864  0.735792  0.000000  1
  Th  Th4  1  0.248968  0.264235  0.264198  1
  Th  Th5  1  0.248968  0.000037  0.735802  1
  Th  Th6  1  0.500001  0.333336  0.666593  1
  Th  Th7  1  0.500001  0.666742  0.333407  1
  Th  Th8  1  0.000030  0.666732  0.333432  1
  Th  Th9  1  0.000030  0.333299  0.666568  1
  Cu  Cu10  1  0.999965  0.000027  0.000000  1
  Sn  Sn11  1  0.751050  0.615561  0.000000  1
  Sn  Sn12  1  0.751004  0.384282  0.384225  1
  Sn  Sn13  1  0.751004  0.000059  0.615775  1
  Sn  Sn14  1  0.249049  0.384382  0.000000  1
  Sn  Sn15  1  0.249008  0.615732  0.615759  1
  Sn  Sn16  1  0.249008  0.999971  0.384241  1
  Se  Se17  1  0.499978  0.999960  0.000000  1
