# generated using pymatgen
data_Pr6Mg2Cd21Ge
_symmetry_space_group_name_H-M   'P 1'
_cell_length_a   10.08011472
_cell_length_b   10.08011486
_cell_length_c   10.11046900
_cell_angle_alpha   59.90033399
_cell_angle_beta   59.90033353
_cell_angle_gamma   60.12847204
_symmetry_Int_Tables_number   1
_chemical_formula_structural   Pr6Mg2Cd21Ge
_chemical_formula_sum   'Pr6 Mg2 Cd21 Ge1'
_cell_volume   726.02234218
_cell_formula_units_Z   1
loop_
 _symmetry_equiv_pos_site_id
 _symmetry_equiv_pos_as_xyz
  1  'x, y, z'
loop_
 _atom_site_type_symbol
 _atom_site_label
 _atom_site_symmetry_multiplicity
 _atom_site_fract_x
 _atom_site_fract_y
 _atom_site_fract_z
 _atom_site_occupancy
  Pr  Pr0  1  0.790502  0.790502  0.209498  1
  Pr  Pr1  1  0.209625  0.790375  0.208202  1
  Pr  Pr2  1  0.790375  0.209625  0.208202  1
  Pr  Pr3  1  0.209498  0.209498  0.790502  1
  Pr  Pr4  1  0.790375  0.209625  0.791798  1
  Pr  Pr5  1  0.209625  0.790375  0.791798  1
  Mg  Mg6  1  0.000000  0.000000  0.500000  1
  Mg  Mg7  1  0.500000  0.500000  0.500000  1
  Cd  Cd8  1  0.834759  0.834759  0.498166  1
  Cd  Cd9  1  0.834133  0.498357  0.833754  1
  Cd  Cd10  1  0.498357  0.834133  0.833754  1
  Cd  Cd11  1  0.834759  0.834759  0.832315  1
  Cd  Cd12  1  0.165241  0.165241  0.501834  1
  Cd  Cd13  1  0.165867  0.501643  0.166246  1
  Cd  Cd14  1  0.501643  0.165867  0.166246  1
  Cd  Cd15  1  0.165241  0.165241  0.167685  1
  Cd  Cd16  1  0.621319  0.621319  0.136733  1
  Cd  Cd17  1  0.623846  0.135746  0.620204  1
  Cd  Cd18  1  0.135746  0.623846  0.620204  1
  Cd  Cd19  1  0.621319  0.621319  0.620628  1
  Cd  Cd20  1  0.378681  0.378681  0.863267  1
  Cd  Cd21  1  0.376154  0.864254  0.379796  1
  Cd  Cd22  1  0.864254  0.376154  0.379796  1
  Cd  Cd23  1  0.378681  0.378681  0.379372  1
  Cd  Cd24  1  0.500000  0.000000  0.500000  1
  Cd  Cd25  1  0.000000  0.500000  0.500000  1
  Cd  Cd26  1  0.500000  0.500000  0.000000  1
  Cd  Cd27  1  0.000000  0.500000  0.000000  1
  Cd  Cd28  1  0.500000  0.000000  0.000000  1
  Ge  Ge29  1  0.000000  0.000000  0.000000  1
