# generated using pymatgen
data_Tm6Al24Os7Pt
_symmetry_space_group_name_H-M   'P 1'
_cell_length_a   8.81958000
_cell_length_b   8.81957969
_cell_length_c   9.53705377
_cell_angle_alpha   89.57804398
_cell_angle_beta   90.42195824
_cell_angle_gamma   119.88057655
_symmetry_Int_Tables_number   1
_chemical_formula_structural   Tm6Al24Os7Pt
_chemical_formula_sum   'Tm6 Al24 Os7 Pt1'
_cell_volume   643.20039405
_cell_formula_units_Z   1
loop_
 _symmetry_equiv_pos_site_id
 _symmetry_equiv_pos_as_xyz
  1  'x, y, z'
loop_
 _atom_site_type_symbol
 _atom_site_label
 _atom_site_symmetry_multiplicity
 _atom_site_fract_x
 _atom_site_fract_y
 _atom_site_fract_z
 _atom_site_occupancy
  Tm  Tm0  1  0.191213  0.389060  0.251869  1
  Tm  Tm1  1  0.808787  0.610940  0.748131  1
  Tm  Tm2  1  0.610940  0.808787  0.251869  1
  Tm  Tm3  1  0.389060  0.191213  0.748131  1
  Tm  Tm4  1  0.195968  0.804032  0.251707  1
  Tm  Tm5  1  0.804032  0.195968  0.748293  1
  Al  Al6  1  0.331642  0.668358  0.021373  1
  Al  Al7  1  0.668358  0.331642  0.978627  1
  Al  Al8  1  0.666593  0.333407  0.518429  1
  Al  Al9  1  0.333407  0.666593  0.481571  1
  Al  Al10  1  0.163676  0.325394  0.577834  1
  Al  Al11  1  0.836324  0.674606  0.422166  1
  Al  Al12  1  0.674606  0.836324  0.577834  1
  Al  Al13  1  0.842355  0.675675  0.078250  1
  Al  Al14  1  0.325394  0.163676  0.422166  1
  Al  Al15  1  0.157645  0.324325  0.921750  1
  Al  Al16  1  0.163518  0.836482  0.575876  1
  Al  Al17  1  0.324325  0.157645  0.078250  1
  Al  Al18  1  0.836482  0.163518  0.424124  1
  Al  Al19  1  0.675675  0.842355  0.921750  1
  Al  Al20  1  0.837025  0.162975  0.076358  1
  Al  Al21  1  0.162975  0.837025  0.923642  1
  Al  Al22  1  0.560170  0.121648  0.249087  1
  Al  Al23  1  0.439830  0.878352  0.750913  1
  Al  Al24  1  0.878352  0.439830  0.249087  1
  Al  Al25  1  0.121648  0.560170  0.750913  1
  Al  Al26  1  0.561663  0.438337  0.251897  1
  Al  Al27  1  0.438337  0.561663  0.748103  1
  Al  Al28  1  0.999594  0.000406  0.250069  1
  Al  Al29  1  0.000406  0.999594  0.749931  1
  Os  Os30  1  0.500000  0.000000  0.000000  1
  Os  Os31  1  0.000000  0.500000  0.000000  1
  Os  Os32  1  0.500000  0.000000  0.500000  1
  Os  Os33  1  0.000000  0.500000  0.500000  1
  Os  Os34  1  0.500000  0.500000  0.500000  1
  Os  Os35  1  0.000000  0.000000  0.000000  1
  Os  Os36  1  0.000000  0.000000  0.500000  1
  Pt  Pt37  1  0.500000  0.500000  0.000000  1
