# generated using pymatgen
data_LuCO3F
_symmetry_space_group_name_H-M   'P 1'
_cell_length_a   4.25120864
_cell_length_b   6.22945150
_cell_length_c   6.67371609
_cell_angle_alpha   90.10768928
_cell_angle_beta   90.62236832
_cell_angle_gamma   93.20062402
_symmetry_Int_Tables_number   1
_chemical_formula_structural   LuCO3F
_chemical_formula_sum   'Lu2 C2 O6 F2'
_cell_volume   176.45136673
_cell_formula_units_Z   2
loop_
 _symmetry_equiv_pos_site_id
 _symmetry_equiv_pos_as_xyz
  1  'x, y, z'
loop_
 _atom_site_type_symbol
 _atom_site_label
 _atom_site_symmetry_multiplicity
 _atom_site_fract_x
 _atom_site_fract_y
 _atom_site_fract_z
 _atom_site_occupancy
  Lu  Lu0  1  0.495875  0.345484  0.249613  1
  Lu  Lu1  1  0.504107  0.654495  0.750374  1
  C  C2  1  0.498223  0.798798  0.250290  1
  C  C3  1  0.501780  0.201253  0.749710  1
  O  O4  1  0.520647  0.683358  0.087102  1
  O  O5  1  0.470411  0.998823  0.249797  1
  O  O6  1  0.503010  0.682742  0.413714  1
  O  O7  1  0.496974  0.317260  0.586292  1
  O  O8  1  0.529535  0.001141  0.750202  1
  O  O9  1  0.479450  0.316650  0.912897  1
  F  F10  1  0.996109  0.358232  0.248568  1
  F  F11  1  0.003876  0.641765  0.751440  1
