# generated using pymatgen
data_Tb4B20IrRh
_symmetry_space_group_name_H-M   'P 1'
_cell_length_a   4.17181200
_cell_length_b   5.68653928
_cell_length_c   11.34695257
_cell_angle_alpha   89.96374637
_cell_angle_beta   90.00000000
_cell_angle_gamma   90.00000000
_symmetry_Int_Tables_number   1
_chemical_formula_structural   Tb4B20IrRh
_chemical_formula_sum   'Tb4 B20 Ir1 Rh1'
_cell_volume   269.18566293
_cell_formula_units_Z   1
loop_
 _symmetry_equiv_pos_site_id
 _symmetry_equiv_pos_as_xyz
  1  'x, y, z'
loop_
 _atom_site_type_symbol
 _atom_site_label
 _atom_site_symmetry_multiplicity
 _atom_site_fract_x
 _atom_site_fract_y
 _atom_site_fract_z
 _atom_site_occupancy
  Tb  Tb0  1  0.500000  0.201277  0.364749  1
  Tb  Tb1  1  0.500000  0.798723  0.635251  1
  Tb  Tb2  1  0.500000  0.296780  0.864009  1
  Tb  Tb3  1  0.500000  0.703220  0.135991  1
  B  B4  1  0.000000  0.381177  0.042492  1
  B  B5  1  0.000000  0.618823  0.957508  1
  B  B6  1  0.000000  0.118816  0.542551  1
  B  B7  1  0.000000  0.881184  0.457449  1
  B  B8  1  0.000000  0.363109  0.197442  1
  B  B9  1  0.000000  0.636891  0.802558  1
  B  B10  1  0.000000  0.137075  0.697144  1
  B  B11  1  0.000000  0.862925  0.302856  1
  B  B12  1  0.000000  0.055120  0.193000  1
  B  B13  1  0.000000  0.944880  0.807000  1
  B  B14  1  0.000000  0.444671  0.692723  1
  B  B15  1  0.000000  0.555329  0.307277  1
  B  B16  1  0.301333  0.219634  0.119030  1
  B  B17  1  0.698667  0.780366  0.880970  1
  B  B18  1  0.301333  0.780366  0.880970  1
  B  B19  1  0.698662  0.280843  0.618816  1
  B  B20  1  0.698667  0.219634  0.119030  1
  B  B21  1  0.301338  0.719157  0.381184  1
  B  B22  1  0.698662  0.719157  0.381184  1
  B  B23  1  0.301338  0.280843  0.618816  1
  Ir  Ir24  1  0.000000  0.000000  0.000000  1
  Rh  Rh25  1  0.000000  0.500000  0.500000  1
