# generated using pymatgen
data_LaPr4Sn2BiCl
_symmetry_space_group_name_H-M   'P 1'
_cell_length_a   9.66261319
_cell_length_b   9.61231405
_cell_length_c   6.77591300
_cell_angle_alpha   90.00000000
_cell_angle_beta   90.00000000
_cell_angle_gamma   120.15071954
_symmetry_Int_Tables_number   1
_chemical_formula_structural   LaPr4Sn2BiCl
_chemical_formula_sum   'La2 Pr8 Sn4 Bi2 Cl2'
_cell_volume   544.20109100
_cell_formula_units_Z   2
loop_
 _symmetry_equiv_pos_site_id
 _symmetry_equiv_pos_as_xyz
  1  'x, y, z'
loop_
 _atom_site_type_symbol
 _atom_site_label
 _atom_site_symmetry_multiplicity
 _atom_site_fract_x
 _atom_site_fract_y
 _atom_site_fract_z
 _atom_site_occupancy
  La  La0  1  0.004090  0.739291  0.750000  1
  La  La1  1  0.257696  0.258833  0.750000  1
  Pr  Pr2  1  0.664792  0.328852  0.001322  1
  Pr  Pr3  1  0.334703  0.668928  0.498476  1
  Pr  Pr4  1  0.664792  0.328852  0.498678  1
  Pr  Pr5  1  0.334703  0.668928  0.001524  1
  Pr  Pr6  1  0.739258  0.005670  0.750000  1
  Pr  Pr7  1  0.733336  0.738596  0.250000  1
  Pr  Pr8  1  0.000501  0.259030  0.250000  1
  Pr  Pr9  1  0.267349  0.005652  0.250000  1
  Sn  Sn10  1  0.612952  0.000411  0.250000  1
  Sn  Sn11  1  0.389351  0.000319  0.750000  1
  Sn  Sn12  1  0.999742  0.386855  0.750000  1
  Sn  Sn13  1  0.387151  0.388047  0.250000  1
  Bi  Bi14  1  0.613971  0.614674  0.750000  1
  Bi  Bi15  1  0.999837  0.613665  0.250000  1
  Cl  Cl16  1  0.997887  0.996698  0.498905  1
  Cl  Cl17  1  0.997887  0.996698  0.001095  1
