# generated using pymatgen
data_Sr3La(H6Pd)2
_symmetry_space_group_name_H-M   'P 1'
_cell_length_a   7.45984272
_cell_length_b   7.45984184
_cell_length_c   5.48583907
_cell_angle_alpha   90.00402584
_cell_angle_beta   90.00402871
_cell_angle_gamma   136.70286824
_symmetry_Int_Tables_number   1
_chemical_formula_structural   Sr3La(H6Pd)2
_chemical_formula_sum   'Sr3 La1 H12 Pd2'
_cell_volume   209.35742935
_cell_formula_units_Z   1
loop_
 _symmetry_equiv_pos_site_id
 _symmetry_equiv_pos_as_xyz
  1  'x, y, z'
loop_
 _atom_site_type_symbol
 _atom_site_label
 _atom_site_symmetry_multiplicity
 _atom_site_fract_x
 _atom_site_fract_y
 _atom_site_fract_z
 _atom_site_occupancy
  Sr  Sr0  1  0.645771  0.354229  0.000000  1
  Sr  Sr1  1  0.854599  0.145401  0.500000  1
  Sr  Sr2  1  0.356198  0.643802  0.000000  1
  La  La3  1  0.143270  0.856730  0.500000  1
  H  H4  1  0.005272  0.514420  0.741573  1
  H  H5  1  0.485580  0.994728  0.258427  1
  H  H6  1  0.005164  0.514320  0.258559  1
  H  H7  1  0.485680  0.994836  0.741441  1
  H  H8  1  0.377735  0.622265  0.500000  1
  H  H9  1  0.876933  0.123067  0.000000  1
  H  H10  1  0.624917  0.375083  0.500000  1
  H  H11  1  0.124581  0.875419  0.000000  1
  H  H12  1  0.249777  0.244374  0.743394  1
  H  H13  1  0.755626  0.750223  0.256606  1
  H  H14  1  0.246314  0.240867  0.253074  1
  H  H15  1  0.759133  0.753686  0.746926  1
  Pd  Pd16  1  0.501932  0.498068  0.500000  1
  Pd  Pd17  1  0.001516  0.998484  0.000000  1
