# generated using pymatgen
data_TbSm7(Pt2Pb)4
_symmetry_space_group_name_H-M   'P 1'
_cell_length_a   8.02789700
_cell_length_b   8.02789760
_cell_length_c   7.38312300
_cell_angle_alpha   90.00000000
_cell_angle_beta   90.00000000
_cell_angle_gamma   89.85531688
_symmetry_Int_Tables_number   1
_chemical_formula_structural   TbSm7(Pt2Pb)4
_chemical_formula_sum   'Tb1 Sm7 Pt8 Pb4'
_cell_volume   475.81960780
_cell_formula_units_Z   1
loop_
 _symmetry_equiv_pos_site_id
 _symmetry_equiv_pos_as_xyz
  1  'x, y, z'
loop_
 _atom_site_type_symbol
 _atom_site_label
 _atom_site_symmetry_multiplicity
 _atom_site_fract_x
 _atom_site_fract_y
 _atom_site_fract_z
 _atom_site_occupancy
  Tb  Tb0  1  0.163205  0.836795  0.000000  1
  Sm  Sm1  1  0.673585  0.671887  0.000000  1
  Sm  Sm2  1  0.334815  0.335853  0.500000  1
  Sm  Sm3  1  0.827691  0.172309  0.500000  1
  Sm  Sm4  1  0.664147  0.665185  0.500000  1
  Sm  Sm5  1  0.328113  0.326415  0.000000  1
  Sm  Sm6  1  0.173608  0.826392  0.500000  1
  Sm  Sm7  1  0.834485  0.165515  0.000000  1
  Pt  Pt8  1  0.874125  0.871809  0.742731  1
  Pt  Pt9  1  0.128191  0.125875  0.742731  1
  Pt  Pt10  1  0.626918  0.373082  0.757732  1
  Pt  Pt11  1  0.626918  0.373082  0.242268  1
  Pt  Pt12  1  0.370488  0.629512  0.236176  1
  Pt  Pt13  1  0.128191  0.125875  0.257269  1
  Pt  Pt14  1  0.874125  0.871809  0.257269  1
  Pt  Pt15  1  0.370488  0.629512  0.763824  1
  Pb  Pb16  1  0.499369  0.998913  0.751342  1
  Pb  Pb17  1  0.499369  0.998913  0.248658  1
  Pb  Pb18  1  0.001087  0.500631  0.751342  1
  Pb  Pb19  1  0.001087  0.500631  0.248658  1
