# generated using pymatgen
data_Dy7Sc3(In2Rh)4
_symmetry_space_group_name_H-M   'P 1'
_cell_length_a   3.59887500
_cell_length_b   7.91967019
_cell_length_c   18.03378061
_cell_angle_alpha   90.15202495
_cell_angle_beta   90.00000000
_cell_angle_gamma   90.00000000
_symmetry_Int_Tables_number   1
_chemical_formula_structural   Dy7Sc3(In2Rh)4
_chemical_formula_sum   'Dy7 Sc3 In8 Rh4'
_cell_volume   513.99525712
_cell_formula_units_Z   1
loop_
 _symmetry_equiv_pos_site_id
 _symmetry_equiv_pos_as_xyz
  1  'x, y, z'
loop_
 _atom_site_type_symbol
 _atom_site_label
 _atom_site_symmetry_multiplicity
 _atom_site_fract_x
 _atom_site_fract_y
 _atom_site_fract_z
 _atom_site_occupancy
  Dy  Dy0  1  0.000000  0.999324  0.000653  1
  Dy  Dy1  1  0.000000  0.500211  0.497931  1
  Dy  Dy2  1  0.000000  0.752924  0.785730  1
  Dy  Dy3  1  0.000000  0.246969  0.214634  1
  Dy  Dy4  1  0.000000  0.249510  0.720380  1
  Dy  Dy5  1  0.000000  0.748337  0.280956  1
  Dy  Dy6  1  0.000000  0.877723  0.588155  1
  Sc  Sc7  1  0.000000  0.121499  0.407124  1
  Sc  Sc8  1  0.000000  0.380231  0.909746  1
  Sc  Sc9  1  0.000000  0.619200  0.091039  1
  In  In10  1  0.500000  0.808053  0.433173  1
  In  In11  1  0.500000  0.201628  0.563003  1
  In  In12  1  0.500000  0.311765  0.059507  1
  In  In13  1  0.500000  0.687065  0.941303  1
  In  In14  1  0.500000  0.918105  0.150324  1
  In  In15  1  0.500000  0.081575  0.852120  1
  In  In16  1  0.500000  0.420130  0.346730  1
  In  In17  1  0.500000  0.569646  0.653214  1
  Rh  Rh18  1  0.500000  0.969970  0.697010  1
  Rh  Rh19  1  0.500000  0.036307  0.306727  1
  Rh  Rh20  1  0.500000  0.467012  0.810060  1
  Rh  Rh21  1  0.500000  0.532815  0.190480  1
