# generated using pymatgen
data_Ba8Si12PtAu3
_symmetry_space_group_name_H-M   'P 1'
_cell_length_a   12.49888506
_cell_length_b   10.94119374
_cell_length_c   8.51426706
_cell_angle_alpha   78.78878302
_cell_angle_beta   59.13784020
_cell_angle_gamma   42.02371541
_symmetry_Int_Tables_number   1
_chemical_formula_structural   Ba8Si12PtAu3
_chemical_formula_sum   'Ba8 Si12 Pt1 Au3'
_cell_volume   632.81497059
_cell_formula_units_Z   1
loop_
 _symmetry_equiv_pos_site_id
 _symmetry_equiv_pos_as_xyz
  1  'x, y, z'
loop_
 _atom_site_type_symbol
 _atom_site_label
 _atom_site_symmetry_multiplicity
 _atom_site_fract_x
 _atom_site_fract_y
 _atom_site_fract_z
 _atom_site_occupancy
  Ba  Ba0  1  0.122614  0.126132  0.379209  1
  Ba  Ba1  1  0.875387  0.878663  0.121623  1
  Ba  Ba2  1  0.121857  0.125164  0.875238  1
  Ba  Ba3  1  0.378783  0.371372  0.123204  1
  Ba  Ba4  1  0.622914  0.623697  0.376702  1
  Ba  Ba5  1  0.376635  0.376642  0.623417  1
  Ba  Ba6  1  0.628834  0.622913  0.873026  1
  Ba  Ba7  1  0.873238  0.875318  0.628026  1
  Si  Si8  1  0.338394  0.658992  0.824735  1
  Si  Si9  1  0.166497  0.835518  0.663847  1
  Si  Si10  1  0.823967  0.178508  0.339190  1
  Si  Si11  1  0.664536  0.333256  0.165838  1
  Si  Si12  1  0.913567  0.589460  0.423993  1
  Si  Si13  1  0.073548  0.426463  0.588659  1
  Si  Si14  1  0.424365  0.072351  0.913180  1
  Si  Si15  1  0.912533  0.588161  0.911476  1
  Si  Si16  1  0.667458  0.331759  0.667459  1
  Si  Si17  1  0.337966  0.661431  0.339204  1
  Si  Si18  1  0.588330  0.912615  0.588062  1
  Si  Si19  1  0.588030  0.911969  0.074131  1
  Pt  Pt20  1  0.832742  0.167662  0.832262  1
  Au  Au21  1  0.082212  0.417341  0.083635  1
  Au  Au22  1  0.167844  0.832698  0.166555  1
  Au  Au23  1  0.417748  0.081919  0.417328  1
