# generated using pymatgen
data_Tb2YErGaCo4
_symmetry_space_group_name_H-M   'P 1'
_cell_length_a   5.47462304
_cell_length_b   5.47462215
_cell_length_c   8.89767206
_cell_angle_alpha   70.80177721
_cell_angle_beta   70.80178014
_cell_angle_gamma   43.31316595
_symmetry_Int_Tables_number   1
_chemical_formula_structural   Tb2YErGaCo4
_chemical_formula_sum   'Tb2 Y1 Er1 Ga1 Co4'
_cell_volume   171.10329075
_cell_formula_units_Z   1
loop_
 _symmetry_equiv_pos_site_id
 _symmetry_equiv_pos_as_xyz
  1  'x, y, z'
loop_
 _atom_site_type_symbol
 _atom_site_label
 _atom_site_symmetry_multiplicity
 _atom_site_fract_x
 _atom_site_fract_y
 _atom_site_fract_z
 _atom_site_occupancy
  Tb  Tb0  1  0.746088  0.746088  0.663107  1
  Tb  Tb1  1  0.254466  0.254466  0.337968  1
  Y  Y2  1  0.610193  0.610193  0.113348  1
  Er  Er3  1  0.393261  0.393261  0.884392  1
  Ga  Ga4  1  0.499881  0.499881  0.500729  1
  Co  Co5  1  0.035347  0.035347  0.646789  1
  Co  Co6  1  0.962458  0.962458  0.355608  1
  Co  Co7  1  0.091875  0.091875  0.879176  1
  Co  Co8  1  0.906432  0.906432  0.118882  1
