# generated using pymatgen
data_Ho10In8Pt3Rh
_symmetry_space_group_name_H-M   'P 1'
_cell_length_a   3.61842400
_cell_length_b   8.13359559
_cell_length_c   18.21055983
_cell_angle_alpha   90.14605068
_cell_angle_beta   90.00000000
_cell_angle_gamma   90.00000000
_symmetry_Int_Tables_number   1
_chemical_formula_structural   Ho10In8Pt3Rh
_chemical_formula_sum   'Ho10 In8 Pt3 Rh1'
_cell_volume   535.94955721
_cell_formula_units_Z   1
loop_
 _symmetry_equiv_pos_site_id
 _symmetry_equiv_pos_as_xyz
  1  'x, y, z'
loop_
 _atom_site_type_symbol
 _atom_site_label
 _atom_site_symmetry_multiplicity
 _atom_site_fract_x
 _atom_site_fract_y
 _atom_site_fract_z
 _atom_site_occupancy
  Ho  Ho0  1  0.000000  0.114145  0.412550  1
  Ho  Ho1  1  0.000000  0.883337  0.584575  1
  Ho  Ho2  1  0.000000  0.383622  0.915311  1
  Ho  Ho3  1  0.000000  0.616462  0.086049  1
  Ho  Ho4  1  0.000000  0.238110  0.222011  1
  Ho  Ho5  1  0.000000  0.758668  0.779413  1
  Ho  Ho6  1  0.000000  0.258023  0.720955  1
  Ho  Ho7  1  0.000000  0.749439  0.278861  1
  Ho  Ho8  1  0.000000  0.999830  0.000178  1
  Ho  Ho9  1  0.000000  0.500589  0.499562  1
  In  In10  1  0.500000  0.422642  0.351410  1
  In  In11  1  0.500000  0.576576  0.648339  1
  In  In12  1  0.500000  0.076158  0.851684  1
  In  In13  1  0.500000  0.926876  0.149435  1
  In  In14  1  0.500000  0.291294  0.067293  1
  In  In15  1  0.500000  0.708292  0.933631  1
  In  In16  1  0.500000  0.208685  0.566151  1
  In  In17  1  0.500000  0.791843  0.431193  1
  Pt  Pt18  1  0.500000  0.976062  0.696077  1
  Pt  Pt19  1  0.500000  0.476290  0.803749  1
  Pt  Pt20  1  0.500000  0.521611  0.196959  1
  Rh  Rh21  1  0.500000  0.021444  0.304613  1
