# generated using pymatgen
data_Tb3YAl18(RePd2)2
_symmetry_space_group_name_H-M   'P 1'
_cell_length_a   7.61999970
_cell_length_b   7.61978252
_cell_length_c   9.55585100
_cell_angle_alpha   90.00000000
_cell_angle_beta   90.00000000
_cell_angle_gamma   118.57478218
_symmetry_Int_Tables_number   1
_chemical_formula_structural   Tb3YAl18(RePd2)2
_chemical_formula_sum   'Tb3 Y1 Al18 Re2 Pd4'
_cell_volume   487.25595683
_cell_formula_units_Z   1
loop_
 _symmetry_equiv_pos_site_id
 _symmetry_equiv_pos_as_xyz
  1  'x, y, z'
loop_
 _atom_site_type_symbol
 _atom_site_label
 _atom_site_symmetry_multiplicity
 _atom_site_fract_x
 _atom_site_fract_y
 _atom_site_fract_z
 _atom_site_occupancy
  Tb  Tb0  1  0.994412  0.680629  0.250000  1
  Tb  Tb1  1  0.005809  0.319361  0.750000  1
  Tb  Tb2  1  0.680665  0.994382  0.250000  1
  Y  Y3  1  0.319355  0.005791  0.750000  1
  Al  Al4  1  0.132262  0.132245  0.250000  1
  Al  Al5  1  0.867774  0.867768  0.750000  1
  Al  Al6  1  0.002482  0.335027  0.076169  1
  Al  Al7  1  0.997490  0.664995  0.923870  1
  Al  Al8  1  0.997490  0.664995  0.576130  1
  Al  Al9  1  0.335012  0.002479  0.423831  1
  Al  Al10  1  0.002482  0.335027  0.423831  1
  Al  Al11  1  0.664993  0.997479  0.576137  1
  Al  Al12  1  0.664993  0.997479  0.923863  1
  Al  Al13  1  0.335012  0.002479  0.076169  1
  Al  Al14  1  0.329820  0.329804  0.549076  1
  Al  Al15  1  0.670161  0.670147  0.450963  1
  Al  Al16  1  0.670161  0.670147  0.049037  1
  Al  Al17  1  0.329820  0.329804  0.950924  1
  Al  Al18  1  0.344020  0.551982  0.250000  1
  Al  Al19  1  0.655997  0.448047  0.750000  1
  Al  Al20  1  0.551995  0.343995  0.250000  1
  Al  Al21  1  0.448045  0.655939  0.750000  1
  Re  Re22  1  0.999845  0.000019  0.999989  1
  Re  Re23  1  0.999845  0.000019  0.500011  1
  Pd  Pd24  1  0.671791  0.328262  0.000015  1
  Pd  Pd25  1  0.328240  0.671719  0.000020  1
  Pd  Pd26  1  0.328240  0.671719  0.499980  1
  Pd  Pd27  1  0.671791  0.328262  0.499985  1
