# generated using pymatgen
data_Tb4Ho3Er(SiBr6)2
_symmetry_space_group_name_H-M   'P 1'
_cell_length_a   4.05154400
_cell_length_b   13.22826714
_cell_length_c   14.00093515
_cell_angle_alpha   90.01657701
_cell_angle_beta   90.00000000
_cell_angle_gamma   90.00000000
_symmetry_Int_Tables_number   1
_chemical_formula_structural   Tb4Ho3Er(SiBr6)2
_chemical_formula_sum   'Tb4 Ho3 Er1 Si2 Br12'
_cell_volume   750.37877665
_cell_formula_units_Z   1
loop_
 _symmetry_equiv_pos_site_id
 _symmetry_equiv_pos_as_xyz
  1  'x, y, z'
loop_
 _atom_site_type_symbol
 _atom_site_label
 _atom_site_symmetry_multiplicity
 _atom_site_fract_x
 _atom_site_fract_y
 _atom_site_fract_z
 _atom_site_occupancy
  Tb  Tb0  1  0.000000  0.118831  0.579046  1
  Tb  Tb1  1  0.000000  0.881167  0.420957  1
  Tb  Tb2  1  0.000000  0.618748  0.921026  1
  Tb  Tb3  1  0.000000  0.381260  0.078984  1
  Ho  Ho4  1  0.500000  0.117732  0.341554  1
  Ho  Ho5  1  0.500000  0.882263  0.658455  1
  Ho  Ho6  1  0.500000  0.617630  0.158309  1
  Er  Er7  1  0.500000  0.382438  0.841792  1
  Si  Si8  1  0.500000  0.000001  0.500005  1
  Si  Si9  1  0.500000  0.499787  0.999712  1
  Br  Br10  1  0.500000  0.242312  0.164201  1
  Br  Br11  1  0.500000  0.757670  0.835774  1
  Br  Br12  1  0.500000  0.742278  0.335715  1
  Br  Br13  1  0.500000  0.257932  0.664566  1
  Br  Br14  1  0.000000  0.254871  0.409477  1
  Br  Br15  1  0.000000  0.745129  0.590532  1
  Br  Br16  1  0.000000  0.754741  0.090566  1
  Br  Br17  1  0.000000  0.245683  0.909099  1
  Br  Br18  1  0.000000  0.003747  0.242712  1
  Br  Br19  1  0.000000  0.996247  0.757283  1
  Br  Br20  1  0.000000  0.503832  0.257167  1
  Br  Br21  1  0.000000  0.495702  0.743068  1
