# generated using pymatgen
data_Sr3NdSb3
_symmetry_space_group_name_H-M   'P 1'
_cell_length_a   8.55556572
_cell_length_b   8.55556589
_cell_length_c   9.90679622
_cell_angle_alpha   55.17066988
_cell_angle_beta   55.17066786
_cell_angle_gamma   70.85104989
_symmetry_Int_Tables_number   1
_chemical_formula_structural   Sr3NdSb3
_chemical_formula_sum   'Sr6 Nd2 Sb6'
_cell_volume   488.61190626
_cell_formula_units_Z   2
loop_
 _symmetry_equiv_pos_site_id
 _symmetry_equiv_pos_as_xyz
  1  'x, y, z'
loop_
 _atom_site_type_symbol
 _atom_site_label
 _atom_site_symmetry_multiplicity
 _atom_site_fract_x
 _atom_site_fract_y
 _atom_site_fract_z
 _atom_site_occupancy
  Sr  Sr0  1  0.000651  0.135326  0.112594  1
  Sr  Sr1  1  0.864674  0.999349  0.887406  1
  Sr  Sr2  1  0.499944  0.856769  0.750793  1
  Sr  Sr3  1  0.143231  0.500056  0.249207  1
  Sr  Sr4  1  0.999124  0.645495  0.604630  1
  Sr  Sr5  1  0.354505  0.000876  0.395370  1
  Nd  Nd6  1  0.633865  0.498380  0.249430  1
  Nd  Nd7  1  0.501620  0.366135  0.750570  1
  Sb  Sb8  1  0.860162  0.139838  0.500000  1
  Sb  Sb9  1  0.624228  0.375772  0.000000  1
  Sb  Sb10  1  0.266620  0.260263  0.618060  1
  Sb  Sb11  1  0.739737  0.733380  0.381940  1
  Sb  Sb12  1  0.125197  0.613560  0.878926  1
  Sb  Sb13  1  0.386440  0.874803  0.121074  1
