# generated using pymatgen
data_Yb4TlIn(SbO6)2
_symmetry_space_group_name_H-M   'P 1'
_cell_length_a   6.55607345
_cell_length_b   6.52428491
_cell_length_c   6.57201771
_cell_angle_alpha   91.44252096
_cell_angle_beta   91.15550476
_cell_angle_gamma   91.14129763
_symmetry_Int_Tables_number   1
_chemical_formula_structural   Yb4TlIn(SbO6)2
_chemical_formula_sum   'Yb4 Tl1 In1 Sb2 O12'
_cell_volume   280.90454244
_cell_formula_units_Z   1
loop_
 _symmetry_equiv_pos_site_id
 _symmetry_equiv_pos_as_xyz
  1  'x, y, z'
loop_
 _atom_site_type_symbol
 _atom_site_label
 _atom_site_symmetry_multiplicity
 _atom_site_fract_x
 _atom_site_fract_y
 _atom_site_fract_z
 _atom_site_occupancy
  Yb  Yb0  1  0.562225  0.060878  0.755600  1
  Yb  Yb1  1  0.935652  0.248595  0.435652  1
  Yb  Yb2  1  0.249869  0.431465  0.941294  1
  Yb  Yb3  1  0.438096  0.945994  0.250477  1
  Tl  Tl4  1  0.062001  0.751096  0.563141  1
  In  In5  1  0.746947  0.564990  0.055569  1
  Sb  Sb6  1  0.502735  0.502276  0.499118  1
  Sb  Sb7  1  0.997835  0.998067  0.001760  1
  O  O8  1  0.034168  0.697078  0.924342  1
  O  O9  1  0.707699  0.904672  0.043692  1
  O  O10  1  0.919199  0.036335  0.706965  1
  O  O11  1  0.942464  0.294578  0.082297  1
  O  O12  1  0.286761  0.081118  0.958899  1
  O  O13  1  0.085914  0.961522  0.294169  1
  O  O14  1  0.795289  0.579124  0.412139  1
  O  O15  1  0.578212  0.435628  0.793673  1
  O  O16  1  0.425829  0.793795  0.569210  1
  O  O17  1  0.210210  0.432219  0.570664  1
  O  O18  1  0.443975  0.567652  0.203599  1
  O  O19  1  0.574920  0.212917  0.437736  1
