# generated using pymatgen
data_Tb15Pr5(SnSb)8
_symmetry_space_group_name_H-M   'P 1'
_cell_length_a   8.16518054
_cell_length_b   8.19786845
_cell_length_c   15.48748400
_cell_angle_alpha   90.01603301
_cell_angle_beta   89.77043540
_cell_angle_gamma   89.95875894
_symmetry_Int_Tables_number   1
_chemical_formula_structural   Tb15Pr5(SnSb)8
_chemical_formula_sum   'Tb15 Pr5 Sn8 Sb8'
_cell_volume   1036.67826152
_cell_formula_units_Z   1
loop_
 _symmetry_equiv_pos_site_id
 _symmetry_equiv_pos_as_xyz
  1  'x, y, z'
loop_
 _atom_site_type_symbol
 _atom_site_label
 _atom_site_symmetry_multiplicity
 _atom_site_fract_x
 _atom_site_fract_y
 _atom_site_fract_z
 _atom_site_occupancy
  Tb  Tb0  1  0.375890  0.838329  0.878820  1
  Tb  Tb1  1  0.878173  0.661928  0.620681  1
  Tb  Tb2  1  0.621185  0.162470  0.379852  1
  Tb  Tb3  1  0.122772  0.338096  0.121279  1
  Tb  Tb4  1  0.621387  0.161161  0.121667  1
  Tb  Tb5  1  0.118745  0.337714  0.380019  1
  Tb  Tb6  1  0.381372  0.838185  0.621227  1
  Tb  Tb7  1  0.877791  0.661784  0.877824  1
  Tb  Tb8  1  0.539053  0.324970  0.894486  1
  Tb  Tb9  1  0.042928  0.173087  0.606303  1
  Tb  Tb10  1  0.457669  0.673146  0.394863  1
  Tb  Tb11  1  0.208033  0.498150  0.749361  1
  Tb  Tb12  1  0.708214  0.002164  0.750421  1
  Tb  Tb13  1  0.791703  0.501697  0.249269  1
  Tb  Tb14  1  0.291588  0.997791  0.250975  1
  Pr  Pr15  1  0.963386  0.821652  0.101848  1
  Pr  Pr16  1  0.466250  0.677162  0.100937  1
  Pr  Pr17  1  0.964554  0.823658  0.398834  1
  Pr  Pr18  1  0.535366  0.323458  0.601093  1
  Pr  Pr19  1  0.033352  0.177614  0.899560  1
  Sn  Sn20  1  0.575027  0.625269  0.750401  1
  Sn  Sn21  1  0.075604  0.874714  0.749161  1
  Sn  Sn22  1  0.424286  0.374133  0.251038  1
  Sn  Sn23  1  0.924123  0.126493  0.250476  1
  Sn  Sn24  1  0.343238  0.141700  0.751412  1
  Sn  Sn25  1  0.843541  0.358250  0.748283  1
  Sn  Sn26  1  0.655509  0.858641  0.252546  1
  Sn  Sn27  1  0.159242  0.639166  0.250705  1
  Sb  Sb28  1  0.283197  0.031322  0.046340  1
  Sb  Sb29  1  0.774949  0.476245  0.452621  1
  Sb  Sb30  1  0.725195  0.976031  0.547644  1
  Sb  Sb31  1  0.222114  0.527118  0.953101  1
  Sb  Sb32  1  0.712450  0.969525  0.954056  1
  Sb  Sb33  1  0.216551  0.532533  0.543874  1
  Sb  Sb34  1  0.283391  0.032055  0.456911  1
  Sb  Sb35  1  0.782173  0.462588  0.042112  1
