# generated using pymatgen
data_Li6GaAs3
_symmetry_space_group_name_H-M   'P 1'
_cell_length_a   7.56423906
_cell_length_b   7.51558228
_cell_length_c   14.73194400
_cell_angle_alpha   94.11996475
_cell_angle_beta   95.85539127
_cell_angle_gamma   119.60526699
_symmetry_Int_Tables_number   1
_chemical_formula_structural   Li6GaAs3
_chemical_formula_sum   'Li24 Ga4 As12'
_cell_volume   717.09847295
_cell_formula_units_Z   4
loop_
 _symmetry_equiv_pos_site_id
 _symmetry_equiv_pos_as_xyz
  1  'x, y, z'
loop_
 _atom_site_type_symbol
 _atom_site_label
 _atom_site_symmetry_multiplicity
 _atom_site_fract_x
 _atom_site_fract_y
 _atom_site_fract_z
 _atom_site_occupancy
  Li  Li0  1  0.024683  0.840377  0.067412  1
  Li  Li1  1  0.164216  0.981727  0.432480  1
  Li  Li2  1  0.059116  0.556402  0.192445  1
  Li  Li3  1  0.100076  0.275886  0.303472  1
  Li  Li4  1  0.214700  0.714846  0.570328  1
  Li  Li5  1  0.231587  0.394310  0.695535  1
  Li  Li6  1  0.435944  0.930698  0.307899  1
  Li  Li7  1  0.161633  0.337587  0.500057  1
  Li  Li8  1  0.338469  0.523238  0.068140  1
  Li  Li9  1  0.266305  0.101179  0.803124  1
  Li  Li10  1  0.670754  0.826684  0.999608  1
  Li  Li11  1  0.598415  0.762296  0.803401  1
  Li  Li12  1  0.406594  0.243303  0.194501  1
  Li  Li13  1  0.331811  0.174351  0.998700  1
  Li  Li14  1  0.740323  0.904054  0.195366  1
  Li  Li15  1  0.666205  0.480025  0.930222  1
  Li  Li16  1  0.850507  0.671932  0.499176  1
  Li  Li17  1  0.574707  0.082615  0.691387  1
  Li  Li18  1  0.777022  0.611654  0.302895  1
  Li  Li19  1  0.909082  0.733038  0.695005  1
  Li  Li20  1  0.797932  0.295740  0.427821  1
  Li  Li21  1  0.949472  0.450924  0.805822  1
  Li  Li22  1  0.843743  0.026581  0.564759  1
  Li  Li23  1  0.980051  0.163541  0.931250  1
  Ga  Ga24  1  0.286729  0.787843  0.930680  1
  Ga  Ga25  1  0.482321  0.674224  0.431155  1
  Ga  Ga26  1  0.527615  0.333805  0.566324  1
  Ga  Ga27  1  0.719050  0.216484  0.067649  1
  As  As28  1  0.970546  0.806565  0.878530  1
  As  As29  1  0.131136  0.623382  0.379859  1
  As  As30  1  0.398715  0.898865  0.112062  1
  As  As31  1  0.304053  0.471640  0.879493  1
  As  As32  1  0.214898  0.055513  0.619230  1
  As  As33  1  0.544318  0.683916  0.611053  1
  As  As34  1  0.464922  0.323141  0.386920  1
  As  As35  1  0.794285  0.952534  0.378634  1
  As  As36  1  0.701374  0.532833  0.118641  1
  As  As37  1  0.606003  0.105194  0.886193  1
  As  As38  1  0.878817  0.385880  0.618096  1
  As  As39  1  0.034971  0.197893  0.119759  1
