# generated using pymatgen
data_Y15HoCd4(CoRu)2
_symmetry_space_group_name_H-M   'P 1'
_cell_length_a   9.69829516
_cell_length_b   9.61041123
_cell_length_c   9.61041215
_cell_angle_alpha   59.29698431
_cell_angle_beta   59.49123471
_cell_angle_gamma   59.49124017
_symmetry_Int_Tables_number   1
_chemical_formula_structural   Y15HoCd4(CoRu)2
_chemical_formula_sum   'Y15 Ho1 Cd4 Co2 Ru2'
_cell_volume   625.11018629
_cell_formula_units_Z   1
loop_
 _symmetry_equiv_pos_site_id
 _symmetry_equiv_pos_as_xyz
  1  'x, y, z'
loop_
 _atom_site_type_symbol
 _atom_site_label
 _atom_site_symmetry_multiplicity
 _atom_site_fract_x
 _atom_site_fract_y
 _atom_site_fract_z
 _atom_site_occupancy
  Y  Y0  1  0.937885  0.939717  0.558525  1
  Y  Y1  1  0.810940  0.188600  0.188600  1
  Y  Y2  1  0.938263  0.562267  0.562267  1
  Y  Y3  1  0.937885  0.558525  0.939717  1
  Y  Y4  1  0.814381  0.806426  0.185963  1
  Y  Y5  1  0.342604  0.349301  0.349301  1
  Y  Y6  1  0.558914  0.940747  0.940747  1
  Y  Y7  1  0.565352  0.938143  0.558419  1
  Y  Y8  1  0.188880  0.809662  0.809662  1
  Y  Y9  1  0.188664  0.187440  0.807760  1
  Y  Y10  1  0.343857  0.353164  0.960342  1
  Y  Y11  1  0.343857  0.960342  0.353164  1
  Y  Y12  1  0.814381  0.185963  0.806426  1
  Y  Y13  1  0.565352  0.558419  0.938143  1
  Y  Y14  1  0.188664  0.807760  0.187440  1
  Ho  Ho15  1  0.965539  0.348649  0.348649  1
  Cd  Cd16  1  0.580214  0.579047  0.258794  1
  Cd  Cd17  1  0.257455  0.580003  0.580003  1
  Cd  Cd18  1  0.581033  0.579187  0.579187  1
  Cd  Cd19  1  0.580214  0.258794  0.579047  1
  Co  Co20  1  0.139105  0.578920  0.145447  1
  Co  Co21  1  0.139105  0.145447  0.578920  1
  Ru  Ru22  1  0.579499  0.141662  0.141662  1
  Ru  Ru23  1  0.137957  0.141822  0.141822  1
