# generated using pymatgen
data_Er3Al3ZnCoSi
_symmetry_space_group_name_H-M   'P 1'
_cell_length_a   6.89388000
_cell_length_b   6.89387932
_cell_length_c   4.13862600
_cell_angle_alpha   90.00000000
_cell_angle_beta   90.00000000
_cell_angle_gamma   119.99999368
_symmetry_Int_Tables_number   1
_chemical_formula_structural   Er3Al3ZnCoSi
_chemical_formula_sum   'Er3 Al3 Zn1 Co1 Si1'
_cell_volume   170.33905640
_cell_formula_units_Z   1
loop_
 _symmetry_equiv_pos_site_id
 _symmetry_equiv_pos_as_xyz
  1  'x, y, z'
loop_
 _atom_site_type_symbol
 _atom_site_label
 _atom_site_symmetry_multiplicity
 _atom_site_fract_x
 _atom_site_fract_y
 _atom_site_fract_z
 _atom_site_occupancy
  Er  Er0  1  0.405614  0.997994  0.000000  1
  Er  Er1  1  0.002006  0.407621  0.000000  1
  Er  Er2  1  0.592380  0.594386  0.000000  1
  Al  Al3  1  0.770432  0.001401  0.499999  1
  Al  Al4  1  0.230970  0.229569  0.499999  1
  Al  Al5  1  0.998599  0.769031  0.499999  1
  Zn  Zn6  1  0.666667  0.333333  0.499999  1
  Co  Co7  1  0.000000  0.000000  0.000000  1
  Si  Si8  1  0.333333  0.666667  0.499999  1
