# generated using pymatgen
data_LiY19Cd6IrRu
_symmetry_space_group_name_H-M   'P 1'
_cell_length_a   9.60564500
_cell_length_b   9.60562952
_cell_length_c   9.77376600
_cell_angle_alpha   89.99985635
_cell_angle_beta   90.00010644
_cell_angle_gamma   120.00004988
_symmetry_Int_Tables_number   1
_chemical_formula_structural   LiY19Cd6IrRu
_chemical_formula_sum   'Li1 Y19 Cd6 Ir1 Ru1'
_cell_volume   780.98863648
_cell_formula_units_Z   1
loop_
 _symmetry_equiv_pos_site_id
 _symmetry_equiv_pos_as_xyz
  1  'x, y, z'
loop_
 _atom_site_type_symbol
 _atom_site_label
 _atom_site_symmetry_multiplicity
 _atom_site_fract_x
 _atom_site_fract_y
 _atom_site_fract_z
 _atom_site_occupancy
  Li  Li0  1  0.000000  0.000000  0.500182  1
  Y  Y1  1  0.000000  0.000000  0.000790  1
  Y  Y2  1  0.206871  0.793128  0.440696  1
  Y  Y3  1  0.206871  0.413742  0.440696  1
  Y  Y4  1  0.586257  0.793128  0.440696  1
  Y  Y5  1  0.792318  0.207684  0.559734  1
  Y  Y6  1  0.792317  0.584633  0.559734  1
  Y  Y7  1  0.415366  0.207684  0.559734  1
  Y  Y8  1  0.789720  0.210279  0.941096  1
  Y  Y9  1  0.789720  0.579439  0.941097  1
  Y  Y10  1  0.420561  0.210280  0.941096  1
  Y  Y11  1  0.209897  0.790102  0.058084  1
  Y  Y12  1  0.209898  0.419796  0.058084  1
  Y  Y13  1  0.580204  0.790102  0.058084  1
  Y  Y14  1  0.541809  0.458192  0.252030  1
  Y  Y15  1  0.541808  0.083615  0.252030  1
  Y  Y16  1  0.916385  0.458192  0.252030  1
  Y  Y17  1  0.458344  0.541655  0.747753  1
  Y  Y18  1  0.458345  0.916691  0.747753  1
  Y  Y19  1  0.083309  0.541655  0.747753  1
  Cd  Cd20  1  0.888186  0.111815  0.258292  1
  Cd  Cd21  1  0.888186  0.776373  0.258292  1
  Cd  Cd22  1  0.223628  0.111815  0.258292  1
  Cd  Cd23  1  0.111723  0.888277  0.741724  1
  Cd  Cd24  1  0.111723  0.223444  0.741724  1
  Cd  Cd25  1  0.776556  0.888277  0.741724  1
  Ir  Ir26  1  0.333334  0.666668  0.251031  1
  Ru  Ru27  1  0.666667  0.333333  0.749771  1
