# generated using pymatgen
data_Ca2Ni5P6Rh5
_symmetry_space_group_name_H-M   'P 1'
_cell_length_a   3.79684800
_cell_length_b   10.64840800
_cell_length_c   12.20575200
_cell_angle_alpha   90.00000000
_cell_angle_beta   90.00000000
_cell_angle_gamma   90.00000000
_symmetry_Int_Tables_number   1
_chemical_formula_structural   Ca2Ni5P6Rh5
_chemical_formula_sum   'Ca4 Ni10 P12 Rh10'
_cell_volume   493.48327232
_cell_formula_units_Z   2
loop_
 _symmetry_equiv_pos_site_id
 _symmetry_equiv_pos_as_xyz
  1  'x, y, z'
loop_
 _atom_site_type_symbol
 _atom_site_label
 _atom_site_symmetry_multiplicity
 _atom_site_fract_x
 _atom_site_fract_y
 _atom_site_fract_z
 _atom_site_occupancy
  Ca  Ca0  1  0.250000  0.590581  0.710012  1
  Ca  Ca1  1  0.250000  0.909419  0.210012  1
  Ca  Ca2  1  0.750000  0.417593  0.293233  1
  Ca  Ca3  1  0.750000  0.082407  0.793233  1
  Ni  Ni4  1  0.750000  0.779446  0.818005  1
  Ni  Ni5  1  0.750000  0.720554  0.318005  1
  Ni  Ni6  1  0.250000  0.884543  0.696120  1
  Ni  Ni7  1  0.250000  0.615457  0.196120  1
  Ni  Ni8  1  0.750000  0.106805  0.302280  1
  Ni  Ni9  1  0.750000  0.393195  0.802280  1
  Ni  Ni10  1  0.250000  0.462493  0.932855  1
  Ni  Ni11  1  0.250000  0.037507  0.432855  1
  Ni  Ni12  1  0.750000  0.533952  0.065843  1
  Ni  Ni13  1  0.750000  0.966048  0.565843  1
  P  P14  1  0.250000  0.421342  0.111188  1
  P  P15  1  0.250000  0.078658  0.611188  1
  P  P16  1  0.750000  0.583982  0.887813  1
  P  P17  1  0.750000  0.916018  0.387813  1
  P  P18  1  0.250000  0.269491  0.873922  1
  P  P19  1  0.250000  0.230509  0.373922  1
  P  P20  1  0.750000  0.725782  0.132831  1
  P  P21  1  0.750000  0.774218  0.632831  1
  P  P22  1  0.250000  0.604928  0.383505  1
  P  P23  1  0.250000  0.895072  0.883505  1
  P  P24  1  0.750000  0.404390  0.614608  1
  P  P25  1  0.750000  0.095610  0.114608  1
  Rh  Rh26  1  0.250000  0.706000  0.983725  1
  Rh  Rh27  1  0.250000  0.794000  0.483725  1
  Rh  Rh28  1  0.750000  0.285441  0.010901  1
  Rh  Rh29  1  0.750000  0.214559  0.510901  1
  Rh  Rh30  1  0.250000  0.412701  0.484398  1
  Rh  Rh31  1  0.250000  0.087299  0.984398  1
  Rh  Rh32  1  0.750000  0.599317  0.515005  1
  Rh  Rh33  1  0.750000  0.900683  0.015005  1
  Rh  Rh34  1  0.250000  0.222368  0.183756  1
  Rh  Rh35  1  0.250000  0.277632  0.683756  1
