# generated using pymatgen
data_Hg(PAu)2
_symmetry_space_group_name_H-M   'P 1'
_cell_length_a   6.00277538
_cell_length_b   6.00277633
_cell_length_c   11.40591000
_cell_angle_alpha   90.00000000
_cell_angle_beta   90.00000000
_cell_angle_gamma   148.19281776
_symmetry_Int_Tables_number   1
_chemical_formula_structural   Hg(PAu)2
_chemical_formula_sum   'Hg2 P4 Au4'
_cell_volume   216.61881263
_cell_formula_units_Z   2
loop_
 _symmetry_equiv_pos_site_id
 _symmetry_equiv_pos_as_xyz
  1  'x, y, z'
loop_
 _atom_site_type_symbol
 _atom_site_label
 _atom_site_symmetry_multiplicity
 _atom_site_fract_x
 _atom_site_fract_y
 _atom_site_fract_z
 _atom_site_occupancy
  Hg  Hg0  1  0.521563  0.478437  0.750000  1
  Hg  Hg1  1  0.478437  0.521563  0.250000  1
  P  P2  1  0.798082  0.201918  0.542921  1
  P  P3  1  0.201918  0.798082  0.042921  1
  P  P4  1  0.201918  0.798082  0.457079  1
  P  P5  1  0.798082  0.201918  0.957079  1
  Au  Au6  1  0.000000  0.000000  0.000000  1
  Au  Au7  1  0.777056  0.222944  0.750000  1
  Au  Au8  1  0.000000  0.000000  0.500000  1
  Au  Au9  1  0.222944  0.777056  0.250000  1
