# generated using pymatgen
data_MgSc12Ni4Sn
_symmetry_space_group_name_H-M   'P 1'
_cell_length_a   7.84279013
_cell_length_b   7.84279001
_cell_length_c   7.84278897
_cell_angle_alpha   111.75423883
_cell_angle_beta   110.45818423
_cell_angle_gamma   106.25125718
_symmetry_Int_Tables_number   1
_chemical_formula_structural   MgSc12Ni4Sn
_chemical_formula_sum   'Mg1 Sc12 Ni4 Sn1'
_cell_volume   370.43179634
_cell_formula_units_Z   1
loop_
 _symmetry_equiv_pos_site_id
 _symmetry_equiv_pos_as_xyz
  1  'x, y, z'
loop_
 _atom_site_type_symbol
 _atom_site_label
 _atom_site_symmetry_multiplicity
 _atom_site_fract_x
 _atom_site_fract_y
 _atom_site_fract_z
 _atom_site_occupancy
  Mg  Mg0  1  0.000000  0.500000  0.500000  1
  Sc  Sc1  1  0.677980  0.877386  0.199406  1
  Sc  Sc2  1  0.322020  0.521427  0.199406  1
  Sc  Sc3  1  0.814498  0.791361  0.605859  1
  Sc  Sc4  1  0.185502  0.791361  0.976862  1
  Sc  Sc5  1  0.814498  0.208639  0.023138  1
  Sc  Sc6  1  0.185502  0.208639  0.394141  1
  Sc  Sc7  1  0.677980  0.478573  0.800594  1
  Sc  Sc8  1  0.322020  0.122614  0.800594  1
  Sc  Sc9  1  0.559941  0.266770  0.293171  1
  Sc  Sc10  1  0.440059  0.733230  0.706829  1
  Sc  Sc11  1  0.026401  0.733230  0.293171  1
  Sc  Sc12  1  0.973599  0.266770  0.706829  1
  Ni  Ni13  1  0.347788  0.500000  0.847788  1
  Ni  Ni14  1  0.652212  0.500000  0.152212  1
  Ni  Ni15  1  0.870415  0.870415  0.000000  1
  Ni  Ni16  1  0.129585  0.129585  0.000000  1
  Sn  Sn17  1  0.500000  0.000000  0.500000  1
