# generated using pymatgen
data_Tb4Al24Pt8Rh
_symmetry_space_group_name_H-M   'P 1'
_cell_length_a   7.53166412
_cell_length_b   7.55535343
_cell_length_c   13.19448267
_cell_angle_alpha   84.60224719
_cell_angle_beta   79.10578348
_cell_angle_gamma   59.90548613
_symmetry_Int_Tables_number   1
_chemical_formula_structural   Tb4Al24Pt8Rh
_chemical_formula_sum   'Tb4 Al24 Pt8 Rh1'
_cell_volume   637.90476308
_cell_formula_units_Z   1
loop_
 _symmetry_equiv_pos_site_id
 _symmetry_equiv_pos_as_xyz
  1  'x, y, z'
loop_
 _atom_site_type_symbol
 _atom_site_label
 _atom_site_symmetry_multiplicity
 _atom_site_fract_x
 _atom_site_fract_y
 _atom_site_fract_z
 _atom_site_occupancy
  Tb  Tb0  1  0.393792  0.168139  0.808562  1
  Tb  Tb1  1  0.606208  0.831861  0.191438  1
  Tb  Tb2  1  0.733603  0.498447  0.808484  1
  Tb  Tb3  1  0.266397  0.501553  0.191516  1
  Al  Al4  1  0.687715  0.830207  0.945743  1
  Al  Al5  1  0.312285  0.169793  0.054257  1
  Al  Al6  1  0.146724  0.832164  0.561508  1
  Al  Al7  1  0.853276  0.167836  0.438492  1
  Al  Al8  1  0.479892  0.166764  0.558837  1
  Al  Al9  1  0.520108  0.833236  0.441163  1
  Al  Al10  1  0.216786  0.165208  0.329465  1
  Al  Al11  1  0.783214  0.834792  0.670535  1
  Al  Al12  1  0.436807  0.507023  0.670487  1
  Al  Al13  1  0.563193  0.492977  0.329513  1
  Al  Al14  1  0.109631  0.160179  0.668887  1
  Al  Al15  1  0.890369  0.839821  0.331113  1
  Al  Al16  1  0.348963  0.499373  0.945842  1
  Al  Al17  1  0.651037  0.500627  0.054158  1
  Al  Al18  1  0.014829  0.171821  0.954874  1
  Al  Al19  1  0.985171  0.828179  0.045126  1
  Al  Al20  1  0.186422  0.499236  0.441212  1
  Al  Al21  1  0.813578  0.500764  0.558788  1
  Al  Al22  1  0.735097  0.163891  0.183134  1
  Al  Al23  1  0.264903  0.836109  0.816866  1
  Al  Al24  1  0.061062  0.629276  0.817756  1
  Al  Al25  1  0.938938  0.370724  0.182244  1
  Al  Al26  1  0.855852  0.040963  0.816440  1
  Al  Al27  1  0.144148  0.959037  0.183561  1
  Pt  Pt28  1  0.120280  0.492613  0.638265  1
  Pt  Pt29  1  0.879720  0.507387  0.361735  1
  Pt  Pt30  1  0.657072  0.171363  0.999966  1
  Pt  Pt31  1  0.342928  0.828637  0.000034  1
  Pt  Pt32  1  0.537792  0.166768  0.361896  1
  Pt  Pt33  1  0.462208  0.833232  0.638104  1
  Pt  Pt34  1  0.779252  0.174760  0.636855  1
  Pt  Pt35  1  0.220748  0.825240  0.363145  1
  Rh  Rh36  1  0.000000  0.500000  0.000000  1
