# generated using pymatgen
data_Hf5ZrBeBr12
_symmetry_space_group_name_H-M   'P 1'
_cell_length_a   8.60535143
_cell_length_b   8.57757918
_cell_length_c   8.65043900
_cell_angle_alpha   106.88097659
_cell_angle_beta   106.76948957
_cell_angle_gamma   106.62311796
_symmetry_Int_Tables_number   1
_chemical_formula_structural   Hf5ZrBeBr12
_chemical_formula_sum   'Hf5 Zr1 Be1 Br12'
_cell_volume   535.23335248
_cell_formula_units_Z   1
loop_
 _symmetry_equiv_pos_site_id
 _symmetry_equiv_pos_as_xyz
  1  'x, y, z'
loop_
 _atom_site_type_symbol
 _atom_site_label
 _atom_site_symmetry_multiplicity
 _atom_site_fract_x
 _atom_site_fract_y
 _atom_site_fract_z
 _atom_site_occupancy
  Hf  Hf0  1  0.970426  0.707878  0.903161  1
  Hf  Hf1  1  0.293052  0.097374  0.030374  1
  Hf  Hf2  1  0.096360  0.030520  0.291208  1
  Hf  Hf3  1  0.904064  0.971752  0.709863  1
  Hf  Hf4  1  0.708058  0.903671  0.970140  1
  Zr  Zr5  1  0.029876  0.296999  0.098024  1
  Be  Be6  1  0.000596  0.000953  0.000462  1
  Br  Br7  1  0.920783  0.311257  0.771456  1
  Br  Br8  1  0.681450  0.220850  0.076250  1
  Br  Br9  1  0.441715  0.138283  0.365001  1
  Br  Br10  1  0.860610  0.634041  0.559015  1
  Br  Br11  1  0.223645  0.076741  0.689109  1
  Br  Br12  1  0.634211  0.556779  0.859178  1
  Br  Br13  1  0.371031  0.443437  0.140958  1
  Br  Br14  1  0.775925  0.920852  0.309939  1
  Br  Br15  1  0.141224  0.365632  0.445863  1
  Br  Br16  1  0.558107  0.859847  0.634824  1
  Br  Br17  1  0.311577  0.774366  0.922250  1
  Br  Br18  1  0.077289  0.688769  0.222927  1
