# generated using pymatgen
data_Ho3Er(GaSi)2
_symmetry_space_group_name_H-M   'P 1'
_cell_length_a   3.93079500
_cell_length_b   5.74018702
_cell_length_c   7.93582220
_cell_angle_alpha   89.97854536
_cell_angle_beta   90.00000000
_cell_angle_gamma   90.00000000
_symmetry_Int_Tables_number   1
_chemical_formula_structural   Ho3Er(GaSi)2
_chemical_formula_sum   'Ho3 Er1 Ga2 Si2'
_cell_volume   179.05989932
_cell_formula_units_Z   1
loop_
 _symmetry_equiv_pos_site_id
 _symmetry_equiv_pos_as_xyz
  1  'x, y, z'
loop_
 _atom_site_type_symbol
 _atom_site_label
 _atom_site_symmetry_multiplicity
 _atom_site_fract_x
 _atom_site_fract_y
 _atom_site_fract_z
 _atom_site_occupancy
  Ho  Ho0  1  0.250000  0.380717  0.678991  1
  Ho  Ho1  1  0.250000  0.119004  0.178584  1
  Ho  Ho2  1  0.750000  0.610628  0.321753  1
  Er  Er3  1  0.750000  0.889455  0.821486  1
  Ga  Ga4  1  0.250000  0.868617  0.538422  1
  Ga  Ga5  1  0.250000  0.631836  0.036996  1
  Si  Si6  1  0.750000  0.127663  0.462235  1
  Si  Si7  1  0.750000  0.372080  0.961531  1
