# generated using pymatgen
data_Li2TbNd15(InIr2)2
_symmetry_space_group_name_H-M   'P 1'
_cell_length_a   9.96900744
_cell_length_b   9.98514173
_cell_length_c   9.98514154
_cell_angle_alpha   60.02818003
_cell_angle_beta   60.05343822
_cell_angle_gamma   60.05344000
_symmetry_Int_Tables_number   1
_chemical_formula_structural   Li2TbNd15(InIr2)2
_chemical_formula_sum   'Li2 Tb1 Nd15 In2 Ir4'
_cell_volume   703.53913200
_cell_formula_units_Z   1
loop_
 _symmetry_equiv_pos_site_id
 _symmetry_equiv_pos_as_xyz
  1  'x, y, z'
loop_
 _atom_site_type_symbol
 _atom_site_label
 _atom_site_symmetry_multiplicity
 _atom_site_fract_x
 _atom_site_fract_y
 _atom_site_fract_z
 _atom_site_occupancy
  Li  Li0  1  0.326311  0.320970  0.320970  1
  Li  Li1  1  0.031748  0.320970  0.320970  1
  Tb  Tb2  1  0.555710  0.944290  0.944290  1
  Nd  Nd3  1  0.097117  0.708319  0.097449  1
  Nd  Nd4  1  0.938860  0.939156  0.562256  1
  Nd  Nd5  1  0.938860  0.562256  0.939156  1
  Nd  Nd6  1  0.312333  0.690398  0.308724  1
  Nd  Nd7  1  0.934166  0.565834  0.565834  1
  Nd  Nd8  1  0.312333  0.308724  0.690398  1
  Nd  Nd9  1  0.100730  0.098259  0.098259  1
  Nd  Nd10  1  0.559728  0.562256  0.939156  1
  Nd  Nd11  1  0.097117  0.097449  0.708319  1
  Nd  Nd12  1  0.688544  0.308724  0.690398  1
  Nd  Nd13  1  0.688544  0.690398  0.308724  1
  Nd  Nd14  1  0.690547  0.309453  0.309453  1
  Nd  Nd15  1  0.310978  0.689022  0.689022  1
  Nd  Nd16  1  0.559728  0.939156  0.562256  1
  Nd  Nd17  1  0.702752  0.098259  0.098259  1
  In  In18  1  0.330480  0.006414  0.332626  1
  In  In19  1  0.330480  0.332626  0.006414  1
  Ir  Ir20  1  0.885375  0.894469  0.894469  1
  Ir  Ir21  1  0.890935  0.892615  0.325514  1
  Ir  Ir22  1  0.325686  0.894469  0.894469  1
  Ir  Ir23  1  0.890935  0.325514  0.892615  1
