# generated using pymatgen
data_Li3Lu(ScHg2)4
_symmetry_space_group_name_H-M   'P 1'
_cell_length_a   7.07590400
_cell_length_b   7.07733000
_cell_length_c   6.84169700
_cell_angle_alpha   89.99974429
_cell_angle_beta   89.99834472
_cell_angle_gamma   89.99961136
_symmetry_Int_Tables_number   1
_chemical_formula_structural   Li3Lu(ScHg2)4
_chemical_formula_sum   'Li3 Lu1 Sc4 Hg8'
_cell_volume   342.62197552
_cell_formula_units_Z   1
loop_
 _symmetry_equiv_pos_site_id
 _symmetry_equiv_pos_as_xyz
  1  'x, y, z'
loop_
 _atom_site_type_symbol
 _atom_site_label
 _atom_site_symmetry_multiplicity
 _atom_site_fract_x
 _atom_site_fract_y
 _atom_site_fract_z
 _atom_site_occupancy
  Li  Li0  1  0.249949  0.749998  0.000000  1
  Li  Li1  1  0.749944  0.250004  0.499976  1
  Li  Li2  1  0.250055  0.750000  0.500027  1
  Lu  Lu3  1  0.750073  0.249989  0.000011  1
  Sc  Sc4  1  0.249930  0.249996  0.999995  1
  Sc  Sc5  1  0.750089  0.750007  0.000013  1
  Sc  Sc6  1  0.749924  0.750001  0.499980  1
  Sc  Sc7  1  0.250079  0.250001  0.500017  1
  Hg  Hg8  1  0.496679  0.996739  0.253646  1
  Hg  Hg9  1  0.496660  0.503327  0.253637  1
  Hg  Hg10  1  0.003263  0.996736  0.253825  1
  Hg  Hg11  1  0.003254  0.503207  0.253835  1
  Hg  Hg12  1  0.003267  0.996749  0.746176  1
  Hg  Hg13  1  0.003269  0.503304  0.746184  1
  Hg  Hg14  1  0.496781  0.503210  0.746335  1
  Hg  Hg15  1  0.496785  0.996734  0.746342  1
