# generated using pymatgen
data_PrNd7Sc11Si16Tc
_symmetry_space_group_name_H-M   'P 1'
_cell_length_a   7.17014066
_cell_length_b   7.51572502
_cell_length_c   14.10311623
_cell_angle_alpha   90.01896682
_cell_angle_beta   90.00785610
_cell_angle_gamma   90.06398741
_symmetry_Int_Tables_number   1
_chemical_formula_structural   PrNd7Sc11Si16Tc
_chemical_formula_sum   'Pr1 Nd7 Sc11 Si16 Tc1'
_cell_volume   759.99956543
_cell_formula_units_Z   1
loop_
 _symmetry_equiv_pos_site_id
 _symmetry_equiv_pos_as_xyz
  1  'x, y, z'
loop_
 _atom_site_type_symbol
 _atom_site_label
 _atom_site_symmetry_multiplicity
 _atom_site_fract_x
 _atom_site_fract_y
 _atom_site_fract_z
 _atom_site_occupancy
  Pr  Pr0  1  0.011955  0.172905  0.096070  1
  Nd  Nd1  1  0.012118  0.173438  0.403552  1
  Nd  Nd2  1  0.512808  0.326258  0.404889  1
  Nd  Nd3  1  0.492842  0.677923  0.898818  1
  Nd  Nd4  1  0.492767  0.677915  0.601092  1
  Nd  Nd5  1  0.984825  0.829837  0.601288  1
  Nd  Nd6  1  0.984840  0.829884  0.898593  1
  Nd  Nd7  1  0.512721  0.326316  0.095145  1
  Sc  Sc8  1  0.328117  0.170167  0.627428  1
  Sc  Sc9  1  0.673055  0.825190  0.377012  1
  Sc  Sc10  1  0.172884  0.675804  0.375434  1
  Sc  Sc11  1  0.825484  0.321010  0.873273  1
  Sc  Sc12  1  0.825620  0.320928  0.626662  1
  Sc  Sc13  1  0.842012  0.500319  0.250112  1
  Sc  Sc14  1  0.342357  0.000008  0.250059  1
  Sc  Sc15  1  0.328311  0.170204  0.872466  1
  Sc  Sc16  1  0.172930  0.675661  0.124673  1
  Sc  Sc17  1  0.672960  0.825012  0.123195  1
  Sc  Sc18  1  0.158820  0.497298  0.749968  1
  Si  Si19  1  0.296690  0.882680  0.749989  1
  Si  Si20  1  0.470317  0.623602  0.250036  1
  Si  Si21  1  0.022495  0.117349  0.749982  1
  Si  Si22  1  0.531946  0.367943  0.749977  1
  Si  Si23  1  0.152612  0.465153  0.540633  1
  Si  Si24  1  0.968217  0.874787  0.250237  1
  Si  Si25  1  0.711397  0.118640  0.250342  1
  Si  Si26  1  0.850404  0.537467  0.037189  1
  Si  Si27  1  0.348962  0.962843  0.037219  1
  Si  Si28  1  0.152755  0.465737  0.959171  1
  Si  Si29  1  0.649888  0.036288  0.548645  1
  Si  Si30  1  0.348106  0.963279  0.462636  1
  Si  Si31  1  0.850606  0.536801  0.462670  1
  Si  Si32  1  0.790346  0.613204  0.749988  1
  Si  Si33  1  0.214058  0.381440  0.250279  1
  Si  Si34  1  0.649686  0.036211  0.951313  1
  Tc  Tc35  1  0.644092  0.020499  0.749966  1
