# generated using pymatgen
data_K2Al2SiGe
_symmetry_space_group_name_H-M   'P 1'
_cell_length_a   4.31403600
_cell_length_b   4.31403600
_cell_length_c   8.33834100
_cell_angle_alpha   90.00000000
_cell_angle_beta   90.00000000
_cell_angle_gamma   90.00000000
_symmetry_Int_Tables_number   1
_chemical_formula_structural   K2Al2SiGe
_chemical_formula_sum   'K2 Al2 Si1 Ge1'
_cell_volume   155.18408563
_cell_formula_units_Z   1
loop_
 _symmetry_equiv_pos_site_id
 _symmetry_equiv_pos_as_xyz
  1  'x, y, z'
loop_
 _atom_site_type_symbol
 _atom_site_label
 _atom_site_symmetry_multiplicity
 _atom_site_fract_x
 _atom_site_fract_y
 _atom_site_fract_z
 _atom_site_occupancy
  K  K0  1  0.499999  0.000000  0.345154  1
  K  K1  1  0.000000  0.499999  0.655114  1
  Al  Al2  1  0.000000  0.000000  0.997831  1
  Al  Al3  1  0.499999  0.499999  0.997831  1
  Si  Si4  1  0.499999  0.000000  0.823459  1
  Ge  Ge5  1  0.000000  0.499999  0.180612  1
