# generated using pymatgen
data_Nd3Dy(B2Ir5)2
_symmetry_space_group_name_H-M   'P 1'
_cell_length_a   11.12263266
_cell_length_b   11.12263177
_cell_length_c   11.12263201
_cell_angle_alpha   28.74525146
_cell_angle_beta   28.74525832
_cell_angle_gamma   28.74525816
_symmetry_Int_Tables_number   1
_chemical_formula_structural   Nd3Dy(B2Ir5)2
_chemical_formula_sum   'Nd3 Dy1 B4 Ir10'
_cell_volume   281.38204794
_cell_formula_units_Z   1
loop_
 _symmetry_equiv_pos_site_id
 _symmetry_equiv_pos_as_xyz
  1  'x, y, z'
loop_
 _atom_site_type_symbol
 _atom_site_label
 _atom_site_symmetry_multiplicity
 _atom_site_fract_x
 _atom_site_fract_y
 _atom_site_fract_z
 _atom_site_occupancy
  Nd  Nd0  1  0.151538  0.151538  0.151538  1
  Nd  Nd1  1  0.950605  0.950605  0.950605  1
  Nd  Nd2  1  0.848481  0.848481  0.848481  1
  Dy  Dy3  1  0.049788  0.049788  0.049788  1
  B  B4  1  0.618244  0.618244  0.618244  1
  B  B5  1  0.716251  0.716251  0.716251  1
  B  B6  1  0.381772  0.381772  0.381772  1
  B  B7  1  0.283835  0.283835  0.283835  1
  Ir  Ir8  1  0.407997  0.898474  0.407997  1
  Ir  Ir9  1  0.898474  0.407997  0.407997  1
  Ir  Ir10  1  0.500505  0.500505  0.000266  1
  Ir  Ir11  1  0.500505  0.000266  0.500505  1
  Ir  Ir12  1  0.000266  0.500505  0.500505  1
  Ir  Ir13  1  0.499798  0.499798  0.499798  1
  Ir  Ir14  1  0.591423  0.101098  0.591423  1
  Ir  Ir15  1  0.591423  0.591423  0.101098  1
  Ir  Ir16  1  0.101098  0.591423  0.591423  1
  Ir  Ir17  1  0.407997  0.407997  0.898474  1
