# generated using pymatgen
data_Cs2Rb4Co2O5
_symmetry_space_group_name_H-M   'P 1'
_cell_length_a   7.02103255
_cell_length_b   7.02105110
_cell_length_c   7.13725417
_cell_angle_alpha   91.14482074
_cell_angle_beta   91.14833730
_cell_angle_gamma   118.30917899
_symmetry_Int_Tables_number   1
_chemical_formula_structural   Cs2Rb4Co2O5
_chemical_formula_sum   'Cs2 Rb4 Co2 O5'
_cell_volume   309.51664313
_cell_formula_units_Z   1
loop_
 _symmetry_equiv_pos_site_id
 _symmetry_equiv_pos_as_xyz
  1  'x, y, z'
loop_
 _atom_site_type_symbol
 _atom_site_label
 _atom_site_symmetry_multiplicity
 _atom_site_fract_x
 _atom_site_fract_y
 _atom_site_fract_z
 _atom_site_occupancy
  Cs  Cs0  1  0.664227  0.664210  0.294352  1
  Cs  Cs1  1  0.335782  0.335767  0.705647  1
  Rb  Rb2  1  0.765129  0.234866  0.000004  1
  Rb  Rb3  1  0.234885  0.765127  0.000003  1
  Rb  Rb4  1  0.782301  0.217691  0.499998  1
  Rb  Rb5  1  0.217618  0.782398  0.499996  1
  Co  Co6  1  0.202695  0.202832  0.194026  1
  Co  Co7  1  0.797177  0.797307  0.805978  1
  O  O8  1  0.000275  0.999721  0.999999  1
  O  O9  1  0.427570  0.153992  0.268765  1
  O  O10  1  0.154137  0.427789  0.269047  1
  O  O11  1  0.846018  0.572446  0.731237  1
  O  O12  1  0.572189  0.845855  0.730949  1
