# generated using pymatgen
data_CrFeCl8
_symmetry_space_group_name_H-M   'P 1'
_cell_length_a   6.97801800
_cell_length_b   10.24658069
_cell_length_c   11.00534355
_cell_angle_alpha   78.22975701
_cell_angle_beta   90.00000000
_cell_angle_gamma   90.00000000
_symmetry_Int_Tables_number   1
_chemical_formula_structural   CrFeCl8
_chemical_formula_sum   'Cr2 Fe2 Cl16'
_cell_volume   770.34554179
_cell_formula_units_Z   2
loop_
 _symmetry_equiv_pos_site_id
 _symmetry_equiv_pos_as_xyz
  1  'x, y, z'
loop_
 _atom_site_type_symbol
 _atom_site_label
 _atom_site_symmetry_multiplicity
 _atom_site_fract_x
 _atom_site_fract_y
 _atom_site_fract_z
 _atom_site_occupancy
  Cr  Cr0  1  0.071080  0.750728  0.356318  1
  Cr  Cr1  1  0.571080  0.249272  0.143682  1
  Fe  Fe2  1  0.929312  0.246667  0.645115  1
  Fe  Fe3  1  0.429312  0.753333  0.854885  1
  Cl  Cl4  1  0.107881  0.390807  0.703453  1
  Cl  Cl5  1  0.607881  0.609193  0.796547  1
  Cl  Cl6  1  0.927077  0.590608  0.302576  1
  Cl  Cl7  1  0.427077  0.409392  0.197424  1
  Cl  Cl8  1  0.907807  0.096202  0.809489  1
  Cl  Cl9  1  0.407807  0.903798  0.690511  1
  Cl  Cl10  1  0.069871  0.916168  0.206615  1
  Cl  Cl11  1  0.569871  0.083832  0.293385  1
  Cl  Cl12  1  0.063544  0.225368  0.476573  1
  Cl  Cl13  1  0.563544  0.774632  0.023427  1
  Cl  Cl14  1  0.930771  0.801158  0.510122  1
  Cl  Cl15  1  0.430771  0.198842  0.989878  1
  Cl  Cl16  1  0.636616  0.272867  0.590938  1
  Cl  Cl17  1  0.136616  0.727133  0.909062  1
  Cl  Cl18  1  0.356041  0.694286  0.405710  1
  Cl  Cl19  1  0.856041  0.305714  0.094290  1
