# generated using pymatgen
data_LiSm6RuBr12
_symmetry_space_group_name_H-M   'P 1'
_cell_length_a   9.42516046
_cell_length_b   9.42953987
_cell_length_c   9.42571887
_cell_angle_alpha   107.61711873
_cell_angle_beta   107.67701904
_cell_angle_gamma   107.66621253
_symmetry_Int_Tables_number   1
_chemical_formula_structural   LiSm6RuBr12
_chemical_formula_sum   'Li1 Sm6 Ru1 Br12'
_cell_volume   684.83637986
_cell_formula_units_Z   1
loop_
 _symmetry_equiv_pos_site_id
 _symmetry_equiv_pos_as_xyz
  1  'x, y, z'
loop_
 _atom_site_type_symbol
 _atom_site_label
 _atom_site_symmetry_multiplicity
 _atom_site_fract_x
 _atom_site_fract_y
 _atom_site_fract_z
 _atom_site_occupancy
  Li  Li0  1  0.500000  0.500000  0.500000  1
  Sm  Sm1  1  0.114544  0.320138  0.034143  1
  Sm  Sm2  1  0.320233  0.034265  0.114682  1
  Sm  Sm3  1  0.034268  0.114653  0.320607  1
  Sm  Sm4  1  0.965733  0.885347  0.679394  1
  Sm  Sm5  1  0.679767  0.965736  0.885318  1
  Sm  Sm6  1  0.885456  0.679862  0.965857  1
  Ru  Ru7  1  0.000000  0.000000  0.000000  1
  Br  Br8  1  0.218232  0.685708  0.073628  1
  Br  Br9  1  0.460932  0.380294  0.170780  1
  Br  Br10  1  0.685826  0.074198  0.217943  1
  Br  Br11  1  0.926113  0.781838  0.314192  1
  Br  Br12  1  0.170587  0.460391  0.380032  1
  Br  Br13  1  0.380465  0.170492  0.460841  1
  Br  Br14  1  0.619535  0.829508  0.539160  1
  Br  Br15  1  0.829414  0.539609  0.619968  1
  Br  Br16  1  0.073888  0.218162  0.685809  1
  Br  Br17  1  0.314175  0.925803  0.782057  1
  Br  Br18  1  0.539068  0.619706  0.829221  1
  Br  Br19  1  0.781768  0.314292  0.926372  1
