# generated using pymatgen
data_Tb7Dy3Sn5Sb
_symmetry_space_group_name_H-M   'P 1'
_cell_length_a   9.01682400
_cell_length_b   9.01051105
_cell_length_c   6.52484500
_cell_angle_alpha   90.00140337
_cell_angle_beta   89.99919574
_cell_angle_gamma   120.02369663
_symmetry_Int_Tables_number   1
_chemical_formula_structural   Tb7Dy3Sn5Sb
_chemical_formula_sum   'Tb7 Dy3 Sn5 Sb1'
_cell_volume   458.98669404
_cell_formula_units_Z   1
loop_
 _symmetry_equiv_pos_site_id
 _symmetry_equiv_pos_as_xyz
  1  'x, y, z'
loop_
 _atom_site_type_symbol
 _atom_site_label
 _atom_site_symmetry_multiplicity
 _atom_site_fract_x
 _atom_site_fract_y
 _atom_site_fract_z
 _atom_site_occupancy
  Tb  Tb0  1  0.998171  0.759974  0.750016  1
  Tb  Tb1  1  0.000640  0.239232  0.249987  1
  Tb  Tb2  1  0.761428  0.760753  0.249982  1
  Tb  Tb3  1  0.761583  0.000013  0.750014  1
  Tb  Tb4  1  0.238210  0.240019  0.750014  1
  Tb  Tb5  1  0.239187  0.000011  0.249990  1
  Tb  Tb6  1  0.333184  0.665773  0.500030  1
  Dy  Dy7  1  0.667425  0.334238  0.999981  1
  Dy  Dy8  1  0.667427  0.334241  0.500019  1
  Dy  Dy9  1  0.333184  0.665764  0.999977  1
  Sn  Sn10  1  0.395570  0.394906  0.249940  1
  Sn  Sn11  1  0.000515  0.605018  0.249939  1
  Sn  Sn12  1  0.999857  0.395458  0.750058  1
  Sn  Sn13  1  0.604474  0.604459  0.750059  1
  Sn  Sn14  1  0.605216  0.000074  0.249943  1
  Sb  Sb15  1  0.393927  0.000066  0.750052  1
