# generated using pymatgen
data_LiPa2(Co10B3)2
_symmetry_space_group_name_H-M   'P 1'
_cell_length_a   7.53549963
_cell_length_b   7.53550016
_cell_length_c   7.53550000
_cell_angle_alpha   60.00000071
_cell_angle_beta   59.99999836
_cell_angle_gamma   59.99999619
_symmetry_Int_Tables_number   1
_chemical_formula_structural   LiPa2(Co10B3)2
_chemical_formula_sum   'Li1 Pa2 Co20 B6'
_cell_volume   302.56674773
_cell_formula_units_Z   1
loop_
 _symmetry_equiv_pos_site_id
 _symmetry_equiv_pos_as_xyz
  1  'x, y, z'
loop_
 _atom_site_type_symbol
 _atom_site_label
 _atom_site_symmetry_multiplicity
 _atom_site_fract_x
 _atom_site_fract_y
 _atom_site_fract_z
 _atom_site_occupancy
  Li  Li0  1  0.000000  0.000000  0.000000  1
  Pa  Pa1  1  0.750000  0.750000  0.750000  1
  Pa  Pa2  1  0.250000  0.250000  0.250000  1
  Co  Co3  1  0.615347  0.615347  0.153960  1
  Co  Co4  1  0.615347  0.153960  0.615347  1
  Co  Co5  1  0.153960  0.615347  0.615347  1
  Co  Co6  1  0.615347  0.615347  0.615347  1
  Co  Co7  1  0.384653  0.384653  0.846040  1
  Co  Co8  1  0.384653  0.846040  0.384653  1
  Co  Co9  1  0.846040  0.384653  0.384653  1
  Co  Co10  1  0.384653  0.384653  0.384653  1
  Co  Co11  1  0.000000  0.000000  0.338849  1
  Co  Co12  1  0.661151  0.000000  0.338849  1
  Co  Co13  1  0.000000  0.661151  0.338849  1
  Co  Co14  1  0.661151  0.338849  0.000000  1
  Co  Co15  1  0.000000  0.338849  0.000000  1
  Co  Co16  1  0.000000  0.338849  0.661151  1
  Co  Co17  1  0.338849  0.661151  0.000000  1
  Co  Co18  1  0.338849  0.000000  0.661151  1
  Co  Co19  1  0.338849  0.000000  0.000000  1
  Co  Co20  1  0.000000  0.000000  0.661151  1
  Co  Co21  1  0.000000  0.661151  0.000000  1
  Co  Co22  1  0.661151  0.000000  0.000000  1
  B  B23  1  0.728038  0.728038  0.271962  1
  B  B24  1  0.271962  0.728038  0.271962  1
  B  B25  1  0.728038  0.271962  0.271962  1
  B  B26  1  0.271962  0.271962  0.728038  1
  B  B27  1  0.728038  0.271962  0.728038  1
  B  B28  1  0.271962  0.728038  0.728038  1
