# generated using pymatgen
data_PrTm(Si2Rh3)2
_symmetry_space_group_name_H-M   'P 1'
_cell_length_a   6.65859848
_cell_length_b   6.65859775
_cell_length_c   6.65859738
_cell_angle_alpha   130.39451949
_cell_angle_beta   114.35724752
_cell_angle_gamma   86.53310722
_symmetry_Int_Tables_number   1
_chemical_formula_structural   PrTm(Si2Rh3)2
_chemical_formula_sum   'Pr1 Tm1 Si4 Rh6'
_cell_volume   195.51809290
_cell_formula_units_Z   1
loop_
 _symmetry_equiv_pos_site_id
 _symmetry_equiv_pos_as_xyz
  1  'x, y, z'
loop_
 _atom_site_type_symbol
 _atom_site_label
 _atom_site_symmetry_multiplicity
 _atom_site_fract_x
 _atom_site_fract_y
 _atom_site_fract_z
 _atom_site_occupancy
  Pr  Pr0  1  0.250000  0.965442  0.715442  1
  Tm  Tm1  1  0.750000  0.050654  0.300654  1
  Si  Si2  1  0.579441  0.384609  0.805168  1
  Si  Si3  1  0.422353  0.619246  0.196892  1
  Si  Si4  1  0.077647  0.274539  0.196892  1
  Si  Si5  1  0.920559  0.725727  0.805168  1
  Rh  Rh6  1  0.211145  0.490945  0.709618  1
  Rh  Rh7  1  0.718673  0.998474  0.709618  1
  Rh  Rh8  1  0.781327  0.490945  0.279801  1
  Rh  Rh9  1  0.288855  0.998474  0.279801  1
  Rh  Rh10  1  0.503062  0.500473  0.503535  1
  Rh  Rh11  1  0.996938  0.500473  0.997411  1
