# generated using pymatgen
data_Sr6InSn3Pd4
_symmetry_space_group_name_H-M   'P 1'
_cell_length_a   6.17647600
_cell_length_b   8.96506300
_cell_length_c   14.50907600
_cell_angle_alpha   90.00000000
_cell_angle_beta   90.00000000
_cell_angle_gamma   90.00000000
_symmetry_Int_Tables_number   1
_chemical_formula_structural   Sr6InSn3Pd4
_chemical_formula_sum   'Sr12 In2 Sn6 Pd8'
_cell_volume   803.40375942
_cell_formula_units_Z   2
loop_
 _symmetry_equiv_pos_site_id
 _symmetry_equiv_pos_as_xyz
  1  'x, y, z'
loop_
 _atom_site_type_symbol
 _atom_site_label
 _atom_site_symmetry_multiplicity
 _atom_site_fract_x
 _atom_site_fract_y
 _atom_site_fract_z
 _atom_site_occupancy
  Sr  Sr0  1  0.148218  0.398900  0.600194  1
  Sr  Sr1  1  0.851782  0.601100  0.100194  1
  Sr  Sr2  1  0.148218  0.101100  0.399806  1
  Sr  Sr3  1  0.851782  0.898900  0.899806  1
  Sr  Sr4  1  0.855121  0.607803  0.401817  1
  Sr  Sr5  1  0.144879  0.392197  0.901817  1
  Sr  Sr6  1  0.855121  0.892197  0.598183  1
  Sr  Sr7  1  0.144879  0.107803  0.098183  1
  Sr  Sr8  1  0.648575  0.251563  0.751463  1
  Sr  Sr9  1  0.351425  0.748437  0.251463  1
  Sr  Sr10  1  0.648575  0.248437  0.248537  1
  Sr  Sr11  1  0.351425  0.751563  0.748537  1
  In  In12  1  0.627522  0.250000  0.500000  1
  In  In13  1  0.372478  0.750000  0.000000  1
  Sn  Sn14  1  0.369089  0.750000  0.500000  1
  Sn  Sn15  1  0.630911  0.250000  0.000000  1
  Sn  Sn16  1  0.157835  0.101133  0.748203  1
  Sn  Sn17  1  0.842165  0.898867  0.248203  1
  Sn  Sn18  1  0.157835  0.398867  0.251797  1
  Sn  Sn19  1  0.842165  0.601133  0.751797  1
  Pd  Pd20  1  0.375921  0.029727  0.588948  1
  Pd  Pd21  1  0.624079  0.970273  0.088948  1
  Pd  Pd22  1  0.375921  0.470273  0.411052  1
  Pd  Pd23  1  0.624079  0.529727  0.911052  1
  Pd  Pd24  1  0.621528  0.968277  0.410940  1
  Pd  Pd25  1  0.378472  0.031723  0.910940  1
  Pd  Pd26  1  0.621528  0.531723  0.589060  1
  Pd  Pd27  1  0.378472  0.468277  0.089060  1
