# generated using pymatgen
data_Dy2Ho2AlPt
_symmetry_space_group_name_H-M   'P 1'
_cell_length_a   9.58129099
_cell_length_b   9.58129174
_cell_length_c   9.58156600
_cell_angle_alpha   59.99905310
_cell_angle_beta   59.99905050
_cell_angle_gamma   60.00189425
_symmetry_Int_Tables_number   1
_chemical_formula_structural   Dy2Ho2AlPt
_chemical_formula_sum   'Dy8 Ho8 Al4 Pt4'
_cell_volume   621.97020977
_cell_formula_units_Z   4
loop_
 _symmetry_equiv_pos_site_id
 _symmetry_equiv_pos_as_xyz
  1  'x, y, z'
loop_
 _atom_site_type_symbol
 _atom_site_label
 _atom_site_symmetry_multiplicity
 _atom_site_fract_x
 _atom_site_fract_y
 _atom_site_fract_z
 _atom_site_occupancy
  Dy  Dy0  1  0.193137  0.193137  0.806863  1
  Dy  Dy1  1  0.806863  0.806863  0.193137  1
  Dy  Dy2  1  0.936067  0.563933  0.563933  1
  Dy  Dy3  1  0.563933  0.936067  0.936067  1
  Dy  Dy4  1  0.563933  0.936067  0.563933  1
  Dy  Dy5  1  0.936067  0.563932  0.936067  1
  Dy  Dy6  1  0.563905  0.563905  0.936095  1
  Dy  Dy7  1  0.936095  0.936095  0.563904  1
  Ho  Ho8  1  0.353670  0.353670  0.353567  1
  Ho  Ho9  1  0.353670  0.353670  0.939093  1
  Ho  Ho10  1  0.353567  0.939093  0.353670  1
  Ho  Ho11  1  0.939093  0.353567  0.353670  1
  Ho  Ho12  1  0.806914  0.193086  0.193086  1
  Ho  Ho13  1  0.193086  0.806914  0.806914  1
  Ho  Ho14  1  0.193086  0.806914  0.193086  1
  Ho  Ho15  1  0.806914  0.193086  0.806914  1
  Al  Al16  1  0.577686  0.577686  0.577648  1
  Al  Al17  1  0.577686  0.577686  0.266981  1
  Al  Al18  1  0.577648  0.266981  0.577686  1
  Al  Al19  1  0.266981  0.577648  0.577686  1
  Pt  Pt20  1  0.143199  0.143199  0.143525  1
  Pt  Pt21  1  0.143199  0.143199  0.570080  1
  Pt  Pt22  1  0.143525  0.570080  0.143199  1
  Pt  Pt23  1  0.570080  0.143525  0.143199  1
