# generated using pymatgen
data_AcErNpO6
_symmetry_space_group_name_H-M   'P 1'
_cell_length_a   5.65382400
_cell_length_b   7.97668263
_cell_length_c   11.96961500
_cell_angle_alpha   74.18830296
_cell_angle_beta   90.00000000
_cell_angle_gamma   90.00000000
_symmetry_Int_Tables_number   1
_chemical_formula_structural   AcErNpO6
_chemical_formula_sum   'Ac4 Er4 Np4 O24'
_cell_volume   519.38948740
_cell_formula_units_Z   4
loop_
 _symmetry_equiv_pos_site_id
 _symmetry_equiv_pos_as_xyz
  1  'x, y, z'
loop_
 _atom_site_type_symbol
 _atom_site_label
 _atom_site_symmetry_multiplicity
 _atom_site_fract_x
 _atom_site_fract_y
 _atom_site_fract_z
 _atom_site_occupancy
  Ac  Ac0  1  0.691947  0.500000  0.250000  1
  Ac  Ac1  1  0.308053  0.500000  0.750000  1
  Ac  Ac2  1  0.745790  0.000000  0.250000  1
  Ac  Ac3  1  0.254210  0.000000  0.750000  1
  Er  Er4  1  0.187792  0.205769  0.417763  1
  Er  Er5  1  0.187792  0.794231  0.082237  1
  Er  Er6  1  0.812208  0.794231  0.582237  1
  Er  Er7  1  0.812208  0.205769  0.917763  1
  Np  Np8  1  0.250955  0.281057  0.107738  1
  Np  Np9  1  0.250955  0.718943  0.392262  1
  Np  Np10  1  0.749045  0.718943  0.892262  1
  Np  Np11  1  0.749045  0.281057  0.607738  1
  O  O12  1  0.435356  0.209912  0.269310  1
  O  O13  1  0.435356  0.790088  0.230690  1
  O  O14  1  0.564644  0.790088  0.730690  1
  O  O15  1  0.564644  0.209912  0.769310  1
  O  O16  1  0.061450  0.059240  0.094475  1
  O  O17  1  0.061450  0.940760  0.405525  1
  O  O18  1  0.938550  0.940760  0.905525  1
  O  O19  1  0.938550  0.059240  0.594475  1
  O  O20  1  0.981406  0.278691  0.233484  1
  O  O21  1  0.981406  0.721309  0.266516  1
  O  O22  1  0.018594  0.721309  0.766516  1
  O  O23  1  0.018594  0.278691  0.733484  1
  O  O24  1  0.892241  0.370359  0.446477  1
  O  O25  1  0.892241  0.629641  0.053523  1
  O  O26  1  0.107759  0.629641  0.553523  1
  O  O27  1  0.107759  0.370359  0.946477  1
  O  O28  1  0.635054  0.519513  0.606934  1
  O  O29  1  0.635054  0.480487  0.893066  1
  O  O30  1  0.364946  0.480487  0.393066  1
  O  O31  1  0.364946  0.519513  0.106934  1
  O  O32  1  0.452156  0.163077  0.557442  1
  O  O33  1  0.452156  0.836923  0.942558  1
  O  O34  1  0.547844  0.836923  0.442558  1
  O  O35  1  0.547844  0.163077  0.057442  1
