# generated using pymatgen
data_Ho2(TcB2)3
_symmetry_space_group_name_H-M   'P 1'
_cell_length_a   6.17948509
_cell_length_b   6.17948600
_cell_length_c   7.47925366
_cell_angle_alpha   90.67278327
_cell_angle_beta   90.67279090
_cell_angle_gamma   113.62076488
_symmetry_Int_Tables_number   1
_chemical_formula_structural   Ho2(TcB2)3
_chemical_formula_sum   'Ho4 Tc6 B12'
_cell_volume   261.61436581
_cell_formula_units_Z   2
loop_
 _symmetry_equiv_pos_site_id
 _symmetry_equiv_pos_as_xyz
  1  'x, y, z'
loop_
 _atom_site_type_symbol
 _atom_site_label
 _atom_site_symmetry_multiplicity
 _atom_site_fract_x
 _atom_site_fract_y
 _atom_site_fract_z
 _atom_site_occupancy
  Ho  Ho0  1  0.101194  0.441451  0.321634  1
  Ho  Ho1  1  0.558549  0.898806  0.178366  1
  Ho  Ho2  1  0.898806  0.558549  0.678366  1
  Ho  Ho3  1  0.441451  0.101194  0.821634  1
  Tc  Tc4  1  0.588943  0.411057  0.250000  1
  Tc  Tc5  1  0.411057  0.588943  0.750000  1
  Tc  Tc6  1  0.989770  0.804984  0.089086  1
  Tc  Tc7  1  0.195016  0.010230  0.410914  1
  Tc  Tc8  1  0.010230  0.195016  0.910914  1
  Tc  Tc9  1  0.804984  0.989770  0.589086  1
  B  B10  1  0.247396  0.151725  0.129305  1
  B  B11  1  0.848275  0.752604  0.370695  1
  B  B12  1  0.752604  0.848275  0.870695  1
  B  B13  1  0.151725  0.247396  0.629305  1
  B  B14  1  0.586171  0.159247  0.481658  1
  B  B15  1  0.840753  0.413829  0.018342  1
  B  B16  1  0.413829  0.840753  0.518342  1
  B  B17  1  0.159247  0.586171  0.981658  1
  B  B18  1  0.443967  0.350723  0.535181  1
  B  B19  1  0.649277  0.556033  0.964819  1
  B  B20  1  0.556033  0.649277  0.464819  1
  B  B21  1  0.350723  0.443967  0.035181  1
