# generated using pymatgen
data_PrNdFe5Co3B8
_symmetry_space_group_name_H-M   'P 1'
_cell_length_a   7.07952595
_cell_length_b   7.08339159
_cell_length_c   3.80338809
_cell_angle_alpha   89.97329849
_cell_angle_beta   90.08145008
_cell_angle_gamma   89.85063824
_symmetry_Int_Tables_number   1
_chemical_formula_structural   PrNdFe5Co3B8
_chemical_formula_sum   'Pr1 Nd1 Fe5 Co3 B8'
_cell_volume   190.72784849
_cell_formula_units_Z   1
loop_
 _symmetry_equiv_pos_site_id
 _symmetry_equiv_pos_as_xyz
  1  'x, y, z'
loop_
 _atom_site_type_symbol
 _atom_site_label
 _atom_site_symmetry_multiplicity
 _atom_site_fract_x
 _atom_site_fract_y
 _atom_site_fract_z
 _atom_site_occupancy
  Pr  Pr0  1  0.500936  0.501071  0.499087  1
  Nd  Nd1  1  0.999539  0.000073  0.998799  1
  Fe  Fe2  1  0.868288  0.387633  0.104534  1
  Fe  Fe3  1  0.132911  0.613101  0.105332  1
  Fe  Fe4  1  0.887765  0.633876  0.605296  1
  Fe  Fe5  1  0.112830  0.367161  0.604810  1
  Fe  Fe6  1  0.633651  0.113026  0.393311  1
  Co  Co7  1  0.361986  0.886814  0.393821  1
  Co  Co8  1  0.611958  0.862148  0.893665  1
  Co  Co9  1  0.385298  0.136338  0.893663  1
  B  B10  1  0.334906  0.795282  0.897652  1
  B  B11  1  0.666546  0.202866  0.895319  1
  B  B12  1  0.298511  0.165620  0.396099  1
  B  B13  1  0.707981  0.839534  0.396999  1
  B  B14  1  0.163623  0.699804  0.606095  1
  B  B15  1  0.835131  0.296320  0.603954  1
  B  B16  1  0.197517  0.334712  0.105644  1
  B  B17  1  0.800626  0.664621  0.105922  1
