# generated using pymatgen
data_Ho8SiPd13Pt11
_symmetry_space_group_name_H-M   'P 1'
_cell_length_a   8.29637100
_cell_length_b   8.30771300
_cell_length_c   8.31023400
_cell_angle_alpha   90.00000000
_cell_angle_beta   90.00000000
_cell_angle_gamma   90.00000000
_symmetry_Int_Tables_number   1
_chemical_formula_structural   Ho8SiPd13Pt11
_chemical_formula_sum   'Ho8 Si1 Pd13 Pt11'
_cell_volume   572.77348132
_cell_formula_units_Z   1
loop_
 _symmetry_equiv_pos_site_id
 _symmetry_equiv_pos_as_xyz
  1  'x, y, z'
loop_
 _atom_site_type_symbol
 _atom_site_label
 _atom_site_symmetry_multiplicity
 _atom_site_fract_x
 _atom_site_fract_y
 _atom_site_fract_z
 _atom_site_occupancy
  Ho  Ho0  1  0.253273  0.253412  0.253168  1
  Ho  Ho1  1  0.746685  0.746760  0.746401  1
  Ho  Ho2  1  0.746685  0.746760  0.253599  1
  Ho  Ho3  1  0.746685  0.253240  0.746401  1
  Ho  Ho4  1  0.253273  0.253412  0.746832  1
  Ho  Ho5  1  0.253273  0.746588  0.253168  1
  Ho  Ho6  1  0.253273  0.746588  0.746832  1
  Ho  Ho7  1  0.746685  0.253240  0.253599  1
  Si  Si8  1  0.000460  0.000000  0.000000  1
  Pd  Pd9  1  0.742445  0.500000  0.000000  1
  Pd  Pd10  1  0.999947  0.257524  0.500000  1
  Pd  Pd11  1  0.500149  0.257160  0.000000  1
  Pd  Pd12  1  0.999947  0.742476  0.500000  1
  Pd  Pd13  1  0.500149  0.742840  0.000000  1
  Pd  Pd14  1  0.500035  0.000000  0.257971  1
  Pd  Pd15  1  0.257790  0.000000  0.500000  1
  Pd  Pd16  1  0.500035  0.000000  0.742029  1
  Pd  Pd17  1  0.742332  0.000000  0.500000  1
  Pd  Pd18  1  0.000056  0.500000  0.258023  1
  Pd  Pd19  1  0.000056  0.500000  0.741977  1
  Pd  Pd20  1  0.999973  0.000000  0.282218  1
  Pd  Pd21  1  0.999973  0.000000  0.717782  1
  Pt  Pt22  1  0.257348  0.500000  0.000000  1
  Pt  Pt23  1  0.251514  0.500000  0.500000  1
  Pt  Pt24  1  0.748178  0.500000  0.500000  1
  Pt  Pt25  1  0.500044  0.251415  0.500000  1
  Pt  Pt26  1  0.500044  0.748585  0.500000  1
  Pt  Pt27  1  0.499876  0.500000  0.251797  1
  Pt  Pt28  1  0.499876  0.500000  0.748203  1
  Pt  Pt29  1  0.281037  0.000000  0.000000  1
  Pt  Pt30  1  0.719640  0.000000  0.000000  1
  Pt  Pt31  1  0.999632  0.280405  0.000000  1
  Pt  Pt32  1  0.999632  0.719595  0.000000  1
