# generated using pymatgen
data_Sc12Co2RuBr16
_symmetry_space_group_name_H-M   'P 1'
_cell_length_a   8.86008065
_cell_length_b   10.94353885
_cell_length_c   11.55900148
_cell_angle_alpha   117.10335660
_cell_angle_beta   101.72751171
_cell_angle_gamma   101.37774917
_symmetry_Int_Tables_number   1
_chemical_formula_structural   Sc12Co2RuBr16
_chemical_formula_sum   'Sc12 Co2 Ru1 Br16'
_cell_volume   921.25685077
_cell_formula_units_Z   1
loop_
 _symmetry_equiv_pos_site_id
 _symmetry_equiv_pos_as_xyz
  1  'x, y, z'
loop_
 _atom_site_type_symbol
 _atom_site_label
 _atom_site_symmetry_multiplicity
 _atom_site_fract_x
 _atom_site_fract_y
 _atom_site_fract_z
 _atom_site_occupancy
  Sc  Sc0  1  0.084822  0.256126  0.350208  1
  Sc  Sc1  1  0.915178  0.743874  0.649792  1
  Sc  Sc2  1  0.775485  0.537353  0.319990  1
  Sc  Sc3  1  0.224515  0.462647  0.680010  1
  Sc  Sc4  1  0.284527  0.744491  0.649859  1
  Sc  Sc5  1  0.715473  0.255509  0.350141  1
  Sc  Sc6  1  0.144579  0.537300  0.320368  1
  Sc  Sc7  1  0.855421  0.462700  0.679632  1
  Sc  Sc8  1  0.402532  0.353605  0.266606  1
  Sc  Sc9  1  0.597468  0.646395  0.733394  1
  Sc  Sc10  1  0.457323  0.303533  0.521007  1
  Sc  Sc11  1  0.542677  0.696467  0.478993  1
  Co  Co12  1  0.341942  0.500210  0.499511  1
  Co  Co13  1  0.658059  0.499790  0.500489  1
  Ru  Ru14  1  0.000000  0.500000  0.500000  1
  Br  Br15  1  0.398336  0.745726  0.890903  1
  Br  Br16  1  0.601664  0.254274  0.109097  1
  Br  Br17  1  0.192416  0.975287  0.788207  1
  Br  Br18  1  0.807584  0.024713  0.211793  1
  Br  Br19  1  0.334281  0.086380  0.245981  1
  Br  Br20  1  0.665719  0.913620  0.754019  1
  Br  Br21  1  0.557209  0.436828  0.804606  1
  Br  Br22  1  0.442791  0.563172  0.195394  1
  Br  Br23  1  0.310832  0.832359  0.462349  1
  Br  Br24  1  0.689168  0.167641  0.537651  1
  Br  Br25  1  0.166177  0.166658  0.533968  1
  Br  Br26  1  0.833823  0.833342  0.466032  1
  Br  Br27  1  0.926006  0.579445  0.155882  1
  Br  Br28  1  0.073994  0.420555  0.844118  1
  Br  Br29  1  0.926998  0.744340  0.890972  1
  Br  Br30  1  0.073002  0.255660  0.109028  1
