# generated using pymatgen
data_Y2ErP4Pd7
_symmetry_space_group_name_H-M   'P 1'
_cell_length_a   7.92637813
_cell_length_b   7.92637831
_cell_length_c   9.41981562
_cell_angle_alpha   55.85765064
_cell_angle_beta   55.85764854
_cell_angle_gamma   29.33495266
_symmetry_Int_Tables_number   1
_chemical_formula_structural   Y2ErP4Pd7
_chemical_formula_sum   'Y2 Er1 P4 Pd7'
_cell_volume   236.15961042
_cell_formula_units_Z   1
loop_
 _symmetry_equiv_pos_site_id
 _symmetry_equiv_pos_as_xyz
  1  'x, y, z'
loop_
 _atom_site_type_symbol
 _atom_site_label
 _atom_site_symmetry_multiplicity
 _atom_site_fract_x
 _atom_site_fract_y
 _atom_site_fract_z
 _atom_site_occupancy
  Y  Y0  1  0.499991  0.499991  0.499966  1
  Y  Y1  1  0.819898  0.819898  0.176843  1
  Er  Er2  1  0.179191  0.179191  0.824475  1
  P  P3  1  0.394061  0.394061  0.319248  1
  P  P4  1  0.606748  0.606748  0.680961  1
  P  P5  1  0.839725  0.839725  0.754571  1
  P  P6  1  0.159239  0.159239  0.246931  1
  Pd  Pd7  1  0.668973  0.668973  0.075481  1
  Pd  Pd8  1  0.009808  0.009808  0.214946  1
  Pd  Pd9  1  0.990493  0.990493  0.784414  1
  Pd  Pd10  1  0.501528  0.501528  0.998770  1
  Pd  Pd11  1  0.195014  0.195014  0.470403  1
  Pd  Pd12  1  0.804679  0.804679  0.531965  1
  Pd  Pd13  1  0.330651  0.330651  0.921025  1
