# generated using pymatgen
data_Pa2Si5Os3
_symmetry_space_group_name_H-M   'P 1'
_cell_length_a   8.12951580
_cell_length_b   8.12951452
_cell_length_c   5.78691590
_cell_angle_alpha   70.47677129
_cell_angle_beta   70.47677716
_cell_angle_gamma   92.72172790
_symmetry_Int_Tables_number   1
_chemical_formula_structural   Pa2Si5Os3
_chemical_formula_sum   'Pa4 Si10 Os6'
_cell_volume   334.24039240
_cell_formula_units_Z   2
loop_
 _symmetry_equiv_pos_site_id
 _symmetry_equiv_pos_as_xyz
  1  'x, y, z'
loop_
 _atom_site_type_symbol
 _atom_site_label
 _atom_site_symmetry_multiplicity
 _atom_site_fract_x
 _atom_site_fract_y
 _atom_site_fract_z
 _atom_site_occupancy
  Pa  Pa0  1  0.869899  0.596208  0.762034  1
  Pa  Pa1  1  0.403792  0.130101  0.737966  1
  Pa  Pa2  1  0.130101  0.403792  0.237966  1
  Pa  Pa3  1  0.596208  0.869899  0.262034  1
  Si  Si4  1  0.059238  0.263101  0.840167  1
  Si  Si5  1  0.736899  0.940762  0.659833  1
  Si  Si6  1  0.940762  0.736899  0.159833  1
  Si  Si7  1  0.263101  0.059238  0.340167  1
  Si  Si8  1  0.206262  0.793738  0.750000  1
  Si  Si9  1  0.793738  0.206262  0.250000  1
  Si  Si10  1  0.515704  0.484296  0.750000  1
  Si  Si11  1  0.484296  0.515704  0.250000  1
  Si  Si12  1  0.775937  0.224063  0.750000  1
  Si  Si13  1  0.224063  0.775937  0.250000  1
  Os  Os14  1  0.252749  0.540501  0.635131  1
  Os  Os15  1  0.459499  0.747251  0.864869  1
  Os  Os16  1  0.747251  0.459499  0.364869  1
  Os  Os17  1  0.540501  0.252749  0.135131  1
  Os  Os18  1  0.999469  0.000531  0.750000  1
  Os  Os19  1  0.000531  0.999469  0.250000  1
