# generated using pymatgen
data_Ho13Th3(MgNi)4
_symmetry_space_group_name_H-M   'P 1'
_cell_length_a   9.60284474
_cell_length_b   9.63834999
_cell_length_c   9.63852915
_cell_angle_alpha   60.00541491
_cell_angle_beta   59.89744287
_cell_angle_gamma   59.89670252
_symmetry_Int_Tables_number   1
_chemical_formula_structural   Ho13Th3(MgNi)4
_chemical_formula_sum   'Ho13 Th3 Mg4 Ni4'
_cell_volume   629.85223433
_cell_formula_units_Z   1
loop_
 _symmetry_equiv_pos_site_id
 _symmetry_equiv_pos_as_xyz
  1  'x, y, z'
loop_
 _atom_site_type_symbol
 _atom_site_label
 _atom_site_symmetry_multiplicity
 _atom_site_fract_x
 _atom_site_fract_y
 _atom_site_fract_z
 _atom_site_occupancy
  Ho  Ho0  1  0.956977  0.347642  0.347679  1
  Ho  Ho1  1  0.813088  0.187514  0.187519  1
  Ho  Ho2  1  0.187020  0.813711  0.813630  1
  Ho  Ho3  1  0.187013  0.813715  0.185647  1
  Ho  Ho4  1  0.813075  0.187510  0.811902  1
  Ho  Ho5  1  0.187009  0.185638  0.813693  1
  Ho  Ho6  1  0.813034  0.811919  0.187527  1
  Ho  Ho7  1  0.935249  0.566258  0.566287  1
  Ho  Ho8  1  0.566173  0.933684  0.933680  1
  Ho  Ho9  1  0.566149  0.933690  0.566482  1
  Ho  Ho10  1  0.935239  0.566281  0.932209  1
  Ho  Ho11  1  0.566172  0.566477  0.933678  1
  Ho  Ho12  1  0.935253  0.932222  0.566283  1
  Th  Th13  1  0.342983  0.347667  0.347663  1
  Th  Th14  1  0.342921  0.347605  0.961746  1
  Th  Th15  1  0.342924  0.961741  0.347603  1
  Mg  Mg16  1  0.581787  0.579747  0.579752  1
  Mg  Mg17  1  0.581790  0.579751  0.258711  1
  Mg  Mg18  1  0.581785  0.258714  0.579756  1
  Mg  Mg19  1  0.258256  0.580580  0.580588  1
  Ni  Ni20  1  0.145216  0.141490  0.141490  1
  Ni  Ni21  1  0.145255  0.141479  0.571775  1
  Ni  Ni22  1  0.145267  0.571756  0.141489  1
  Ni  Ni23  1  0.570366  0.143211  0.143208  1
