# generated using pymatgen
data_CaEr4(PtPb2)2
_symmetry_space_group_name_H-M   'P 1'
_cell_length_a   3.65249600
_cell_length_b   8.28498700
_cell_length_c   18.47260200
_cell_angle_alpha   90.00000000
_cell_angle_beta   90.00000000
_cell_angle_gamma   90.00000000
_symmetry_Int_Tables_number   1
_chemical_formula_structural   CaEr4(PtPb2)2
_chemical_formula_sum   'Ca2 Er8 Pt4 Pb8'
_cell_volume   558.99722709
_cell_formula_units_Z   2
loop_
 _symmetry_equiv_pos_site_id
 _symmetry_equiv_pos_as_xyz
  1  'x, y, z'
loop_
 _atom_site_type_symbol
 _atom_site_label
 _atom_site_symmetry_multiplicity
 _atom_site_fract_x
 _atom_site_fract_y
 _atom_site_fract_z
 _atom_site_occupancy
  Ca  Ca0  1  0.000000  0.000000  0.000000  1
  Ca  Ca1  1  0.000000  0.500000  0.500000  1
  Er  Er2  1  0.000000  0.113786  0.412020  1
  Er  Er3  1  0.000000  0.886214  0.587980  1
  Er  Er4  1  0.000000  0.386214  0.912020  1
  Er  Er5  1  0.000000  0.613786  0.087980  1
  Er  Er6  1  0.000000  0.240639  0.217931  1
  Er  Er7  1  0.000000  0.759361  0.782069  1
  Er  Er8  1  0.000000  0.259361  0.717931  1
  Er  Er9  1  0.000000  0.740639  0.282069  1
  Pt  Pt10  1  0.500000  0.029595  0.302001  1
  Pt  Pt11  1  0.500000  0.970405  0.697999  1
  Pt  Pt12  1  0.500000  0.470405  0.802001  1
  Pt  Pt13  1  0.500000  0.529595  0.197999  1
  Pb  Pb14  1  0.500000  0.416645  0.350823  1
  Pb  Pb15  1  0.500000  0.583355  0.649177  1
  Pb  Pb16  1  0.500000  0.083355  0.850823  1
  Pb  Pb17  1  0.500000  0.916645  0.149177  1
  Pb  Pb18  1  0.500000  0.294137  0.062687  1
  Pb  Pb19  1  0.500000  0.705863  0.937313  1
  Pb  Pb20  1  0.500000  0.205863  0.562687  1
  Pb  Pb21  1  0.500000  0.794137  0.437313  1
