# generated using pymatgen
data_Ca6Al3Ga4Hg5
_symmetry_space_group_name_H-M   'P 1'
_cell_length_a   6.00345170
_cell_length_b   6.00345261
_cell_length_c   16.84935900
_cell_angle_alpha   77.88519374
_cell_angle_beta   77.88519188
_cell_angle_gamma   45.76402385
_symmetry_Int_Tables_number   1
_chemical_formula_structural   Ca6Al3Ga4Hg5
_chemical_formula_sum   'Ca6 Al3 Ga4 Hg5'
_cell_volume   423.65677501
_cell_formula_units_Z   1
loop_
 _symmetry_equiv_pos_site_id
 _symmetry_equiv_pos_as_xyz
  1  'x, y, z'
loop_
 _atom_site_type_symbol
 _atom_site_label
 _atom_site_symmetry_multiplicity
 _atom_site_fract_x
 _atom_site_fract_y
 _atom_site_fract_z
 _atom_site_occupancy
  Ca  Ca0  1  0.271613  0.271613  0.237246  1
  Ca  Ca1  1  0.603694  0.603694  0.572112  1
  Ca  Ca2  1  0.937599  0.937599  0.906279  1
  Ca  Ca3  1  0.058960  0.058960  0.096300  1
  Ca  Ca4  1  0.393593  0.393593  0.428987  1
  Ca  Ca5  1  0.726391  0.726391  0.764068  1
  Al  Al6  1  0.967129  0.967129  0.297212  1
  Al  Al7  1  0.298881  0.298881  0.631928  1
  Al  Al8  1  0.624188  0.624188  0.967789  1
  Ga  Ga9  1  0.762571  0.762571  0.087364  1
  Ga  Ga10  1  0.089409  0.089409  0.423866  1
  Ga  Ga11  1  0.420706  0.420706  0.759518  1
  Ga  Ga12  1  0.382205  0.382205  0.041058  1
  Hg  Hg13  1  0.720191  0.720191  0.378069  1
  Hg  Hg14  1  0.050361  0.050361  0.710875  1
  Hg  Hg15  1  0.565195  0.565195  0.228970  1
  Hg  Hg16  1  0.895013  0.895013  0.563440  1
  Hg  Hg17  1  0.232309  0.232309  0.904917  1
