# generated using pymatgen
data_Nd2In2PdRh
_symmetry_space_group_name_H-M   'P 1'
_cell_length_a   4.56498200
_cell_length_b   7.24761500
_cell_length_c   8.44718500
_cell_angle_alpha   90.00000000
_cell_angle_beta   90.00000000
_cell_angle_gamma   90.00000000
_symmetry_Int_Tables_number   1
_chemical_formula_structural   Nd2In2PdRh
_chemical_formula_sum   'Nd4 In4 Pd2 Rh2'
_cell_volume   279.47707562
_cell_formula_units_Z   2
loop_
 _symmetry_equiv_pos_site_id
 _symmetry_equiv_pos_as_xyz
  1  'x, y, z'
loop_
 _atom_site_type_symbol
 _atom_site_label
 _atom_site_symmetry_multiplicity
 _atom_site_fract_x
 _atom_site_fract_y
 _atom_site_fract_z
 _atom_site_occupancy
  Nd  Nd0  1  0.250000  0.042417  0.674209  1
  Nd  Nd1  1  0.250000  0.542417  0.825791  1
  Nd  Nd2  1  0.750000  0.966000  0.316435  1
  Nd  Nd3  1  0.750000  0.466000  0.183565  1
  In  In4  1  0.250000  0.141637  0.064774  1
  In  In5  1  0.250000  0.641637  0.435226  1
  In  In6  1  0.750000  0.855574  0.937945  1
  In  In7  1  0.750000  0.355574  0.562055  1
  Pd  Pd8  1  0.750000  0.743365  0.619902  1
  Pd  Pd9  1  0.750000  0.243365  0.880098  1
  Rh  Rh10  1  0.250000  0.251006  0.384001  1
  Rh  Rh11  1  0.250000  0.751006  0.115999  1
