# generated using pymatgen
data_Ho10InSn4Bi
_symmetry_space_group_name_H-M   'P 1'
_cell_length_a   8.96553904
_cell_length_b   8.95824574
_cell_length_c   6.54141000
_cell_angle_alpha   90.00000000
_cell_angle_beta   90.00000000
_cell_angle_gamma   120.08225226
_symmetry_Int_Tables_number   1
_chemical_formula_structural   Ho10InSn4Bi
_chemical_formula_sum   'Ho10 In1 Sn4 Bi1'
_cell_volume   454.61192942
_cell_formula_units_Z   1
loop_
 _symmetry_equiv_pos_site_id
 _symmetry_equiv_pos_as_xyz
  1  'x, y, z'
loop_
 _atom_site_type_symbol
 _atom_site_label
 _atom_site_symmetry_multiplicity
 _atom_site_fract_x
 _atom_site_fract_y
 _atom_site_fract_z
 _atom_site_occupancy
  Ho  Ho0  1  0.993304  0.756823  0.750000  1
  Ho  Ho1  1  0.002233  0.239873  0.250000  1
  Ho  Ho2  1  0.761155  0.760628  0.250000  1
  Ho  Ho3  1  0.764679  0.999403  0.750000  1
  Ho  Ho4  1  0.236571  0.242523  0.750000  1
  Ho  Ho5  1  0.238257  0.001748  0.250000  1
  Ho  Ho6  1  0.332843  0.661670  0.497618  1
  Ho  Ho7  1  0.669633  0.337756  0.002431  1
  Ho  Ho8  1  0.669633  0.337756  0.497569  1
  Ho  Ho9  1  0.332843  0.661670  0.002382  1
  In  In10  1  0.396142  0.394432  0.250000  1
  Sn  Sn11  1  0.001696  0.606729  0.250000  1
  Sn  Sn12  1  0.998742  0.395158  0.750000  1
  Sn  Sn13  1  0.603727  0.604259  0.750000  1
  Sn  Sn14  1  0.605577  0.000048  0.250000  1
  Bi  Bi15  1  0.392964  0.999522  0.750000  1
