# generated using pymatgen
data_Ho2Er3Cr3(Co4P3)4
_symmetry_space_group_name_H-M   'P 1'
_cell_length_a   11.95957300
_cell_length_b   11.95957372
_cell_length_c   3.65631000
_cell_angle_alpha   90.00000000
_cell_angle_beta   90.00000000
_cell_angle_gamma   120.00000631
_symmetry_Int_Tables_number   1
_chemical_formula_structural   Ho2Er3Cr3(Co4P3)4
_chemical_formula_sum   'Ho2 Er3 Cr3 Co16 P12'
_cell_volume   452.90278213
_cell_formula_units_Z   1
loop_
 _symmetry_equiv_pos_site_id
 _symmetry_equiv_pos_as_xyz
  1  'x, y, z'
loop_
 _atom_site_type_symbol
 _atom_site_label
 _atom_site_symmetry_multiplicity
 _atom_site_fract_x
 _atom_site_fract_y
 _atom_site_fract_z
 _atom_site_occupancy
  Ho  Ho0  1  0.666667  0.333333  0.000000  1
  Ho  Ho1  1  0.333333  0.666667  0.000000  1
  Er  Er2  1  0.812692  0.812692  0.500000  1
  Er  Er3  1  0.187308  0.000000  0.500000  1
  Er  Er4  1  0.000000  0.187308  0.500000  1
  Cr  Cr5  1  0.445345  0.445345  0.000000  1
  Cr  Cr6  1  0.554655  0.000000  0.000000  1
  Cr  Cr7  1  0.000000  0.554655  0.000000  1
  Co  Co8  1  0.873932  0.356145  0.500000  1
  Co  Co9  1  0.643855  0.517787  0.500000  1
  Co  Co10  1  0.482213  0.126068  0.500000  1
  Co  Co11  1  0.356145  0.873932  0.500000  1
  Co  Co12  1  0.517787  0.643855  0.500000  1
  Co  Co13  1  0.126068  0.482213  0.500000  1
  Co  Co14  1  0.800193  0.177115  0.000000  1
  Co  Co15  1  0.822885  0.623077  0.000000  1
  Co  Co16  1  0.376923  0.199807  0.000000  1
  Co  Co17  1  0.177115  0.800193  0.000000  1
  Co  Co18  1  0.623077  0.822885  0.000000  1
  Co  Co19  1  0.199807  0.376923  0.000000  1
  Co  Co20  1  0.282333  0.282333  0.500000  1
  Co  Co21  1  0.717667  0.000000  0.500000  1
  Co  Co22  1  0.000000  0.717667  0.500000  1
  Co  Co23  1  0.000000  0.000000  0.000000  1
  P  P24  1  0.682864  0.162948  0.500000  1
  P  P25  1  0.837052  0.519916  0.500000  1
  P  P26  1  0.480084  0.317136  0.500000  1
  P  P27  1  0.162948  0.682864  0.500000  1
  P  P28  1  0.519916  0.837052  0.500000  1
  P  P29  1  0.317136  0.480084  0.500000  1
  P  P30  1  0.178888  0.178888  0.000000  1
  P  P31  1  0.821112  0.000000  0.000000  1
  P  P32  1  0.000000  0.821112  0.000000  1
  P  P33  1  0.633437  0.633437  0.000000  1
  P  P34  1  0.366563  0.000000  0.000000  1
  P  P35  1  0.000000  0.366563  0.000000  1
