# generated using pymatgen
data_Tb4Dy7YRu4
_symmetry_space_group_name_H-M   'P 1'
_cell_length_a   6.33586212
_cell_length_b   7.31444908
_cell_length_c   9.23334438
_cell_angle_alpha   90.01720502
_cell_angle_beta   90.03681435
_cell_angle_gamma   90.05499910
_symmetry_Int_Tables_number   1
_chemical_formula_structural   Tb4Dy7YRu4
_chemical_formula_sum   'Tb4 Dy7 Y1 Ru4'
_cell_volume   427.90372076
_cell_formula_units_Z   1
loop_
 _symmetry_equiv_pos_site_id
 _symmetry_equiv_pos_as_xyz
  1  'x, y, z'
loop_
 _atom_site_type_symbol
 _atom_site_label
 _atom_site_symmetry_multiplicity
 _atom_site_fract_x
 _atom_site_fract_y
 _atom_site_fract_z
 _atom_site_occupancy
  Tb  Tb0  1  0.865033  0.540543  0.250078  1
  Tb  Tb1  1  0.635006  0.040604  0.250039  1
  Tb  Tb2  1  0.134836  0.459430  0.749873  1
  Tb  Tb3  1  0.364977  0.959725  0.749866  1
  Dy  Dy4  1  0.170158  0.177004  0.434790  1
  Dy  Dy5  1  0.670123  0.322934  0.565111  1
  Dy  Dy6  1  0.829850  0.823133  0.934778  1
  Dy  Dy7  1  0.670292  0.322891  0.934861  1
  Dy  Dy8  1  0.829928  0.823030  0.565130  1
  Dy  Dy9  1  0.329907  0.677024  0.434968  1
  Dy  Dy10  1  0.170048  0.176944  0.065135  1
  Y  Y11  1  0.330023  0.677206  0.064817  1
  Ru  Ru12  1  0.039709  0.886011  0.250296  1
  Ru  Ru13  1  0.459972  0.384934  0.250458  1
  Ru  Ru14  1  0.959718  0.114301  0.749982  1
  Ru  Ru15  1  0.540421  0.614287  0.749821  1
