# generated using pymatgen
data_Cs4Li2HoAlSb4
_symmetry_space_group_name_H-M   'P 1'
_cell_length_a   10.20808638
_cell_length_b   10.20808716
_cell_length_c   10.20808795
_cell_angle_alpha   138.57203491
_cell_angle_beta   59.60034456
_cell_angle_gamma   139.13387148
_symmetry_Int_Tables_number   1
_chemical_formula_structural   Cs4Li2HoAlSb4
_chemical_formula_sum   'Cs4 Li2 Ho1 Al1 Sb4'
_cell_volume   455.93136261
_cell_formula_units_Z   1
loop_
 _symmetry_equiv_pos_site_id
 _symmetry_equiv_pos_as_xyz
  1  'x, y, z'
loop_
 _atom_site_type_symbol
 _atom_site_label
 _atom_site_symmetry_multiplicity
 _atom_site_fract_x
 _atom_site_fract_y
 _atom_site_fract_z
 _atom_site_occupancy
  Cs  Cs0  1  0.826029  0.270272  0.098014  1
  Cs  Cs1  1  0.673970  0.771984  0.444245  1
  Cs  Cs2  1  0.327742  0.229727  0.555756  1
  Cs  Cs3  1  0.172257  0.728015  0.901986  1
  Li  Li4  1  0.750000  0.250000  0.500000  1
  Li  Li5  1  0.250000  0.750000  0.500000  1
  Ho  Ho6  1  0.250000  0.250000  0.000000  1
  Al  Al7  1  0.750000  0.750000  0.000000  1
  Sb  Sb8  1  0.431652  0.753149  0.147448  1
  Sb  Sb9  1  0.068347  0.215795  0.321496  1
  Sb  Sb10  1  0.894298  0.746850  0.678504  1
  Sb  Sb11  1  0.605701  0.284205  0.852552  1
