# generated using pymatgen
data_Er11TmZn(InFe)2
_symmetry_space_group_name_H-M   'P 1'
_cell_length_a   8.32235441
_cell_length_b   8.32235408
_cell_length_c   8.32214501
_cell_angle_alpha   109.77699608
_cell_angle_beta   109.77700698
_cell_angle_gamma   108.86240295
_symmetry_Int_Tables_number   1
_chemical_formula_structural   Er11TmZn(InFe)2
_chemical_formula_sum   'Er11 Tm1 Zn1 In2 Fe2'
_cell_volume   443.67348817
_cell_formula_units_Z   1
loop_
 _symmetry_equiv_pos_site_id
 _symmetry_equiv_pos_as_xyz
  1  'x, y, z'
loop_
 _atom_site_type_symbol
 _atom_site_label
 _atom_site_symmetry_multiplicity
 _atom_site_fract_x
 _atom_site_fract_y
 _atom_site_fract_z
 _atom_site_occupancy
  Er  Er0  1  0.694818  0.694818  0.389636  1
  Er  Er1  1  0.305167  0.694766  0.999934  1
  Er  Er2  1  0.694766  0.305167  0.999934  1
  Er  Er3  1  0.446641  0.203269  0.243466  1
  Er  Er4  1  0.553291  0.796648  0.756558  1
  Er  Er5  1  0.959909  0.203267  0.756558  1
  Er  Er6  1  0.203267  0.959909  0.756558  1
  Er  Er7  1  0.040196  0.796825  0.243466  1
  Er  Er8  1  0.796825  0.040196  0.243466  1
  Er  Er9  1  0.203269  0.446641  0.243466  1
  Er  Er10  1  0.796648  0.553291  0.756558  1
  Tm  Tm11  1  0.305260  0.305260  0.610520  1
  Zn  Zn12  1  0.000004  0.000004  0.000009  1
  In  In13  1  0.499994  0.000020  0.500014  1
  In  In14  1  0.000020  0.499994  0.500014  1
  Fe  Fe15  1  0.386892  0.386892  0.999923  1
  Fe  Fe16  1  0.613030  0.613030  0.999923  1
