# generated using pymatgen
data_Sc2Pa2MnCrB12
_symmetry_space_group_name_H-M   'P 1'
_cell_length_a   3.52611900
_cell_length_b   8.94436913
_cell_length_c   11.30379017
_cell_angle_alpha   89.98022678
_cell_angle_beta   90.00000000
_cell_angle_gamma   90.00000000
_symmetry_Int_Tables_number   1
_chemical_formula_structural   Sc2Pa2MnCrB12
_chemical_formula_sum   'Sc4 Pa4 Mn2 Cr2 B24'
_cell_volume   356.50919891
_cell_formula_units_Z   2
loop_
 _symmetry_equiv_pos_site_id
 _symmetry_equiv_pos_as_xyz
  1  'x, y, z'
loop_
 _atom_site_type_symbol
 _atom_site_label
 _atom_site_symmetry_multiplicity
 _atom_site_fract_x
 _atom_site_fract_y
 _atom_site_fract_z
 _atom_site_occupancy
  Sc  Sc0  1  0.000000  0.444461  0.127559  1
  Sc  Sc1  1  0.000000  0.555539  0.872441  1
  Sc  Sc2  1  0.000000  0.943825  0.372692  1
  Sc  Sc3  1  0.000000  0.056175  0.627308  1
  Pa  Pa4  1  0.000000  0.821378  0.086221  1
  Pa  Pa5  1  0.000000  0.178622  0.913779  1
  Pa  Pa6  1  0.000000  0.322269  0.414227  1
  Pa  Pa7  1  0.000000  0.677731  0.585773  1
  Mn  Mn8  1  0.000000  0.140583  0.180685  1
  Mn  Mn9  1  0.000000  0.859417  0.819315  1
  Cr  Cr10  1  0.000000  0.641176  0.318444  1
  Cr  Cr11  1  0.000000  0.358824  0.681556  1
  B  B12  1  0.500000  0.056134  0.069045  1
  B  B13  1  0.500000  0.943866  0.930955  1
  B  B14  1  0.500000  0.555238  0.431476  1
  B  B15  1  0.500000  0.444762  0.568524  1
  B  B16  1  0.500000  0.252353  0.082810  1
  B  B17  1  0.500000  0.747647  0.917190  1
  B  B18  1  0.500000  0.752659  0.417819  1
  B  B19  1  0.500000  0.247341  0.582181  1
  B  B20  1  0.500000  0.292510  0.234332  1
  B  B21  1  0.500000  0.707490  0.765668  1
  B  B22  1  0.500000  0.794081  0.265117  1
  B  B23  1  0.500000  0.205919  0.734883  1
  B  B24  1  0.500000  0.129679  0.315653  1
  B  B25  1  0.500000  0.870321  0.684347  1
  B  B26  1  0.500000  0.630336  0.183426  1
  B  B27  1  0.500000  0.369664  0.816574  1
  B  B28  1  0.500000  0.482943  0.285527  1
  B  B29  1  0.500000  0.517057  0.714473  1
  B  B30  1  0.500000  0.984414  0.213929  1
  B  B31  1  0.500000  0.015586  0.786071  1
  B  B32  1  0.500000  0.099958  0.472478  1
  B  B33  1  0.500000  0.900042  0.527522  1
  B  B34  1  0.500000  0.600236  0.026706  1
  B  B35  1  0.500000  0.399764  0.973294  1
