# generated using pymatgen
data_DyAl2ZnGa4Cu5
_symmetry_space_group_name_H-M   'P 1'
_cell_length_a   5.25663200
_cell_length_b   6.62087262
_cell_length_c   6.62087226
_cell_angle_alpha   99.40835338
_cell_angle_beta   113.38916021
_cell_angle_gamma   66.61083356
_symmetry_Int_Tables_number   1
_chemical_formula_structural   DyAl2ZnGa4Cu5
_chemical_formula_sum   'Dy1 Al2 Zn1 Ga4 Cu5'
_cell_volume   194.11168033
_cell_formula_units_Z   1
loop_
 _symmetry_equiv_pos_site_id
 _symmetry_equiv_pos_as_xyz
  1  'x, y, z'
loop_
 _atom_site_type_symbol
 _atom_site_label
 _atom_site_symmetry_multiplicity
 _atom_site_fract_x
 _atom_site_fract_y
 _atom_site_fract_z
 _atom_site_occupancy
  Dy  Dy0  1  0.000000  0.001423  0.001423  1
  Al  Al1  1  0.708607  0.796108  0.213323  1
  Al  Al2  1  0.291393  0.213323  0.796108  1
  Zn  Zn3  1  0.500000  0.776173  0.776173  1
  Ga  Ga4  1  0.654009  0.340788  0.648807  1
  Ga  Ga5  1  0.345991  0.648807  0.340788  1
  Ga  Ga6  1  0.000000  0.345504  0.345504  1
  Ga  Ga7  1  0.000000  0.651762  0.651762  1
  Cu  Cu8  1  0.499022  0.000385  0.501536  1
  Cu  Cu9  1  0.002128  0.000385  0.501536  1
  Cu  Cu10  1  0.500978  0.501536  0.000385  1
  Cu  Cu11  1  0.997872  0.501536  0.000385  1
  Cu  Cu12  1  0.500000  0.222269  0.222269  1
