# generated using pymatgen
data_Hf7Sc(Ta3Ge4)4
_symmetry_space_group_name_H-M   'P 1'
_cell_length_a   6.83221028
_cell_length_b   6.96447303
_cell_length_c   13.28535377
_cell_angle_alpha   89.95861842
_cell_angle_beta   89.93137220
_cell_angle_gamma   89.94353955
_symmetry_Int_Tables_number   1
_chemical_formula_structural   Hf7Sc(Ta3Ge4)4
_chemical_formula_sum   'Hf7 Sc1 Ta12 Ge16'
_cell_volume   632.15266560
_cell_formula_units_Z   1
loop_
 _symmetry_equiv_pos_site_id
 _symmetry_equiv_pos_as_xyz
  1  'x, y, z'
loop_
 _atom_site_type_symbol
 _atom_site_label
 _atom_site_symmetry_multiplicity
 _atom_site_fract_x
 _atom_site_fract_y
 _atom_site_fract_z
 _atom_site_occupancy
  Hf  Hf0  1  0.012589  0.175877  0.090505  1
  Hf  Hf1  1  0.510853  0.325560  0.410074  1
  Hf  Hf2  1  0.487249  0.676020  0.910537  1
  Hf  Hf3  1  0.987080  0.822069  0.590472  1
  Hf  Hf4  1  0.987413  0.824332  0.910382  1
  Hf  Hf5  1  0.487408  0.676384  0.589275  1
  Hf  Hf6  1  0.512584  0.323731  0.089854  1
  Sc  Sc7  1  0.010741  0.175589  0.409903  1
  Ta  Ta8  1  0.661023  0.990757  0.249294  1
  Ta  Ta9  1  0.162162  0.509436  0.248623  1
  Ta  Ta10  1  0.838771  0.492034  0.750323  1
  Ta  Ta11  1  0.338385  0.009663  0.750266  1
  Ta  Ta12  1  0.839079  0.662611  0.124217  1
  Ta  Ta13  1  0.341476  0.834304  0.375248  1
  Ta  Ta14  1  0.661404  0.162437  0.875515  1
  Ta  Ta15  1  0.164251  0.339810  0.625264  1
  Ta  Ta16  1  0.161902  0.338580  0.875455  1
  Ta  Ta17  1  0.660778  0.162062  0.624574  1
  Ta  Ta18  1  0.338603  0.836786  0.124328  1
  Ta  Ta19  1  0.836811  0.662295  0.375028  1
  Ge  Ge20  1  0.806413  0.344907  0.251078  1
  Ge  Ge21  1  0.305085  0.153986  0.251011  1
  Ge  Ge22  1  0.693623  0.845625  0.749885  1
  Ge  Ge23  1  0.194769  0.655179  0.750053  1
  Ge  Ge24  1  0.035756  0.889431  0.250742  1
  Ge  Ge25  1  0.535995  0.609525  0.249114  1
  Ge  Ge26  1  0.465514  0.390403  0.750314  1
  Ge  Ge27  1  0.964653  0.111020  0.749503  1
  Ge  Ge28  1  0.816184  0.460054  0.959315  1
  Ge  Ge29  1  0.315110  0.039130  0.540448  1
  Ge  Ge30  1  0.684123  0.961073  0.040960  1
  Ge  Ge31  1  0.181618  0.538130  0.458643  1
  Ge  Ge32  1  0.183850  0.539285  0.040553  1
  Ge  Ge33  1  0.684280  0.961997  0.458960  1
  Ge  Ge34  1  0.315704  0.039629  0.959166  1
  Ge  Ge35  1  0.816759  0.460288  0.541116  1
