# generated using pymatgen
data_Ho2ErNb3(B2Ru5)2
_symmetry_space_group_name_H-M   'P 1'
_cell_length_a   9.59175921
_cell_length_b   9.59175836
_cell_length_c   3.12646000
_cell_angle_alpha   90.00000000
_cell_angle_beta   90.00000000
_cell_angle_gamma   90.40734348
_symmetry_Int_Tables_number   1
_chemical_formula_structural   Ho2ErNb3(B2Ru5)2
_chemical_formula_sum   'Ho2 Er1 Nb3 B4 Ru10'
_cell_volume   287.63279278
_cell_formula_units_Z   1
loop_
 _symmetry_equiv_pos_site_id
 _symmetry_equiv_pos_as_xyz
  1  'x, y, z'
loop_
 _atom_site_type_symbol
 _atom_site_label
 _atom_site_symmetry_multiplicity
 _atom_site_fract_x
 _atom_site_fract_y
 _atom_site_fract_z
 _atom_site_occupancy
  Ho  Ho0  1  0.823930  0.674915  0.000000  1
  Ho  Ho1  1  0.174915  0.323930  0.000000  1
  Er  Er2  1  0.325600  0.825600  0.000000  1
  Nb  Nb3  1  0.675568  0.175568  0.000000  1
  Nb  Nb4  1  0.497900  0.503519  0.000000  1
  Nb  Nb5  1  0.003519  0.997900  0.000000  1
  B  B6  1  0.623554  0.881370  0.000000  1
  B  B7  1  0.381370  0.123554  0.000000  1
  B  B8  1  0.118965  0.618965  0.000000  1
  B  B9  1  0.875922  0.375922  0.000000  1
  Ru  Ru10  1  0.570718  0.722709  0.500000  1
  Ru  Ru11  1  0.440565  0.280402  0.500000  1
  Ru  Ru12  1  0.069788  0.780109  0.500000  1
  Ru  Ru13  1  0.915984  0.213448  0.500000  1
  Ru  Ru14  1  0.280109  0.569788  0.500000  1
  Ru  Ru15  1  0.713448  0.415984  0.500000  1
  Ru  Ru16  1  0.222709  0.070718  0.500000  1
  Ru  Ru17  1  0.780402  0.940565  0.500000  1
  Ru  Ru18  1  0.509118  0.009118  0.500000  1
  Ru  Ru19  1  0.995916  0.495916  0.500000  1
