# generated using pymatgen
data_NpSc5(SnRu2)6
_symmetry_space_group_name_H-M   'P 1'
_cell_length_a   4.57711101
_cell_length_b   6.45977200
_cell_length_c   13.68355002
_cell_angle_alpha   90.00000000
_cell_angle_beta   89.99416463
_cell_angle_gamma   90.00000000
_symmetry_Int_Tables_number   1
_chemical_formula_structural   NpSc5(SnRu2)6
_chemical_formula_sum   'Np1 Sc5 Sn6 Ru12'
_cell_volume   404.58280092
_cell_formula_units_Z   1
loop_
 _symmetry_equiv_pos_site_id
 _symmetry_equiv_pos_as_xyz
  1  'x, y, z'
loop_
 _atom_site_type_symbol
 _atom_site_label
 _atom_site_symmetry_multiplicity
 _atom_site_fract_x
 _atom_site_fract_y
 _atom_site_fract_z
 _atom_site_occupancy
  Np  Np0  1  0.000000  0.500001  0.000000  1
  Sc  Sc1  1  0.500007  0.000000  0.170397  1
  Sc  Sc2  1  0.000105  0.500001  0.337340  1
  Sc  Sc3  1  0.500000  0.000000  0.500000  1
  Sc  Sc4  1  0.999895  0.500001  0.662660  1
  Sc  Sc5  1  0.499993  0.000000  0.829603  1
  Sn  Sn6  1  0.000000  0.000000  0.000000  1
  Sn  Sn7  1  0.500020  0.500001  0.175604  1
  Sn  Sn8  1  0.000049  0.000000  0.335294  1
  Sn  Sn9  1  0.500000  0.500001  0.500000  1
  Sn  Sn10  1  0.999951  0.000000  0.664706  1
  Sn  Sn11  1  0.499981  0.500001  0.824396  1
  Ru  Ru12  1  0.500000  0.255992  0.000000  1
  Ru  Ru13  1  0.500000  0.744009  0.000000  1
  Ru  Ru14  1  0.000015  0.256003  0.160553  1
  Ru  Ru15  1  0.000015  0.743996  0.160553  1
  Ru  Ru16  1  0.500056  0.247268  0.332819  1
  Ru  Ru17  1  0.500056  0.752732  0.332819  1
  Ru  Ru18  1  0.000000  0.250622  0.500000  1
  Ru  Ru19  1  0.000000  0.749379  0.500000  1
  Ru  Ru20  1  0.499945  0.247268  0.667181  1
  Ru  Ru21  1  0.499945  0.752732  0.667181  1
  Ru  Ru22  1  0.999985  0.256003  0.839447  1
  Ru  Ru23  1  0.999985  0.743996  0.839447  1
