# generated using pymatgen
data_Er3Ga2Pb
_symmetry_space_group_name_H-M   'P 1'
_cell_length_a   6.32061700
_cell_length_b   9.25939700
_cell_length_c   9.86539900
_cell_angle_alpha   90.00000000
_cell_angle_beta   90.00000000
_cell_angle_gamma   90.00000000
_symmetry_Int_Tables_number   1
_chemical_formula_structural   Er3Ga2Pb
_chemical_formula_sum   'Er12 Ga8 Pb4'
_cell_volume   577.37348361
_cell_formula_units_Z   4
loop_
 _symmetry_equiv_pos_site_id
 _symmetry_equiv_pos_as_xyz
  1  'x, y, z'
loop_
 _atom_site_type_symbol
 _atom_site_label
 _atom_site_symmetry_multiplicity
 _atom_site_fract_x
 _atom_site_fract_y
 _atom_site_fract_z
 _atom_site_occupancy
  Er  Er0  1  0.000000  0.750000  0.126976  1
  Er  Er1  1  0.500000  0.250000  0.873024  1
  Er  Er2  1  0.000000  0.250000  0.873024  1
  Er  Er3  1  0.500000  0.750000  0.126976  1
  Er  Er4  1  0.750000  0.478580  0.604684  1
  Er  Er5  1  0.250000  0.521420  0.395316  1
  Er  Er6  1  0.750000  0.978580  0.395316  1
  Er  Er7  1  0.250000  0.021420  0.604684  1
  Er  Er8  1  0.750000  0.368599  0.211830  1
  Er  Er9  1  0.250000  0.631401  0.788170  1
  Er  Er10  1  0.750000  0.868599  0.788170  1
  Er  Er11  1  0.250000  0.131401  0.211830  1
  Ga  Ga12  1  0.000000  0.750000  0.547845  1
  Ga  Ga13  1  0.500000  0.250000  0.452155  1
  Ga  Ga14  1  0.000000  0.250000  0.452155  1
  Ga  Ga15  1  0.500000  0.750000  0.547845  1
  Ga  Ga16  1  0.750000  0.143032  0.644877  1
  Ga  Ga17  1  0.250000  0.856968  0.355123  1
  Ga  Ga18  1  0.750000  0.643032  0.355123  1
  Ga  Ga19  1  0.250000  0.356968  0.644877  1
  Pb  Pb20  1  0.750000  0.055042  0.089390  1
  Pb  Pb21  1  0.250000  0.944958  0.910610  1
  Pb  Pb22  1  0.750000  0.555042  0.910610  1
  Pb  Pb23  1  0.250000  0.444958  0.089390  1
