# generated using pymatgen
data_Pr2Er3Sn3Hg
_symmetry_space_group_name_H-M   'P 1'
_cell_length_a   7.96907300
_cell_length_b   8.46663000
_cell_length_c   15.66574300
_cell_angle_alpha   90.00000000
_cell_angle_beta   90.00000000
_cell_angle_gamma   90.00000000
_symmetry_Int_Tables_number   1
_chemical_formula_structural   Pr2Er3Sn3Hg
_chemical_formula_sum   'Pr8 Er12 Sn12 Hg4'
_cell_volume   1056.98636214
_cell_formula_units_Z   4
loop_
 _symmetry_equiv_pos_site_id
 _symmetry_equiv_pos_as_xyz
  1  'x, y, z'
loop_
 _atom_site_type_symbol
 _atom_site_label
 _atom_site_symmetry_multiplicity
 _atom_site_fract_x
 _atom_site_fract_y
 _atom_site_fract_z
 _atom_site_occupancy
  Pr  Pr0  1  0.502690  0.316721  0.907947  1
  Pr  Pr1  1  0.002690  0.183279  0.592053  1
  Pr  Pr2  1  0.497310  0.683279  0.407947  1
  Pr  Pr3  1  0.997310  0.816721  0.092053  1
  Pr  Pr4  1  0.497310  0.683279  0.092053  1
  Pr  Pr5  1  0.997310  0.816721  0.407947  1
  Pr  Pr6  1  0.502690  0.316721  0.592053  1
  Pr  Pr7  1  0.002690  0.183279  0.907947  1
  Er  Er8  1  0.337348  0.832205  0.873839  1
  Er  Er9  1  0.837348  0.667795  0.626161  1
  Er  Er10  1  0.662652  0.167795  0.373839  1
  Er  Er11  1  0.162652  0.332205  0.126161  1
  Er  Er12  1  0.662652  0.167795  0.126161  1
  Er  Er13  1  0.162652  0.332205  0.373839  1
  Er  Er14  1  0.337348  0.832205  0.626161  1
  Er  Er15  1  0.837348  0.667795  0.873839  1
  Er  Er16  1  0.180387  0.495863  0.750000  1
  Er  Er17  1  0.680387  0.004137  0.750000  1
  Er  Er18  1  0.819613  0.504137  0.250000  1
  Er  Er19  1  0.319613  0.995863  0.250000  1
  Sn  Sn20  1  0.318797  0.037993  0.041600  1
  Sn  Sn21  1  0.818797  0.462007  0.458400  1
  Sn  Sn22  1  0.681203  0.962007  0.541600  1
  Sn  Sn23  1  0.181203  0.537993  0.958400  1
  Sn  Sn24  1  0.681203  0.962007  0.958400  1
  Sn  Sn25  1  0.181203  0.537993  0.541600  1
  Sn  Sn26  1  0.318797  0.037993  0.458400  1
  Sn  Sn27  1  0.818797  0.462007  0.041600  1
  Sn  Sn28  1  0.301616  0.135998  0.750000  1
  Sn  Sn29  1  0.801616  0.364002  0.750000  1
  Sn  Sn30  1  0.698384  0.864002  0.250000  1
  Sn  Sn31  1  0.198384  0.635998  0.250000  1
  Hg  Hg32  1  0.537663  0.621183  0.750000  1
  Hg  Hg33  1  0.037663  0.878817  0.750000  1
  Hg  Hg34  1  0.462337  0.378817  0.250000  1
  Hg  Hg35  1  0.962337  0.121183  0.250000  1
