# generated using pymatgen
data_Y2ThTi(Co4P3)2
_symmetry_space_group_name_H-M   'P 1'
_cell_length_a   3.74602500
_cell_length_b   10.68747600
_cell_length_c   12.34598700
_cell_angle_alpha   90.00000000
_cell_angle_beta   90.00000000
_cell_angle_gamma   90.00000000
_symmetry_Int_Tables_number   1
_chemical_formula_structural   Y2ThTi(Co4P3)2
_chemical_formula_sum   'Y4 Th2 Ti2 Co16 P12'
_cell_volume   494.27840802
_cell_formula_units_Z   2
loop_
 _symmetry_equiv_pos_site_id
 _symmetry_equiv_pos_as_xyz
  1  'x, y, z'
loop_
 _atom_site_type_symbol
 _atom_site_label
 _atom_site_symmetry_multiplicity
 _atom_site_fract_x
 _atom_site_fract_y
 _atom_site_fract_z
 _atom_site_occupancy
  Y  Y0  1  0.500000  0.818113  0.202248  1
  Y  Y1  1  0.500000  0.181887  0.202248  1
  Y  Y2  1  0.000000  0.681887  0.797752  1
  Y  Y3  1  0.000000  0.318113  0.797752  1
  Th  Th4  1  0.000000  0.500000  0.528921  1
  Th  Th5  1  0.500000  0.000000  0.471079  1
  Ti  Ti6  1  0.500000  0.500000  0.150395  1
  Ti  Ti7  1  0.000000  0.000000  0.849605  1
  Co  Co8  1  0.500000  0.500000  0.701732  1
  Co  Co9  1  0.000000  0.000000  0.298268  1
  Co  Co10  1  0.000000  0.500000  0.986948  1
  Co  Co11  1  0.500000  0.000000  0.013052  1
  Co  Co12  1  0.500000  0.332595  0.993939  1
  Co  Co13  1  0.500000  0.667405  0.993939  1
  Co  Co14  1  0.000000  0.167405  0.006061  1
  Co  Co15  1  0.000000  0.832595  0.006061  1
  Co  Co16  1  0.500000  0.297263  0.431307  1
  Co  Co17  1  0.500000  0.702737  0.431307  1
  Co  Co18  1  0.000000  0.202737  0.568693  1
  Co  Co19  1  0.000000  0.797263  0.568693  1
  Co  Co20  1  0.500000  0.879666  0.708636  1
  Co  Co21  1  0.500000  0.120334  0.708636  1
  Co  Co22  1  0.000000  0.620334  0.291364  1
  Co  Co23  1  0.000000  0.379666  0.291364  1
  P  P24  1  0.500000  0.500000  0.882677  1
  P  P25  1  0.000000  0.000000  0.117323  1
  P  P26  1  0.500000  0.500000  0.348253  1
  P  P27  1  0.000000  0.000000  0.651747  1
  P  P28  1  0.500000  0.305553  0.618219  1
  P  P29  1  0.500000  0.694447  0.618219  1
  P  P30  1  0.000000  0.194447  0.381781  1
  P  P31  1  0.000000  0.805553  0.381781  1
  P  P32  1  0.500000  0.843210  0.894124  1
  P  P33  1  0.500000  0.156790  0.894124  1
  P  P34  1  0.000000  0.656790  0.105876  1
  P  P35  1  0.000000  0.343210  0.105876  1
