# generated using pymatgen
data_Y4Ga5(Ir2Pd)3
_symmetry_space_group_name_H-M   'P 1'
_cell_length_a   5.59298696
_cell_length_b   5.57194855
_cell_length_c   23.92678489
_cell_angle_alpha   90.03975292
_cell_angle_beta   89.88720005
_cell_angle_gamma   120.41000304
_symmetry_Int_Tables_number   1
_chemical_formula_structural   Y4Ga5(Ir2Pd)3
_chemical_formula_sum   'Y8 Ga10 Ir12 Pd6'
_cell_volume   643.06648240
_cell_formula_units_Z   2
loop_
 _symmetry_equiv_pos_site_id
 _symmetry_equiv_pos_as_xyz
  1  'x, y, z'
loop_
 _atom_site_type_symbol
 _atom_site_label
 _atom_site_symmetry_multiplicity
 _atom_site_fract_x
 _atom_site_fract_y
 _atom_site_fract_z
 _atom_site_occupancy
  Y  Y0  1  0.336796  0.673291  0.529762  1
  Y  Y1  1  0.663204  0.326709  0.470238  1
  Y  Y2  1  0.670553  0.328825  0.030705  1
  Y  Y3  1  0.329447  0.671175  0.969295  1
  Y  Y4  1  0.333663  0.667536  0.676870  1
  Y  Y5  1  0.666337  0.332464  0.323130  1
  Y  Y6  1  0.667210  0.332369  0.183796  1
  Y  Y7  1  0.332790  0.667631  0.816204  1
  Ga  Ga8  1  0.000000  0.000000  0.000000  1
  Ga  Ga9  1  0.000000  0.000000  0.500000  1
  Ga  Ga10  1  0.326631  0.669612  0.167399  1
  Ga  Ga11  1  0.673369  0.330388  0.832601  1
  Ga  Ga12  1  0.659126  0.325802  0.667073  1
  Ga  Ga13  1  0.340874  0.674198  0.332927  1
  Ga  Ga14  1  0.007086  0.995363  0.166231  1
  Ga  Ga15  1  0.992914  0.004637  0.833769  1
  Ga  Ga16  1  0.007975  0.009773  0.665670  1
  Ga  Ga17  1  0.992025  0.990227  0.334330  1
  Ir  Ir18  1  0.169797  0.830918  0.081704  1
  Ir  Ir19  1  0.338653  0.169164  0.582650  1
  Ir  Ir20  1  0.830203  0.169082  0.918296  1
  Ir  Ir21  1  0.661347  0.830836  0.417350  1
  Ir  Ir22  1  0.830735  0.169557  0.583343  1
  Ir  Ir23  1  0.169265  0.830443  0.416657  1
  Ir  Ir24  1  0.166050  0.331520  0.250915  1
  Ir  Ir25  1  0.833950  0.668480  0.749085  1
  Ir  Ir26  1  0.668540  0.835519  0.248465  1
  Ir  Ir27  1  0.331460  0.164481  0.751535  1
  Ir  Ir28  1  0.166354  0.834710  0.251285  1
  Ir  Ir29  1  0.833646  0.165290  0.748715  1
  Pd  Pd30  1  0.170130  0.337085  0.083866  1
  Pd  Pd31  1  0.829870  0.662915  0.916134  1
  Pd  Pd32  1  0.662933  0.829775  0.084194  1
  Pd  Pd33  1  0.831241  0.662508  0.584052  1
  Pd  Pd34  1  0.337067  0.170225  0.915806  1
  Pd  Pd35  1  0.168759  0.337492  0.415948  1
