# generated using pymatgen
data_Tm3TlCd3AgAu
_symmetry_space_group_name_H-M   'P 1'
_cell_length_a   3.87856100
_cell_length_b   7.91956930
_cell_length_c   7.91956900
_cell_angle_alpha   120.00000292
_cell_angle_beta   90.00000000
_cell_angle_gamma   90.00000000
_symmetry_Int_Tables_number   1
_chemical_formula_structural   Tm3TlCd3AgAu
_chemical_formula_sum   'Tm3 Tl1 Cd3 Ag1 Au1'
_cell_volume   210.67080541
_cell_formula_units_Z   1
loop_
 _symmetry_equiv_pos_site_id
 _symmetry_equiv_pos_as_xyz
  1  'x, y, z'
loop_
 _atom_site_type_symbol
 _atom_site_label
 _atom_site_symmetry_multiplicity
 _atom_site_fract_x
 _atom_site_fract_y
 _atom_site_fract_z
 _atom_site_occupancy
  Tm  Tm0  1  0.000000  0.391599  0.414691  1
  Tm  Tm1  1  0.000000  0.023091  0.608401  1
  Tm  Tm2  1  0.000000  0.585309  0.976909  1
  Tl  Tl3  1  0.500000  0.666667  0.333333  1
  Cd  Cd4  1  0.500000  0.736758  0.740160  1
  Cd  Cd5  1  0.500000  0.003402  0.263242  1
  Cd  Cd6  1  0.500000  0.259840  0.996598  1
  Ag  Ag7  1  0.000000  0.000000  0.000000  1
  Au  Au8  1  0.500000  0.333333  0.666667  1
