# generated using pymatgen
data_Er16InHg3Pd4
_symmetry_space_group_name_H-M   'P 1'
_cell_length_a   9.58410486
_cell_length_b   9.58410394
_cell_length_c   9.58410461
_cell_angle_alpha   60.08307256
_cell_angle_beta   60.08307863
_cell_angle_gamma   60.08307222
_symmetry_Int_Tables_number   1
_chemical_formula_structural   Er16InHg3Pd4
_chemical_formula_sum   'Er16 In1 Hg3 Pd4'
_cell_volume   623.67224487
_cell_formula_units_Z   1
loop_
 _symmetry_equiv_pos_site_id
 _symmetry_equiv_pos_as_xyz
  1  'x, y, z'
loop_
 _atom_site_type_symbol
 _atom_site_label
 _atom_site_symmetry_multiplicity
 _atom_site_fract_x
 _atom_site_fract_y
 _atom_site_fract_z
 _atom_site_occupancy
  Er  Er0  1  0.353921  0.353921  0.353921  1
  Er  Er1  1  0.357131  0.357131  0.931158  1
  Er  Er2  1  0.357131  0.931158  0.357131  1
  Er  Er3  1  0.931158  0.357131  0.357131  1
  Er  Er4  1  0.811031  0.189312  0.189312  1
  Er  Er5  1  0.190547  0.810634  0.810634  1
  Er  Er6  1  0.189312  0.811031  0.189312  1
  Er  Er7  1  0.810634  0.190547  0.810634  1
  Er  Er8  1  0.189312  0.189312  0.811031  1
  Er  Er9  1  0.810634  0.810634  0.190547  1
  Er  Er10  1  0.936868  0.566725  0.566725  1
  Er  Er11  1  0.565372  0.935912  0.935912  1
  Er  Er12  1  0.566725  0.936868  0.566725  1
  Er  Er13  1  0.935912  0.565372  0.935912  1
  Er  Er14  1  0.566725  0.566725  0.936868  1
  Er  Er15  1  0.935912  0.935912  0.565372  1
  In  In16  1  0.582955  0.582955  0.582955  1
  Hg  Hg17  1  0.585362  0.585362  0.239661  1
  Hg  Hg18  1  0.585362  0.239661  0.585362  1
  Hg  Hg19  1  0.239661  0.585362  0.585362  1
  Pd  Pd20  1  0.146113  0.146113  0.146113  1
  Pd  Pd21  1  0.143227  0.143227  0.565766  1
  Pd  Pd22  1  0.143227  0.565766  0.143227  1
  Pd  Pd23  1  0.565766  0.143227  0.143227  1
