# generated using pymatgen
data_Ca14VSb11
_symmetry_space_group_name_H-M   'P 1'
_cell_length_a   16.27774188
_cell_length_b   16.27774221
_cell_length_c   16.27774200
_cell_angle_alpha   117.77639621
_cell_angle_beta   117.77639683
_cell_angle_gamma   93.89657149
_symmetry_Int_Tables_number   1
_chemical_formula_structural   Ca14VSb11
_chemical_formula_sum   'Ca56 V4 Sb44'
_cell_volume   3144.40874257
_cell_formula_units_Z   4
loop_
 _symmetry_equiv_pos_site_id
 _symmetry_equiv_pos_as_xyz
  1  'x, y, z'
loop_
 _atom_site_type_symbol
 _atom_site_label
 _atom_site_symmetry_multiplicity
 _atom_site_fract_x
 _atom_site_fract_y
 _atom_site_fract_z
 _atom_site_occupancy
  Ca  Ca0  1  0.745957  0.527405  0.866733  1
  Ca  Ca1  1  0.245957  0.379224  0.218552  1
  Ca  Ca2  1  0.777405  0.495957  0.366733  1
  Ca  Ca3  1  0.277405  0.910672  0.281448  1
  Ca  Ca4  1  0.004043  0.722595  0.633267  1
  Ca  Ca5  1  0.504043  0.870776  0.281448  1
  Ca  Ca6  1  0.972595  0.754043  0.133267  1
  Ca  Ca7  1  0.472595  0.339328  0.218552  1
  Ca  Ca8  1  0.160672  0.027405  0.781448  1
  Ca  Ca9  1  0.660672  0.879224  0.133267  1
  Ca  Ca10  1  0.629224  0.995957  0.718552  1
  Ca  Ca11  1  0.129224  0.410672  0.633267  1
  Ca  Ca12  1  0.589328  0.222595  0.718552  1
  Ca  Ca13  1  0.089328  0.370776  0.366733  1
  Ca  Ca14  1  0.120776  0.254043  0.781448  1
  Ca  Ca15  1  0.620776  0.839328  0.866733  1
  Ca  Ca16  1  0.894160  0.998765  0.150480  1
  Ca  Ca17  1  0.394160  0.243680  0.895395  1
  Ca  Ca18  1  0.248765  0.644160  0.650480  1
  Ca  Ca19  1  0.748765  0.098285  0.604605  1
  Ca  Ca20  1  0.855840  0.251235  0.349520  1
  Ca  Ca21  1  0.355840  0.006320  0.604605  1
  Ca  Ca22  1  0.501235  0.605840  0.849520  1
  Ca  Ca23  1  0.001235  0.151715  0.895395  1
  Ca  Ca24  1  0.348285  0.498765  0.104605  1
  Ca  Ca25  1  0.848285  0.743680  0.849520  1
  Ca  Ca26  1  0.493680  0.144160  0.395395  1
  Ca  Ca27  1  0.993680  0.598285  0.349520  1
  Ca  Ca28  1  0.401715  0.751235  0.395395  1
  Ca  Ca29  1  0.901715  0.506320  0.650480  1
  Ca  Ca30  1  0.256320  0.105840  0.104605  1
  Ca  Ca31  1  0.756320  0.651715  0.150480  1
  Ca  Ca32  1  0.978644  0.375000  0.103644  1
  Ca  Ca33  1  0.478644  0.375000  0.603644  1
  Ca  Ca34  1  0.625000  0.728644  0.603644  1
  Ca  Ca35  1  0.125000  0.521356  0.896356  1
  Ca  Ca36  1  0.771356  0.875000  0.396356  1
  Ca  Ca37  1  0.271356  0.875000  0.896356  1
  Ca  Ca38  1  0.625000  0.228644  0.103644  1
  Ca  Ca39  1  0.125000  0.021356  0.396356  1
  Ca  Ca40  1  0.123015  0.602946  0.161437  1
  Ca  Ca41  1  0.623015  0.461577  0.520069  1
  Ca  Ca42  1  0.852946  0.873015  0.661437  1
  Ca  Ca43  1  0.352946  0.691509  0.979931  1
  Ca  Ca44  1  0.626985  0.647054  0.338563  1
  Ca  Ca45  1  0.126985  0.788423  0.979931  1
  Ca  Ca46  1  0.897054  0.376985  0.838563  1
  Ca  Ca47  1  0.397054  0.558491  0.520069  1
  Ca  Ca48  1  0.941509  0.102946  0.479931  1
  Ca  Ca49  1  0.441509  0.961577  0.838563  1
  Ca  Ca50  1  0.711577  0.373015  0.020069  1
  Ca  Ca51  1  0.211577  0.191509  0.338563  1
  Ca  Ca52  1  0.808491  0.147054  0.020069  1
  Ca  Ca53  1  0.308491  0.288423  0.661437  1
  Ca  Ca54  1  0.038423  0.876985  0.479931  1
  Ca  Ca55  1  0.538423  0.058491  0.161437  1
  V  V56  1  0.500000  0.500000  0.000000  1
  V  V57  1  0.000000  0.000000  0.000000  1
  V  V58  1  0.750000  0.250000  0.500000  1
  V  V59  1  0.250000  0.750000  0.500000  1
  Sb  Sb60  1  0.885728  0.885728  0.271455  1
  Sb  Sb61  1  0.385728  0.114272  0.000000  1
  Sb  Sb62  1  0.135728  0.635728  0.771455  1
  Sb  Sb63  1  0.635728  0.864272  0.500000  1
  Sb  Sb64  1  0.864272  0.364272  0.228545  1
  Sb  Sb65  1  0.364272  0.135728  0.500000  1
  Sb  Sb66  1  0.614272  0.614272  0.728545  1
  Sb  Sb67  1  0.114272  0.385728  0.000000  1
  Sb  Sb68  1  0.174943  0.817531  0.367819  1
  Sb  Sb69  1  0.674943  0.307124  0.357411  1
  Sb  Sb70  1  0.067531  0.924943  0.867819  1
  Sb  Sb71  1  0.567531  0.699712  0.142589  1
  Sb  Sb72  1  0.575057  0.432469  0.132181  1
  Sb  Sb73  1  0.075057  0.942876  0.142589  1
  Sb  Sb74  1  0.682469  0.325057  0.632181  1
  Sb  Sb75  1  0.182469  0.550288  0.357411  1
  Sb  Sb76  1  0.949712  0.317531  0.642589  1
  Sb  Sb77  1  0.449712  0.807124  0.632181  1
  Sb  Sb78  1  0.557124  0.424943  0.857411  1
  Sb  Sb79  1  0.057124  0.199712  0.132181  1
  Sb  Sb80  1  0.800288  0.932469  0.857411  1
  Sb  Sb81  1  0.300288  0.442876  0.867819  1
  Sb  Sb82  1  0.192876  0.825057  0.642589  1
  Sb  Sb83  1  0.692876  0.050288  0.367819  1
  Sb  Sb84  1  0.958000  0.604603  0.906589  1
  Sb  Sb85  1  0.458000  0.551410  0.353396  1
  Sb  Sb86  1  0.854603  0.708000  0.406589  1
  Sb  Sb87  1  0.354603  0.948014  0.146604  1
  Sb  Sb88  1  0.792000  0.645397  0.593411  1
  Sb  Sb89  1  0.292000  0.698590  0.146604  1
  Sb  Sb90  1  0.895397  0.542000  0.093411  1
  Sb  Sb91  1  0.395397  0.301986  0.353396  1
  Sb  Sb92  1  0.198014  0.104603  0.646604  1
  Sb  Sb93  1  0.698014  0.051410  0.093411  1
  Sb  Sb94  1  0.801410  0.208000  0.853396  1
  Sb  Sb95  1  0.301410  0.448014  0.593411  1
  Sb  Sb96  1  0.551986  0.145397  0.853396  1
  Sb  Sb97  1  0.051986  0.198590  0.406589  1
  Sb  Sb98  1  0.948590  0.042000  0.646604  1
  Sb  Sb99  1  0.448590  0.801986  0.906589  1
  Sb  Sb100  1  0.750000  0.750000  0.000000  1
  Sb  Sb101  1  0.250000  0.250000  0.000000  1
  Sb  Sb102  1  0.000000  0.500000  0.500000  1
  Sb  Sb103  1  0.500000  0.000000  0.500000  1
