# generated using pymatgen
data_Tb3In4NiIr
_symmetry_space_group_name_H-M   'P 1'
_cell_length_a   7.92593000
_cell_length_b   7.92592987
_cell_length_c   3.73755700
_cell_angle_alpha   90.00000000
_cell_angle_beta   90.00000000
_cell_angle_gamma   120.00000889
_symmetry_Int_Tables_number   1
_chemical_formula_structural   Tb3In4NiIr
_chemical_formula_sum   'Tb3 In4 Ni1 Ir1'
_cell_volume   203.33815333
_cell_formula_units_Z   1
loop_
 _symmetry_equiv_pos_site_id
 _symmetry_equiv_pos_as_xyz
  1  'x, y, z'
loop_
 _atom_site_type_symbol
 _atom_site_label
 _atom_site_symmetry_multiplicity
 _atom_site_fract_x
 _atom_site_fract_y
 _atom_site_fract_z
 _atom_site_occupancy
  Tb  Tb0  1  0.417709  0.384166  0.000000  1
  Tb  Tb1  1  0.615834  0.033543  0.000000  1
  Tb  Tb2  1  0.966457  0.582291  0.000000  1
  In  In3  1  0.000377  0.248539  0.500000  1
  In  In4  1  0.751461  0.751838  0.500000  1
  In  In5  1  0.248162  0.999623  0.500000  1
  In  In6  1  0.333333  0.666667  0.500000  1
  Ni  Ni7  1  0.000000  0.000000  0.000000  1
  Ir  Ir8  1  0.666667  0.333333  0.500000  1
