# generated using pymatgen
data_ThPaN3
_symmetry_space_group_name_H-M   'P 1'
_cell_length_a   5.96411200
_cell_length_b   6.11154900
_cell_length_c   8.72860600
_cell_angle_alpha   90.00000000
_cell_angle_beta   90.00000000
_cell_angle_gamma   90.00000000
_symmetry_Int_Tables_number   1
_chemical_formula_structural   ThPaN3
_chemical_formula_sum   'Th4 Pa4 N12'
_cell_volume   318.15736338
_cell_formula_units_Z   4
loop_
 _symmetry_equiv_pos_site_id
 _symmetry_equiv_pos_as_xyz
  1  'x, y, z'
loop_
 _atom_site_type_symbol
 _atom_site_label
 _atom_site_symmetry_multiplicity
 _atom_site_fract_x
 _atom_site_fract_y
 _atom_site_fract_z
 _atom_site_occupancy
  Th  Th0  1  0.509831  0.543563  0.250000  1
  Th  Th1  1  0.990169  0.043563  0.250000  1
  Th  Th2  1  0.490169  0.456437  0.750000  1
  Th  Th3  1  0.009831  0.956437  0.750000  1
  Pa  Pa4  1  0.000000  0.500000  0.000000  1
  Pa  Pa5  1  0.500000  0.000000  0.500000  1
  Pa  Pa6  1  0.000000  0.500000  0.500000  1
  Pa  Pa7  1  0.500000  0.000000  0.000000  1
  N  N8  1  0.370921  0.938949  0.250000  1
  N  N9  1  0.129079  0.438949  0.250000  1
  N  N10  1  0.629079  0.061051  0.750000  1
  N  N11  1  0.870921  0.561051  0.750000  1
  N  N12  1  0.808238  0.812337  0.068529  1
  N  N13  1  0.691762  0.312337  0.431471  1
  N  N14  1  0.191762  0.187663  0.568529  1
  N  N15  1  0.308238  0.687663  0.931471  1
  N  N16  1  0.191762  0.187663  0.931471  1
  N  N17  1  0.308238  0.687663  0.568529  1
  N  N18  1  0.808238  0.812337  0.431471  1
  N  N19  1  0.691762  0.312337  0.068529  1
