# generated using pymatgen
data_La12NdYPt6
_symmetry_space_group_name_H-M   'P 1'
_cell_length_a   10.33096800
_cell_length_b   10.33096873
_cell_length_c   6.54351900
_cell_angle_alpha   90.00000000
_cell_angle_beta   90.00000000
_cell_angle_gamma   120.00000406
_symmetry_Int_Tables_number   1
_chemical_formula_structural   La12NdYPt6
_chemical_formula_sum   'La12 Nd1 Y1 Pt6'
_cell_volume   604.81707714
_cell_formula_units_Z   1
loop_
 _symmetry_equiv_pos_site_id
 _symmetry_equiv_pos_as_xyz
  1  'x, y, z'
loop_
 _atom_site_type_symbol
 _atom_site_label
 _atom_site_symmetry_multiplicity
 _atom_site_fract_x
 _atom_site_fract_y
 _atom_site_fract_z
 _atom_site_occupancy
  La  La0  1  0.871582  0.743162  0.750346  1
  La  La1  1  0.256838  0.128418  0.750346  1
  La  La2  1  0.871582  0.128418  0.750346  1
  La  La3  1  0.127873  0.255748  0.251383  1
  La  La4  1  0.744252  0.872127  0.251383  1
  La  La5  1  0.127873  0.872127  0.251383  1
  La  La6  1  0.462013  0.924027  0.562189  1
  La  La7  1  0.075973  0.537987  0.562189  1
  La  La8  1  0.462013  0.537987  0.562189  1
  La  La9  1  0.538477  0.076954  0.061550  1
  La  La10  1  0.923046  0.461523  0.061550  1
  La  La11  1  0.538477  0.461523  0.061550  1
  Nd  Nd12  1  0.333333  0.666667  0.041339  1
  Y  Y13  1  0.666667  0.333333  0.538266  1
  Pt  Pt14  1  0.188207  0.376416  0.808983  1
  Pt  Pt15  1  0.623584  0.811793  0.808983  1
  Pt  Pt16  1  0.188207  0.811793  0.808983  1
  Pt  Pt17  1  0.810907  0.621813  0.310523  1
  Pt  Pt18  1  0.378187  0.189093  0.310523  1
  Pt  Pt19  1  0.810907  0.189093  0.310523  1
