# generated using pymatgen
data_Nd3YAl16(SiIr3)2
_symmetry_space_group_name_H-M   'P 1'
_cell_length_a   7.58845700
_cell_length_b   7.59346634
_cell_length_c   9.45343500
_cell_angle_alpha   90.00000000
_cell_angle_beta   90.00000000
_cell_angle_gamma   119.63912844
_symmetry_Int_Tables_number   1
_chemical_formula_structural   Nd3YAl16(SiIr3)2
_chemical_formula_sum   'Nd3 Y1 Al16 Si2 Ir6'
_cell_volume   473.45818179
_cell_formula_units_Z   1
loop_
 _symmetry_equiv_pos_site_id
 _symmetry_equiv_pos_as_xyz
  1  'x, y, z'
loop_
 _atom_site_type_symbol
 _atom_site_label
 _atom_site_symmetry_multiplicity
 _atom_site_fract_x
 _atom_site_fract_y
 _atom_site_fract_z
 _atom_site_occupancy
  Nd  Nd0  1  0.995183  0.674735  0.250000  1
  Nd  Nd1  1  0.005286  0.325382  0.750000  1
  Nd  Nd2  1  0.674538  0.994670  0.250000  1
  Y  Y3  1  0.324737  0.005171  0.750000  1
  Al  Al4  1  0.002832  0.336429  0.074317  1
  Al  Al5  1  0.998589  0.664910  0.923425  1
  Al  Al6  1  0.998589  0.664910  0.576575  1
  Al  Al7  1  0.336386  0.002694  0.427547  1
  Al  Al8  1  0.002832  0.336429  0.425683  1
  Al  Al9  1  0.662102  0.997624  0.576389  1
  Al  Al10  1  0.662102  0.997624  0.923611  1
  Al  Al11  1  0.336386  0.002694  0.072453  1
  Al  Al12  1  0.336579  0.335537  0.555514  1
  Al  Al13  1  0.663323  0.663341  0.447784  1
  Al  Al14  1  0.663323  0.663341  0.052216  1
  Al  Al15  1  0.336579  0.335537  0.944486  1
  Al  Al16  1  0.335897  0.546805  0.250000  1
  Al  Al17  1  0.662254  0.450844  0.750000  1
  Al  Al18  1  0.546163  0.334732  0.250000  1
  Al  Al19  1  0.452643  0.665484  0.750000  1
  Si  Si20  1  0.131924  0.131064  0.250000  1
  Si  Si21  1  0.870715  0.869531  0.750000  1
  Ir  Ir22  1  0.670622  0.328684  0.999331  1
  Ir  Ir23  1  0.329063  0.671397  0.999367  1
  Ir  Ir24  1  0.329063  0.671397  0.500633  1
  Ir  Ir25  1  0.670622  0.328684  0.500669  1
  Ir  Ir26  1  0.000833  0.000173  0.998840  1
  Ir  Ir27  1  0.000833  0.000173  0.501160  1
