# generated using pymatgen
data_Pr4Hf3TcF28
_symmetry_space_group_name_H-M   'P 1'
_cell_length_a   5.83227551
_cell_length_b   9.33569418
_cell_length_c   12.52497474
_cell_angle_alpha   61.94139853
_cell_angle_beta   89.96617691
_cell_angle_gamma   89.97346755
_symmetry_Int_Tables_number   1
_chemical_formula_structural   Pr4Hf3TcF28
_chemical_formula_sum   'Pr4 Hf3 Tc1 F28'
_cell_volume   601.81065960
_cell_formula_units_Z   1
loop_
 _symmetry_equiv_pos_site_id
 _symmetry_equiv_pos_as_xyz
  1  'x, y, z'
loop_
 _atom_site_type_symbol
 _atom_site_label
 _atom_site_symmetry_multiplicity
 _atom_site_fract_x
 _atom_site_fract_y
 _atom_site_fract_z
 _atom_site_occupancy
  Pr  Pr0  1  0.757729  0.813082  0.764389  1
  Pr  Pr1  1  0.257107  0.188310  0.732503  1
  Pr  Pr2  1  0.241478  0.188042  0.237627  1
  Pr  Pr3  1  0.742810  0.810651  0.266202  1
  Hf  Hf4  1  0.754534  0.274045  0.957003  1
  Hf  Hf5  1  0.255388  0.725412  0.543285  1
  Hf  Hf6  1  0.245286  0.725991  0.043160  1
  Tc  Tc7  1  0.742988  0.273918  0.456654  1
  F  F8  1  0.454064  0.711419  0.921476  1
  F  F9  1  0.939555  0.289292  0.578331  1
  F  F10  1  0.543075  0.287749  0.078177  1
  F  F11  1  0.048209  0.711882  0.420958  1
  F  F12  1  0.462373  0.282538  0.541668  1
  F  F13  1  0.961859  0.718868  0.953363  1
  F  F14  1  0.539951  0.715988  0.455301  1
  F  F15  1  0.035526  0.281480  0.048287  1
  F  F16  1  0.768357  0.517222  0.861845  1
  F  F17  1  0.266545  0.482196  0.637362  1
  F  F18  1  0.230098  0.483086  0.139324  1
  F  F19  1  0.735029  0.512126  0.362095  1
  F  F20  1  0.760428  0.031485  0.056040  1
  F  F21  1  0.263237  0.967989  0.446167  1
  F  F22  1  0.239093  0.968394  0.942959  1
  F  F23  1  0.739958  0.035975  0.550909  1
  F  F24  1  0.983186  0.731586  0.639091  1
  F  F25  1  0.486685  0.267711  0.858610  1
  F  F26  1  0.015584  0.268849  0.365940  1
  F  F27  1  0.516032  0.731974  0.139733  1
  F  F28  1  0.045412  0.745402  0.167112  1
  F  F29  1  0.551240  0.258706  0.332466  1
  F  F30  1  0.959115  0.255798  0.833680  1
  F  F31  1  0.455842  0.743024  0.667869  1
  F  F32  1  0.414093  0.968322  0.233639  1
  F  F33  1  0.914199  0.030776  0.270190  1
  F  F34  1  0.585919  0.032742  0.767353  1
  F  F35  1  0.088015  0.967970  0.729238  1
