# generated using pymatgen
data_Er13Tm7Ir7Au5
_symmetry_space_group_name_H-M   'P 1'
_cell_length_a   11.04126364
_cell_length_b   11.04521586
_cell_length_c   6.32032711
_cell_angle_alpha   89.89624367
_cell_angle_beta   89.87111592
_cell_angle_gamma   89.57586700
_symmetry_Int_Tables_number   1
_chemical_formula_structural   Er13Tm7Ir7Au5
_chemical_formula_sum   'Er13 Tm7 Ir7 Au5'
_cell_volume   770.75942950
_cell_formula_units_Z   1
loop_
 _symmetry_equiv_pos_site_id
 _symmetry_equiv_pos_as_xyz
  1  'x, y, z'
loop_
 _atom_site_type_symbol
 _atom_site_label
 _atom_site_symmetry_multiplicity
 _atom_site_fract_x
 _atom_site_fract_y
 _atom_site_fract_z
 _atom_site_occupancy
  Er  Er0  1  0.299892  0.090459  0.365137  1
  Er  Er1  1  0.301424  0.907984  0.862681  1
  Er  Er2  1  0.697682  0.080314  0.861007  1
  Er  Er3  1  0.698042  0.906681  0.361980  1
  Er  Er4  1  0.580800  0.785989  0.876219  1
  Er  Er5  1  0.575439  0.206256  0.364134  1
  Er  Er6  1  0.418489  0.789595  0.375898  1
  Er  Er7  1  0.411662  0.207462  0.879267  1
  Er  Er8  1  0.213583  0.419231  0.623737  1
  Er  Er9  1  0.210143  0.581406  0.124054  1
  Er  Er10  1  0.794082  0.424366  0.135974  1
  Er  Er11  1  0.792818  0.588112  0.620765  1
  Er  Er12  1  0.909921  0.699992  0.134744  1
  Tm  Tm13  1  0.920079  0.302796  0.638683  1
  Tm  Tm14  1  0.091848  0.698063  0.636967  1
  Tm  Tm15  1  0.093152  0.302451  0.137767  1
  Tm  Tm16  1  0.998898  0.000149  0.499363  1
  Tm  Tm17  1  0.999949  0.001285  0.000879  1
  Tm  Tm18  1  0.495817  0.502249  0.001873  1
  Tm  Tm19  1  0.497617  0.504151  0.498226  1
  Ir  Ir20  1  0.652867  0.651218  0.249953  1
  Ir  Ir21  1  0.348517  0.347083  0.249999  1
  Ir  Ir22  1  0.345520  0.654234  0.749875  1
  Ir  Ir23  1  0.499456  0.999309  0.112864  1
  Ir  Ir24  1  0.499350  0.000165  0.614750  1
  Ir  Ir25  1  0.999940  0.500478  0.885044  1
  Ir  Ir26  1  0.000751  0.500370  0.387106  1
  Au  Au27  1  0.842252  0.158153  0.250377  1
  Au  Au28  1  0.844268  0.845602  0.750615  1
  Au  Au29  1  0.153953  0.156248  0.749695  1
  Au  Au30  1  0.155941  0.843735  0.250500  1
  Au  Au31  1  0.655847  0.344412  0.749867  1
