# generated using pymatgen
data_Eu6Th2SbPd24
_symmetry_space_group_name_H-M   'P 1'
_cell_length_a   8.51122900
_cell_length_b   8.54320062
_cell_length_c   8.54320062
_cell_angle_alpha   90.08972083
_cell_angle_beta   90.00000000
_cell_angle_gamma   90.00000000
_symmetry_Int_Tables_number   1
_chemical_formula_structural   Eu6Th2SbPd24
_chemical_formula_sum   'Eu6 Th2 Sb1 Pd24'
_cell_volume   621.20215416
_cell_formula_units_Z   1
loop_
 _symmetry_equiv_pos_site_id
 _symmetry_equiv_pos_as_xyz
  1  'x, y, z'
loop_
 _atom_site_type_symbol
 _atom_site_label
 _atom_site_symmetry_multiplicity
 _atom_site_fract_x
 _atom_site_fract_y
 _atom_site_fract_z
 _atom_site_occupancy
  Eu  Eu0  1  0.251210  0.748779  0.748779  1
  Eu  Eu1  1  0.748523  0.750022  0.750022  1
  Eu  Eu2  1  0.748523  0.249978  0.249978  1
  Eu  Eu3  1  0.250842  0.252715  0.747285  1
  Eu  Eu4  1  0.250842  0.747285  0.252715  1
  Eu  Eu5  1  0.251210  0.251221  0.251221  1
  Th  Th6  1  0.744312  0.744320  0.255680  1
  Th  Th7  1  0.744312  0.255680  0.744320  1
  Sb  Sb8  1  0.004990  0.000000  0.000000  1
  Pd  Pd9  1  0.998678  0.997194  0.310109  1
  Pd  Pd10  1  0.734256  0.000000  0.500000  1
  Pd  Pd11  1  0.734256  0.500000  0.000000  1
  Pd  Pd12  1  0.502962  0.004438  0.733974  1
  Pd  Pd13  1  0.995740  0.734022  0.499126  1
  Pd  Pd14  1  0.502962  0.995562  0.266026  1
  Pd  Pd15  1  0.995740  0.265978  0.500874  1
  Pd  Pd16  1  0.502962  0.733974  0.004438  1
  Pd  Pd17  1  0.254446  0.500000  0.500000  1
  Pd  Pd18  1  0.502309  0.499243  0.744836  1
  Pd  Pd19  1  0.502309  0.500757  0.255164  1
  Pd  Pd20  1  0.502309  0.255164  0.500757  1
  Pd  Pd21  1  0.502309  0.744836  0.499243  1
  Pd  Pd22  1  0.743775  0.500000  0.500000  1
  Pd  Pd23  1  0.313516  0.000000  0.000000  1
  Pd  Pd24  1  0.998678  0.002806  0.689891  1
  Pd  Pd25  1  0.995740  0.500874  0.265978  1
  Pd  Pd26  1  0.998678  0.310109  0.997194  1
  Pd  Pd27  1  0.998678  0.689891  0.002806  1
  Pd  Pd28  1  0.692514  0.000000  0.000000  1
  Pd  Pd29  1  0.266859  0.500000  0.000000  1
  Pd  Pd30  1  0.266859  0.000000  0.500000  1
  Pd  Pd31  1  0.995740  0.499126  0.734022  1
  Pd  Pd32  1  0.502962  0.266026  0.995562  1
