# generated using pymatgen
data_CeEr2BePd5
_symmetry_space_group_name_H-M   'P 1'
_cell_length_a   8.11300611
_cell_length_b   8.11300599
_cell_length_c   8.11300625
_cell_angle_alpha   127.75896468
_cell_angle_beta   124.74754380
_cell_angle_gamma   79.49608845
_symmetry_Int_Tables_number   1
_chemical_formula_structural   CeEr2BePd5
_chemical_formula_sum   'Ce2 Er4 Be2 Pd10'
_cell_volume   335.27666844
_cell_formula_units_Z   2
loop_
 _symmetry_equiv_pos_site_id
 _symmetry_equiv_pos_as_xyz
  1  'x, y, z'
loop_
 _atom_site_type_symbol
 _atom_site_label
 _atom_site_symmetry_multiplicity
 _atom_site_fract_x
 _atom_site_fract_y
 _atom_site_fract_z
 _atom_site_occupancy
  Ce  Ce0  1  0.396925  0.250000  0.146925  1
  Ce  Ce1  1  0.603075  0.750000  0.853075  1
  Er  Er2  1  0.220122  0.446244  0.773878  1
  Er  Er3  1  0.779878  0.553756  0.226122  1
  Er  Er4  1  0.827633  0.053756  0.773878  1
  Er  Er5  1  0.172367  0.946244  0.226122  1
  Be  Be6  1  0.794138  0.250000  0.544138  1
  Be  Be7  1  0.205862  0.750000  0.455862  1
  Pd  Pd8  1  0.169238  0.403009  0.353460  1
  Pd  Pd9  1  0.830762  0.184221  0.233770  1
  Pd  Pd10  1  0.450451  0.096991  0.766230  1
  Pd  Pd11  1  0.549549  0.315779  0.646540  1
  Pd  Pd12  1  0.000000  0.500000  0.000000  1
  Pd  Pd13  1  0.000000  0.000000  0.500000  1
  Pd  Pd14  1  0.450451  0.684221  0.353460  1
  Pd  Pd15  1  0.549549  0.903009  0.233770  1
  Pd  Pd16  1  0.169238  0.815779  0.766230  1
  Pd  Pd17  1  0.830762  0.596991  0.646540  1
