# generated using pymatgen
data_Tb10Hg3Ir
_symmetry_space_group_name_H-M   'P 1'
_cell_length_a   9.70641204
_cell_length_b   9.70644727
_cell_length_c   9.71706100
_cell_angle_alpha   90.00000000
_cell_angle_beta   90.00000000
_cell_angle_gamma   119.99232275
_symmetry_Int_Tables_number   1
_chemical_formula_structural   Tb10Hg3Ir
_chemical_formula_sum   'Tb20 Hg6 Ir2'
_cell_volume   792.89955841
_cell_formula_units_Z   2
loop_
 _symmetry_equiv_pos_site_id
 _symmetry_equiv_pos_as_xyz
  1  'x, y, z'
loop_
 _atom_site_type_symbol
 _atom_site_label
 _atom_site_symmetry_multiplicity
 _atom_site_fract_x
 _atom_site_fract_y
 _atom_site_fract_z
 _atom_site_occupancy
  Tb  Tb0  1  0.000000  0.000000  0.500000  1
  Tb  Tb1  1  0.000000  0.000000  0.000000  1
  Tb  Tb2  1  0.208597  0.791404  0.440460  1
  Tb  Tb3  1  0.208599  0.417200  0.440454  1
  Tb  Tb4  1  0.582798  0.791400  0.440454  1
  Tb  Tb5  1  0.791403  0.208596  0.559540  1
  Tb  Tb6  1  0.791401  0.582800  0.559546  1
  Tb  Tb7  1  0.417202  0.208600  0.559546  1
  Tb  Tb8  1  0.791403  0.208596  0.940460  1
  Tb  Tb9  1  0.791401  0.582800  0.940454  1
  Tb  Tb10  1  0.417202  0.208600  0.940454  1
  Tb  Tb11  1  0.208597  0.791404  0.059540  1
  Tb  Tb12  1  0.208599  0.417200  0.059546  1
  Tb  Tb13  1  0.582798  0.791400  0.059546  1
  Tb  Tb14  1  0.541182  0.458816  0.250000  1
  Tb  Tb15  1  0.541192  0.082381  0.250000  1
  Tb  Tb16  1  0.917618  0.458809  0.250000  1
  Tb  Tb17  1  0.458818  0.541184  0.750000  1
  Tb  Tb18  1  0.458808  0.917619  0.750000  1
  Tb  Tb19  1  0.082382  0.541191  0.750000  1
  Hg  Hg20  1  0.881015  0.118987  0.250000  1
  Hg  Hg21  1  0.881002  0.762021  0.250000  1
  Hg  Hg22  1  0.237979  0.118997  0.250000  1
  Hg  Hg23  1  0.118985  0.881013  0.750000  1
  Hg  Hg24  1  0.118998  0.237979  0.750000  1
  Hg  Hg25  1  0.762021  0.881003  0.750000  1
  Ir  Ir26  1  0.333348  0.666653  0.250000  1
  Ir  Ir27  1  0.666652  0.333347  0.750000  1
