# generated using pymatgen
data_Ce2Nd3Os2
_symmetry_space_group_name_H-M   'P 1'
_cell_length_a   8.97904150
_cell_length_b   8.97904166
_cell_length_c   7.26691127
_cell_angle_alpha   85.29943233
_cell_angle_beta   85.29943295
_cell_angle_gamma   42.78890296
_symmetry_Int_Tables_number   1
_chemical_formula_structural   Ce2Nd3Os2
_chemical_formula_sum   'Ce4 Nd6 Os4'
_cell_volume   396.44438468
_cell_formula_units_Z   2
loop_
 _symmetry_equiv_pos_site_id
 _symmetry_equiv_pos_as_xyz
  1  'x, y, z'
loop_
 _atom_site_type_symbol
 _atom_site_label
 _atom_site_symmetry_multiplicity
 _atom_site_fract_x
 _atom_site_fract_y
 _atom_site_fract_z
 _atom_site_occupancy
  Ce  Ce0  1  0.008964  0.809817  0.905053  1
  Ce  Ce1  1  0.190183  0.991036  0.594947  1
  Ce  Ce2  1  0.991036  0.190183  0.094947  1
  Ce  Ce3  1  0.809817  0.008964  0.405053  1
  Nd  Nd4  1  0.350770  0.216701  0.824842  1
  Nd  Nd5  1  0.783299  0.649230  0.675158  1
  Nd  Nd6  1  0.649230  0.783299  0.175158  1
  Nd  Nd7  1  0.216701  0.350770  0.324842  1
  Nd  Nd8  1  0.576914  0.423086  0.750000  1
  Nd  Nd9  1  0.423086  0.576914  0.250000  1
  Os  Os10  1  0.148347  0.635217  0.589367  1
  Os  Os11  1  0.364783  0.851653  0.910633  1
  Os  Os12  1  0.851653  0.364783  0.410633  1
  Os  Os13  1  0.635217  0.148347  0.089367  1
