# generated using pymatgen
data_CaTbY6(B6Os)4
_symmetry_space_group_name_H-M   'P 1'
_cell_length_a   3.66184100
_cell_length_b   9.18049898
_cell_length_c   11.57147006
_cell_angle_alpha   89.89400755
_cell_angle_beta   90.00000000
_cell_angle_gamma   90.00000000
_symmetry_Int_Tables_number   1
_chemical_formula_structural   CaTbY6(B6Os)4
_chemical_formula_sum   'Ca1 Tb1 Y6 B24 Os4'
_cell_volume   389.00354811
_cell_formula_units_Z   1
loop_
 _symmetry_equiv_pos_site_id
 _symmetry_equiv_pos_as_xyz
  1  'x, y, z'
loop_
 _atom_site_type_symbol
 _atom_site_label
 _atom_site_symmetry_multiplicity
 _atom_site_fract_x
 _atom_site_fract_y
 _atom_site_fract_z
 _atom_site_occupancy
  Ca  Ca0  1  0.000000  0.322149  0.413561  1
  Tb  Tb1  1  0.000000  0.676195  0.585334  1
  Y  Y2  1  0.000000  0.822203  0.086515  1
  Y  Y3  1  0.000000  0.178364  0.914488  1
  Y  Y4  1  0.000000  0.943988  0.371610  1
  Y  Y5  1  0.000000  0.057849  0.627604  1
  Y  Y6  1  0.000000  0.442914  0.128673  1
  Y  Y7  1  0.000000  0.556313  0.872911  1
  B  B8  1  0.500000  0.554137  0.432202  1
  B  B9  1  0.500000  0.446173  0.567961  1
  B  B10  1  0.500000  0.053201  0.066610  1
  B  B11  1  0.500000  0.945996  0.932541  1
  B  B12  1  0.500000  0.747845  0.418576  1
  B  B13  1  0.500000  0.252682  0.581697  1
  B  B14  1  0.500000  0.246921  0.080651  1
  B  B15  1  0.500000  0.752456  0.919429  1
  B  B16  1  0.500000  0.790887  0.265908  1
  B  B17  1  0.500000  0.210137  0.734317  1
  B  B18  1  0.500000  0.289289  0.232927  1
  B  B19  1  0.500000  0.710076  0.766877  1
  B  B20  1  0.500000  0.631859  0.186073  1
  B  B21  1  0.500000  0.368506  0.814959  1
  B  B22  1  0.500000  0.130932  0.313065  1
  B  B23  1  0.500000  0.868800  0.685971  1
  B  B24  1  0.500000  0.983303  0.211521  1
  B  B25  1  0.500000  0.016630  0.787623  1
  B  B26  1  0.500000  0.484050  0.287396  1
  B  B27  1  0.500000  0.516179  0.713024  1
  B  B28  1  0.500000  0.608367  0.030248  1
  B  B29  1  0.500000  0.391816  0.970387  1
  B  B30  1  0.500000  0.104069  0.470984  1
  B  B31  1  0.500000  0.894932  0.529159  1
  Os  Os32  1  0.000000  0.639351  0.320588  1
  Os  Os33  1  0.000000  0.362592  0.680269  1
  Os  Os34  1  0.000000  0.135972  0.176826  1
  Os  Os35  1  0.000000  0.862866  0.821518  1
