# generated using pymatgen
data_Re5Tc(Te4I)2
_symmetry_space_group_name_H-M   'P 1'
_cell_length_a   12.82031500
_cell_length_b   7.07543871
_cell_length_c   12.21545959
_cell_angle_alpha   66.87838625
_cell_angle_beta   90.00000000
_cell_angle_gamma   90.00000000
_symmetry_Int_Tables_number   1
_chemical_formula_structural   Re5Tc(Te4I)2
_chemical_formula_sum   'Re10 Tc2 Te16 I4'
_cell_volume   1019.05006301
_cell_formula_units_Z   2
loop_
 _symmetry_equiv_pos_site_id
 _symmetry_equiv_pos_as_xyz
  1  'x, y, z'
loop_
 _atom_site_type_symbol
 _atom_site_label
 _atom_site_symmetry_multiplicity
 _atom_site_fract_x
 _atom_site_fract_y
 _atom_site_fract_z
 _atom_site_occupancy
  Re  Re0  1  0.568450  0.022795  0.356089  1
  Re  Re1  1  0.931550  0.022795  0.856089  1
  Re  Re2  1  0.431615  0.976966  0.643996  1
  Re  Re3  1  0.068385  0.976966  0.143996  1
  Re  Re4  1  0.367028  0.971265  0.436348  1
  Re  Re5  1  0.132972  0.971265  0.936348  1
  Re  Re6  1  0.633008  0.028619  0.563602  1
  Re  Re7  1  0.866992  0.028619  0.063602  1
  Re  Re8  1  0.517054  0.712507  0.559372  1
  Re  Re9  1  0.982946  0.712507  0.059372  1
  Tc  Tc10  1  0.482683  0.290693  0.440124  1
  Tc  Tc11  1  0.017317  0.290693  0.940124  1
  Te  Te12  1  0.448265  0.718884  0.337008  1
  Te  Te13  1  0.051735  0.718884  0.837008  1
  Te  Te14  1  0.551450  0.280975  0.662225  1
  Te  Te15  1  0.948550  0.280975  0.162225  1
  Te  Te16  1  0.319143  0.652766  0.644529  1
  Te  Te17  1  0.180857  0.652766  0.144529  1
  Te  Te18  1  0.680046  0.345998  0.355769  1
  Te  Te19  1  0.819954  0.345998  0.855769  1
  Te  Te20  1  0.417389  0.286004  0.229524  1
  Te  Te21  1  0.082611  0.286004  0.729524  1
  Te  Te22  1  0.582816  0.712973  0.771519  1
  Te  Te23  1  0.917184  0.712973  0.271519  1
  Te  Te24  1  0.717540  0.755745  0.483387  1
  Te  Te25  1  0.782460  0.755745  0.983387  1
  Te  Te26  1  0.283110  0.243186  0.516631  1
  Te  Te27  1  0.216890  0.243186  0.016631  1
  I  I28  1  0.156685  0.915478  0.371244  1
  I  I29  1  0.343315  0.915478  0.871244  1
  I  I30  1  0.843280  0.085145  0.628633  1
  I  I31  1  0.656720  0.085145  0.128633  1
