# generated using pymatgen
data_Sr6Tc2O11
_symmetry_space_group_name_H-M   'P 1'
_cell_length_a   5.98038350
_cell_length_b   5.97718941
_cell_length_c   23.84486371
_cell_angle_alpha   58.43192212
_cell_angle_beta   58.89834836
_cell_angle_gamma   60.30292970
_symmetry_Int_Tables_number   1
_chemical_formula_structural   Sr6Tc2O11
_chemical_formula_sum   'Sr12 Tc4 O22'
_cell_volume   591.52029527
_cell_formula_units_Z   2
loop_
 _symmetry_equiv_pos_site_id
 _symmetry_equiv_pos_as_xyz
  1  'x, y, z'
loop_
 _atom_site_type_symbol
 _atom_site_label
 _atom_site_symmetry_multiplicity
 _atom_site_fract_x
 _atom_site_fract_y
 _atom_site_fract_z
 _atom_site_occupancy
  Sr  Sr0  1  0.104967  0.332271  0.079688  1
  Sr  Sr1  1  0.431254  0.617393  0.108182  1
  Sr  Sr2  1  0.168384  0.366063  0.289878  1
  Sr  Sr3  1  0.364270  0.550832  0.388295  1
  Sr  Sr4  1  0.614827  0.813046  0.206180  1
  Sr  Sr5  1  0.229387  0.242786  0.578928  1
  Sr  Sr6  1  0.509694  0.520132  0.608645  1
  Sr  Sr7  1  0.239650  0.284690  0.791026  1
  Sr  Sr8  1  0.647037  0.871955  0.417306  1
  Sr  Sr9  1  0.455223  0.473172  0.888642  1
  Sr  Sr10  1  0.697289  0.735223  0.706635  1
  Sr  Sr11  1  0.728300  0.755604  0.917707  1
  Tc  Tc12  1  0.975355  0.006507  0.748431  1
  Tc  Tc13  1  0.003376  0.044119  0.998822  1
  Tc  Tc14  1  0.895698  0.088423  0.248450  1
  Tc  Tc15  1  0.938585  0.964209  0.498033  1
  O  O16  1  0.079922  0.384477  0.184994  1
  O  O17  1  0.192349  0.859298  0.189529  1
  O  O18  1  0.797119  0.374698  0.028768  1
  O  O19  1  0.787385  0.835050  0.078456  1
  O  O20  1  0.667612  0.248812  0.189689  1
  O  O21  1  0.605400  0.330281  0.303225  1
  O  O22  1  0.143316  0.183175  0.418201  1
  O  O23  1  0.114760  0.924448  0.310344  1
  O  O24  1  0.720438  0.783614  0.312680  1
  O  O25  1  0.607082  0.173568  0.467581  1
  O  O26  1  0.734391  0.055718  0.577495  1
  O  O27  1  0.153214  0.786718  0.685345  1
  O  O28  1  0.270259  0.714812  0.528450  1
  O  O29  1  0.323461  0.044800  0.998780  1
  O  O30  1  0.937680  0.644198  0.498091  1
  O  O31  1  0.768155  0.321399  0.684539  1
  O  O32  1  0.273754  0.178387  0.693645  1
  O  O33  1  0.796350  0.218747  0.811464  1
  O  O34  1  0.251890  0.713583  0.968652  1
  O  O35  1  0.194543  0.696221  0.810574  1
  O  O36  1  0.666596  0.841541  0.805235  1
  O  O37  1  0.906530  0.251526  0.919631  1
