# generated using pymatgen
data_Tb2HoAl3Ga2Pd
_symmetry_space_group_name_H-M   'P 1'
_cell_length_a   6.97375513
_cell_length_b   6.98064260
_cell_length_c   4.34718200
_cell_angle_alpha   90.00000000
_cell_angle_beta   90.00000000
_cell_angle_gamma   120.03267185
_symmetry_Int_Tables_number   1
_chemical_formula_structural   Tb2HoAl3Ga2Pd
_chemical_formula_sum   'Tb2 Ho1 Al3 Ga2 Pd1'
_cell_volume   183.21350281
_cell_formula_units_Z   1
loop_
 _symmetry_equiv_pos_site_id
 _symmetry_equiv_pos_as_xyz
  1  'x, y, z'
loop_
 _atom_site_type_symbol
 _atom_site_label
 _atom_site_symmetry_multiplicity
 _atom_site_fract_x
 _atom_site_fract_y
 _atom_site_fract_z
 _atom_site_occupancy
  Tb  Tb0  1  0.417308  0.417447  0.500000  1
  Tb  Tb1  1  0.582692  0.000139  0.500000  1
  Ho  Ho2  1  0.000000  0.583188  0.500000  1
  Al  Al3  1  0.764649  0.764397  0.000000  1
  Al  Al4  1  0.235351  0.999748  0.000000  1
  Al  Al5  1  0.000000  0.235844  0.000000  1
  Ga  Ga6  1  0.332552  0.666366  0.000000  1
  Ga  Ga7  1  0.667448  0.333814  0.000000  1
  Pd  Pd8  1  0.000000  0.999056  0.500000  1
