# generated using pymatgen
data_Y10TcHg3
_symmetry_space_group_name_H-M   'P 1'
_cell_length_a   9.60847623
_cell_length_b   9.60206659
_cell_length_c   9.79246000
_cell_angle_alpha   90.00000000
_cell_angle_beta   90.00000000
_cell_angle_gamma   119.99684566
_symmetry_Int_Tables_number   1
_chemical_formula_structural   Y10TcHg3
_chemical_formula_sum   'Y20 Tc2 Hg6'
_cell_volume   782.44798192
_cell_formula_units_Z   2
loop_
 _symmetry_equiv_pos_site_id
 _symmetry_equiv_pos_as_xyz
  1  'x, y, z'
loop_
 _atom_site_type_symbol
 _atom_site_label
 _atom_site_symmetry_multiplicity
 _atom_site_fract_x
 _atom_site_fract_y
 _atom_site_fract_z
 _atom_site_occupancy
  Y  Y0  1  0.000000  0.000000  0.500000  1
  Y  Y1  1  0.000000  0.000000  0.000000  1
  Y  Y2  1  0.209791  0.790291  0.441562  1
  Y  Y3  1  0.209752  0.419409  0.441558  1
  Y  Y4  1  0.580027  0.790007  0.441595  1
  Y  Y5  1  0.790209  0.209709  0.558438  1
  Y  Y6  1  0.790248  0.580591  0.558442  1
  Y  Y7  1  0.419973  0.209993  0.558405  1
  Y  Y8  1  0.790209  0.209709  0.941562  1
  Y  Y9  1  0.790248  0.580591  0.941558  1
  Y  Y10  1  0.419973  0.209993  0.941595  1
  Y  Y11  1  0.209791  0.790291  0.058438  1
  Y  Y12  1  0.209752  0.419409  0.058442  1
  Y  Y13  1  0.580027  0.790007  0.058405  1
  Y  Y14  1  0.539442  0.460502  0.250000  1
  Y  Y15  1  0.539430  0.078954  0.250000  1
  Y  Y16  1  0.921002  0.460521  0.250000  1
  Y  Y17  1  0.460558  0.539498  0.750000  1
  Y  Y18  1  0.460570  0.921046  0.750000  1
  Y  Y19  1  0.078998  0.539479  0.750000  1
  Tc  Tc20  1  0.333329  0.666666  0.250000  1
  Tc  Tc21  1  0.666671  0.333334  0.750000  1
  Hg  Hg22  1  0.881737  0.118640  0.250000  1
  Hg  Hg23  1  0.881725  0.763072  0.250000  1
  Hg  Hg24  1  0.236879  0.118425  0.250000  1
  Hg  Hg25  1  0.118263  0.881360  0.750000  1
  Hg  Hg26  1  0.118275  0.236928  0.750000  1
  Hg  Hg27  1  0.763121  0.881575  0.750000  1
