# generated using pymatgen
data_Zr10Tl4Sn2Se
_symmetry_space_group_name_H-M   'P 1'
_cell_length_a   5.92284185
_cell_length_b   8.73599036
_cell_length_c   8.71582800
_cell_angle_alpha   120.07682072
_cell_angle_beta   90.03075269
_cell_angle_gamma   89.93837613
_symmetry_Int_Tables_number   1
_chemical_formula_structural   Zr10Tl4Sn2Se
_chemical_formula_sum   'Zr10 Tl4 Sn2 Se1'
_cell_volume   390.25152409
_cell_formula_units_Z   1
loop_
 _symmetry_equiv_pos_site_id
 _symmetry_equiv_pos_as_xyz
  1  'x, y, z'
loop_
 _atom_site_type_symbol
 _atom_site_label
 _atom_site_symmetry_multiplicity
 _atom_site_fract_x
 _atom_site_fract_y
 _atom_site_fract_z
 _atom_site_occupancy
  Zr  Zr0  1  0.498621  0.332993  0.664311  1
  Zr  Zr1  1  0.498637  0.668677  0.335679  1
  Zr  Zr2  1  0.001286  0.667950  0.335018  1
  Zr  Zr3  1  0.001304  0.332930  0.664983  1
  Zr  Zr4  1  0.767285  0.250443  0.000028  1
  Zr  Zr5  1  0.765544  0.748925  0.748244  1
  Zr  Zr6  1  0.765552  0.000639  0.251734  1
  Zr  Zr7  1  0.233233  0.750514  0.000018  1
  Zr  Zr8  1  0.234160  0.251969  0.256553  1
  Zr  Zr9  1  0.234152  0.995373  0.743412  1
  Tl  Tl10  1  0.746725  0.607316  0.000039  1
  Tl  Tl11  1  0.746789  0.392664  0.390980  1
  Tl  Tl12  1  0.746793  0.001608  0.608982  1
  Tl  Tl13  1  0.253714  0.389398  0.000031  1
  Sn  Sn14  1  0.253243  0.608127  0.609144  1
  Sn  Sn15  1  0.253225  0.998948  0.390844  1
  Se  Se16  1  0.499737  0.001528  0.999999  1
