# generated using pymatgen
data_La2Al3Re14C3
_symmetry_space_group_name_H-M   'P 1'
_cell_length_a   7.02015975
_cell_length_b   7.02015991
_cell_length_c   7.02016167
_cell_angle_alpha   82.75703997
_cell_angle_beta   82.75702950
_cell_angle_gamma   82.75702818
_symmetry_Int_Tables_number   1
_chemical_formula_structural   La2Al3Re14C3
_chemical_formula_sum   'La2 Al3 Re14 C3'
_cell_volume   338.33203746
_cell_formula_units_Z   1
loop_
 _symmetry_equiv_pos_site_id
 _symmetry_equiv_pos_as_xyz
  1  'x, y, z'
loop_
 _atom_site_type_symbol
 _atom_site_label
 _atom_site_symmetry_multiplicity
 _atom_site_fract_x
 _atom_site_fract_y
 _atom_site_fract_z
 _atom_site_occupancy
  La  La0  1  0.654816  0.654816  0.654816  1
  La  La1  1  0.345184  0.345184  0.345184  1
  Al  Al2  1  0.000000  0.000000  0.500000  1
  Al  Al3  1  0.500000  0.000000  0.000000  1
  Al  Al4  1  0.000000  0.500000  0.000000  1
  Re  Re5  1  0.721760  0.278240  0.000000  1
  Re  Re6  1  0.000000  0.721760  0.278240  1
  Re  Re7  1  0.278240  0.000000  0.721760  1
  Re  Re8  1  0.000000  0.278240  0.721760  1
  Re  Re9  1  0.721760  0.000000  0.278240  1
  Re  Re10  1  0.278240  0.721760  0.000000  1
  Re  Re11  1  0.348429  0.348429  0.852312  1
  Re  Re12  1  0.852312  0.348429  0.348429  1
  Re  Re13  1  0.348429  0.852312  0.348429  1
  Re  Re14  1  0.651571  0.651571  0.147688  1
  Re  Re15  1  0.147688  0.651571  0.651571  1
  Re  Re16  1  0.651571  0.147688  0.651571  1
  Re  Re17  1  0.904299  0.904299  0.904299  1
  Re  Re18  1  0.095701  0.095701  0.095701  1
  C  C19  1  0.500000  0.500000  0.000000  1
  C  C20  1  0.000000  0.500000  0.500000  1
  C  C21  1  0.500000  0.000000  0.500000  1
