# generated using pymatgen
data_Dy3ErTi3GaIr4
_symmetry_space_group_name_H-M   'P 1'
_cell_length_a   4.30203300
_cell_length_b   6.96816564
_cell_length_c   7.99791736
_cell_angle_alpha   92.72703705
_cell_angle_beta   90.00000000
_cell_angle_gamma   90.00000000
_symmetry_Int_Tables_number   1
_chemical_formula_structural   Dy3ErTi3GaIr4
_chemical_formula_sum   'Dy3 Er1 Ti3 Ga1 Ir4'
_cell_volume   239.48428156
_cell_formula_units_Z   1
loop_
 _symmetry_equiv_pos_site_id
 _symmetry_equiv_pos_as_xyz
  1  'x, y, z'
loop_
 _atom_site_type_symbol
 _atom_site_label
 _atom_site_symmetry_multiplicity
 _atom_site_fract_x
 _atom_site_fract_y
 _atom_site_fract_z
 _atom_site_occupancy
  Dy  Dy0  1  0.250000  0.978666  0.314535  1
  Dy  Dy1  1  0.250000  0.468337  0.171327  1
  Dy  Dy2  1  0.750000  0.029639  0.688138  1
  Er  Er3  1  0.750000  0.514031  0.825891  1
  Ti  Ti4  1  0.250000  0.366359  0.570169  1
  Ti  Ti5  1  0.250000  0.866667  0.939877  1
  Ti  Ti6  1  0.750000  0.633114  0.433169  1
  Ga  Ga7  1  0.750000  0.144727  0.070585  1
  Ir  Ir8  1  0.250000  0.226894  0.872603  1
  Ir  Ir9  1  0.250000  0.725803  0.602554  1
  Ir  Ir10  1  0.750000  0.768645  0.111196  1
  Ir  Ir11  1  0.750000  0.277118  0.399956  1
