# generated using pymatgen
data_Zr6Ta4Al12Fe6Co
_symmetry_space_group_name_H-M   'P 1'
_cell_length_a   8.63831741
_cell_length_b   8.63831605
_cell_length_c   8.65272400
_cell_angle_alpha   59.94481055
_cell_angle_beta   59.94481578
_cell_angle_gamma   60.12975757
_symmetry_Int_Tables_number   1
_chemical_formula_structural   Zr6Ta4Al12Fe6Co
_chemical_formula_sum   'Zr6 Ta4 Al12 Fe6 Co1'
_cell_volume   456.62185579
_cell_formula_units_Z   1
loop_
 _symmetry_equiv_pos_site_id
 _symmetry_equiv_pos_as_xyz
  1  'x, y, z'
loop_
 _atom_site_type_symbol
 _atom_site_label
 _atom_site_symmetry_multiplicity
 _atom_site_fract_x
 _atom_site_fract_y
 _atom_site_fract_z
 _atom_site_occupancy
  Zr  Zr0  1  0.696434  0.303353  0.301935  1
  Zr  Zr1  1  0.696434  0.303353  0.698278  1
  Zr  Zr2  1  0.695704  0.695704  0.304296  1
  Zr  Zr3  1  0.303353  0.696434  0.698278  1
  Zr  Zr4  1  0.303353  0.696434  0.301935  1
  Zr  Zr5  1  0.305504  0.305504  0.694496  1
  Ta  Ta6  1  0.642066  0.119332  0.119301  1
  Ta  Ta7  1  0.119332  0.642066  0.119301  1
  Ta  Ta8  1  0.120168  0.120168  0.642857  1
  Ta  Ta9  1  0.120168  0.120168  0.116809  1
  Al  Al10  1  0.360834  0.879656  0.879755  1
  Al  Al11  1  0.879656  0.360834  0.879755  1
  Al  Al12  1  0.879462  0.879462  0.360403  1
  Al  Al13  1  0.879462  0.879462  0.880673  1
  Al  Al14  1  0.989855  0.335700  0.337222  1
  Al  Al15  1  0.335700  0.989855  0.337222  1
  Al  Al16  1  0.336378  0.336378  0.991643  1
  Al  Al17  1  0.336378  0.336378  0.335601  1
  Al  Al18  1  0.002934  0.665792  0.665636  1
  Al  Al19  1  0.665792  0.002934  0.665636  1
  Al  Al20  1  0.666160  0.666160  0.001341  1
  Al  Al21  1  0.666160  0.666160  0.666338  1
  Fe  Fe22  1  0.000345  0.000345  0.999655  1
  Fe  Fe23  1  0.495333  0.004290  0.004104  1
  Fe  Fe24  1  0.495333  0.004290  0.496273  1
  Fe  Fe25  1  0.496023  0.496023  0.003977  1
  Fe  Fe26  1  0.004290  0.495333  0.496273  1
  Fe  Fe27  1  0.004290  0.495333  0.004104  1
  Co  Co28  1  0.003098  0.003098  0.496902  1
