# generated using pymatgen
data_Er2Tm2MnOsC4
_symmetry_space_group_name_H-M   'P 1'
_cell_length_a   5.01851300
_cell_length_b   6.36857748
_cell_length_c   9.61817808
_cell_angle_alpha   90.55844177
_cell_angle_beta   90.00000000
_cell_angle_gamma   90.00000000
_symmetry_Int_Tables_number   1
_chemical_formula_structural   Er2Tm2MnOsC4
_chemical_formula_sum   'Er4 Tm4 Mn2 Os2 C8'
_cell_volume   307.38995768
_cell_formula_units_Z   2
loop_
 _symmetry_equiv_pos_site_id
 _symmetry_equiv_pos_as_xyz
  1  'x, y, z'
loop_
 _atom_site_type_symbol
 _atom_site_label
 _atom_site_symmetry_multiplicity
 _atom_site_fract_x
 _atom_site_fract_y
 _atom_site_fract_z
 _atom_site_occupancy
  Er  Er0  1  0.250000  0.525440  0.216831  1
  Er  Er1  1  0.750000  0.474560  0.783169  1
  Er  Er2  1  0.750000  0.974441  0.715403  1
  Er  Er3  1  0.250000  0.025559  0.284597  1
  Tm  Tm4  1  0.250000  0.681870  0.557290  1
  Tm  Tm5  1  0.750000  0.318130  0.442710  1
  Tm  Tm6  1  0.750000  0.821229  0.053117  1
  Tm  Tm7  1  0.250000  0.178771  0.946883  1
  Mn  Mn8  1  0.250000  0.726349  0.862941  1
  Mn  Mn9  1  0.750000  0.273651  0.137059  1
  Os  Os10  1  0.750000  0.775911  0.362463  1
  Os  Os11  1  0.250000  0.224089  0.637537  1
  C  C12  1  0.250000  0.467496  0.765142  1
  C  C13  1  0.750000  0.532504  0.234858  1
  C  C14  1  0.750000  0.047198  0.254251  1
  C  C15  1  0.250000  0.952802  0.745749  1
  C  C16  1  0.250000  0.815966  0.041461  1
  C  C17  1  0.750000  0.184034  0.958539  1
  C  C18  1  0.750000  0.675075  0.552429  1
  C  C19  1  0.250000  0.324925  0.447571  1
