# generated using pymatgen
data_Ho8TaW3C8
_symmetry_space_group_name_H-M   'P 1'
_cell_length_a   5.76125306
_cell_length_b   5.76125284
_cell_length_c   9.83060900
_cell_angle_alpha   90.00000000
_cell_angle_beta   90.00000000
_cell_angle_gamma   90.47857956
_symmetry_Int_Tables_number   1
_chemical_formula_structural   Ho8TaW3C8
_chemical_formula_sum   'Ho8 Ta1 W3 C8'
_cell_volume   326.28654112
_cell_formula_units_Z   1
loop_
 _symmetry_equiv_pos_site_id
 _symmetry_equiv_pos_as_xyz
  1  'x, y, z'
loop_
 _atom_site_type_symbol
 _atom_site_label
 _atom_site_symmetry_multiplicity
 _atom_site_fract_x
 _atom_site_fract_y
 _atom_site_fract_z
 _atom_site_occupancy
  Ho  Ho0  1  0.199334  0.199334  0.343084  1
  Ho  Ho1  1  0.799167  0.799167  0.656601  1
  Ho  Ho2  1  0.298233  0.701469  0.840946  1
  Ho  Ho3  1  0.799167  0.799167  0.343399  1
  Ho  Ho4  1  0.199334  0.199334  0.656916  1
  Ho  Ho5  1  0.701469  0.298233  0.159054  1
  Ho  Ho6  1  0.701469  0.298233  0.840946  1
  Ho  Ho7  1  0.298233  0.701469  0.159054  1
  Ta  Ta8  1  0.183551  0.183551  0.000000  1
  W  W9  1  0.824599  0.824599  0.000000  1
  W  W10  1  0.321847  0.677115  0.500000  1
  W  W11  1  0.677115  0.321847  0.500000  1
  C  C12  1  0.998841  0.998841  0.155293  1
  C  C13  1  0.499988  0.499988  0.345515  1
  C  C14  1  0.499988  0.499988  0.654485  1
  C  C15  1  0.506226  0.992388  0.000000  1
  C  C16  1  0.992388  0.506226  0.000000  1
  C  C17  1  0.998841  0.998841  0.844707  1
  C  C18  1  0.500392  0.999817  0.500000  1
  C  C19  1  0.999817  0.500392  0.500000  1
