# generated using pymatgen
data_YHo2B7Mo
_symmetry_space_group_name_H-M   'P 1'
_cell_length_a   8.14701221
_cell_length_b   8.14701081
_cell_length_c   9.46537600
_cell_angle_alpha   90.00000000
_cell_angle_beta   90.00000000
_cell_angle_gamma   155.49335707
_symmetry_Int_Tables_number   1
_chemical_formula_structural   YHo2B7Mo
_chemical_formula_sum   'Y2 Ho4 B14 Mo2'
_cell_volume   260.59852923
_cell_formula_units_Z   2
loop_
 _symmetry_equiv_pos_site_id
 _symmetry_equiv_pos_as_xyz
  1  'x, y, z'
loop_
 _atom_site_type_symbol
 _atom_site_label
 _atom_site_symmetry_multiplicity
 _atom_site_fract_x
 _atom_site_fract_y
 _atom_site_fract_z
 _atom_site_occupancy
  Y  Y0  1  0.255230  0.744770  0.250000  1
  Y  Y1  1  0.744770  0.255230  0.750000  1
  Ho  Ho2  1  0.606867  0.393133  0.059951  1
  Ho  Ho3  1  0.393133  0.606867  0.940049  1
  Ho  Ho4  1  0.393133  0.606867  0.559951  1
  Ho  Ho5  1  0.606867  0.393133  0.440049  1
  B  B6  1  0.980341  0.019659  0.091518  1
  B  B7  1  0.019659  0.980341  0.908482  1
  B  B8  1  0.019659  0.980341  0.591518  1
  B  B9  1  0.980341  0.019659  0.408482  1
  B  B10  1  0.772652  0.227348  0.032448  1
  B  B11  1  0.227348  0.772652  0.967552  1
  B  B12  1  0.227348  0.772652  0.532448  1
  B  B13  1  0.772652  0.227348  0.467552  1
  B  B14  1  0.865394  0.134606  0.147073  1
  B  B15  1  0.134606  0.865394  0.852927  1
  B  B16  1  0.134606  0.865394  0.647073  1
  B  B17  1  0.865394  0.134606  0.352927  1
  B  B18  1  0.044688  0.955312  0.250000  1
  B  B19  1  0.955312  0.044688  0.750000  1
  Mo  Mo20  1  0.447090  0.552910  0.250000  1
  Mo  Mo21  1  0.552910  0.447090  0.750000  1
