# generated using pymatgen
data_Lu4Co17(P4Ru)3
_symmetry_space_group_name_H-M   'P 1'
_cell_length_a   3.65963400
_cell_length_b   10.31491314
_cell_length_c   11.71656849
_cell_angle_alpha   90.07427922
_cell_angle_beta   90.00000000
_cell_angle_gamma   90.00000000
_symmetry_Int_Tables_number   1
_chemical_formula_structural   Lu4Co17(P4Ru)3
_chemical_formula_sum   'Lu4 Co17 P12 Ru3'
_cell_volume   442.28610911
_cell_formula_units_Z   1
loop_
 _symmetry_equiv_pos_site_id
 _symmetry_equiv_pos_as_xyz
  1  'x, y, z'
loop_
 _atom_site_type_symbol
 _atom_site_label
 _atom_site_symmetry_multiplicity
 _atom_site_fract_x
 _atom_site_fract_y
 _atom_site_fract_z
 _atom_site_occupancy
  Lu  Lu0  1  0.250000  0.582380  0.701889  1
  Lu  Lu1  1  0.250000  0.914684  0.204313  1
  Lu  Lu2  1  0.750000  0.413459  0.295427  1
  Lu  Lu3  1  0.750000  0.085500  0.795955  1
  Co  Co4  1  0.750000  0.218516  0.506998  1
  Co  Co5  1  0.250000  0.406462  0.486917  1
  Co  Co6  1  0.250000  0.091141  0.987923  1
  Co  Co7  1  0.750000  0.590404  0.511216  1
  Co  Co8  1  0.750000  0.909896  0.012397  1
  Co  Co9  1  0.250000  0.220328  0.177366  1
  Co  Co10  1  0.250000  0.278172  0.676780  1
  Co  Co11  1  0.750000  0.779266  0.822505  1
  Co  Co12  1  0.750000  0.721856  0.322968  1
  Co  Co13  1  0.250000  0.887728  0.702222  1
  Co  Co14  1  0.250000  0.612389  0.203385  1
  Co  Co15  1  0.750000  0.115357  0.300300  1
  Co  Co16  1  0.750000  0.387336  0.796695  1
  Co  Co17  1  0.250000  0.465454  0.930160  1
  Co  Co18  1  0.250000  0.035333  0.431306  1
  Co  Co19  1  0.750000  0.535075  0.070060  1
  Co  Co20  1  0.750000  0.967287  0.569591  1
  P  P21  1  0.250000  0.419120  0.113056  1
  P  P22  1  0.250000  0.082374  0.612448  1
  P  P23  1  0.750000  0.580516  0.886552  1
  P  P24  1  0.750000  0.920613  0.386931  1
  P  P25  1  0.250000  0.269750  0.866342  1
  P  P26  1  0.250000  0.231082  0.369867  1
  P  P27  1  0.750000  0.730922  0.133297  1
  P  P28  1  0.750000  0.769576  0.632831  1
  P  P29  1  0.250000  0.593521  0.390032  1
  P  P30  1  0.250000  0.905891  0.889150  1
  P  P31  1  0.750000  0.399198  0.607702  1
  P  P32  1  0.750000  0.095284  0.112331  1
  Ru  Ru33  1  0.250000  0.718222  0.993118  1
  Ru  Ru34  1  0.250000  0.783371  0.492429  1
  Ru  Ru35  1  0.750000  0.282538  0.007539  1
