# generated using pymatgen
data_Tm3Ga3Pt2Rh
_symmetry_space_group_name_H-M   'P 1'
_cell_length_a   7.30104600
_cell_length_b   7.30104710
_cell_length_c   3.74848000
_cell_angle_alpha   90.00000000
_cell_angle_beta   90.00000000
_cell_angle_gamma   120.00000409
_symmetry_Int_Tables_number   1
_chemical_formula_structural   Tm3Ga3Pt2Rh
_chemical_formula_sum   'Tm3 Ga3 Pt2 Rh1'
_cell_volume   173.04380118
_cell_formula_units_Z   1
loop_
 _symmetry_equiv_pos_site_id
 _symmetry_equiv_pos_as_xyz
  1  'x, y, z'
loop_
 _atom_site_type_symbol
 _atom_site_label
 _atom_site_symmetry_multiplicity
 _atom_site_fract_x
 _atom_site_fract_y
 _atom_site_fract_z
 _atom_site_occupancy
  Tm  Tm0  1  0.403230  0.000000  0.000000  1
  Tm  Tm1  1  0.000000  0.403231  0.000000  1
  Tm  Tm2  1  0.596770  0.596770  0.000000  1
  Ga  Ga3  1  0.748193  0.000000  0.500001  1
  Ga  Ga4  1  0.251807  0.251807  0.500001  1
  Ga  Ga5  1  0.000000  0.748193  0.500001  1
  Pt  Pt6  1  0.666667  0.333334  0.500001  1
  Pt  Pt7  1  0.333333  0.666666  0.500001  1
  Rh  Rh8  1  0.000000  0.000000  0.000000  1
