# generated using pymatgen
data_Li7Tm8ZnPb8
_symmetry_space_group_name_H-M   'P 1'
_cell_length_a   9.49993500
_cell_length_b   9.49537828
_cell_length_c   7.16914105
_cell_angle_alpha   89.91341518
_cell_angle_beta   90.00000000
_cell_angle_gamma   120.01586538
_symmetry_Int_Tables_number   1
_chemical_formula_structural   Li7Tm8ZnPb8
_chemical_formula_sum   'Li7 Tm8 Zn1 Pb8'
_cell_volume   559.96456771
_cell_formula_units_Z   1
loop_
 _symmetry_equiv_pos_site_id
 _symmetry_equiv_pos_as_xyz
  1  'x, y, z'
loop_
 _atom_site_type_symbol
 _atom_site_label
 _atom_site_symmetry_multiplicity
 _atom_site_fract_x
 _atom_site_fract_y
 _atom_site_fract_z
 _atom_site_occupancy
  Li  Li0  1  0.835781  0.168053  0.713103  1
  Li  Li1  1  0.331673  0.663347  0.818563  1
  Li  Li2  1  0.665994  0.331988  0.316596  1
  Li  Li3  1  0.665849  0.833912  0.214148  1
  Li  Li4  1  0.166765  0.333531  0.213347  1
  Li  Li5  1  0.168063  0.833912  0.214148  1
  Li  Li6  1  0.332273  0.168053  0.713103  1
  Tm  Tm7  1  0.998643  0.997287  0.999470  1
  Tm  Tm8  1  0.999118  0.998236  0.500268  1
  Tm  Tm9  1  0.513650  0.490667  0.006272  1
  Tm  Tm10  1  0.020894  0.512028  0.507482  1
  Tm  Tm11  1  0.488864  0.977727  0.500577  1
  Tm  Tm12  1  0.510934  0.021870  0.010644  1
  Tm  Tm13  1  0.977016  0.490667  0.006272  1
  Tm  Tm14  1  0.491135  0.512028  0.507482  1
  Zn  Zn15  1  0.833519  0.667037  0.704119  1
  Pb  Pb16  1  0.172298  0.836113  0.772997  1
  Pb  Pb17  1  0.663752  0.327503  0.746583  1
  Pb  Pb18  1  0.332733  0.665465  0.244231  1
  Pb  Pb19  1  0.834230  0.167171  0.270323  1
  Pb  Pb20  1  0.166607  0.333216  0.768604  1
  Pb  Pb21  1  0.332943  0.167171  0.270323  1
  Pb  Pb22  1  0.833452  0.666904  0.266346  1
  Pb  Pb23  1  0.663814  0.836113  0.772997  1
