# generated using pymatgen
data_Tb6Dy11Lu3Pb16
_symmetry_space_group_name_H-M   'P 1'
_cell_length_a   8.18256500
_cell_length_b   8.27374730
_cell_length_c   15.63908210
_cell_angle_alpha   90.01254831
_cell_angle_beta   89.99750439
_cell_angle_gamma   89.92887971
_symmetry_Int_Tables_number   1
_chemical_formula_structural   Tb6Dy11Lu3Pb16
_chemical_formula_sum   'Tb6 Dy11 Lu3 Pb16'
_cell_volume   1058.77244632
_cell_formula_units_Z   1
loop_
 _symmetry_equiv_pos_site_id
 _symmetry_equiv_pos_as_xyz
  1  'x, y, z'
loop_
 _atom_site_type_symbol
 _atom_site_label
 _atom_site_symmetry_multiplicity
 _atom_site_fract_x
 _atom_site_fract_y
 _atom_site_fract_z
 _atom_site_occupancy
  Tb  Tb0  1  0.466287  0.676359  0.400118  1
  Tb  Tb1  1  0.965719  0.822856  0.099851  1
  Tb  Tb2  1  0.466290  0.676366  0.099865  1
  Tb  Tb3  1  0.965705  0.822852  0.400165  1
  Tb  Tb4  1  0.534009  0.323158  0.599861  1
  Tb  Tb5  1  0.034061  0.176828  0.899907  1
  Dy  Dy6  1  0.376776  0.841311  0.879157  1
  Dy  Dy7  1  0.876660  0.658641  0.620565  1
  Dy  Dy8  1  0.623800  0.159236  0.379632  1
  Dy  Dy9  1  0.122820  0.341410  0.120450  1
  Dy  Dy10  1  0.623804  0.159233  0.120319  1
  Dy  Dy11  1  0.122827  0.341397  0.379597  1
  Dy  Dy12  1  0.376731  0.841335  0.620861  1
  Dy  Dy13  1  0.876617  0.658626  0.879424  1
  Dy  Dy14  1  0.534085  0.323216  0.900041  1
  Dy  Dy15  1  0.034153  0.176770  0.600185  1
  Dy  Dy16  1  0.291636  0.003959  0.249989  1
  Lu  Lu17  1  0.208666  0.504042  0.750014  1
  Lu  Lu18  1  0.708637  0.995690  0.749993  1
  Lu  Lu19  1  0.791231  0.495598  0.250010  1
  Pb  Pb20  1  0.281462  0.033471  0.042825  1
  Pb  Pb21  1  0.781581  0.466883  0.456430  1
  Pb  Pb22  1  0.718684  0.967137  0.543824  1
  Pb  Pb23  1  0.218745  0.533022  0.956207  1
  Pb  Pb24  1  0.718360  0.967100  0.956196  1
  Pb  Pb25  1  0.218447  0.533073  0.543774  1
  Pb  Pb26  1  0.281359  0.033594  0.457290  1
  Pb  Pb27  1  0.781476  0.466762  0.043451  1
  Pb  Pb28  1  0.571478  0.626440  0.749999  1
  Pb  Pb29  1  0.071445  0.873355  0.750003  1
  Pb  Pb30  1  0.428718  0.374343  0.249981  1
  Pb  Pb31  1  0.926774  0.127515  0.250016  1
  Pb  Pb32  1  0.346071  0.154207  0.750092  1
  Pb  Pb33  1  0.845776  0.346445  0.749910  1
  Pb  Pb34  1  0.654951  0.846119  0.249993  1
  Pb  Pb35  1  0.154164  0.651652  0.250005  1
