# generated using pymatgen
data_Tm2Lu4Al24Ir3Os5
_symmetry_space_group_name_H-M   'P 1'
_cell_length_a   8.75150713
_cell_length_b   8.77327353
_cell_length_c   9.54407917
_cell_angle_alpha   89.83124332
_cell_angle_beta   90.19842868
_cell_angle_gamma   119.87280206
_symmetry_Int_Tables_number   1
_chemical_formula_structural   Tm2Lu4Al24Ir3Os5
_chemical_formula_sum   'Tm2 Lu4 Al24 Ir3 Os5'
_cell_volume   635.42072263
_cell_formula_units_Z   1
loop_
 _symmetry_equiv_pos_site_id
 _symmetry_equiv_pos_as_xyz
  1  'x, y, z'
loop_
 _atom_site_type_symbol
 _atom_site_label
 _atom_site_symmetry_multiplicity
 _atom_site_fract_x
 _atom_site_fract_y
 _atom_site_fract_z
 _atom_site_occupancy
  Tm  Tm0  1  0.197981  0.810363  0.249986  1
  Tm  Tm1  1  0.802019  0.189637  0.750014  1
  Lu  Lu2  1  0.195262  0.388656  0.251328  1
  Lu  Lu3  1  0.804738  0.611344  0.748672  1
  Lu  Lu4  1  0.608169  0.807313  0.251662  1
  Lu  Lu5  1  0.391831  0.192687  0.748338  1
  Al  Al6  1  0.333489  0.667638  0.026728  1
  Al  Al7  1  0.666511  0.332362  0.973272  1
  Al  Al8  1  0.666057  0.333089  0.525265  1
  Al  Al9  1  0.333943  0.666911  0.474735  1
  Al  Al10  1  0.164794  0.326336  0.577222  1
  Al  Al11  1  0.835206  0.673664  0.422778  1
  Al  Al12  1  0.672678  0.835317  0.576600  1
  Al  Al13  1  0.837083  0.673791  0.076909  1
  Al  Al14  1  0.327322  0.164683  0.423400  1
  Al  Al15  1  0.162917  0.326209  0.923091  1
  Al  Al16  1  0.164335  0.836988  0.576741  1
  Al  Al17  1  0.327312  0.162943  0.076051  1
  Al  Al18  1  0.835665  0.163012  0.423259  1
  Al  Al19  1  0.672688  0.837057  0.923949  1
  Al  Al20  1  0.835634  0.162903  0.077030  1
  Al  Al21  1  0.164366  0.837097  0.922970  1
  Al  Al22  1  0.563018  0.125787  0.249420  1
  Al  Al23  1  0.436982  0.874213  0.750580  1
  Al  Al24  1  0.876175  0.438818  0.249425  1
  Al  Al25  1  0.123825  0.561182  0.750575  1
  Al  Al26  1  0.562333  0.439090  0.250305  1
  Al  Al27  1  0.437667  0.560910  0.749695  1
  Al  Al28  1  0.999413  0.001804  0.249969  1
  Al  Al29  1  0.000587  0.998196  0.750031  1
  Ir  Ir30  1  0.000000  0.500000  0.000000  1
  Ir  Ir31  1  0.500000  0.500000  0.000000  1
  Ir  Ir32  1  0.000000  0.500000  0.500000  1
  Os  Os33  1  0.500000  0.000000  0.000000  1
  Os  Os34  1  0.500000  0.000000  0.500000  1
  Os  Os35  1  0.500000  0.500000  0.500000  1
  Os  Os36  1  0.000000  0.000000  0.000000  1
  Os  Os37  1  0.000000  0.000000  0.500000  1
