# generated using pymatgen
data_Nd9Sm(SnBi)4
_symmetry_space_group_name_H-M   'P 1'
_cell_length_a   8.41854700
_cell_length_b   8.48380200
_cell_length_c   16.15110800
_cell_angle_alpha   90.00000000
_cell_angle_beta   90.00000000
_cell_angle_gamma   90.00000000
_symmetry_Int_Tables_number   1
_chemical_formula_structural   Nd9Sm(SnBi)4
_chemical_formula_sum   'Nd18 Sm2 Sn8 Bi8'
_cell_volume   1153.53290168
_cell_formula_units_Z   2
loop_
 _symmetry_equiv_pos_site_id
 _symmetry_equiv_pos_as_xyz
  1  'x, y, z'
loop_
 _atom_site_type_symbol
 _atom_site_label
 _atom_site_symmetry_multiplicity
 _atom_site_fract_x
 _atom_site_fract_y
 _atom_site_fract_z
 _atom_site_occupancy
  Nd  Nd0  1  0.041625  0.176012  0.392002  1
  Nd  Nd1  1  0.383917  0.836440  0.122102  1
  Nd  Nd2  1  0.116038  0.336348  0.622028  1
  Nd  Nd3  1  0.458453  0.676073  0.892029  1
  Nd  Nd4  1  0.883917  0.663560  0.122102  1
  Nd  Nd5  1  0.116038  0.336348  0.877972  1
  Nd  Nd6  1  0.458453  0.676073  0.607971  1
  Nd  Nd7  1  0.290143  0.995808  0.750000  1
  Nd  Nd8  1  0.616038  0.163652  0.622028  1
  Nd  Nd9  1  0.790143  0.504192  0.750000  1
  Nd  Nd10  1  0.883917  0.663560  0.377898  1
  Nd  Nd11  1  0.041625  0.176012  0.107998  1
  Nd  Nd12  1  0.958453  0.823927  0.892029  1
  Nd  Nd13  1  0.616038  0.163652  0.877972  1
  Nd  Nd14  1  0.541625  0.323988  0.107998  1
  Nd  Nd15  1  0.383917  0.836440  0.377898  1
  Nd  Nd16  1  0.958453  0.823927  0.607971  1
  Nd  Nd17  1  0.541625  0.323988  0.392002  1
  Sm  Sm18  1  0.210166  0.495666  0.250000  1
  Sm  Sm19  1  0.710166  0.004334  0.250000  1
  Sn  Sn20  1  0.657522  0.860908  0.750000  1
  Sn  Sn21  1  0.843095  0.359997  0.250000  1
  Sn  Sn22  1  0.581003  0.621332  0.250000  1
  Sn  Sn23  1  0.418272  0.379014  0.750000  1
  Sn  Sn24  1  0.157522  0.639092  0.750000  1
  Sn  Sn25  1  0.918272  0.120986  0.750000  1
  Sn  Sn26  1  0.343095  0.140003  0.250000  1
  Sn  Sn27  1  0.081003  0.878668  0.250000  1
  Bi  Bi28  1  0.773697  0.475917  0.544086  1
  Bi  Bi29  1  0.726170  0.975986  0.455353  1
  Bi  Bi30  1  0.226170  0.524014  0.455353  1
  Bi  Bi31  1  0.273697  0.024083  0.955914  1
  Bi  Bi32  1  0.773697  0.475917  0.955914  1
  Bi  Bi33  1  0.226170  0.524014  0.044647  1
  Bi  Bi34  1  0.273697  0.024083  0.544086  1
  Bi  Bi35  1  0.726170  0.975986  0.044647  1
