# generated using pymatgen
data_ErTh2AlC3
_symmetry_space_group_name_H-M   'P 1'
_cell_length_a   3.61880700
_cell_length_b   7.50157155
_cell_length_c   9.87972568
_cell_angle_alpha   88.40847373
_cell_angle_beta   90.00000000
_cell_angle_gamma   90.00000000
_symmetry_Int_Tables_number   1
_chemical_formula_structural   ErTh2AlC3
_chemical_formula_sum   'Er2 Th4 Al2 C6'
_cell_volume   268.09887740
_cell_formula_units_Z   2
loop_
 _symmetry_equiv_pos_site_id
 _symmetry_equiv_pos_as_xyz
  1  'x, y, z'
loop_
 _atom_site_type_symbol
 _atom_site_label
 _atom_site_symmetry_multiplicity
 _atom_site_fract_x
 _atom_site_fract_y
 _atom_site_fract_z
 _atom_site_occupancy
  Er  Er0  1  0.500000  0.982063  0.199205  1
  Er  Er1  1  0.500000  0.017937  0.800795  1
  Th  Th2  1  0.500000  0.515430  0.190594  1
  Th  Th3  1  0.500000  0.484570  0.809406  1
  Th  Th4  1  0.000000  0.749699  0.473116  1
  Th  Th5  1  0.000000  0.250301  0.526884  1
  Al  Al6  1  0.000000  0.779075  0.999276  1
  Al  Al7  1  0.000000  0.220925  0.000724  1
  C  C8  1  0.500000  0.508707  0.570086  1
  C  C9  1  0.500000  0.491293  0.429914  1
  C  C10  1  0.500000  0.996993  0.568953  1
  C  C11  1  0.500000  0.003007  0.431047  1
  C  C12  1  0.000000  0.751392  0.207819  1
  C  C13  1  0.000000  0.248608  0.792181  1
