# generated using pymatgen
data_Ce2NdPa(InRh2)2
_symmetry_space_group_name_H-M   'P 1'
_cell_length_a   7.74040913
_cell_length_b   7.75752612
_cell_length_c   3.70203500
_cell_angle_alpha   90.00000000
_cell_angle_beta   90.00000000
_cell_angle_gamma   92.53623876
_symmetry_Int_Tables_number   1
_chemical_formula_structural   Ce2NdPa(InRh2)2
_chemical_formula_sum   'Ce2 Nd1 Pa1 In2 Rh4'
_cell_volume   222.07621880
_cell_formula_units_Z   1
loop_
 _symmetry_equiv_pos_site_id
 _symmetry_equiv_pos_as_xyz
  1  'x, y, z'
loop_
 _atom_site_type_symbol
 _atom_site_label
 _atom_site_symmetry_multiplicity
 _atom_site_fract_x
 _atom_site_fract_y
 _atom_site_fract_z
 _atom_site_occupancy
  Ce  Ce0  1  0.327493  0.828161  0.500000  1
  Ce  Ce1  1  0.831490  0.672426  0.500000  1
  Nd  Nd2  1  0.170068  0.331156  0.500000  1
  Pa  Pa3  1  0.664309  0.166809  0.500000  1
  In  In4  1  0.000963  0.003919  0.000000  1
  In  In5  1  0.498564  0.504539  0.000000  1
  Rh  Rh6  1  0.123671  0.645483  0.000000  1
  Rh  Rh7  1  0.843047  0.352601  0.000000  1
  Rh  Rh8  1  0.645000  0.867417  0.000000  1
  Rh  Rh9  1  0.395396  0.127490  0.000000  1
