# generated using pymatgen
data_TiNb5Co16Si6Ge
_symmetry_space_group_name_H-M   'P 1'
_cell_length_a   7.93729156
_cell_length_b   7.94348245
_cell_length_c   7.93823040
_cell_angle_alpha   59.97029396
_cell_angle_beta   60.04768108
_cell_angle_gamma   60.11422147
_symmetry_Int_Tables_number   1
_chemical_formula_structural   TiNb5Co16Si6Ge
_chemical_formula_sum   'Ti1 Nb5 Co16 Si6 Ge1'
_cell_volume   354.26166592
_cell_formula_units_Z   1
loop_
 _symmetry_equiv_pos_site_id
 _symmetry_equiv_pos_as_xyz
  1  'x, y, z'
loop_
 _atom_site_type_symbol
 _atom_site_label
 _atom_site_symmetry_multiplicity
 _atom_site_fract_x
 _atom_site_fract_y
 _atom_site_fract_z
 _atom_site_occupancy
  Ti  Ti0  1  0.207470  0.792530  0.796063  1
  Nb  Nb1  1  0.797995  0.796988  0.201967  1
  Nb  Nb2  1  0.795832  0.204168  0.201571  1
  Nb  Nb3  1  0.203012  0.202005  0.796950  1
  Nb  Nb4  1  0.796340  0.203660  0.798537  1
  Nb  Nb5  1  0.204486  0.795514  0.200444  1
  Co  Co6  1  0.618260  0.618378  0.143817  1
  Co  Co7  1  0.166677  0.502473  0.165016  1
  Co  Co8  1  0.855118  0.386084  0.379503  1
  Co  Co9  1  0.497527  0.833323  0.834165  1
  Co  Co10  1  0.499966  0.167453  0.166544  1
  Co  Co11  1  0.830464  0.830966  0.500971  1
  Co  Co12  1  0.169044  0.168524  0.501043  1
  Co  Co13  1  0.144061  0.614073  0.620992  1
  Co  Co14  1  0.169034  0.169536  0.162403  1
  Co  Co15  1  0.381231  0.381864  0.856812  1
  Co  Co16  1  0.618136  0.618769  0.619908  1
  Co  Co17  1  0.385927  0.855939  0.379126  1
  Co  Co18  1  0.381622  0.381740  0.380455  1
  Co  Co19  1  0.831476  0.830956  0.838609  1
  Co  Co20  1  0.613916  0.144882  0.620705  1
  Co  Co21  1  0.832547  0.500034  0.833962  1
  Si  Si22  1  0.498756  0.998426  0.501217  1
  Si  Si23  1  0.498800  0.501200  0.998399  1
  Si  Si24  1  0.499062  0.500938  0.500913  1
  Si  Si25  1  0.001574  0.501244  0.998400  1
  Si  Si26  1  0.999917  0.500022  0.499972  1
  Si  Si27  1  0.499978  0.000083  0.999911  1
  Ge  Ge28  1  0.001771  0.998229  0.501625  1
