# generated using pymatgen
data_Yb9PrSi5Ge
_symmetry_space_group_name_H-M   'P 1'
_cell_length_a   7.61956486
_cell_length_b   7.61675105
_cell_length_c   9.07695754
_cell_angle_alpha   114.69145850
_cell_angle_beta   114.77262287
_cell_angle_gamma   90.17418081
_symmetry_Int_Tables_number   1
_chemical_formula_structural   Yb9PrSi5Ge
_chemical_formula_sum   'Yb9 Pr1 Si5 Ge1'
_cell_volume   424.33861436
_cell_formula_units_Z   1
loop_
 _symmetry_equiv_pos_site_id
 _symmetry_equiv_pos_as_xyz
  1  'x, y, z'
loop_
 _atom_site_type_symbol
 _atom_site_label
 _atom_site_symmetry_multiplicity
 _atom_site_fract_x
 _atom_site_fract_y
 _atom_site_fract_z
 _atom_site_occupancy
  Yb  Yb0  1  0.498635  0.503762  0.002662  1
  Yb  Yb1  1  0.004203  0.999371  0.003943  1
  Yb  Yb2  1  0.966366  0.820264  0.286426  1
  Yb  Yb3  1  0.320254  0.466204  0.286521  1
  Yb  Yb4  1  0.820772  0.320481  0.286699  1
  Yb  Yb5  1  0.464038  0.964270  0.282624  1
  Yb  Yb6  1  0.035454  0.180050  0.714017  1
  Yb  Yb7  1  0.679811  0.535565  0.714016  1
  Yb  Yb8  1  0.178997  0.678867  0.713354  1
  Pr  Pr9  1  0.536962  0.038479  0.715707  1
  Si  Si10  1  0.250311  0.248057  0.501080  1
  Si  Si11  1  0.613383  0.887573  0.998877  1
  Si  Si12  1  0.387562  0.113521  0.998989  1
  Si  Si13  1  0.883008  0.382971  0.995314  1
  Si  Si14  1  0.111133  0.611194  0.999689  1
  Ge  Ge15  1  0.749112  0.749373  0.500082  1
