# generated using pymatgen
data_Tm4InPt11
_symmetry_space_group_name_H-M   'P 1'
_cell_length_a   4.17246700
_cell_length_b   5.80084691
_cell_length_c   11.61040789
_cell_angle_alpha   87.77385667
_cell_angle_beta   90.00000000
_cell_angle_gamma   90.00000000
_symmetry_Int_Tables_number   1
_chemical_formula_structural   Tm4InPt11
_chemical_formula_sum   'Tm4 In1 Pt11'
_cell_volume   280.80439723
_cell_formula_units_Z   1
loop_
 _symmetry_equiv_pos_site_id
 _symmetry_equiv_pos_as_xyz
  1  'x, y, z'
loop_
 _atom_site_type_symbol
 _atom_site_label
 _atom_site_symmetry_multiplicity
 _atom_site_fract_x
 _atom_site_fract_y
 _atom_site_fract_z
 _atom_site_occupancy
  Tm  Tm0  1  0.500000  0.752774  0.375857  1
  Tm  Tm1  1  0.500000  0.721187  0.862306  1
  Tm  Tm2  1  0.500000  0.278813  0.137694  1
  Tm  Tm3  1  0.500000  0.247226  0.624143  1
  In  In4  1  0.000000  0.000000  0.000000  1
  Pt  Pt5  1  0.000000  0.011502  0.249563  1
  Pt  Pt6  1  0.000000  0.988498  0.750437  1
  Pt  Pt7  1  0.000000  0.500000  0.000000  1
  Pt  Pt8  1  0.000000  0.500000  0.500000  1
  Pt  Pt9  1  0.000000  0.513500  0.250103  1
  Pt  Pt10  1  0.000000  0.486500  0.749897  1
  Pt  Pt11  1  0.500000  0.250915  0.377752  1
  Pt  Pt12  1  0.500000  0.232299  0.879903  1
  Pt  Pt13  1  0.500000  0.767701  0.120097  1
  Pt  Pt14  1  0.500000  0.749085  0.622248  1
  Pt  Pt15  1  0.000000  0.000000  0.500000  1
