# generated using pymatgen
data_Y2Ho2TmRu2
_symmetry_space_group_name_H-M   'P 1'
_cell_length_a   6.30556105
_cell_length_b   7.27834568
_cell_length_c   8.45451029
_cell_angle_alpha   96.91197212
_cell_angle_beta   111.89526643
_cell_angle_gamma   90.00000259
_symmetry_Int_Tables_number   1
_chemical_formula_structural   Y2Ho2TmRu2
_chemical_formula_sum   'Y4 Ho4 Tm2 Ru4'
_cell_volume   356.98230597
_cell_formula_units_Z   2
loop_
 _symmetry_equiv_pos_site_id
 _symmetry_equiv_pos_as_xyz
  1  'x, y, z'
loop_
 _atom_site_type_symbol
 _atom_site_label
 _atom_site_symmetry_multiplicity
 _atom_site_fract_x
 _atom_site_fract_y
 _atom_site_fract_z
 _atom_site_occupancy
  Y  Y0  1  0.789012  0.082851  0.811230  1
  Y  Y1  1  0.977782  0.417149  0.188770  1
  Y  Y2  1  0.210988  0.917149  0.188770  1
  Y  Y3  1  0.022218  0.582851  0.811230  1
  Ho  Ho4  1  0.203540  0.184701  0.566097  1
  Ho  Ho5  1  0.637443  0.315299  0.433903  1
  Ho  Ho6  1  0.796460  0.815299  0.433903  1
  Ho  Ho7  1  0.362557  0.684701  0.566097  1
  Tm  Tm8  1  0.421129  0.250000  0.000000  1
  Tm  Tm9  1  0.578871  0.750000  0.000000  1
  Ru  Ru10  1  0.595371  0.424669  0.778195  1
  Ru  Ru11  1  0.817175  0.075331  0.221805  1
  Ru  Ru12  1  0.404629  0.575331  0.221805  1
  Ru  Ru13  1  0.182825  0.924669  0.778195  1
