# generated using pymatgen
data_Pr19HoBi3Pb13
_symmetry_space_group_name_H-M   'P 1'
_cell_length_a   8.54307546
_cell_length_b   16.34010369
_cell_length_c   8.60441507
_cell_angle_alpha   90.07414106
_cell_angle_beta   89.85747007
_cell_angle_gamma   89.67261453
_symmetry_Int_Tables_number   1
_chemical_formula_structural   Pr19HoBi3Pb13
_chemical_formula_sum   'Pr19 Ho1 Bi3 Pb13'
_cell_volume   1201.10672160
_cell_formula_units_Z   1
loop_
 _symmetry_equiv_pos_site_id
 _symmetry_equiv_pos_as_xyz
  1  'x, y, z'
loop_
 _atom_site_type_symbol
 _atom_site_label
 _atom_site_symmetry_multiplicity
 _atom_site_fract_x
 _atom_site_fract_y
 _atom_site_fract_z
 _atom_site_occupancy
  Pr  Pr0  1  0.617642  0.617950  0.159870  1
  Pr  Pr1  1  0.114332  0.881727  0.340973  1
  Pr  Pr2  1  0.384532  0.119516  0.843544  1
  Pr  Pr3  1  0.881018  0.380727  0.657521  1
  Pr  Pr4  1  0.379271  0.380885  0.843036  1
  Pr  Pr5  1  0.880463  0.118530  0.660483  1
  Pr  Pr6  1  0.618266  0.882653  0.158678  1
  Pr  Pr7  1  0.118926  0.618936  0.341515  1
  Pr  Pr8  1  0.456226  0.604559  0.668813  1
  Pr  Pr9  1  0.949652  0.894293  0.828530  1
  Pr  Pr10  1  0.551708  0.106417  0.328633  1
  Pr  Pr11  1  0.043375  0.395952  0.174643  1
  Pr  Pr12  1  0.540514  0.396832  0.327404  1
  Pr  Pr13  1  0.038590  0.104651  0.172440  1
  Pr  Pr14  1  0.460935  0.896198  0.672996  1
  Pr  Pr15  1  0.963881  0.602720  0.821645  1
  Pr  Pr16  1  0.785096  0.748729  0.499210  1
  Pr  Pr17  1  0.285134  0.746044  0.000111  1
  Pr  Pr18  1  0.215803  0.252995  0.500065  1
  Ho  Ho19  1  0.717060  0.248622  0.998802  1
  Bi  Bi20  1  0.725187  0.450972  0.975413  1
  Bi  Bi21  1  0.228599  0.046728  0.523967  1
  Bi  Bi22  1  0.271137  0.953398  0.022264  1
  Pb  Pb23  1  0.775451  0.544192  0.472168  1
  Pb  Pb24  1  0.276092  0.544112  0.029646  1
  Pb  Pb25  1  0.775017  0.954836  0.472070  1
  Pb  Pb26  1  0.723901  0.047685  0.973935  1
  Pb  Pb27  1  0.221796  0.455609  0.531298  1
  Pb  Pb28  1  0.420055  0.752332  0.372937  1
  Pb  Pb29  1  0.919125  0.749778  0.125993  1
  Pb  Pb30  1  0.581031  0.250528  0.630159  1
  Pb  Pb31  1  0.075916  0.249440  0.875193  1
  Pb  Pb32  1  0.651318  0.749393  0.854556  1
  Pb  Pb33  1  0.151857  0.751785  0.645994  1
  Pb  Pb34  1  0.352710  0.249386  0.146168  1
  Pb  Pb35  1  0.848382  0.250886  0.349327  1
