# generated using pymatgen
data_SrDy3Ho3PtI12
_symmetry_space_group_name_H-M   'P 1'
_cell_length_a   9.80999345
_cell_length_b   9.80999459
_cell_length_c   9.80999326
_cell_angle_alpha   106.41071835
_cell_angle_beta   106.41071998
_cell_angle_gamma   106.41073262
_symmetry_Int_Tables_number   1
_chemical_formula_structural   SrDy3Ho3PtI12
_chemical_formula_sum   'Sr1 Dy3 Ho3 Pt1 I12'
_cell_volume   798.53570769
_cell_formula_units_Z   1
loop_
 _symmetry_equiv_pos_site_id
 _symmetry_equiv_pos_as_xyz
  1  'x, y, z'
loop_
 _atom_site_type_symbol
 _atom_site_label
 _atom_site_symmetry_multiplicity
 _atom_site_fract_x
 _atom_site_fract_y
 _atom_site_fract_z
 _atom_site_occupancy
  Sr  Sr0  1  0.000033  0.000033  0.000033  1
  Dy  Dy1  1  0.404545  0.477261  0.201583  1
  Dy  Dy2  1  0.201583  0.404545  0.477261  1
  Dy  Dy3  1  0.477261  0.201583  0.404545  1
  Ho  Ho4  1  0.595559  0.523261  0.797595  1
  Ho  Ho5  1  0.797595  0.595559  0.523261  1
  Ho  Ho6  1  0.523261  0.797595  0.595559  1
  Pt  Pt7  1  0.500313  0.500313  0.500313  1
  I  I8  1  0.048614  0.363404  0.128278  1
  I  I9  1  0.128278  0.048614  0.363404  1
  I  I10  1  0.363404  0.128278  0.048614  1
  I  I11  1  0.950763  0.636369  0.871282  1
  I  I12  1  0.871282  0.950763  0.636369  1
  I  I13  1  0.636369  0.871282  0.950763  1
  I  I14  1  0.722514  0.573944  0.176170  1
  I  I15  1  0.176170  0.722514  0.573944  1
  I  I16  1  0.573944  0.176170  0.722514  1
  I  I17  1  0.278355  0.426248  0.823906  1
  I  I18  1  0.823906  0.278355  0.426248  1
  I  I19  1  0.426248  0.823906  0.278355  1
