# generated using pymatgen
data_TbYb3Se4
_symmetry_space_group_name_H-M   'P 1'
_cell_length_a   13.78846819
_cell_length_b   13.78846836
_cell_length_c   13.78846627
_cell_angle_alpha   17.29191053
_cell_angle_beta   17.29191019
_cell_angle_gamma   17.29190972
_symmetry_Int_Tables_number   1
_chemical_formula_structural   TbYb3Se4
_chemical_formula_sum   'Tb1 Yb3 Se4'
_cell_volume   202.10488621
_cell_formula_units_Z   1
loop_
 _symmetry_equiv_pos_site_id
 _symmetry_equiv_pos_as_xyz
  1  'x, y, z'
loop_
 _atom_site_type_symbol
 _atom_site_label
 _atom_site_symmetry_multiplicity
 _atom_site_fract_x
 _atom_site_fract_y
 _atom_site_fract_z
 _atom_site_occupancy
  Tb  Tb0  1  0.000000  0.000000  0.000000  1
  Yb  Yb1  1  0.250779  0.250779  0.250779  1
  Yb  Yb2  1  0.500000  0.500000  0.500000  1
  Yb  Yb3  1  0.749221  0.749221  0.749221  1
  Se  Se4  1  0.374133  0.374133  0.374133  1
  Se  Se5  1  0.124268  0.124268  0.124268  1
  Se  Se6  1  0.625867  0.625867  0.625867  1
  Se  Se7  1  0.875732  0.875732  0.875732  1
