# generated using pymatgen
data_Sc12Tc2SnBr16
_symmetry_space_group_name_H-M   'P 1'
_cell_length_a   9.11917980
_cell_length_b   11.29688344
_cell_length_c   11.94266219
_cell_angle_alpha   117.38189002
_cell_angle_beta   102.14821259
_cell_angle_gamma   101.42163720
_symmetry_Int_Tables_number   1
_chemical_formula_structural   Sc12Tc2SnBr16
_chemical_formula_sum   'Sc12 Tc2 Sn1 Br16'
_cell_volume   1004.52722632
_cell_formula_units_Z   1
loop_
 _symmetry_equiv_pos_site_id
 _symmetry_equiv_pos_as_xyz
  1  'x, y, z'
loop_
 _atom_site_type_symbol
 _atom_site_label
 _atom_site_symmetry_multiplicity
 _atom_site_fract_x
 _atom_site_fract_y
 _atom_site_fract_z
 _atom_site_occupancy
  Sc  Sc0  1  0.093406  0.249899  0.346875  1
  Sc  Sc1  1  0.906594  0.750101  0.653125  1
  Sc  Sc2  1  0.762579  0.539217  0.312542  1
  Sc  Sc3  1  0.237421  0.460783  0.687458  1
  Sc  Sc4  1  0.299976  0.754338  0.655799  1
  Sc  Sc5  1  0.700024  0.245662  0.344201  1
  Sc  Sc6  1  0.152883  0.539435  0.315777  1
  Sc  Sc7  1  0.847117  0.460565  0.684223  1
  Sc  Sc8  1  0.404223  0.355833  0.269540  1
  Sc  Sc9  1  0.595777  0.644167  0.730460  1
  Sc  Sc10  1  0.457330  0.302637  0.521243  1
  Sc  Sc11  1  0.542670  0.697363  0.478757  1
  Tc  Tc12  1  0.335645  0.500132  0.499468  1
  Tc  Tc13  1  0.664356  0.499868  0.500532  1
  Sn  Sn14  1  0.000000  0.500000  0.500000  1
  Br  Br15  1  0.403728  0.743267  0.885298  1
  Br  Br16  1  0.596272  0.256733  0.114702  1
  Br  Br17  1  0.188757  0.962972  0.782457  1
  Br  Br18  1  0.811243  0.037028  0.217543  1
  Br  Br19  1  0.341184  0.092396  0.249369  1
  Br  Br20  1  0.658816  0.907604  0.750631  1
  Br  Br21  1  0.550824  0.437892  0.800886  1
  Br  Br22  1  0.449176  0.562108  0.199114  1
  Br  Br23  1  0.312539  0.828187  0.462358  1
  Br  Br24  1  0.687461  0.171813  0.537642  1
  Br  Br25  1  0.168588  0.168596  0.530986  1
  Br  Br26  1  0.831412  0.831404  0.469014  1
  Br  Br27  1  0.925439  0.574472  0.162083  1
  Br  Br28  1  0.074561  0.425528  0.837917  1
  Br  Br29  1  0.919445  0.740841  0.884932  1
  Br  Br30  1  0.080555  0.259159  0.115068  1
