# generated using pymatgen
data_Tm3Lu7InPb5
_symmetry_space_group_name_H-M   'P 1'
_cell_length_a   6.53264300
_cell_length_b   8.89055711
_cell_length_c   8.91716000
_cell_angle_alpha   119.90131792
_cell_angle_beta   90.00116650
_cell_angle_gamma   89.99087944
_symmetry_Int_Tables_number   1
_chemical_formula_structural   Tm3Lu7InPb5
_chemical_formula_sum   'Tm3 Lu7 In1 Pb5'
_cell_volume   448.95838183
_cell_formula_units_Z   1
loop_
 _symmetry_equiv_pos_site_id
 _symmetry_equiv_pos_as_xyz
  1  'x, y, z'
loop_
 _atom_site_type_symbol
 _atom_site_label
 _atom_site_symmetry_multiplicity
 _atom_site_fract_x
 _atom_site_fract_y
 _atom_site_fract_z
 _atom_site_occupancy
  Tm  Tm0  1  0.250062  0.766046  0.999970  1
  Tm  Tm1  1  0.250009  0.236579  0.235528  1
  Tm  Tm2  1  0.250020  0.000935  0.764386  1
  Lu  Lu3  1  0.750122  0.235378  0.000087  1
  Lu  Lu4  1  0.749971  0.762186  0.768451  1
  Lu  Lu5  1  0.749993  0.993683  0.231553  1
  Lu  Lu6  1  0.502313  0.337059  0.670635  1
  Lu  Lu7  1  0.502293  0.666387  0.329381  1
  Lu  Lu8  1  0.997657  0.666059  0.328910  1
  Lu  Lu9  1  0.997658  0.337116  0.671086  1
  In  In10  1  0.749800  0.601292  0.000027  1
  Pb  Pb11  1  0.750145  0.392678  0.393910  1
  Pb  Pb12  1  0.749969  0.998874  0.606224  1
  Pb  Pb13  1  0.250505  0.398611  0.999923  1
  Pb  Pb14  1  0.249742  0.604611  0.602131  1
  Pb  Pb15  1  0.249741  0.002510  0.397798  1
