# generated using pymatgen
data_La2HoTm(ZnSn)4
_symmetry_space_group_name_H-M   'P 1'
_cell_length_a   4.55121800
_cell_length_b   4.55121851
_cell_length_c   16.45140500
_cell_angle_alpha   90.00000000
_cell_angle_beta   90.00000000
_cell_angle_gamma   119.99999626
_symmetry_Int_Tables_number   1
_chemical_formula_structural   La2HoTm(ZnSn)4
_chemical_formula_sum   'La2 Ho1 Tm1 Zn4 Sn4'
_cell_volume   295.11342596
_cell_formula_units_Z   1
loop_
 _symmetry_equiv_pos_site_id
 _symmetry_equiv_pos_as_xyz
  1  'x, y, z'
loop_
 _atom_site_type_symbol
 _atom_site_label
 _atom_site_symmetry_multiplicity
 _atom_site_fract_x
 _atom_site_fract_y
 _atom_site_fract_z
 _atom_site_occupancy
  La  La0  1  0.000000  0.000000  0.999725  1
  La  La1  1  0.000000  0.000000  0.500275  1
  Ho  Ho2  1  0.000000  0.000000  0.250000  1
  Tm  Tm3  1  0.000000  0.000000  0.750000  1
  Zn  Zn4  1  0.333333  0.666667  0.165541  1
  Zn  Zn5  1  0.666667  0.333333  0.833995  1
  Zn  Zn6  1  0.666667  0.333333  0.666005  1
  Zn  Zn7  1  0.333333  0.666667  0.334459  1
  Sn  Sn8  1  0.333333  0.666667  0.620312  1
  Sn  Sn9  1  0.666667  0.333333  0.379908  1
  Sn  Sn10  1  0.666667  0.333333  0.120092  1
  Sn  Sn11  1  0.333333  0.666667  0.879688  1
