# generated using pymatgen
data_Nd4Cu4Se5S3
_symmetry_space_group_name_H-M   'P 1'
_cell_length_a   7.41950777
_cell_length_b   6.50609323
_cell_length_c   7.17492199
_cell_angle_alpha   84.07209063
_cell_angle_beta   90.09838706
_cell_angle_gamma   90.06978600
_symmetry_Int_Tables_number   1
_chemical_formula_structural   Nd4Cu4Se5S3
_chemical_formula_sum   'Nd4 Cu4 Se5 S3'
_cell_volume   344.49515340
_cell_formula_units_Z   1
loop_
 _symmetry_equiv_pos_site_id
 _symmetry_equiv_pos_as_xyz
  1  'x, y, z'
loop_
 _atom_site_type_symbol
 _atom_site_label
 _atom_site_symmetry_multiplicity
 _atom_site_fract_x
 _atom_site_fract_y
 _atom_site_fract_z
 _atom_site_occupancy
  Nd  Nd0  1  0.545237  0.321889  0.296163  1
  Nd  Nd1  1  0.035361  0.678168  0.215695  1
  Nd  Nd2  1  0.460718  0.683370  0.702818  1
  Nd  Nd3  1  0.957359  0.326760  0.784922  1
  Cu  Cu4  1  0.838078  0.925957  0.543721  1
  Cu  Cu5  1  0.162980  0.080022  0.456890  1
  Cu  Cu6  1  0.663083  0.919242  0.044157  1
  Cu  Cu7  1  0.340769  0.058707  0.954648  1
  Se  Se8  1  0.275073  0.417976  0.001150  1
  Se  Se9  1  0.610652  0.106210  0.720408  1
  Se  Se10  1  0.107192  0.894888  0.776418  1
  Se  Se11  1  0.388861  0.895664  0.281179  1
  Se  Se12  1  0.888996  0.105000  0.220349  1
  S  S13  1  0.727227  0.581406  0.000608  1
  S  S14  1  0.771765  0.585461  0.500515  1
  S  S15  1  0.226649  0.419281  0.500357  1
