# generated using pymatgen
data_TbYTa2(SnPt)4
_symmetry_space_group_name_H-M   'P 1'
_cell_length_a   6.46093200
_cell_length_b   4.54504100
_cell_length_c   9.12253600
_cell_angle_alpha   90.00000000
_cell_angle_beta   90.00209530
_cell_angle_gamma   90.00000000
_symmetry_Int_Tables_number   1
_chemical_formula_structural   TbYTa2(SnPt)4
_chemical_formula_sum   'Tb1 Y1 Ta2 Sn4 Pt4'
_cell_volume   267.88510170
_cell_formula_units_Z   1
loop_
 _symmetry_equiv_pos_site_id
 _symmetry_equiv_pos_as_xyz
  1  'x, y, z'
loop_
 _atom_site_type_symbol
 _atom_site_label
 _atom_site_symmetry_multiplicity
 _atom_site_fract_x
 _atom_site_fract_y
 _atom_site_fract_z
 _atom_site_occupancy
  Tb  Tb0  1  0.004238  0.000000  0.376464  1
  Y  Y1  1  0.504292  0.500000  0.623439  1
  Ta  Ta2  1  0.496894  0.500000  0.122285  1
  Ta  Ta3  1  0.996903  0.000000  0.877743  1
  Sn  Sn4  1  0.984152  0.500000  0.125199  1
  Sn  Sn5  1  0.511264  0.000000  0.371789  1
  Sn  Sn6  1  0.011201  0.500000  0.628461  1
  Sn  Sn7  1  0.484081  0.000000  0.874582  1
  Pt  Pt8  1  0.734166  0.000000  0.109456  1
  Pt  Pt9  1  0.269300  0.500000  0.353903  1
  Pt  Pt10  1  0.769429  0.000000  0.646121  1
  Pt  Pt11  1  0.234079  0.500000  0.890552  1
