# generated using pymatgen
data_Ce2YU(NbN2)4
_symmetry_space_group_name_H-M   'P 1'
_cell_length_a   3.32036900
_cell_length_b   5.73610351
_cell_length_c   10.97500821
_cell_angle_alpha   89.88419084
_cell_angle_beta   90.00000000
_cell_angle_gamma   90.00000000
_symmetry_Int_Tables_number   1
_chemical_formula_structural   Ce2YU(NbN2)4
_chemical_formula_sum   'Ce2 Y1 U1 Nb4 N8'
_cell_volume   209.02936294
_cell_formula_units_Z   1
loop_
 _symmetry_equiv_pos_site_id
 _symmetry_equiv_pos_as_xyz
  1  'x, y, z'
loop_
 _atom_site_type_symbol
 _atom_site_label
 _atom_site_symmetry_multiplicity
 _atom_site_fract_x
 _atom_site_fract_y
 _atom_site_fract_z
 _atom_site_occupancy
  Ce  Ce0  1  0.250000  0.576935  0.858435  1
  Ce  Ce1  1  0.750000  0.420311  0.144733  1
  Y  Y2  1  0.750000  0.920085  0.355917  1
  U  U3  1  0.250000  0.075678  0.636630  1
  Nb  Nb4  1  0.250000  0.920916  0.102866  1
  Nb  Nb5  1  0.750000  0.077811  0.898384  1
  Nb  Nb6  1  0.750000  0.577786  0.600402  1
  Nb  Nb7  1  0.250000  0.425928  0.402104  1
  N  N8  1  0.250000  0.662043  0.249674  1
  N  N9  1  0.750000  0.332270  0.749491  1
  N  N10  1  0.750000  0.850387  0.739619  1
  N  N11  1  0.250000  0.161131  0.255252  1
  N  N12  1  0.250000  0.763663  0.508804  1
  N  N13  1  0.750000  0.235705  0.497910  1
  N  N14  1  0.750000  0.750707  0.007958  1
  N  N15  1  0.250000  0.248645  0.991821  1
