# generated using pymatgen
data_La8Y11LuSi16
_symmetry_space_group_name_H-M   'P 1'
_cell_length_a   7.83145042
_cell_length_b   7.83145055
_cell_length_c   14.50061100
_cell_angle_alpha   90.01880973
_cell_angle_beta   89.98119027
_cell_angle_gamma   90.01021215
_symmetry_Int_Tables_number   1
_chemical_formula_structural   La8Y11LuSi16
_chemical_formula_sum   'La8 Y11 Lu1 Si16'
_cell_volume   889.34580560
_cell_formula_units_Z   1
loop_
 _symmetry_equiv_pos_site_id
 _symmetry_equiv_pos_as_xyz
  1  'x, y, z'
loop_
 _atom_site_type_symbol
 _atom_site_label
 _atom_site_symmetry_multiplicity
 _atom_site_fract_x
 _atom_site_fract_y
 _atom_site_fract_z
 _atom_site_occupancy
  La  La0  1  0.991652  0.642391  0.041261  1
  La  La1  1  0.008508  0.357241  0.541333  1
  La  La2  1  0.642391  0.991652  0.958739  1
  La  La3  1  0.142379  0.508389  0.791637  1
  La  La4  1  0.857754  0.491293  0.290839  1
  La  La5  1  0.508389  0.142379  0.208363  1
  La  La6  1  0.491293  0.857754  0.709161  1
  La  La7  1  0.357241  0.008508  0.458667  1
  Y  Y8  1  0.360884  0.491912  0.374944  1
  Y  Y9  1  0.860551  0.007604  0.374827  1
  Y  Y10  1  0.992535  0.139279  0.124694  1
  Y  Y11  1  0.007604  0.860551  0.625173  1
  Y  Y12  1  0.639069  0.507481  0.875568  1
  Y  Y13  1  0.491912  0.360884  0.625056  1
  Y  Y14  1  0.507481  0.639069  0.124432  1
  Y  Y15  1  0.139279  0.992535  0.875306  1
  Y  Y16  1  0.682579  0.682579  0.500000  1
  Y  Y17  1  0.818067  0.182750  0.749910  1
  Y  Y18  1  0.182750  0.818067  0.250090  1
  Lu  Lu19  1  0.317675  0.317675  0.000000  1
  Si  Si20  1  0.064841  0.710569  0.438152  1
  Si  Si21  1  0.936460  0.289699  0.938196  1
  Si  Si22  1  0.710569  0.064841  0.561848  1
  Si  Si23  1  0.211644  0.434283  0.186570  1
  Si  Si24  1  0.788707  0.564972  0.688522  1
  Si  Si25  1  0.434283  0.211644  0.813430  1
  Si  Si26  1  0.564972  0.788707  0.311478  1
  Si  Si27  1  0.289699  0.936460  0.061804  1
  Si  Si28  1  0.847319  0.795833  0.809116  1
  Si  Si29  1  0.153207  0.203417  0.308199  1
  Si  Si30  1  0.795833  0.847319  0.190884  1
  Si  Si31  1  0.295776  0.652657  0.558946  1
  Si  Si32  1  0.703475  0.347151  0.058853  1
  Si  Si33  1  0.652657  0.295776  0.441054  1
  Si  Si34  1  0.347151  0.703475  0.941147  1
  Si  Si35  1  0.203417  0.153207  0.691801  1
