# generated using pymatgen
data_Zr4IrAuN
_symmetry_space_group_name_H-M   'P 1'
_cell_length_a   8.92321126
_cell_length_b   8.92321049
_cell_length_c   8.92321100
_cell_angle_alpha   60.00000181
_cell_angle_beta   60.00000468
_cell_angle_gamma   60.00000239
_symmetry_Int_Tables_number   1
_chemical_formula_structural   Zr4IrAuN
_chemical_formula_sum   'Zr16 Ir4 Au4 N4'
_cell_volume   502.39869969
_cell_formula_units_Z   4
loop_
 _symmetry_equiv_pos_site_id
 _symmetry_equiv_pos_as_xyz
  1  'x, y, z'
loop_
 _atom_site_type_symbol
 _atom_site_label
 _atom_site_symmetry_multiplicity
 _atom_site_fract_x
 _atom_site_fract_y
 _atom_site_fract_z
 _atom_site_occupancy
  Zr  Zr0  1  0.098065  0.633978  0.633978  1
  Zr  Zr1  1  0.633978  0.098065  0.633978  1
  Zr  Zr2  1  0.633978  0.633978  0.098065  1
  Zr  Zr3  1  0.633978  0.633978  0.633978  1
  Zr  Zr4  1  0.819001  0.819001  0.180999  1
  Zr  Zr5  1  0.180999  0.180999  0.819001  1
  Zr  Zr6  1  0.819001  0.180999  0.819001  1
  Zr  Zr7  1  0.180999  0.819001  0.180999  1
  Zr  Zr8  1  0.180999  0.819001  0.819001  1
  Zr  Zr9  1  0.819001  0.180999  0.180999  1
  Zr  Zr10  1  0.431493  0.431493  0.068507  1
  Zr  Zr11  1  0.068507  0.068507  0.431493  1
  Zr  Zr12  1  0.431493  0.068507  0.431493  1
  Zr  Zr13  1  0.068507  0.431493  0.068507  1
  Zr  Zr14  1  0.068507  0.431493  0.431493  1
  Zr  Zr15  1  0.431493  0.068507  0.068507  1
  Ir  Ir16  1  0.457312  0.847562  0.847562  1
  Ir  Ir17  1  0.847562  0.457312  0.847562  1
  Ir  Ir18  1  0.847562  0.847562  0.457312  1
  Ir  Ir19  1  0.847562  0.847562  0.847562  1
  Au  Au20  1  0.762264  0.412579  0.412579  1
  Au  Au21  1  0.412579  0.762264  0.412579  1
  Au  Au22  1  0.412579  0.412579  0.762264  1
  Au  Au23  1  0.412579  0.412579  0.412579  1
  N  N24  1  0.622006  0.125998  0.125998  1
  N  N25  1  0.125998  0.622006  0.125998  1
  N  N26  1  0.125998  0.125998  0.622006  1
  N  N27  1  0.125998  0.125998  0.125998  1
