# generated using pymatgen
data_Zr6Sc4Al12Ir5Pt2
_symmetry_space_group_name_H-M   'P 1'
_cell_length_a   8.93162240
_cell_length_b   8.93162236
_cell_length_c   8.93163100
_cell_angle_alpha   59.99996428
_cell_angle_beta   59.99996446
_cell_angle_gamma   60.01701260
_symmetry_Int_Tables_number   1
_chemical_formula_structural   Zr6Sc4Al12Ir5Pt2
_chemical_formula_sum   'Zr6 Sc4 Al12 Ir5 Pt2'
_cell_volume   503.88572423
_cell_formula_units_Z   1
loop_
 _symmetry_equiv_pos_site_id
 _symmetry_equiv_pos_as_xyz
  1  'x, y, z'
loop_
 _atom_site_type_symbol
 _atom_site_label
 _atom_site_symmetry_multiplicity
 _atom_site_fract_x
 _atom_site_fract_y
 _atom_site_fract_z
 _atom_site_occupancy
  Zr  Zr0  1  0.682258  0.682258  0.317742  1
  Zr  Zr1  1  0.316140  0.684011  0.314978  1
  Zr  Zr2  1  0.684011  0.316140  0.314978  1
  Zr  Zr3  1  0.316485  0.316485  0.683515  1
  Zr  Zr4  1  0.684011  0.316140  0.684871  1
  Zr  Zr5  1  0.316140  0.684011  0.684871  1
  Sc  Sc6  1  0.878424  0.878424  0.360065  1
  Sc  Sc7  1  0.879126  0.360813  0.880031  1
  Sc  Sc8  1  0.360813  0.879126  0.880031  1
  Sc  Sc9  1  0.878424  0.878424  0.883086  1
  Al  Al10  1  0.124139  0.124139  0.633452  1
  Al  Al11  1  0.123175  0.632554  0.122135  1
  Al  Al12  1  0.632554  0.123175  0.122135  1
  Al  Al13  1  0.124139  0.124139  0.118270  1
  Al  Al14  1  0.661733  0.661733  0.014203  1
  Al  Al15  1  0.658464  0.016676  0.662430  1
  Al  Al16  1  0.016676  0.658464  0.662430  1
  Al  Al17  1  0.661733  0.661733  0.662332  1
  Al  Al18  1  0.336927  0.336927  0.989657  1
  Al  Al19  1  0.339426  0.987665  0.336454  1
  Al  Al20  1  0.987665  0.339426  0.336454  1
  Al  Al21  1  0.336927  0.336927  0.336490  1
  Ir  Ir22  1  0.499007  0.001229  0.498792  1
  Ir  Ir23  1  0.001229  0.499007  0.498792  1
  Ir  Ir24  1  0.498862  0.498862  0.001138  1
  Ir  Ir25  1  0.001229  0.499007  0.000972  1
  Ir  Ir26  1  0.499007  0.001229  0.000972  1
  Pt  Pt27  1  0.000131  0.000131  0.999869  1
  Pt  Pt28  1  0.001145  0.001145  0.498855  1
