# generated using pymatgen
data_Eu4Ga6IrRu
_symmetry_space_group_name_H-M   'P 1'
_cell_length_a   5.71091600
_cell_length_b   5.71091484
_cell_length_c   8.80255800
_cell_angle_alpha   90.00000000
_cell_angle_beta   90.00000000
_cell_angle_gamma   120.00000670
_symmetry_Int_Tables_number   1
_chemical_formula_structural   Eu4Ga6IrRu
_chemical_formula_sum   'Eu4 Ga6 Ir1 Ru1'
_cell_volume   248.62852553
_cell_formula_units_Z   1
loop_
 _symmetry_equiv_pos_site_id
 _symmetry_equiv_pos_as_xyz
  1  'x, y, z'
loop_
 _atom_site_type_symbol
 _atom_site_label
 _atom_site_symmetry_multiplicity
 _atom_site_fract_x
 _atom_site_fract_y
 _atom_site_fract_z
 _atom_site_occupancy
  Eu  Eu0  1  0.333333  0.666667  0.449691  1
  Eu  Eu1  1  0.666667  0.333333  0.949711  1
  Eu  Eu2  1  0.333333  0.666667  0.050289  1
  Eu  Eu3  1  0.666667  0.333333  0.550309  1
  Ga  Ga4  1  0.840669  0.681338  0.249800  1
  Ga  Ga5  1  0.840669  0.159331  0.249800  1
  Ga  Ga6  1  0.159331  0.840669  0.750200  1
  Ga  Ga7  1  0.318662  0.159331  0.249800  1
  Ga  Ga8  1  0.681338  0.840669  0.750200  1
  Ga  Ga9  1  0.159331  0.318662  0.750200  1
  Ir  Ir10  1  0.000000  0.000000  0.500000  1
  Ru  Ru11  1  0.000000  0.000000  0.000000  1
