# generated using pymatgen
data_Er6Tm10CdIn3Rh4
_symmetry_space_group_name_H-M   'P 1'
_cell_length_a   9.52700266
_cell_length_b   9.53022144
_cell_length_c   9.52743300
_cell_angle_alpha   60.04053088
_cell_angle_beta   59.97233827
_cell_angle_gamma   60.01842866
_symmetry_Int_Tables_number   1
_chemical_formula_structural   Er6Tm10CdIn3Rh4
_chemical_formula_sum   'Er6 Tm10 Cd1 In3 Rh4'
_cell_volume   611.81845084
_cell_formula_units_Z   1
loop_
 _symmetry_equiv_pos_site_id
 _symmetry_equiv_pos_as_xyz
  1  'x, y, z'
loop_
 _atom_site_type_symbol
 _atom_site_label
 _atom_site_symmetry_multiplicity
 _atom_site_fract_x
 _atom_site_fract_y
 _atom_site_fract_z
 _atom_site_occupancy
  Er  Er0  1  0.061808  0.061776  0.438086  1
  Er  Er1  1  0.436545  0.064712  0.436372  1
  Er  Er2  1  0.061657  0.438288  0.061653  1
  Er  Er3  1  0.051063  0.648556  0.648727  1
  Er  Er4  1  0.436376  0.436687  0.064628  1
  Er  Er5  1  0.648453  0.051260  0.648661  1
  Tm  Tm6  1  0.188656  0.812233  0.188447  1
  Tm  Tm7  1  0.188430  0.188272  0.812566  1
  Tm  Tm8  1  0.810265  0.810059  0.190528  1
  Tm  Tm9  1  0.438404  0.061357  0.061432  1
  Tm  Tm10  1  0.812561  0.188351  0.188389  1
  Tm  Tm11  1  0.064378  0.436959  0.436584  1
  Tm  Tm12  1  0.810226  0.190396  0.810218  1
  Tm  Tm13  1  0.190510  0.810175  0.810397  1
  Tm  Tm14  1  0.648712  0.648788  0.050720  1
  Tm  Tm15  1  0.651232  0.651310  0.651274  1
  Cd  Cd16  1  0.417437  0.417598  0.417316  1
  In  In17  1  0.748152  0.417518  0.417218  1
  In  In18  1  0.417459  0.748408  0.416965  1
  In  In19  1  0.417404  0.417161  0.748304  1
  Rh  Rh20  1  0.858356  0.858222  0.426431  1
  Rh  Rh21  1  0.856924  0.857194  0.857810  1
  Rh  Rh22  1  0.426800  0.858105  0.858753  1
  Rh  Rh23  1  0.858192  0.426614  0.858522  1
