# generated using pymatgen
data_Li4NdHo3Si8
_symmetry_space_group_name_H-M   'P 1'
_cell_length_a   3.81579100
_cell_length_b   7.60681113
_cell_length_c   10.21284311
_cell_angle_alpha   89.81975764
_cell_angle_beta   90.00000000
_cell_angle_gamma   90.00000000
_symmetry_Int_Tables_number   1
_chemical_formula_structural   Li4NdHo3Si8
_chemical_formula_sum   'Li4 Nd1 Ho3 Si8'
_cell_volume   296.43653231
_cell_formula_units_Z   1
loop_
 _symmetry_equiv_pos_site_id
 _symmetry_equiv_pos_as_xyz
  1  'x, y, z'
loop_
 _atom_site_type_symbol
 _atom_site_label
 _atom_site_symmetry_multiplicity
 _atom_site_fract_x
 _atom_site_fract_y
 _atom_site_fract_z
 _atom_site_occupancy
  Li  Li0  1  0.250000  0.991852  0.391964  1
  Li  Li1  1  0.250000  0.488222  0.106829  1
  Li  Li2  1  0.750000  0.011620  0.610548  1
  Li  Li3  1  0.750000  0.510422  0.892952  1
  Nd  Nd4  1  0.750000  0.357414  0.363132  1
  Ho  Ho5  1  0.250000  0.137434  0.863004  1
  Ho  Ho6  1  0.250000  0.640288  0.636406  1
  Ho  Ho7  1  0.750000  0.860697  0.135646  1
  Si  Si8  1  0.250000  0.231349  0.574155  1
  Si  Si9  1  0.250000  0.732607  0.931583  1
  Si  Si10  1  0.750000  0.773419  0.431615  1
  Si  Si11  1  0.750000  0.261943  0.063415  1
  Si  Si12  1  0.250000  0.662169  0.320598  1
  Si  Si13  1  0.250000  0.151707  0.174544  1
  Si  Si14  1  0.750000  0.344961  0.682658  1
  Si  Si15  1  0.750000  0.843896  0.820949  1
