# generated using pymatgen
data_Ho2Tm(Ga2Ni3)3
_symmetry_space_group_name_H-M   'P 1'
_cell_length_a   4.08044000
_cell_length_b   8.77487675
_cell_length_c   8.73792200
_cell_angle_alpha   60.24522916
_cell_angle_beta   90.00000000
_cell_angle_gamma   90.00000000
_symmetry_Int_Tables_number   1
_chemical_formula_structural   Ho2Tm(Ga2Ni3)3
_chemical_formula_sum   'Ho2 Tm1 Ga6 Ni9'
_cell_volume   271.61559582
_cell_formula_units_Z   1
loop_
 _symmetry_equiv_pos_site_id
 _symmetry_equiv_pos_as_xyz
  1  'x, y, z'
loop_
 _atom_site_type_symbol
 _atom_site_label
 _atom_site_symmetry_multiplicity
 _atom_site_fract_x
 _atom_site_fract_y
 _atom_site_fract_z
 _atom_site_occupancy
  Ho  Ho0  1  0.500000  0.333925  0.333399  1
  Ho  Ho1  1  0.000000  0.999398  0.001349  1
  Tm  Tm2  1  0.500000  0.666129  0.666976  1
  Ga  Ga3  1  0.500000  0.728712  0.271860  1
  Ga  Ga4  1  0.500000  0.271451  0.999899  1
  Ga  Ga5  1  0.500000  0.999611  0.728793  1
  Ga  Ga6  1  0.000000  0.478174  0.521191  1
  Ga  Ga7  1  0.000000  0.522062  0.998940  1
  Ga  Ga8  1  0.000000  0.000786  0.477835  1
  Ni  Ni9  1  0.000000  0.203720  0.172987  1
  Ni  Ni10  1  0.000000  0.172511  0.626255  1
  Ni  Ni11  1  0.000000  0.625695  0.201389  1
  Ni  Ni12  1  0.000000  0.826014  0.796490  1
  Ni  Ni13  1  0.000000  0.374900  0.826630  1
  Ni  Ni14  1  0.000000  0.795803  0.378228  1
  Ni  Ni15  1  0.500000  0.292768  0.707042  1
  Ni  Ni16  1  0.500000  0.708285  0.998846  1
  Ni  Ni17  1  0.500000  0.999953  0.291990  1
