# generated using pymatgen
data_Nd3Ho(PPt)4
_symmetry_space_group_name_H-M   'P 1'
_cell_length_a   4.16268100
_cell_length_b   4.16268132
_cell_length_c   16.12900500
_cell_angle_alpha   90.00000000
_cell_angle_beta   90.00000000
_cell_angle_gamma   120.00002128
_symmetry_Int_Tables_number   1
_chemical_formula_structural   Nd3Ho(PPt)4
_chemical_formula_sum   'Nd3 Ho1 P4 Pt4'
_cell_volume   242.03847628
_cell_formula_units_Z   1
loop_
 _symmetry_equiv_pos_site_id
 _symmetry_equiv_pos_as_xyz
  1  'x, y, z'
loop_
 _atom_site_type_symbol
 _atom_site_label
 _atom_site_symmetry_multiplicity
 _atom_site_fract_x
 _atom_site_fract_y
 _atom_site_fract_z
 _atom_site_occupancy
  Nd  Nd0  1  0.000000  0.000000  0.507217  1
  Nd  Nd1  1  0.000000  0.000000  0.992783  1
  Nd  Nd2  1  0.000000  0.000000  0.250000  1
  Ho  Ho3  1  0.000000  0.000000  0.750000  1
  P  P4  1  0.333333  0.666667  0.874231  1
  P  P5  1  0.666667  0.333333  0.122694  1
  P  P6  1  0.666667  0.333333  0.377306  1
  P  P7  1  0.333333  0.666667  0.625769  1
  Pt  Pt8  1  0.333333  0.666667  0.377774  1
  Pt  Pt9  1  0.666667  0.333333  0.640839  1
  Pt  Pt10  1  0.666667  0.333333  0.859161  1
  Pt  Pt11  1  0.333333  0.666667  0.122226  1
