# generated using pymatgen
data_U5Ta3(P3Ru4)4
_symmetry_space_group_name_H-M   'P 1'
_cell_length_a   12.75578200
_cell_length_b   12.75578091
_cell_length_c   3.88324800
_cell_angle_alpha   90.00000000
_cell_angle_beta   90.00000000
_cell_angle_gamma   120.00000282
_symmetry_Int_Tables_number   1
_chemical_formula_structural   U5Ta3(P3Ru4)4
_chemical_formula_sum   'U5 Ta3 P12 Ru16'
_cell_volume   547.19218523
_cell_formula_units_Z   1
loop_
 _symmetry_equiv_pos_site_id
 _symmetry_equiv_pos_as_xyz
  1  'x, y, z'
loop_
 _atom_site_type_symbol
 _atom_site_label
 _atom_site_symmetry_multiplicity
 _atom_site_fract_x
 _atom_site_fract_y
 _atom_site_fract_z
 _atom_site_occupancy
  U  U0  1  0.186517  0.186517  0.500000  1
  U  U1  1  0.813483  0.000000  0.500000  1
  U  U2  1  0.000000  0.813483  0.500000  1
  U  U3  1  0.333333  0.666667  0.000000  1
  U  U4  1  0.666667  0.333333  0.000000  1
  Ta  Ta5  1  0.562390  0.562390  0.000000  1
  Ta  Ta6  1  0.437610  0.000000  0.000000  1
  Ta  Ta7  1  0.000000  0.437610  0.000000  1
  P  P8  1  0.820861  0.820861  0.000000  1
  P  P9  1  0.179139  0.000000  0.000000  1
  P  P10  1  0.000000  0.179139  0.000000  1
  P  P11  1  0.167189  0.477686  0.500000  1
  P  P12  1  0.522314  0.689503  0.500000  1
  P  P13  1  0.310497  0.832811  0.500000  1
  P  P14  1  0.689503  0.522314  0.500000  1
  P  P15  1  0.832811  0.310497  0.500000  1
  P  P16  1  0.477686  0.167189  0.500000  1
  P  P17  1  0.365136  0.365136  0.000000  1
  P  P18  1  0.634864  0.000000  0.000000  1
  P  P19  1  0.000000  0.634864  0.000000  1
  Ru  Ru20  1  0.722941  0.722941  0.500000  1
  Ru  Ru21  1  0.277059  0.000000  0.500000  1
  Ru  Ru22  1  0.000000  0.277059  0.500000  1
  Ru  Ru23  1  0.181514  0.369381  0.000000  1
  Ru  Ru24  1  0.630619  0.812133  0.000000  1
  Ru  Ru25  1  0.187867  0.818486  0.000000  1
  Ru  Ru26  1  0.812133  0.630619  0.000000  1
  Ru  Ru27  1  0.818486  0.187867  0.000000  1
  Ru  Ru28  1  0.369381  0.181514  0.000000  1
  Ru  Ru29  1  0.360074  0.490558  0.500000  1
  Ru  Ru30  1  0.509442  0.869515  0.500000  1
  Ru  Ru31  1  0.130485  0.639926  0.500000  1
  Ru  Ru32  1  0.869515  0.509442  0.500000  1
  Ru  Ru33  1  0.639926  0.130485  0.500000  1
  Ru  Ru34  1  0.490558  0.360074  0.500000  1
  Ru  Ru35  1  0.000000  0.000000  0.000000  1
