# generated using pymatgen
data_Er2Pa(InPd)3
_symmetry_space_group_name_H-M   'P 1'
_cell_length_a   7.75171200
_cell_length_b   7.74299491
_cell_length_c   3.78294100
_cell_angle_alpha   90.00000000
_cell_angle_beta   90.00000000
_cell_angle_gamma   120.03724826
_symmetry_Int_Tables_number   1
_chemical_formula_structural   Er2Pa(InPd)3
_chemical_formula_sum   'Er2 Pa1 In3 Pd3'
_cell_volume   196.56386040
_cell_formula_units_Z   1
loop_
 _symmetry_equiv_pos_site_id
 _symmetry_equiv_pos_as_xyz
  1  'x, y, z'
loop_
 _atom_site_type_symbol
 _atom_site_label
 _atom_site_symmetry_multiplicity
 _atom_site_fract_x
 _atom_site_fract_y
 _atom_site_fract_z
 _atom_site_occupancy
  Er  Er0  1  0.594945  0.595155  0.500000  1
  Er  Er1  1  0.999790  0.404845  0.500000  1
  Pa  Pa2  1  0.408282  0.000000  0.500000  1
  In  In3  1  0.261716  0.267153  0.000000  1
  In  In4  1  0.743641  0.000000  0.000000  1
  In  In5  1  0.994563  0.732847  0.000000  1
  Pd  Pd6  1  0.004437  0.000000  0.500000  1
  Pd  Pd7  1  0.657976  0.323326  0.000000  1
  Pd  Pd8  1  0.334649  0.676674  0.000000  1
