# generated using pymatgen
data_Er5Tm11(In3Ir)2
_symmetry_space_group_name_H-M   'P 1'
_cell_length_a   10.29481503
_cell_length_b   10.29481541
_cell_length_c   6.97945001
_cell_angle_alpha   89.99380285
_cell_angle_beta   90.00619475
_cell_angle_gamma   119.99293346
_symmetry_Int_Tables_number   1
_chemical_formula_structural   Er5Tm11(In3Ir)2
_chemical_formula_sum   'Er5 Tm11 In6 Ir2'
_cell_volume   640.64857119
_cell_formula_units_Z   1
loop_
 _symmetry_equiv_pos_site_id
 _symmetry_equiv_pos_as_xyz
  1  'x, y, z'
loop_
 _atom_site_type_symbol
 _atom_site_label
 _atom_site_symmetry_multiplicity
 _atom_site_fract_x
 _atom_site_fract_y
 _atom_site_fract_z
 _atom_site_occupancy
  Er  Er0  1  0.532761  0.065512  0.514786  1
  Er  Er1  1  0.934488  0.467239  0.514786  1
  Er  Er2  1  0.532662  0.467338  0.514845  1
  Er  Er3  1  0.467219  0.934411  0.014755  1
  Er  Er4  1  0.065589  0.532781  0.014755  1
  Tm  Tm5  1  0.467070  0.532930  0.014774  1
  Tm  Tm6  1  0.176765  0.353352  0.721518  1
  Tm  Tm7  1  0.646648  0.823235  0.721518  1
  Tm  Tm8  1  0.176634  0.823366  0.721377  1
  Tm  Tm9  1  0.823203  0.646649  0.221286  1
  Tm  Tm10  1  0.353351  0.176797  0.221286  1
  Tm  Tm11  1  0.823364  0.176636  0.221396  1
  Tm  Tm12  1  0.666605  0.333395  0.895669  1
  Tm  Tm13  1  0.333404  0.666596  0.395588  1
  Tm  Tm14  1  0.000014  0.999986  0.500324  1
  Tm  Tm15  1  0.000006  0.999994  0.000367  1
  In  In16  1  0.837243  0.674489  0.761350  1
  In  In17  1  0.325511  0.162757  0.761350  1
  In  In18  1  0.837241  0.162759  0.761268  1
  In  In19  1  0.162891  0.325594  0.261217  1
  In  In20  1  0.674406  0.837109  0.261217  1
  In  In21  1  0.162749  0.837251  0.261346  1
  Ir  Ir22  1  0.666676  0.333324  0.290531  1
  Ir  Ir23  1  0.333502  0.666498  0.790688  1
