# generated using pymatgen
data_Ac2CeSn2Rh3Pb
_symmetry_space_group_name_H-M   'P 1'
_cell_length_a   7.73410886
_cell_length_b   7.72548064
_cell_length_c   4.25179100
_cell_angle_alpha   90.00000000
_cell_angle_beta   90.00000000
_cell_angle_gamma   119.96308846
_symmetry_Int_Tables_number   1
_chemical_formula_structural   Ac2CeSn2Rh3Pb
_chemical_formula_sum   'Ac2 Ce1 Sn2 Rh3 Pb1'
_cell_volume   220.08971233
_cell_formula_units_Z   1
loop_
 _symmetry_equiv_pos_site_id
 _symmetry_equiv_pos_as_xyz
  1  'x, y, z'
loop_
 _atom_site_type_symbol
 _atom_site_label
 _atom_site_symmetry_multiplicity
 _atom_site_fract_x
 _atom_site_fract_y
 _atom_site_fract_z
 _atom_site_occupancy
  Ac  Ac0  1  0.416450  0.415164  0.500000  1
  Ac  Ac1  1  0.583550  0.998714  0.500000  1
  Ce  Ce2  1  0.000000  0.590926  0.500000  1
  Sn  Sn3  1  0.758646  0.752385  0.000000  1
  Sn  Sn4  1  0.241354  0.993740  0.000000  1
  Rh  Rh5  1  0.000000  0.970742  0.500000  1
  Rh  Rh6  1  0.684901  0.355478  0.000000  1
  Rh  Rh7  1  0.315099  0.670579  0.000000  1
  Pb  Pb8  1  0.000000  0.252273  0.000000  1
