# generated using pymatgen
data_Eu6Co17P12W
_symmetry_space_group_name_H-M   'P 1'
_cell_length_a   3.76822700
_cell_length_b   10.69671300
_cell_length_c   12.40694100
_cell_angle_alpha   90.00000000
_cell_angle_beta   90.00000000
_cell_angle_gamma   90.00000000
_symmetry_Int_Tables_number   1
_chemical_formula_structural   Eu6Co17P12W
_chemical_formula_sum   'Eu6 Co17 P12 W1'
_cell_volume   500.09454530
_cell_formula_units_Z   1
loop_
 _symmetry_equiv_pos_site_id
 _symmetry_equiv_pos_as_xyz
  1  'x, y, z'
loop_
 _atom_site_type_symbol
 _atom_site_label
 _atom_site_symmetry_multiplicity
 _atom_site_fract_x
 _atom_site_fract_y
 _atom_site_fract_z
 _atom_site_occupancy
  Eu  Eu0  1  0.000000  0.500000  0.526764  1
  Eu  Eu1  1  0.500000  0.000000  0.475920  1
  Eu  Eu2  1  0.500000  0.821593  0.206918  1
  Eu  Eu3  1  0.500000  0.178407  0.206918  1
  Eu  Eu4  1  0.000000  0.679954  0.794719  1
  Eu  Eu5  1  0.000000  0.320046  0.794719  1
  Co  Co6  1  0.000000  0.000000  0.842576  1
  Co  Co7  1  0.500000  0.500000  0.701219  1
  Co  Co8  1  0.000000  0.000000  0.296983  1
  Co  Co9  1  0.000000  0.500000  0.989008  1
  Co  Co10  1  0.500000  0.000000  0.009536  1
  Co  Co11  1  0.500000  0.331327  0.993211  1
  Co  Co12  1  0.500000  0.668673  0.993211  1
  Co  Co13  1  0.000000  0.166225  0.003802  1
  Co  Co14  1  0.000000  0.833775  0.003802  1
  Co  Co15  1  0.500000  0.296289  0.431985  1
  Co  Co16  1  0.500000  0.703711  0.431985  1
  Co  Co17  1  0.000000  0.202244  0.569402  1
  Co  Co18  1  0.000000  0.797756  0.569402  1
  Co  Co19  1  0.500000  0.881691  0.709038  1
  Co  Co20  1  0.500000  0.118309  0.709038  1
  Co  Co21  1  0.000000  0.619451  0.291580  1
  Co  Co22  1  0.000000  0.380549  0.291580  1
  P  P23  1  0.500000  0.500000  0.885489  1
  P  P24  1  0.000000  0.000000  0.112121  1
  P  P25  1  0.500000  0.500000  0.346071  1
  P  P26  1  0.000000  0.000000  0.660896  1
  P  P27  1  0.500000  0.303874  0.615535  1
  P  P28  1  0.500000  0.696126  0.615535  1
  P  P29  1  0.000000  0.195043  0.386012  1
  P  P30  1  0.000000  0.804957  0.386012  1
  P  P31  1  0.500000  0.848309  0.892625  1
  P  P32  1  0.500000  0.151691  0.892625  1
  P  P33  1  0.000000  0.656450  0.104758  1
  P  P34  1  0.000000  0.343550  0.104758  1
  W  W35  1  0.500000  0.500000  0.154248  1
