# generated using pymatgen
data_Dy2HoBe2(PPd5)4
_symmetry_space_group_name_H-M   'P 1'
_cell_length_a   8.66936757
_cell_length_b   8.59228635
_cell_length_c   8.59228509
_cell_angle_alpha   60.59350371
_cell_angle_beta   59.70280716
_cell_angle_gamma   59.70282165
_symmetry_Int_Tables_number   1
_chemical_formula_structural   Dy2HoBe2(PPd5)4
_chemical_formula_sum   'Dy2 Ho1 Be2 P4 Pd20'
_cell_volume   452.49792856
_cell_formula_units_Z   1
loop_
 _symmetry_equiv_pos_site_id
 _symmetry_equiv_pos_as_xyz
  1  'x, y, z'
loop_
 _atom_site_type_symbol
 _atom_site_label
 _atom_site_symmetry_multiplicity
 _atom_site_fract_x
 _atom_site_fract_y
 _atom_site_fract_z
 _atom_site_occupancy
  Dy  Dy0  1  0.250002  0.249998  0.249998  1
  Dy  Dy1  1  0.749998  0.750002  0.750002  1
  Ho  Ho2  1  0.000000  0.000000  0.000000  1
  Be  Be3  1  0.733332  0.266668  0.266668  1
  Be  Be4  1  0.266668  0.733332  0.733332  1
  P  P5  1  0.266290  0.733708  0.266292  1
  P  P6  1  0.733710  0.266292  0.733708  1
  P  P7  1  0.266290  0.266292  0.733708  1
  P  P8  1  0.733710  0.733708  0.266292  1
  Pd  Pd9  1  0.387629  0.382323  0.382323  1
  Pd  Pd10  1  0.612371  0.617677  0.617677  1
  Pd  Pd11  1  0.382351  0.387619  0.847690  1
  Pd  Pd12  1  0.382351  0.847690  0.387619  1
  Pd  Pd13  1  0.617649  0.612381  0.152310  1
  Pd  Pd14  1  0.617649  0.152310  0.612381  1
  Pd  Pd15  1  0.847728  0.382321  0.382321  1
  Pd  Pd16  1  0.152272  0.617679  0.617679  1
  Pd  Pd17  1  0.344533  0.999998  0.999998  1
  Pd  Pd18  1  0.655467  0.000002  0.000002  1
  Pd  Pd19  1  0.000000  0.344552  0.655448  1
  Pd  Pd20  1  0.000000  0.655448  0.344552  1
  Pd  Pd21  1  0.997170  0.343064  0.002863  1
  Pd  Pd22  1  0.656899  0.002866  0.343068  1
  Pd  Pd23  1  0.002830  0.656936  0.997137  1
  Pd  Pd24  1  0.343101  0.997134  0.656932  1
  Pd  Pd25  1  0.997170  0.002863  0.343064  1
  Pd  Pd26  1  0.002830  0.997137  0.656936  1
  Pd  Pd27  1  0.656899  0.343068  0.002866  1
  Pd  Pd28  1  0.343101  0.656932  0.997134  1
