# generated using pymatgen
data_YLuHf4(SnRh)6
_symmetry_space_group_name_H-M   'P 1'
_cell_length_a   7.47554270
_cell_length_b   7.45402740
_cell_length_c   7.29254600
_cell_angle_alpha   90.00000000
_cell_angle_beta   90.00000000
_cell_angle_gamma   119.81467081
_symmetry_Int_Tables_number   1
_chemical_formula_structural   YLuHf4(SnRh)6
_chemical_formula_sum   'Y1 Lu1 Hf4 Sn6 Rh6'
_cell_volume   352.57502006
_cell_formula_units_Z   1
loop_
 _symmetry_equiv_pos_site_id
 _symmetry_equiv_pos_as_xyz
  1  'x, y, z'
loop_
 _atom_site_type_symbol
 _atom_site_label
 _atom_site_symmetry_multiplicity
 _atom_site_fract_x
 _atom_site_fract_y
 _atom_site_fract_z
 _atom_site_occupancy
  Y  Y0  1  0.998600  0.401793  0.250000  1
  Lu  Lu1  1  0.599792  0.596847  0.250000  1
  Hf  Hf2  1  0.998606  0.391356  0.750000  1
  Hf  Hf3  1  0.604666  0.611066  0.750000  1
  Hf  Hf4  1  0.392305  0.996749  0.750000  1
  Hf  Hf5  1  0.399860  0.998988  0.250000  1
  Sn  Sn6  1  0.270525  0.268824  0.505486  1
  Sn  Sn7  1  0.997919  0.730544  0.506984  1
  Sn  Sn8  1  0.997919  0.730544  0.993016  1
  Sn  Sn9  1  0.731635  0.000012  0.497074  1
  Sn  Sn10  1  0.731635  0.000012  0.002926  1
  Sn  Sn11  1  0.270525  0.268824  0.994514  1
  Rh  Rh12  1  0.336471  0.674425  0.523005  1
  Rh  Rh13  1  0.661423  0.328447  0.531836  1
  Rh  Rh14  1  0.336471  0.674425  0.976995  1
  Rh  Rh15  1  0.997963  0.000599  0.750000  1
  Rh  Rh16  1  0.012264  0.998097  0.250000  1
  Rh  Rh17  1  0.661423  0.328447  0.968164  1
