# generated using pymatgen
data_HfZr3TiSn3P
_symmetry_space_group_name_H-M   'P 1'
_cell_length_a   8.55304300
_cell_length_b   8.55304403
_cell_length_c   5.83155500
_cell_angle_alpha   90.00000000
_cell_angle_beta   90.00000000
_cell_angle_gamma   119.99999213
_symmetry_Int_Tables_number   1
_chemical_formula_structural   HfZr3TiSn3P
_chemical_formula_sum   'Hf2 Zr6 Ti2 Sn6 P2'
_cell_volume   369.45062490
_cell_formula_units_Z   2
loop_
 _symmetry_equiv_pos_site_id
 _symmetry_equiv_pos_as_xyz
  1  'x, y, z'
loop_
 _atom_site_type_symbol
 _atom_site_label
 _atom_site_symmetry_multiplicity
 _atom_site_fract_x
 _atom_site_fract_y
 _atom_site_fract_z
 _atom_site_occupancy
  Hf  Hf0  1  0.666667  0.333333  0.000000  1
  Hf  Hf1  1  0.333333  0.666667  0.000000  1
  Zr  Zr2  1  0.747785  0.747785  0.751168  1
  Zr  Zr3  1  0.252215  0.000000  0.751168  1
  Zr  Zr4  1  0.000000  0.252215  0.751168  1
  Zr  Zr5  1  0.252215  0.252215  0.248832  1
  Zr  Zr6  1  0.747785  0.000000  0.248832  1
  Zr  Zr7  1  0.000000  0.747785  0.248832  1
  Ti  Ti8  1  0.333333  0.666667  0.500000  1
  Ti  Ti9  1  0.666667  0.333333  0.500000  1
  Sn  Sn10  1  0.401147  0.401147  0.742506  1
  Sn  Sn11  1  0.598853  0.000000  0.742506  1
  Sn  Sn12  1  0.000000  0.598853  0.742506  1
  Sn  Sn13  1  0.598853  0.598853  0.257494  1
  Sn  Sn14  1  0.401147  0.000000  0.257494  1
  Sn  Sn15  1  0.000000  0.401147  0.257494  1
  P  P16  1  0.000000  0.000000  0.000000  1
  P  P17  1  0.000000  0.000000  0.500000  1
