# generated using pymatgen
data_Tb4Y2Al24Co3Os5
_symmetry_space_group_name_H-M   'P 1'
_cell_length_a   8.78705200
_cell_length_b   8.75112037
_cell_length_c   9.47067900
_cell_angle_alpha   90.25376474
_cell_angle_beta   90.00000000
_cell_angle_gamma   120.13591681
_symmetry_Int_Tables_number   1
_chemical_formula_structural   Tb4Y2Al24Co3Os5
_chemical_formula_sum   'Tb4 Y2 Al24 Co3 Os5'
_cell_volume   629.82003572
_cell_formula_units_Z   1
loop_
 _symmetry_equiv_pos_site_id
 _symmetry_equiv_pos_as_xyz
  1  'x, y, z'
loop_
 _atom_site_type_symbol
 _atom_site_label
 _atom_site_symmetry_multiplicity
 _atom_site_fract_x
 _atom_site_fract_y
 _atom_site_fract_z
 _atom_site_occupancy
  Tb  Tb0  1  0.612717  0.803797  0.250505  1
  Tb  Tb1  1  0.387283  0.196203  0.749495  1
  Tb  Tb2  1  0.191080  0.803797  0.250505  1
  Tb  Tb3  1  0.808920  0.196203  0.749495  1
  Y  Y4  1  0.194346  0.388691  0.248136  1
  Y  Y5  1  0.805654  0.611309  0.751864  1
  Al  Al6  1  0.336612  0.673226  0.014703  1
  Al  Al7  1  0.663388  0.326774  0.985297  1
  Al  Al8  1  0.666745  0.333488  0.514386  1
  Al  Al9  1  0.333255  0.666512  0.485614  1
  Al  Al10  1  0.159821  0.319641  0.574497  1
  Al  Al11  1  0.840179  0.680359  0.425503  1
  Al  Al12  1  0.680394  0.840711  0.575836  1
  Al  Al13  1  0.839302  0.678606  0.074934  1
  Al  Al14  1  0.319606  0.159289  0.424164  1
  Al  Al15  1  0.160698  0.321394  0.925066  1
  Al  Al16  1  0.160319  0.840711  0.575836  1
  Al  Al17  1  0.320565  0.158642  0.074667  1
  Al  Al18  1  0.839681  0.159289  0.424164  1
  Al  Al19  1  0.679435  0.841358  0.925333  1
  Al  Al20  1  0.838075  0.158642  0.074667  1
  Al  Al21  1  0.161925  0.841358  0.925333  1
  Al  Al22  1  0.559227  0.118454  0.244491  1
  Al  Al23  1  0.440773  0.881546  0.755509  1
  Al  Al24  1  0.875433  0.436527  0.249126  1
  Al  Al25  1  0.124567  0.563473  0.750874  1
  Al  Al26  1  0.561095  0.436527  0.249126  1
  Al  Al27  1  0.438905  0.563473  0.750874  1
  Al  Al28  1  0.999564  0.999129  0.250121  1
  Al  Al29  1  0.000436  0.000871  0.749879  1
  Co  Co30  1  0.500000  0.000000  0.000000  1
  Co  Co31  1  0.000000  0.000000  0.000000  1
  Co  Co32  1  0.000000  0.000000  0.500000  1
  Os  Os33  1  0.000000  0.500000  0.000000  1
  Os  Os34  1  0.500000  0.000000  0.500000  1
  Os  Os35  1  0.500000  0.500000  0.000000  1
  Os  Os36  1  0.000000  0.500000  0.500000  1
  Os  Os37  1  0.500000  0.500000  0.500000  1
