# generated using pymatgen
data_Dy4Ho4Sc12Si15Ru
_symmetry_space_group_name_H-M   'P 1'
_cell_length_a   7.06289708
_cell_length_b   7.43522241
_cell_length_c   13.92316503
_cell_angle_alpha   90.00471919
_cell_angle_beta   89.99352905
_cell_angle_gamma   90.19446352
_symmetry_Int_Tables_number   1
_chemical_formula_structural   Dy4Ho4Sc12Si15Ru
_chemical_formula_sum   'Dy4 Ho4 Sc12 Si15 Ru1'
_cell_volume   731.15980279
_cell_formula_units_Z   1
loop_
 _symmetry_equiv_pos_site_id
 _symmetry_equiv_pos_as_xyz
  1  'x, y, z'
loop_
 _atom_site_type_symbol
 _atom_site_label
 _atom_site_symmetry_multiplicity
 _atom_site_fract_x
 _atom_site_fract_y
 _atom_site_fract_z
 _atom_site_occupancy
  Dy  Dy0  1  0.511388  0.322467  0.095567  1
  Dy  Dy1  1  0.011437  0.179437  0.404300  1
  Dy  Dy2  1  0.511421  0.322479  0.404051  1
  Dy  Dy3  1  0.488817  0.676816  0.595605  1
  Ho  Ho4  1  0.011753  0.179774  0.095868  1
  Ho  Ho5  1  0.990407  0.826275  0.905188  1
  Ho  Ho6  1  0.488814  0.677351  0.904260  1
  Ho  Ho7  1  0.990309  0.826332  0.595132  1
  Sc  Sc8  1  0.158447  0.502647  0.750142  1
  Sc  Sc9  1  0.838564  0.494959  0.249850  1
  Sc  Sc10  1  0.339481  0.005949  0.250010  1
  Sc  Sc11  1  0.668987  0.997871  0.749981  1
  Sc  Sc12  1  0.315471  0.170780  0.628438  1
  Sc  Sc13  1  0.672607  0.826634  0.374025  1
  Sc  Sc14  1  0.171921  0.677735  0.374170  1
  Sc  Sc15  1  0.672436  0.826435  0.125697  1
  Sc  Sc16  1  0.837343  0.320251  0.627920  1
  Sc  Sc17  1  0.315068  0.171021  0.871805  1
  Sc  Sc18  1  0.837750  0.319938  0.872384  1
  Sc  Sc19  1  0.171886  0.677741  0.125672  1
  Si  Si20  1  0.969248  0.885668  0.249797  1
  Si  Si21  1  0.469975  0.614388  0.249846  1
  Si  Si22  1  0.528835  0.387573  0.750290  1
  Si  Si23  1  0.285279  0.865323  0.750258  1
  Si  Si24  1  0.713977  0.130630  0.249658  1
  Si  Si25  1  0.214684  0.370666  0.249733  1
  Si  Si26  1  0.779981  0.627431  0.750366  1
  Si  Si27  1  0.159374  0.468549  0.537730  1
  Si  Si28  1  0.844309  0.536626  0.461819  1
  Si  Si29  1  0.344476  0.965804  0.460199  1
  Si  Si30  1  0.844479  0.536131  0.038273  1
  Si  Si31  1  0.655784  0.034868  0.539175  1
  Si  Si32  1  0.160020  0.468424  0.962357  1
  Si  Si33  1  0.655602  0.034380  0.960763  1
  Si  Si34  1  0.343904  0.965663  0.039741  1
  Ru  Ru35  1  0.025768  0.104987  0.749932  1
