# generated using pymatgen
data_Rb4As2PbS8
_symmetry_space_group_name_H-M   'P 1'
_cell_length_a   9.38806447
_cell_length_b   9.70625148
_cell_length_c   11.76952862
_cell_angle_alpha   106.56380226
_cell_angle_beta   102.71297842
_cell_angle_gamma   94.29271945
_symmetry_Int_Tables_number   1
_chemical_formula_structural   Rb4As2PbS8
_chemical_formula_sum   'Rb8 As4 Pb2 S16'
_cell_volume   991.85172722
_cell_formula_units_Z   2
loop_
 _symmetry_equiv_pos_site_id
 _symmetry_equiv_pos_as_xyz
  1  'x, y, z'
loop_
 _atom_site_type_symbol
 _atom_site_label
 _atom_site_symmetry_multiplicity
 _atom_site_fract_x
 _atom_site_fract_y
 _atom_site_fract_z
 _atom_site_occupancy
  Rb  Rb0  1  0.446474  0.514790  0.766367  1
  Rb  Rb1  1  0.553526  0.485210  0.233633  1
  Rb  Rb2  1  0.270047  0.004677  0.978937  1
  Rb  Rb3  1  0.729953  0.995323  0.021063  1
  Rb  Rb4  1  0.106945  0.737804  0.533542  1
  Rb  Rb5  1  0.893055  0.262196  0.466458  1
  Rb  Rb6  1  0.883604  0.322271  0.883352  1
  Rb  Rb7  1  0.116396  0.677729  0.116648  1
  As  As8  1  0.451100  0.114357  0.740378  1
  As  As9  1  0.548900  0.885643  0.259622  1
  As  As10  1  0.877196  0.667361  0.758330  1
  As  As11  1  0.122804  0.332639  0.241670  1
  Pb  Pb12  1  0.655361  0.854968  0.574860  1
  Pb  Pb13  1  0.344639  0.145032  0.425140  1
  S  S14  1  0.526850  0.253816  0.927237  1
  S  S15  1  0.473150  0.746184  0.072763  1
  S  S16  1  0.452059  0.886228  0.737201  1
  S  S17  1  0.547941  0.113772  0.262799  1
  S  S18  1  0.231589  0.144406  0.648984  1
  S  S19  1  0.768411  0.855594  0.351016  1
  S  S20  1  0.931736  0.897350  0.766286  1
  S  S21  1  0.068264  0.102650  0.233714  1
  S  S22  1  0.068981  0.555982  0.752265  1
  S  S23  1  0.931019  0.444018  0.247735  1
  S  S24  1  0.607359  0.171312  0.637952  1
  S  S25  1  0.392641  0.828688  0.362048  1
  S  S26  1  0.796296  0.657955  0.915802  1
  S  S27  1  0.203704  0.342045  0.084198  1
  S  S28  1  0.702306  0.563809  0.587131  1
  S  S29  1  0.297694  0.436191  0.412869  1
