# generated using pymatgen
data_TmLu5(AlAu)6
_symmetry_space_group_name_H-M   'P 1'
_cell_length_a   7.30699885
_cell_length_b   7.30691012
_cell_length_c   7.89160200
_cell_angle_alpha   90.00000000
_cell_angle_beta   90.00000000
_cell_angle_gamma   120.05392630
_symmetry_Int_Tables_number   1
_chemical_formula_structural   TmLu5(AlAu)6
_chemical_formula_sum   'Tm1 Lu5 Al6 Au6'
_cell_volume   364.69714145
_cell_formula_units_Z   1
loop_
 _symmetry_equiv_pos_site_id
 _symmetry_equiv_pos_as_xyz
  1  'x, y, z'
loop_
 _atom_site_type_symbol
 _atom_site_label
 _atom_site_symmetry_multiplicity
 _atom_site_fract_x
 _atom_site_fract_y
 _atom_site_fract_z
 _atom_site_occupancy
  Tm  Tm0  1  0.412117  0.414222  0.750000  1
  Lu  Lu1  1  0.586577  0.998168  0.750000  1
  Lu  Lu2  1  0.002254  0.588519  0.750000  1
  Lu  Lu3  1  0.997956  0.586873  0.250000  1
  Lu  Lu4  1  0.588959  0.002342  0.250000  1
  Lu  Lu5  1  0.413007  0.411024  0.250000  1
  Al  Al6  1  0.751043  0.751242  0.000770  1
  Al  Al7  1  0.248733  0.000129  0.000111  1
  Al  Al8  1  0.000024  0.248594  0.000132  1
  Al  Al9  1  0.751043  0.751242  0.499230  1
  Al  Al10  1  0.248733  0.000129  0.499889  1
  Al  Al11  1  0.000024  0.248594  0.499868  1
  Au  Au12  1  0.998633  0.998326  0.750000  1
  Au  Au13  1  0.999831  0.999508  0.250000  1
  Au  Au14  1  0.667517  0.333095  0.998384  1
  Au  Au15  1  0.667517  0.333095  0.501616  1
  Au  Au16  1  0.333016  0.667448  0.496003  1
  Au  Au17  1  0.333016  0.667448  0.003997  1
