# generated using pymatgen
data_HoTa3(NbBr6)3
_symmetry_space_group_name_H-M   'P 1'
_cell_length_a   10.73183521
_cell_length_b   10.73142453
_cell_length_c   10.73317913
_cell_angle_alpha   56.10916502
_cell_angle_beta   56.09324247
_cell_angle_gamma   56.09044411
_symmetry_Int_Tables_number   1
_chemical_formula_structural   HoTa3(NbBr6)3
_chemical_formula_sum   'Ho1 Ta3 Nb3 Br18'
_cell_volume   795.08042568
_cell_formula_units_Z   1
loop_
 _symmetry_equiv_pos_site_id
 _symmetry_equiv_pos_as_xyz
  1  'x, y, z'
loop_
 _atom_site_type_symbol
 _atom_site_label
 _atom_site_symmetry_multiplicity
 _atom_site_fract_x
 _atom_site_fract_y
 _atom_site_fract_z
 _atom_site_occupancy
  Ho  Ho0  1  0.999769  0.999866  0.000679  1
  Ta  Ta1  1  0.412792  0.310201  0.642026  1
  Ta  Ta2  1  0.357764  0.587403  0.689709  1
  Ta  Ta3  1  0.689972  0.357835  0.586978  1
  Nb  Nb4  1  0.308424  0.643677  0.411677  1
  Nb  Nb5  1  0.643692  0.412067  0.308041  1
  Nb  Nb6  1  0.588085  0.691796  0.356131  1
  Br  Br7  1  0.566970  0.162204  0.443592  1
  Br  Br8  1  0.224418  0.372157  0.905334  1
  Br  Br9  1  0.906461  0.223343  0.373671  1
  Br  Br10  1  0.371311  0.907074  0.223803  1
  Br  Br11  1  0.776481  0.628496  0.092984  1
  Br  Br12  1  0.094151  0.775468  0.630023  1
  Br  Br13  1  0.703095  0.959873  0.160204  1
  Br  Br14  1  0.956458  0.160990  0.702830  1
  Br  Br15  1  0.162315  0.701374  0.957265  1
  Br  Br16  1  0.298149  0.042784  0.839105  1
  Br  Br17  1  0.039463  0.839760  0.297789  1
  Br  Br18  1  0.841024  0.296395  0.040164  1
  Br  Br19  1  0.558400  0.431843  0.836486  1
  Br  Br20  1  0.163533  0.439490  0.569770  1
  Br  Br21  1  0.441545  0.568246  0.162194  1
  Br  Br22  1  0.430374  0.836447  0.560502  1
  Br  Br23  1  0.837685  0.556391  0.433234  1
  Br  Br24  1  0.627669  0.094819  0.775809  1
