# generated using pymatgen
data_Dy8Hf11Si16Ru
_symmetry_space_group_name_H-M   'P 1'
_cell_length_a   7.24557110
_cell_length_b   7.24557048
_cell_length_c   13.26717442
_cell_angle_alpha   89.86180457
_cell_angle_beta   90.13819452
_cell_angle_gamma   90.10075860
_symmetry_Int_Tables_number   1
_chemical_formula_structural   Dy8Hf11Si16Ru
_chemical_formula_sum   'Dy8 Hf11 Si16 Ru1'
_cell_volume   696.49892925
_cell_formula_units_Z   1
loop_
 _symmetry_equiv_pos_site_id
 _symmetry_equiv_pos_as_xyz
  1  'x, y, z'
loop_
 _atom_site_type_symbol
 _atom_site_label
 _atom_site_symmetry_multiplicity
 _atom_site_fract_x
 _atom_site_fract_y
 _atom_site_fract_z
 _atom_site_occupancy
  Dy  Dy0  1  0.994576  0.656253  0.034634  1
  Dy  Dy1  1  0.001949  0.346723  0.532822  1
  Dy  Dy2  1  0.656253  0.994576  0.965366  1
  Dy  Dy3  1  0.154853  0.504947  0.782859  1
  Dy  Dy4  1  0.843242  0.498821  0.288170  1
  Dy  Dy5  1  0.504947  0.154853  0.217141  1
  Dy  Dy6  1  0.498821  0.843242  0.711830  1
  Dy  Dy7  1  0.346723  0.001949  0.467178  1
  Hf  Hf8  1  0.353237  0.504064  0.378079  1
  Hf  Hf9  1  0.852257  0.996882  0.376745  1
  Hf  Hf10  1  0.002360  0.147249  0.125532  1
  Hf  Hf11  1  0.996882  0.852257  0.623255  1
  Hf  Hf12  1  0.504064  0.353237  0.621921  1
  Hf  Hf13  1  0.147249  0.002360  0.874468  1
  Hf  Hf14  1  0.824434  0.174781  0.748143  1
  Hf  Hf15  1  0.174781  0.824434  0.251857  1
  Hf  Hf16  1  0.324848  0.324848  0.000000  1
  Hf  Hf17  1  0.497492  0.646902  0.127794  1
  Hf  Hf18  1  0.646902  0.497492  0.872206  1
  Si  Si19  1  0.048909  0.706763  0.435800  1
  Si  Si20  1  0.950099  0.296787  0.934850  1
  Si  Si21  1  0.706763  0.048909  0.564200  1
  Si  Si22  1  0.202962  0.451292  0.185796  1
  Si  Si23  1  0.793372  0.554298  0.680708  1
  Si  Si24  1  0.451292  0.202962  0.814204  1
  Si  Si25  1  0.554298  0.793372  0.319292  1
  Si  Si26  1  0.296787  0.950099  0.065150  1
  Si  Si27  1  0.794675  0.860135  0.184295  1
  Si  Si28  1  0.293173  0.636358  0.568763  1
  Si  Si29  1  0.705980  0.361700  0.067179  1
  Si  Si30  1  0.636358  0.293173  0.431237  1
  Si  Si31  1  0.361700  0.705980  0.932821  1
  Si  Si32  1  0.138935  0.205700  0.318624  1
  Si  Si33  1  0.205700  0.138935  0.681376  1
  Si  Si34  1  0.860135  0.794675  0.815705  1
  Ru  Ru35  1  0.672991  0.672991  0.500000  1
