# generated using pymatgen
data_La8Zn8Ni7Pd
_symmetry_space_group_name_H-M   'P 1'
_cell_length_a   4.00083500
_cell_length_b   7.41863793
_cell_length_c   16.20022794
_cell_angle_alpha   89.82017378
_cell_angle_beta   90.00000000
_cell_angle_gamma   90.00000000
_symmetry_Int_Tables_number   1
_chemical_formula_structural   La8Zn8Ni7Pd
_chemical_formula_sum   'La8 Zn8 Ni7 Pd1'
_cell_volume   480.83248691
_cell_formula_units_Z   1
loop_
 _symmetry_equiv_pos_site_id
 _symmetry_equiv_pos_as_xyz
  1  'x, y, z'
loop_
 _atom_site_type_symbol
 _atom_site_label
 _atom_site_symmetry_multiplicity
 _atom_site_fract_x
 _atom_site_fract_y
 _atom_site_fract_z
 _atom_site_occupancy
  La  La0  1  0.750000  0.327866  0.439983  1
  La  La1  1  0.250000  0.040239  0.712802  1
  La  La2  1  0.250000  0.556845  0.782362  1
  La  La3  1  0.250000  0.669060  0.556325  1
  La  La4  1  0.750000  0.828923  0.060946  1
  La  La5  1  0.250000  0.168340  0.947870  1
  La  La6  1  0.750000  0.453512  0.217921  1
  La  La7  1  0.750000  0.953261  0.282702  1
  Zn  Zn8  1  0.250000  0.133440  0.149637  1
  Zn  Zn9  1  0.250000  0.000362  0.438710  1
  Zn  Zn10  1  0.750000  0.865694  0.854379  1
  Zn  Zn11  1  0.750000  0.997577  0.557732  1
  Zn  Zn12  1  0.250000  0.501673  0.062155  1
  Zn  Zn13  1  0.750000  0.369614  0.644687  1
  Zn  Zn14  1  0.750000  0.503475  0.942632  1
  Zn  Zn15  1  0.250000  0.633513  0.351563  1
  Ni  Ni16  1  0.250000  0.245812  0.316322  1
  Ni  Ni17  1  0.250000  0.731074  0.935249  1
  Ni  Ni18  1  0.250000  0.229376  0.565419  1
  Ni  Ni19  1  0.250000  0.747021  0.183736  1
  Ni  Ni20  1  0.750000  0.769623  0.431722  1
  Ni  Ni21  1  0.750000  0.271180  0.069040  1
  Ni  Ni22  1  0.750000  0.751067  0.680612  1
  Pd  Pd23  1  0.750000  0.251454  0.815492  1
