# generated using pymatgen
data_Pr7Ho(Tm3Pt4)4
_symmetry_space_group_name_H-M   'P 1'
_cell_length_a   7.57559225
_cell_length_b   7.64511278
_cell_length_c   14.66334592
_cell_angle_alpha   90.00453050
_cell_angle_beta   89.95907859
_cell_angle_gamma   90.05138330
_symmetry_Int_Tables_number   1
_chemical_formula_structural   Pr7Ho(Tm3Pt4)4
_chemical_formula_sum   'Pr7 Ho1 Tm12 Pt16'
_cell_volume   849.24555225
_cell_formula_units_Z   1
loop_
 _symmetry_equiv_pos_site_id
 _symmetry_equiv_pos_as_xyz
  1  'x, y, z'
loop_
 _atom_site_type_symbol
 _atom_site_label
 _atom_site_symmetry_multiplicity
 _atom_site_fract_x
 _atom_site_fract_y
 _atom_site_fract_z
 _atom_site_occupancy
  Pr  Pr0  1  0.500796  0.677949  0.593709  1
  Pr  Pr1  1  0.999797  0.823599  0.905645  1
  Pr  Pr2  1  0.499304  0.323978  0.094400  1
  Pr  Pr3  1  0.999865  0.173970  0.407193  1
  Pr  Pr4  1  0.499215  0.323836  0.405698  1
  Pr  Pr5  1  0.999599  0.176765  0.093873  1
  Pr  Pr6  1  0.500736  0.676412  0.905120  1
  Ho  Ho7  1  0.002787  0.820587  0.595756  1
  Tm  Tm8  1  0.659588  0.165493  0.622709  1
  Tm  Tm9  1  0.156755  0.332282  0.875332  1
  Tm  Tm10  1  0.343003  0.832864  0.123692  1
  Tm  Tm11  1  0.844903  0.668572  0.377761  1
  Tm  Tm12  1  0.342461  0.833455  0.376852  1
  Tm  Tm13  1  0.842732  0.666562  0.124060  1
  Tm  Tm14  1  0.657327  0.166902  0.875466  1
  Tm  Tm15  1  0.157013  0.332921  0.623490  1
  Tm  Tm16  1  0.820625  0.508252  0.748708  1
  Tm  Tm17  1  0.319637  0.992476  0.748420  1
  Tm  Tm18  1  0.178884  0.492665  0.250503  1
  Tm  Tm19  1  0.679598  0.007400  0.250358  1
  Pt  Pt20  1  0.678461  0.960270  0.458578  1
  Pt  Pt21  1  0.177441  0.537865  0.043231  1
  Pt  Pt22  1  0.323180  0.038296  0.956530  1
  Pt  Pt23  1  0.825515  0.467879  0.545392  1
  Pt  Pt24  1  0.314620  0.032931  0.544672  1
  Pt  Pt25  1  0.823278  0.461743  0.956509  1
  Pt  Pt26  1  0.677285  0.961860  0.043241  1
  Pt  Pt27  1  0.176393  0.541658  0.458491  1
  Pt  Pt28  1  0.453368  0.376080  0.749494  1
  Pt  Pt29  1  0.955318  0.121334  0.748367  1
  Pt  Pt30  1  0.545948  0.625021  0.250484  1
  Pt  Pt31  1  0.045999  0.875298  0.250103  1
  Pt  Pt32  1  0.688316  0.863239  0.748476  1
  Pt  Pt33  1  0.182334  0.639390  0.746920  1
  Pt  Pt34  1  0.313831  0.136447  0.250268  1
  Pt  Pt35  1  0.814086  0.363749  0.250498  1
