# generated using pymatgen
data_Tb3Er(Si3Ni5)4
_symmetry_space_group_name_H-M   'P 1'
_cell_length_a   3.80460000
_cell_length_b   6.57187104
_cell_length_c   18.78706070
_cell_angle_alpha   90.00923285
_cell_angle_beta   90.00000000
_cell_angle_gamma   90.00000000
_symmetry_Int_Tables_number   1
_chemical_formula_structural   Tb3Er(Si3Ni5)4
_chemical_formula_sum   'Tb3 Er1 Si12 Ni20'
_cell_volume   469.73927087
_cell_formula_units_Z   1
loop_
 _symmetry_equiv_pos_site_id
 _symmetry_equiv_pos_as_xyz
  1  'x, y, z'
loop_
 _atom_site_type_symbol
 _atom_site_label
 _atom_site_symmetry_multiplicity
 _atom_site_fract_x
 _atom_site_fract_y
 _atom_site_fract_z
 _atom_site_occupancy
  Tb  Tb0  1  0.250000  0.623782  0.644027  1
  Tb  Tb1  1  0.750000  0.376231  0.356012  1
  Tb  Tb2  1  0.750000  0.123770  0.855992  1
  Er  Er3  1  0.250000  0.876404  0.144111  1
  Si  Si4  1  0.250000  0.842822  0.926053  1
  Si  Si5  1  0.750000  0.156144  0.074179  1
  Si  Si6  1  0.750000  0.342858  0.573852  1
  Si  Si7  1  0.250000  0.657204  0.426073  1
  Si  Si8  1  0.750000  0.619378  0.763050  1
  Si  Si9  1  0.250000  0.380684  0.237036  1
  Si  Si10  1  0.250000  0.422342  0.913822  1
  Si  Si11  1  0.750000  0.578953  0.086491  1
  Si  Si12  1  0.750000  0.922355  0.586287  1
  Si  Si13  1  0.250000  0.077549  0.413692  1
  Si  Si14  1  0.250000  0.119312  0.737003  1
  Si  Si15  1  0.750000  0.880522  0.262463  1
  Ni  Ni16  1  0.250000  0.134295  0.994729  1
  Ni  Ni17  1  0.750000  0.385992  0.984014  1
  Ni  Ni18  1  0.750000  0.114034  0.483835  1
  Ni  Ni19  1  0.250000  0.614734  0.016422  1
  Ni  Ni20  1  0.250000  0.354453  0.115754  1
  Ni  Ni21  1  0.750000  0.645229  0.884353  1
  Ni  Ni22  1  0.750000  0.854780  0.384184  1
  Ni  Ni23  1  0.250000  0.145324  0.615689  1
  Ni  Ni24  1  0.250000  0.071177  0.292810  1
  Ni  Ni25  1  0.750000  0.928511  0.706967  1
  Ni  Ni26  1  0.750000  0.571997  0.206728  1
  Ni  Ni27  1  0.250000  0.428441  0.793062  1
  Ni  Ni28  1  0.750000  0.634642  0.505352  1
  Ni  Ni29  1  0.250000  0.365374  0.494559  1
  Ni  Ni30  1  0.250000  0.813186  0.800899  1
  Ni  Ni31  1  0.750000  0.186064  0.198978  1
  Ni  Ni32  1  0.750000  0.313163  0.699118  1
  Ni  Ni33  1  0.250000  0.686876  0.300677  1
  Ni  Ni34  1  0.250000  0.885938  0.516160  1
  Ni  Ni35  1  0.750000  0.865482  0.005569  1
