# generated using pymatgen
data_Ta2Co2BP
_symmetry_space_group_name_H-M   'P 1'
_cell_length_a   3.45915700
_cell_length_b   5.97015400
_cell_length_c   6.88359400
_cell_angle_alpha   90.00000000
_cell_angle_beta   90.00000000
_cell_angle_gamma   90.00000000
_symmetry_Int_Tables_number   1
_chemical_formula_structural   Ta2Co2BP
_chemical_formula_sum   'Ta4 Co4 B2 P2'
_cell_volume   142.15791821
_cell_formula_units_Z   2
loop_
 _symmetry_equiv_pos_site_id
 _symmetry_equiv_pos_as_xyz
  1  'x, y, z'
loop_
 _atom_site_type_symbol
 _atom_site_label
 _atom_site_symmetry_multiplicity
 _atom_site_fract_x
 _atom_site_fract_y
 _atom_site_fract_z
 _atom_site_occupancy
  Ta  Ta0  1  0.250000  0.033556  0.830863  1
  Ta  Ta1  1  0.250000  0.533556  0.669137  1
  Ta  Ta2  1  0.750000  0.982791  0.184841  1
  Ta  Ta3  1  0.750000  0.482791  0.315159  1
  Co  Co4  1  0.250000  0.136875  0.431222  1
  Co  Co5  1  0.250000  0.636875  0.068778  1
  Co  Co6  1  0.750000  0.855047  0.552442  1
  Co  Co7  1  0.750000  0.355047  0.947558  1
  B  B8  1  0.250000  0.766480  0.377322  1
  B  B9  1  0.250000  0.266480  0.122678  1
  P  P10  1  0.750000  0.225251  0.617371  1
  P  P11  1  0.750000  0.725251  0.882629  1
