# generated using pymatgen
data_Ho8As(PdPt)12
_symmetry_space_group_name_H-M   'P 1'
_cell_length_a   8.33276002
_cell_length_b   8.33091700
_cell_length_c   8.33846200
_cell_angle_alpha   90.00000000
_cell_angle_beta   89.99560626
_cell_angle_gamma   90.00000000
_symmetry_Int_Tables_number   1
_chemical_formula_structural   Ho8As(PdPt)12
_chemical_formula_sum   'Ho8 As1 Pd12 Pt12'
_cell_volume   578.85212915
_cell_formula_units_Z   1
loop_
 _symmetry_equiv_pos_site_id
 _symmetry_equiv_pos_as_xyz
  1  'x, y, z'
loop_
 _atom_site_type_symbol
 _atom_site_label
 _atom_site_symmetry_multiplicity
 _atom_site_fract_x
 _atom_site_fract_y
 _atom_site_fract_z
 _atom_site_occupancy
  Ho  Ho0  1  0.255068  0.254582  0.254914  1
  Ho  Ho1  1  0.744973  0.744552  0.745201  1
  Ho  Ho2  1  0.744906  0.745066  0.254784  1
  Ho  Ho3  1  0.744973  0.255448  0.745201  1
  Ho  Ho4  1  0.254998  0.254897  0.745066  1
  Ho  Ho5  1  0.255068  0.745418  0.254914  1
  Ho  Ho6  1  0.254998  0.745103  0.745066  1
  Ho  Ho7  1  0.744906  0.254934  0.254784  1
  As  As8  1  0.000279  0.000000  0.000252  1
  Pd  Pd9  1  0.500132  0.000000  0.741340  1
  Pd  Pd10  1  0.741121  0.000000  0.500138  1
  Pd  Pd11  1  0.999952  0.500000  0.258580  1
  Pd  Pd12  1  0.999939  0.500000  0.741519  1
  Pd  Pd13  1  0.500074  0.500000  0.252643  1
  Pd  Pd14  1  0.500038  0.500000  0.747310  1
  Pd  Pd15  1  0.287462  0.000000  0.999703  1
  Pd  Pd16  1  0.712668  0.000000  0.999733  1
  Pd  Pd17  1  0.999987  0.287761  0.999960  1
  Pd  Pd18  1  0.999987  0.712239  0.999960  1
  Pd  Pd19  1  0.999705  0.000000  0.287167  1
  Pd  Pd20  1  0.999719  0.000000  0.712967  1
  Pt  Pt21  1  0.258859  0.500000  0.999922  1
  Pt  Pt22  1  0.741236  0.500000  0.999888  1
  Pt  Pt23  1  0.000136  0.259032  0.500089  1
  Pt  Pt24  1  0.500066  0.258769  0.000171  1
  Pt  Pt25  1  0.000136  0.740968  0.500089  1
  Pt  Pt26  1  0.500066  0.741231  0.000171  1
  Pt  Pt27  1  0.500052  0.000000  0.258541  1
  Pt  Pt28  1  0.258772  0.000000  0.500073  1
  Pt  Pt29  1  0.252385  0.500000  0.500118  1
  Pt  Pt30  1  0.747577  0.500000  0.500085  1
  Pt  Pt31  1  0.499881  0.252609  0.499826  1
  Pt  Pt32  1  0.499881  0.747391  0.499826  1
