# generated using pymatgen
data_EuFeCuSi
_symmetry_space_group_name_H-M   'P 1'
_cell_length_a   8.72150426
_cell_length_b   8.72150392
_cell_length_c   4.05624100
_cell_angle_alpha   90.00000000
_cell_angle_beta   90.00000000
_cell_angle_gamma   152.96079471
_symmetry_Int_Tables_number   1
_chemical_formula_structural   EuFeCuSi
_chemical_formula_sum   'Eu2 Fe2 Cu2 Si2'
_cell_volume   140.26070943
_cell_formula_units_Z   2
loop_
 _symmetry_equiv_pos_site_id
 _symmetry_equiv_pos_as_xyz
  1  'x, y, z'
loop_
 _atom_site_type_symbol
 _atom_site_label
 _atom_site_symmetry_multiplicity
 _atom_site_fract_x
 _atom_site_fract_y
 _atom_site_fract_z
 _atom_site_occupancy
  Eu  Eu0  1  0.609217  0.390783  0.250000  1
  Eu  Eu1  1  0.390783  0.609217  0.750000  1
  Fe  Fe2  1  0.251251  0.748749  0.250000  1
  Fe  Fe3  1  0.748749  0.251251  0.750000  1
  Cu  Cu4  1  0.958519  0.041481  0.250000  1
  Cu  Cu5  1  0.041481  0.958519  0.750000  1
  Si  Si6  1  0.812182  0.187818  0.250000  1
  Si  Si7  1  0.187818  0.812182  0.750000  1
