# generated using pymatgen
data_NdMo3(PO4)4
_symmetry_space_group_name_H-M   'P 1'
_cell_length_a   4.88092755
_cell_length_b   7.13935690
_cell_length_c   9.11612642
_cell_angle_alpha   89.92811018
_cell_angle_beta   90.69010583
_cell_angle_gamma   89.69286428
_symmetry_Int_Tables_number   1
_chemical_formula_structural   NdMo3(PO4)4
_chemical_formula_sum   'Nd1 Mo3 P4 O16'
_cell_volume   317.63889217
_cell_formula_units_Z   1
loop_
 _symmetry_equiv_pos_site_id
 _symmetry_equiv_pos_as_xyz
  1  'x, y, z'
loop_
 _atom_site_type_symbol
 _atom_site_label
 _atom_site_symmetry_multiplicity
 _atom_site_fract_x
 _atom_site_fract_y
 _atom_site_fract_z
 _atom_site_occupancy
  Nd  Nd0  1  0.000000  0.000000  0.000000  1
  Mo  Mo1  1  0.500000  0.500000  0.500000  1
  Mo  Mo2  1  0.000000  0.500000  0.000000  1
  Mo  Mo3  1  0.500000  0.000000  0.500000  1
  P  P4  1  0.992484  0.743733  0.672299  1
  P  P5  1  0.497686  0.258547  0.816054  1
  P  P6  1  0.007516  0.256267  0.327701  1
  P  P7  1  0.502314  0.741453  0.183946  1
  O  O8  1  0.144068  0.433762  0.382567  1
  O  O9  1  0.657695  0.570206  0.129244  1
  O  O10  1  0.850619  0.928971  0.630222  1
  O  O11  1  0.392585  0.068840  0.868045  1
  O  O12  1  0.855932  0.566238  0.617433  1
  O  O13  1  0.342305  0.429794  0.870756  1
  O  O14  1  0.149381  0.071029  0.369778  1
  O  O15  1  0.607415  0.931160  0.131955  1
  O  O16  1  0.196258  0.724108  0.129951  1
  O  O17  1  0.703750  0.249931  0.387227  1
  O  O18  1  0.803742  0.275892  0.870049  1
  O  O19  1  0.296250  0.750069  0.612773  1
  O  O20  1  0.526889  0.746115  0.357496  1
  O  O21  1  0.008554  0.265942  0.155032  1
  O  O22  1  0.473111  0.253885  0.642504  1
  O  O23  1  0.991446  0.734058  0.844968  1
