# generated using pymatgen
data_HoU2Ni3Sb4
_symmetry_space_group_name_H-M   'P 1'
_cell_length_a   8.11937956
_cell_length_b   8.11937983
_cell_length_c   8.11938046
_cell_angle_alpha   109.59999247
_cell_angle_beta   109.21397320
_cell_angle_gamma   109.59999798
_symmetry_Int_Tables_number   1
_chemical_formula_structural   HoU2Ni3Sb4
_chemical_formula_sum   'Ho2 U4 Ni6 Sb8'
_cell_volume   412.04074470
_cell_formula_units_Z   2
loop_
 _symmetry_equiv_pos_site_id
 _symmetry_equiv_pos_as_xyz
  1  'x, y, z'
loop_
 _atom_site_type_symbol
 _atom_site_label
 _atom_site_symmetry_multiplicity
 _atom_site_fract_x
 _atom_site_fract_y
 _atom_site_fract_z
 _atom_site_occupancy
  Ho  Ho0  1  0.875000  0.250000  0.125000  1
  Ho  Ho1  1  0.625000  0.750000  0.375000  1
  U  U2  1  0.250000  0.125599  0.875599  1
  U  U3  1  0.750000  0.374401  0.624401  1
  U  U4  1  0.124401  0.874401  0.250000  1
  U  U5  1  0.375599  0.625599  0.750000  1
  Ni  Ni6  1  0.375000  0.250000  0.625000  1
  Ni  Ni7  1  0.125000  0.750000  0.875000  1
  Ni  Ni8  1  0.250000  0.627569  0.377569  1
  Ni  Ni9  1  0.750000  0.872431  0.122431  1
  Ni  Ni10  1  0.622431  0.372431  0.250000  1
  Ni  Ni11  1  0.877569  0.127569  0.750000  1
  Sb  Sb12  1  0.663595  0.501187  0.002205  1
  Sb  Sb13  1  0.501017  0.998813  0.662407  1
  Sb  Sb14  1  0.998983  0.661390  0.497795  1
  Sb  Sb15  1  0.836405  0.838610  0.837593  1
  Sb  Sb16  1  0.502205  0.001187  0.163595  1
  Sb  Sb17  1  0.162407  0.498813  0.001017  1
  Sb  Sb18  1  0.997795  0.161390  0.498983  1
  Sb  Sb19  1  0.337593  0.338610  0.336405  1
