# generated using pymatgen
data_HoEr2AuO7
_symmetry_space_group_name_H-M   'P 1'
_cell_length_a   6.44452476
_cell_length_b   6.44452488
_cell_length_c   7.38445300
_cell_angle_alpha   90.00000000
_cell_angle_beta   90.00000000
_cell_angle_gamma   108.80687488
_symmetry_Int_Tables_number   1
_chemical_formula_structural   HoEr2AuO7
_chemical_formula_sum   'Ho2 Er4 Au2 O14'
_cell_volume   290.31634547
_cell_formula_units_Z   2
loop_
 _symmetry_equiv_pos_site_id
 _symmetry_equiv_pos_as_xyz
  1  'x, y, z'
loop_
 _atom_site_type_symbol
 _atom_site_label
 _atom_site_symmetry_multiplicity
 _atom_site_fract_x
 _atom_site_fract_y
 _atom_site_fract_z
 _atom_site_occupancy
  Ho  Ho0  1  0.504324  0.504324  0.500000  1
  Ho  Ho1  1  0.495676  0.495676  0.000000  1
  Er  Er2  1  0.002034  0.471171  0.748424  1
  Er  Er3  1  0.997966  0.528829  0.248424  1
  Er  Er4  1  0.528829  0.997966  0.751576  1
  Er  Er5  1  0.471171  0.002034  0.251576  1
  Au  Au6  1  0.999384  0.999384  0.500000  1
  Au  Au7  1  0.000616  0.000616  0.000000  1
  O  O8  1  0.639445  0.360555  0.750000  1
  O  O9  1  0.360555  0.639445  0.250000  1
  O  O10  1  0.918379  0.081621  0.750000  1
  O  O11  1  0.081621  0.918379  0.250000  1
  O  O12  1  0.915506  0.666510  0.523528  1
  O  O13  1  0.084494  0.333490  0.023528  1
  O  O14  1  0.333490  0.084494  0.976472  1
  O  O15  1  0.666510  0.915506  0.476472  1
  O  O16  1  0.366717  0.633283  0.750000  1
  O  O17  1  0.633283  0.366717  0.250000  1
  O  O18  1  0.919393  0.669270  0.973934  1
  O  O19  1  0.080607  0.330730  0.473934  1
  O  O20  1  0.330730  0.080607  0.526066  1
  O  O21  1  0.669270  0.919393  0.026066  1
