# generated using pymatgen
data_Zr2Si2IrRh
_symmetry_space_group_name_H-M   'P 1'
_cell_length_a   3.97378200
_cell_length_b   6.59203800
_cell_length_c   7.46440200
_cell_angle_alpha   90.00000000
_cell_angle_beta   90.00000000
_cell_angle_gamma   90.00000000
_symmetry_Int_Tables_number   1
_chemical_formula_structural   Zr2Si2IrRh
_chemical_formula_sum   'Zr4 Si4 Ir2 Rh2'
_cell_volume   195.53241354
_cell_formula_units_Z   2
loop_
 _symmetry_equiv_pos_site_id
 _symmetry_equiv_pos_as_xyz
  1  'x, y, z'
loop_
 _atom_site_type_symbol
 _atom_site_label
 _atom_site_symmetry_multiplicity
 _atom_site_fract_x
 _atom_site_fract_y
 _atom_site_fract_z
 _atom_site_occupancy
  Zr  Zr0  1  0.250000  0.018090  0.317213  1
  Zr  Zr1  1  0.250000  0.518090  0.182787  1
  Zr  Zr2  1  0.750000  0.981751  0.682316  1
  Zr  Zr3  1  0.750000  0.481751  0.817684  1
  Si  Si4  1  0.250000  0.278197  0.617876  1
  Si  Si5  1  0.250000  0.778197  0.882124  1
  Si  Si6  1  0.750000  0.721417  0.381620  1
  Si  Si7  1  0.750000  0.221417  0.118380  1
  Ir  Ir8  1  0.750000  0.849454  0.064355  1
  Ir  Ir9  1  0.750000  0.349454  0.435645  1
  Rh  Rh10  1  0.250000  0.151091  0.935478  1
  Rh  Rh11  1  0.250000  0.651091  0.564522  1
