# generated using pymatgen
data_CePuReB6
_symmetry_space_group_name_H-M   'P 1'
_cell_length_a   3.70662800
_cell_length_b   9.32768600
_cell_length_c   11.45965300
_cell_angle_alpha   90.00000000
_cell_angle_beta   90.00000000
_cell_angle_gamma   90.00000000
_symmetry_Int_Tables_number   1
_chemical_formula_structural   CePuReB6
_chemical_formula_sum   'Ce4 Pu4 Re4 B24'
_cell_volume   396.20904643
_cell_formula_units_Z   4
loop_
 _symmetry_equiv_pos_site_id
 _symmetry_equiv_pos_as_xyz
  1  'x, y, z'
loop_
 _atom_site_type_symbol
 _atom_site_label
 _atom_site_symmetry_multiplicity
 _atom_site_fract_x
 _atom_site_fract_y
 _atom_site_fract_z
 _atom_site_occupancy
  Ce  Ce0  1  0.000000  0.335026  0.408005  1
  Ce  Ce1  1  0.000000  0.664974  0.591995  1
  Ce  Ce2  1  0.000000  0.835026  0.091995  1
  Ce  Ce3  1  0.000000  0.164974  0.908005  1
  Pu  Pu4  1  0.000000  0.954280  0.389260  1
  Pu  Pu5  1  0.000000  0.045720  0.610740  1
  Pu  Pu6  1  0.000000  0.454280  0.110740  1
  Pu  Pu7  1  0.000000  0.545720  0.889260  1
  Re  Re8  1  0.000000  0.646492  0.319339  1
  Re  Re9  1  0.000000  0.353508  0.680661  1
  Re  Re10  1  0.000000  0.146492  0.180661  1
  Re  Re11  1  0.000000  0.853508  0.819339  1
  B  B12  1  0.500000  0.554665  0.430006  1
  B  B13  1  0.500000  0.445335  0.569994  1
  B  B14  1  0.500000  0.054665  0.069994  1
  B  B15  1  0.500000  0.945335  0.930006  1
  B  B16  1  0.500000  0.745720  0.422273  1
  B  B17  1  0.500000  0.254280  0.577727  1
  B  B18  1  0.500000  0.245720  0.077727  1
  B  B19  1  0.500000  0.754280  0.922273  1
  B  B20  1  0.500000  0.802423  0.273085  1
  B  B21  1  0.500000  0.197577  0.726915  1
  B  B22  1  0.500000  0.302423  0.226915  1
  B  B23  1  0.500000  0.697577  0.773085  1
  B  B24  1  0.500000  0.643631  0.188114  1
  B  B25  1  0.500000  0.356369  0.811886  1
  B  B26  1  0.500000  0.143631  0.311886  1
  B  B27  1  0.500000  0.856369  0.688114  1
  B  B28  1  0.500000  0.990168  0.218913  1
  B  B29  1  0.500000  0.009832  0.781087  1
  B  B30  1  0.500000  0.490168  0.281087  1
  B  B31  1  0.500000  0.509832  0.718913  1
  B  B32  1  0.500000  0.637433  0.038141  1
  B  B33  1  0.500000  0.362567  0.961859  1
  B  B34  1  0.500000  0.137433  0.461859  1
  B  B35  1  0.500000  0.862567  0.538141  1
