# generated using pymatgen
data_Sm8HfZr11Sn16
_symmetry_space_group_name_H-M   'P 1'
_cell_length_a   7.82566102
_cell_length_b   7.88044102
_cell_length_c   14.82474100
_cell_angle_alpha   90.00000000
_cell_angle_beta   90.00000000
_cell_angle_gamma   89.99228070
_symmetry_Int_Tables_number   1
_chemical_formula_structural   Sm8HfZr11Sn16
_chemical_formula_sum   'Sm8 Hf1 Zr11 Sn16'
_cell_volume   914.23672989
_cell_formula_units_Z   1
loop_
 _symmetry_equiv_pos_site_id
 _symmetry_equiv_pos_as_xyz
  1  'x, y, z'
loop_
 _atom_site_type_symbol
 _atom_site_label
 _atom_site_symmetry_multiplicity
 _atom_site_fract_x
 _atom_site_fract_y
 _atom_site_fract_z
 _atom_site_occupancy
  Sm  Sm0  1  0.510036  0.323419  0.907476  1
  Sm  Sm1  1  0.010131  0.176365  0.592591  1
  Sm  Sm2  1  0.489927  0.676112  0.407276  1
  Sm  Sm3  1  0.989484  0.823671  0.092697  1
  Sm  Sm4  1  0.489927  0.676112  0.092724  1
  Sm  Sm5  1  0.989484  0.823671  0.407303  1
  Sm  Sm6  1  0.510036  0.323419  0.592524  1
  Sm  Sm7  1  0.010131  0.176365  0.907409  1
  Hf  Hf8  1  0.332681  0.011423  0.250000  1
  Zr  Zr9  1  0.345734  0.838039  0.870902  1
  Zr  Zr10  1  0.845689  0.661877  0.629300  1
  Zr  Zr11  1  0.654332  0.161695  0.370219  1
  Zr  Zr12  1  0.154617  0.338209  0.129792  1
  Zr  Zr13  1  0.654332  0.161695  0.129781  1
  Zr  Zr14  1  0.154617  0.338209  0.370208  1
  Zr  Zr15  1  0.345734  0.838039  0.629098  1
  Zr  Zr16  1  0.845689  0.661877  0.870700  1
  Zr  Zr17  1  0.167546  0.510140  0.750000  1
  Zr  Zr18  1  0.667542  0.990028  0.750000  1
  Zr  Zr19  1  0.832278  0.489611  0.250000  1
  Sn  Sn20  1  0.315975  0.042116  0.043889  1
  Sn  Sn21  1  0.816274  0.457457  0.456655  1
  Sn  Sn22  1  0.684044  0.957722  0.543171  1
  Sn  Sn23  1  0.183836  0.542250  0.956883  1
  Sn  Sn24  1  0.684044  0.957722  0.956829  1
  Sn  Sn25  1  0.183836  0.542250  0.543117  1
  Sn  Sn26  1  0.315975  0.042116  0.456111  1
  Sn  Sn27  1  0.816274  0.457457  0.043345  1
  Sn  Sn28  1  0.540146  0.618121  0.750000  1
  Sn  Sn29  1  0.040352  0.881876  0.750000  1
  Sn  Sn30  1  0.459727  0.381736  0.250000  1
  Sn  Sn31  1  0.960462  0.117624  0.250000  1
  Sn  Sn32  1  0.313732  0.152726  0.750000  1
  Sn  Sn33  1  0.813749  0.347149  0.750000  1
  Sn  Sn34  1  0.685036  0.847155  0.250000  1
  Sn  Sn35  1  0.186589  0.654547  0.250000  1
