# generated using pymatgen
data_NaLa6RuI12
_symmetry_space_group_name_H-M   'P 1'
_cell_length_a   10.20061900
_cell_length_b   10.20061929
_cell_length_c   10.20061733
_cell_angle_alpha   107.12524669
_cell_angle_beta   107.12524669
_cell_angle_gamma   107.12524970
_symmetry_Int_Tables_number   1
_chemical_formula_structural   NaLa6RuI12
_chemical_formula_sum   'Na1 La6 Ru1 I12'
_cell_volume   880.90742204
_cell_formula_units_Z   1
loop_
 _symmetry_equiv_pos_site_id
 _symmetry_equiv_pos_as_xyz
  1  'x, y, z'
loop_
 _atom_site_type_symbol
 _atom_site_label
 _atom_site_symmetry_multiplicity
 _atom_site_fract_x
 _atom_site_fract_y
 _atom_site_fract_z
 _atom_site_occupancy
  Na  Na0  1  0.500000  0.500000  0.500000  1
  La  La1  1  0.895702  0.691788  0.969197  1
  La  La2  1  0.969197  0.895702  0.691788  1
  La  La3  1  0.691788  0.969197  0.895702  1
  La  La4  1  0.104298  0.308212  0.030803  1
  La  La5  1  0.030803  0.104298  0.308212  1
  La  La6  1  0.308212  0.030803  0.104298  1
  Ru  Ru7  1  0.000000  0.000000  0.000000  1
  I  I8  1  0.621011  0.845403  0.542451  1
  I  I9  1  0.542451  0.621011  0.845403  1
  I  I10  1  0.845403  0.542451  0.621011  1
  I  I11  1  0.378989  0.154597  0.457549  1
  I  I12  1  0.457549  0.378989  0.154597  1
  I  I13  1  0.154597  0.457549  0.378989  1
  I  I14  1  0.682067  0.073418  0.225172  1
  I  I15  1  0.225172  0.682067  0.073418  1
  I  I16  1  0.073418  0.225172  0.682067  1
  I  I17  1  0.317933  0.926582  0.774828  1
  I  I18  1  0.774828  0.317933  0.926582  1
  I  I19  1  0.926582  0.774828  0.317933  1
