# generated using pymatgen
data_Yb3Sm(In2Pd3)4
_symmetry_space_group_name_H-M   'P 1'
_cell_length_a   4.60553200
_cell_length_b   9.80699005
_cell_length_c   10.45758041
_cell_angle_alpha   90.13690116
_cell_angle_beta   90.00000000
_cell_angle_gamma   90.00000000
_symmetry_Int_Tables_number   1
_chemical_formula_structural   Yb3Sm(In2Pd3)4
_chemical_formula_sum   'Yb3 Sm1 In8 Pd12'
_cell_volume   472.32997942
_cell_formula_units_Z   1
loop_
 _symmetry_equiv_pos_site_id
 _symmetry_equiv_pos_as_xyz
  1  'x, y, z'
loop_
 _atom_site_type_symbol
 _atom_site_label
 _atom_site_symmetry_multiplicity
 _atom_site_fract_x
 _atom_site_fract_y
 _atom_site_fract_z
 _atom_site_occupancy
  Yb  Yb0  1  0.250000  0.053577  0.223967  1
  Yb  Yb1  1  0.750000  0.553608  0.275308  1
  Yb  Yb2  1  0.750000  0.946913  0.775458  1
  Sm  Sm3  1  0.250000  0.448479  0.728954  1
  In  In4  1  0.250000  0.889813  0.512972  1
  In  In5  1  0.250000  0.610947  0.018873  1
  In  In6  1  0.750000  0.109887  0.483161  1
  In  In7  1  0.750000  0.390028  0.986043  1
  In  In8  1  0.250000  0.157103  0.891332  1
  In  In9  1  0.250000  0.339356  0.388353  1
  In  In10  1  0.750000  0.838841  0.110176  1
  In  In11  1  0.750000  0.662594  0.608307  1
  Pd  Pd12  1  0.250000  0.151860  0.619185  1
  Pd  Pd13  1  0.250000  0.344437  0.116447  1
  Pd  Pd14  1  0.750000  0.843964  0.381799  1
  Pd  Pd15  1  0.750000  0.654878  0.880609  1
  Pd  Pd16  1  0.250000  0.746813  0.738882  1
  Pd  Pd17  1  0.250000  0.760109  0.240946  1
  Pd  Pd18  1  0.750000  0.258397  0.259650  1
  Pd  Pd19  1  0.750000  0.241478  0.759366  1
  Pd  Pd20  1  0.250000  0.892058  0.974253  1
  Pd  Pd21  1  0.250000  0.606818  0.473121  1
  Pd  Pd22  1  0.750000  0.105092  0.026215  1
  Pd  Pd23  1  0.750000  0.392948  0.526623  1
