# generated using pymatgen
data_Ti10Si5Ge
_symmetry_space_group_name_H-M   'P 1'
_cell_length_a   7.49635998
_cell_length_b   7.49636089
_cell_length_c   5.14224800
_cell_angle_alpha   90.00000000
_cell_angle_beta   90.00000000
_cell_angle_gamma   120.08327595
_symmetry_Int_Tables_number   1
_chemical_formula_structural   Ti10Si5Ge
_chemical_formula_sum   'Ti10 Si5 Ge1'
_cell_volume   250.04577566
_cell_formula_units_Z   1
loop_
 _symmetry_equiv_pos_site_id
 _symmetry_equiv_pos_as_xyz
  1  'x, y, z'
loop_
 _atom_site_type_symbol
 _atom_site_label
 _atom_site_symmetry_multiplicity
 _atom_site_fract_x
 _atom_site_fract_y
 _atom_site_fract_z
 _atom_site_occupancy
  Ti  Ti0  1  0.000256  0.748977  0.750000  1
  Ti  Ti1  1  0.249163  0.249163  0.750000  1
  Ti  Ti2  1  0.996124  0.250202  0.250000  1
  Ti  Ti3  1  0.332818  0.668560  0.500995  1
  Ti  Ti4  1  0.748977  0.000256  0.750000  1
  Ti  Ti5  1  0.752642  0.752642  0.250000  1
  Ti  Ti6  1  0.332818  0.668560  0.999005  1
  Ti  Ti7  1  0.250202  0.996124  0.250000  1
  Ti  Ti8  1  0.668560  0.332818  0.500995  1
  Ti  Ti9  1  0.668560  0.332818  0.999005  1
  Si  Si10  1  0.609671  0.609671  0.750000  1
  Si  Si11  1  0.391670  0.000908  0.750000  1
  Si  Si12  1  0.999447  0.607518  0.250000  1
  Si  Si13  1  0.607518  0.999447  0.250000  1
  Si  Si14  1  0.000908  0.391670  0.750000  1
  Ge  Ge15  1  0.390666  0.390666  0.250000  1
