# generated using pymatgen
data_Lu20AlHgBi10
_symmetry_space_group_name_H-M   'P 1'
_cell_length_a   8.07660978
_cell_length_b   9.34390700
_cell_length_c   11.73717096
_cell_angle_alpha   90.00000000
_cell_angle_beta   89.99121607
_cell_angle_gamma   90.00000000
_symmetry_Int_Tables_number   1
_chemical_formula_structural   Lu20AlHgBi10
_chemical_formula_sum   'Lu20 Al1 Hg1 Bi10'
_cell_volume   885.77013440
_cell_formula_units_Z   1
loop_
 _symmetry_equiv_pos_site_id
 _symmetry_equiv_pos_as_xyz
  1  'x, y, z'
loop_
 _atom_site_type_symbol
 _atom_site_label
 _atom_site_symmetry_multiplicity
 _atom_site_fract_x
 _atom_site_fract_y
 _atom_site_fract_z
 _atom_site_occupancy
  Lu  Lu0  1  0.034235  0.250000  0.508625  1
  Lu  Lu1  1  0.978499  0.750000  0.490403  1
  Lu  Lu2  1  0.479665  0.750000  0.009553  1
  Lu  Lu3  1  0.535504  0.250000  0.991819  1
  Lu  Lu4  1  0.351724  0.250000  0.294012  1
  Lu  Lu5  1  0.655760  0.750000  0.718097  1
  Lu  Lu6  1  0.154760  0.750000  0.780888  1
  Lu  Lu7  1  0.850326  0.250000  0.209771  1
  Lu  Lu8  1  0.186200  0.250000  0.782789  1
  Lu  Lu9  1  0.808592  0.750000  0.216146  1
  Lu  Lu10  1  0.307404  0.750000  0.283559  1
  Lu  Lu11  1  0.684235  0.250000  0.713526  1
  Lu  Lu12  1  0.189377  0.070461  0.056970  1
  Lu  Lu13  1  0.807782  0.946084  0.941413  1
  Lu  Lu14  1  0.306610  0.946961  0.556991  1
  Lu  Lu15  1  0.807782  0.553916  0.941413  1
  Lu  Lu16  1  0.684500  0.072530  0.444871  1
  Lu  Lu17  1  0.189377  0.429539  0.056970  1
  Lu  Lu18  1  0.684500  0.427470  0.444871  1
  Lu  Lu19  1  0.306610  0.553039  0.556991  1
  Al  Al20  1  0.405811  0.250000  0.544027  1
  Hg  Hg21  1  0.909554  0.250000  0.958359  1
  Bi  Bi22  1  0.595855  0.750000  0.457594  1
  Bi  Bi23  1  0.095726  0.750000  0.041240  1
  Bi  Bi24  1  0.057636  0.002141  0.322749  1
  Bi  Bi25  1  0.939875  0.998399  0.677213  1
  Bi  Bi26  1  0.440144  0.998176  0.821601  1
  Bi  Bi27  1  0.939875  0.501601  0.677213  1
  Bi  Bi28  1  0.557152  0.001736  0.177987  1
  Bi  Bi29  1  0.057636  0.497859  0.322749  1
  Bi  Bi30  1  0.557152  0.498264  0.177987  1
  Bi  Bi31  1  0.440144  0.501824  0.821601  1
