# generated using pymatgen
data_Tb2Dy6Re3B24Ir
_symmetry_space_group_name_H-M   'P 1'
_cell_length_a   3.68219200
_cell_length_b   9.18260198
_cell_length_c   11.56941103
_cell_angle_alpha   90.12978570
_cell_angle_beta   90.00000000
_cell_angle_gamma   90.00000000
_symmetry_Int_Tables_number   1
_chemical_formula_structural   Tb2Dy6Re3B24Ir
_chemical_formula_sum   'Tb2 Dy6 Re3 B24 Ir1'
_cell_volume   391.18511985
_cell_formula_units_Z   1
loop_
 _symmetry_equiv_pos_site_id
 _symmetry_equiv_pos_as_xyz
  1  'x, y, z'
loop_
 _atom_site_type_symbol
 _atom_site_label
 _atom_site_symmetry_multiplicity
 _atom_site_fract_x
 _atom_site_fract_y
 _atom_site_fract_z
 _atom_site_occupancy
  Tb  Tb0  1  0.000000  0.318553  0.415424  1
  Tb  Tb1  1  0.000000  0.678282  0.591307  1
  Dy  Dy2  1  0.000000  0.827477  0.081337  1
  Dy  Dy3  1  0.000000  0.177021  0.912555  1
  Dy  Dy4  1  0.000000  0.944013  0.370151  1
  Dy  Dy5  1  0.000000  0.055952  0.629057  1
  Dy  Dy6  1  0.000000  0.440814  0.128363  1
  Dy  Dy7  1  0.000000  0.556813  0.871693  1
  Re  Re8  1  0.000000  0.362519  0.677734  1
  Re  Re9  1  0.000000  0.138239  0.179770  1
  Re  Re10  1  0.000000  0.861899  0.821120  1
  B  B11  1  0.500000  0.553942  0.433351  1
  B  B12  1  0.500000  0.446563  0.567120  1
  B  B13  1  0.500000  0.053399  0.066730  1
  B  B14  1  0.500000  0.947127  0.932553  1
  B  B15  1  0.500000  0.748737  0.419740  1
  B  B16  1  0.500000  0.251017  0.581357  1
  B  B17  1  0.500000  0.248485  0.081381  1
  B  B18  1  0.500000  0.752241  0.918810  1
  B  B19  1  0.500000  0.790798  0.265501  1
  B  B20  1  0.500000  0.208798  0.733807  1
  B  B21  1  0.500000  0.291046  0.234546  1
  B  B22  1  0.500000  0.708608  0.766414  1
  B  B23  1  0.500000  0.632016  0.184705  1
  B  B24  1  0.500000  0.369085  0.813785  1
  B  B25  1  0.500000  0.130976  0.314293  1
  B  B26  1  0.500000  0.868270  0.686045  1
  B  B27  1  0.500000  0.983481  0.211956  1
  B  B28  1  0.500000  0.016951  0.787026  1
  B  B29  1  0.500000  0.483471  0.287771  1
  B  B30  1  0.500000  0.517529  0.712560  1
  B  B31  1  0.500000  0.604747  0.029676  1
  B  B32  1  0.500000  0.396261  0.971627  1
  B  B33  1  0.500000  0.102716  0.470855  1
  B  B34  1  0.500000  0.894397  0.528576  1
  Ir  Ir35  1  0.000000  0.637758  0.321308  1
