# generated using pymatgen
data_Al4SbRu3(PtO6)4
_symmetry_space_group_name_H-M   'P 1'
_cell_length_a   4.53825850
_cell_length_b   9.07752098
_cell_length_c   9.20153600
_cell_angle_alpha   89.99988452
_cell_angle_beta   90.00006319
_cell_angle_gamma   89.94656106
_symmetry_Int_Tables_number   1
_chemical_formula_structural   Al4SbRu3(PtO6)4
_chemical_formula_sum   'Al4 Sb1 Ru3 Pt4 O24'
_cell_volume   379.06757021
_cell_formula_units_Z   1
loop_
 _symmetry_equiv_pos_site_id
 _symmetry_equiv_pos_as_xyz
  1  'x, y, z'
loop_
 _atom_site_type_symbol
 _atom_site_label
 _atom_site_symmetry_multiplicity
 _atom_site_fract_x
 _atom_site_fract_y
 _atom_site_fract_z
 _atom_site_occupancy
  Al  Al0  1  0.498004  0.752155  0.165395  1
  Al  Al1  1  0.999994  0.499998  0.666575  1
  Al  Al2  1  0.502003  0.247848  0.165399  1
  Al  Al3  1  0.000005  0.999999  0.666605  1
  Sb  Sb4  1  0.000002  0.500002  0.333886  1
  Ru  Ru5  1  0.500894  0.249253  0.835944  1
  Ru  Ru6  1  0.499102  0.750752  0.835948  1
  Ru  Ru7  1  0.000005  0.000006  0.335540  1
  Pt  Pt8  1  0.500106  0.246048  0.500431  1
  Pt  Pt9  1  0.499898  0.753949  0.500433  1
  Pt  Pt10  1  0.000004  0.999995  0.998512  1
  Pt  Pt11  1  0.999994  0.500004  0.996634  1
  O  O12  1  0.201266  0.398195  0.167124  1
  O  O13  1  0.199582  0.901360  0.168591  1
  O  O14  1  0.800427  0.098642  0.168596  1
  O  O15  1  0.798734  0.601807  0.167123  1
  O  O16  1  0.300044  0.148803  0.670733  1
  O  O17  1  0.300966  0.651830  0.669919  1
  O  O18  1  0.699017  0.348166  0.669917  1
  O  O19  1  0.699973  0.851196  0.670741  1
  O  O20  1  0.188006  0.405051  0.506466  1
  O  O21  1  0.187603  0.907239  0.505472  1
  O  O22  1  0.812396  0.092760  0.505471  1
  O  O23  1  0.812003  0.594950  0.506467  1
  O  O24  1  0.312568  0.155510  0.005094  1
  O  O25  1  0.311266  0.656229  0.004140  1
  O  O26  1  0.688731  0.343772  0.004144  1
  O  O27  1  0.687419  0.844487  0.005087  1
  O  O28  1  0.195472  0.402145  0.825017  1
  O  O29  1  0.195821  0.902232  0.825949  1
  O  O30  1  0.804182  0.097762  0.825947  1
  O  O31  1  0.804517  0.597857  0.825019  1
  O  O32  1  0.303015  0.150862  0.326332  1
  O  O33  1  0.312872  0.656327  0.324508  1
  O  O34  1  0.687133  0.343677  0.324511  1
  O  O35  1  0.696981  0.849135  0.326332  1
