# generated using pymatgen
data_Y2As2IrRuO2
_symmetry_space_group_name_H-M   'P 1'
_cell_length_a   4.06586500
_cell_length_b   4.06586500
_cell_length_c   8.06564900
_cell_angle_alpha   90.00000000
_cell_angle_beta   90.00000000
_cell_angle_gamma   90.00000000
_symmetry_Int_Tables_number   1
_chemical_formula_structural   Y2As2IrRuO2
_chemical_formula_sum   'Y2 As2 Ir1 Ru1 O2'
_cell_volume   133.33532616
_cell_formula_units_Z   1
loop_
 _symmetry_equiv_pos_site_id
 _symmetry_equiv_pos_as_xyz
  1  'x, y, z'
loop_
 _atom_site_type_symbol
 _atom_site_label
 _atom_site_symmetry_multiplicity
 _atom_site_fract_x
 _atom_site_fract_y
 _atom_site_fract_z
 _atom_site_occupancy
  Y  Y0  1  0.250002  0.250002  0.130437  1
  Y  Y1  1  0.750002  0.750002  0.869565  1
  As  As2  1  0.750002  0.750002  0.331163  1
  As  As3  1  0.250002  0.250002  0.668836  1
  Ir  Ir4  1  0.750002  0.250002  0.500000  1
  Ru  Ru5  1  0.250002  0.750002  0.500000  1
  O  O6  1  0.750002  0.250002  0.000000  1
  O  O7  1  0.250002  0.750002  0.000000  1
