# generated using pymatgen
data_NdEu2PuH10
_symmetry_space_group_name_H-M   'P 1'
_cell_length_a   6.61341589
_cell_length_b   6.61341424
_cell_length_c   6.61341506
_cell_angle_alpha   130.78533110
_cell_angle_beta   131.57389621
_cell_angle_gamma   71.52974886
_symmetry_Int_Tables_number   1
_chemical_formula_structural   NdEu2PuH10
_chemical_formula_sum   'Nd1 Eu2 Pu1 H10'
_cell_volume   160.32986548
_cell_formula_units_Z   1
loop_
 _symmetry_equiv_pos_site_id
 _symmetry_equiv_pos_as_xyz
  1  'x, y, z'
loop_
 _atom_site_type_symbol
 _atom_site_label
 _atom_site_symmetry_multiplicity
 _atom_site_fract_x
 _atom_site_fract_y
 _atom_site_fract_z
 _atom_site_occupancy
  Nd  Nd0  1  0.264463  0.264463  0.000000  1
  Eu  Eu1  1  0.488361  0.988361  0.500000  1
  Eu  Eu2  1  0.738003  0.738003  0.000000  1
  Pu  Pu3  1  0.015003  0.515003  0.500000  1
  H  H4  1  0.359904  0.349243  0.464036  1
  H  H5  1  0.885208  0.895868  0.535964  1
  H  H6  1  0.661754  0.140410  0.046214  1
  H  H7  1  0.094195  0.615541  0.953786  1
  H  H8  1  0.359904  0.895868  0.010660  1
  H  H9  1  0.885208  0.349243  0.989340  1
  H  H10  1  0.661754  0.615541  0.521345  1
  H  H11  1  0.094195  0.140410  0.478655  1
  H  H12  1  0.244777  0.744777  0.500000  1
  H  H13  1  0.497267  0.497267  0.000000  1
