# generated using pymatgen
data_DyTm9In8Pt3Au
_symmetry_space_group_name_H-M   'P 1'
_cell_length_a   3.61096900
_cell_length_b   8.15249378
_cell_length_c   18.24487200
_cell_angle_alpha   90.02498456
_cell_angle_beta   90.00000000
_cell_angle_gamma   90.00000000
_symmetry_Int_Tables_number   1
_chemical_formula_structural   DyTm9In8Pt3Au
_chemical_formula_sum   'Dy1 Tm9 In8 Pt3 Au1'
_cell_volume   537.09983068
_cell_formula_units_Z   1
loop_
 _symmetry_equiv_pos_site_id
 _symmetry_equiv_pos_as_xyz
  1  'x, y, z'
loop_
 _atom_site_type_symbol
 _atom_site_label
 _atom_site_symmetry_multiplicity
 _atom_site_fract_x
 _atom_site_fract_y
 _atom_site_fract_z
 _atom_site_occupancy
  Dy  Dy0  1  0.000000  0.499111  0.500604  1
  Tm  Tm1  1  0.000000  0.120205  0.419656  1
  Tm  Tm2  1  0.000000  0.883976  0.586398  1
  Tm  Tm3  1  0.000000  0.384553  0.914323  1
  Tm  Tm4  1  0.000000  0.615886  0.083645  1
  Tm  Tm5  1  0.000000  0.253088  0.217200  1
  Tm  Tm6  1  0.000000  0.755378  0.779605  1
  Tm  Tm7  1  0.000000  0.256037  0.721258  1
  Tm  Tm8  1  0.000000  0.731195  0.278980  1
  Tm  Tm9  1  0.000000  0.999444  0.998948  1
  In  In10  1  0.500000  0.421444  0.352156  1
  In  In11  1  0.500000  0.576706  0.649191  1
  In  In12  1  0.500000  0.076530  0.851824  1
  In  In13  1  0.500000  0.921998  0.147026  1
  In  In14  1  0.500000  0.291649  0.064994  1
  In  In15  1  0.500000  0.708237  0.933016  1
  In  In16  1  0.500000  0.207405  0.568165  1
  In  In17  1  0.500000  0.792699  0.433979  1
  Pt  Pt18  1  0.500000  0.973954  0.697111  1
  Pt  Pt19  1  0.500000  0.474279  0.803469  1
  Pt  Pt20  1  0.500000  0.527599  0.196081  1
  Au  Au21  1  0.500000  0.028627  0.302372  1
