# generated using pymatgen
data_YTmB6Os
_symmetry_space_group_name_H-M   'P 1'
_cell_length_a   3.63578200
_cell_length_b   9.10987700
_cell_length_c   11.50791000
_cell_angle_alpha   90.00000000
_cell_angle_beta   90.00000000
_cell_angle_gamma   90.00000000
_symmetry_Int_Tables_number   1
_chemical_formula_structural   YTmB6Os
_chemical_formula_sum   'Y4 Tm4 B24 Os4'
_cell_volume   381.15954969
_cell_formula_units_Z   4
loop_
 _symmetry_equiv_pos_site_id
 _symmetry_equiv_pos_as_xyz
  1  'x, y, z'
loop_
 _atom_site_type_symbol
 _atom_site_label
 _atom_site_symmetry_multiplicity
 _atom_site_fract_x
 _atom_site_fract_y
 _atom_site_fract_z
 _atom_site_occupancy
  Y  Y0  1  0.000000  0.321962  0.413962  1
  Y  Y1  1  0.000000  0.678038  0.586038  1
  Y  Y2  1  0.000000  0.821962  0.086038  1
  Y  Y3  1  0.000000  0.178038  0.913962  1
  Tm  Tm4  1  0.000000  0.944071  0.373092  1
  Tm  Tm5  1  0.000000  0.055929  0.626909  1
  Tm  Tm6  1  0.000000  0.444071  0.126908  1
  Tm  Tm7  1  0.000000  0.555929  0.873091  1
  B  B8  1  0.500000  0.554208  0.432723  1
  B  B9  1  0.500000  0.445792  0.567277  1
  B  B10  1  0.500000  0.054208  0.067277  1
  B  B11  1  0.500000  0.945792  0.932723  1
  B  B12  1  0.500000  0.749180  0.419460  1
  B  B13  1  0.500000  0.250820  0.580540  1
  B  B14  1  0.500000  0.249180  0.080540  1
  B  B15  1  0.500000  0.750820  0.919460  1
  B  B16  1  0.500000  0.791577  0.266405  1
  B  B17  1  0.500000  0.208423  0.733595  1
  B  B18  1  0.500000  0.291576  0.233595  1
  B  B19  1  0.500000  0.708423  0.766405  1
  B  B20  1  0.500000  0.631112  0.184855  1
  B  B21  1  0.500000  0.368888  0.815145  1
  B  B22  1  0.500000  0.131112  0.315145  1
  B  B23  1  0.500000  0.868888  0.684855  1
  B  B24  1  0.500000  0.983032  0.213618  1
  B  B25  1  0.500000  0.016968  0.786382  1
  B  B26  1  0.500000  0.483032  0.286382  1
  B  B27  1  0.500000  0.516968  0.713618  1
  B  B28  1  0.500000  0.604808  0.028965  1
  B  B29  1  0.500000  0.395192  0.971035  1
  B  B30  1  0.500000  0.104808  0.471035  1
  B  B31  1  0.500000  0.895192  0.528965  1
  Os  Os32  1  0.000000  0.638024  0.320527  1
  Os  Os33  1  0.000000  0.361976  0.679473  1
  Os  Os34  1  0.000000  0.138024  0.179473  1
  Os  Os35  1  0.000000  0.861976  0.820527  1
