# generated using pymatgen
data_Nd3Al12Ru2PtRh
_symmetry_space_group_name_H-M   'P 1'
_cell_length_a   8.95478014
_cell_length_b   8.89990192
_cell_length_c   9.66257611
_cell_angle_alpha   89.99996184
_cell_angle_beta   89.98477413
_cell_angle_gamma   119.79753243
_symmetry_Int_Tables_number   1
_chemical_formula_structural   Nd3Al12Ru2PtRh
_chemical_formula_sum   'Nd6 Al24 Ru4 Pt2 Rh2'
_cell_volume   668.26101020
_cell_formula_units_Z   2
loop_
 _symmetry_equiv_pos_site_id
 _symmetry_equiv_pos_as_xyz
  1  'x, y, z'
loop_
 _atom_site_type_symbol
 _atom_site_label
 _atom_site_symmetry_multiplicity
 _atom_site_fract_x
 _atom_site_fract_y
 _atom_site_fract_z
 _atom_site_occupancy
  Nd  Nd0  1  0.188853  0.382155  0.250381  1
  Nd  Nd1  1  0.811147  0.617845  0.749619  1
  Nd  Nd2  1  0.619361  0.809681  0.249283  1
  Nd  Nd3  1  0.380639  0.190319  0.750717  1
  Nd  Nd4  1  0.188852  0.806695  0.250381  1
  Nd  Nd5  1  0.811148  0.193305  0.749619  1
  Al  Al6  1  0.327527  0.663763  0.021677  1
  Al  Al7  1  0.672473  0.336237  0.978323  1
  Al  Al8  1  0.669000  0.334500  0.520770  1
  Al  Al9  1  0.331000  0.665500  0.479230  1
  Al  Al10  1  0.162310  0.327321  0.575295  1
  Al  Al11  1  0.837690  0.672679  0.424705  1
  Al  Al12  1  0.674488  0.837244  0.574003  1
  Al  Al13  1  0.841415  0.673955  0.076778  1
  Al  Al14  1  0.325512  0.162756  0.425997  1
  Al  Al15  1  0.158585  0.326045  0.923222  1
  Al  Al16  1  0.162310  0.834988  0.575295  1
  Al  Al17  1  0.323805  0.161902  0.076209  1
  Al  Al18  1  0.837690  0.165012  0.424705  1
  Al  Al19  1  0.676195  0.838098  0.923791  1
  Al  Al20  1  0.841415  0.167462  0.076779  1
  Al  Al21  1  0.158585  0.832538  0.923221  1
  Al  Al22  1  0.563197  0.126671  0.252499  1
  Al  Al23  1  0.436803  0.873329  0.747501  1
  Al  Al24  1  0.874715  0.437357  0.249648  1
  Al  Al25  1  0.125285  0.562643  0.750352  1
  Al  Al26  1  0.563198  0.436528  0.252498  1
  Al  Al27  1  0.436802  0.563472  0.747502  1
  Al  Al28  1  0.997007  0.998502  0.250154  1
  Al  Al29  1  0.002993  0.001498  0.749846  1
  Ru  Ru30  1  0.000000  0.500000  0.000000  1
  Ru  Ru31  1  0.000000  0.500000  0.500000  1
  Ru  Ru32  1  0.000000  0.000000  0.000000  1
  Ru  Ru33  1  0.000000  0.000000  0.500000  1
  Pt  Pt34  1  0.500000  0.000000  0.000000  1
  Pt  Pt35  1  0.500000  0.500000  0.000000  1
  Rh  Rh36  1  0.500000  0.000000  0.500000  1
  Rh  Rh37  1  0.500000  0.500000  0.500000  1
