# generated using pymatgen
data_DyHo14Th(CdNi)4
_symmetry_space_group_name_H-M   'P 1'
_cell_length_a   9.51530375
_cell_length_b   9.51530465
_cell_length_c   9.51789863
_cell_angle_alpha   60.11611334
_cell_angle_beta   60.11611620
_cell_angle_gamma   60.19680755
_symmetry_Int_Tables_number   1
_chemical_formula_structural   DyHo14Th(CdNi)4
_chemical_formula_sum   'Dy1 Ho14 Th1 Cd4 Ni4'
_cell_volume   611.32968911
_cell_formula_units_Z   1
loop_
 _symmetry_equiv_pos_site_id
 _symmetry_equiv_pos_as_xyz
  1  'x, y, z'
loop_
 _atom_site_type_symbol
 _atom_site_label
 _atom_site_symmetry_multiplicity
 _atom_site_fract_x
 _atom_site_fract_y
 _atom_site_fract_z
 _atom_site_occupancy
  Dy  Dy0  1  0.186624  0.186624  0.813343  1
  Ho  Ho1  1  0.598959  0.598959  0.200221  1
  Ho  Ho2  1  0.599513  0.199885  0.598917  1
  Ho  Ho3  1  0.199885  0.599513  0.598917  1
  Ho  Ho4  1  0.062865  0.439193  0.438760  1
  Ho  Ho5  1  0.439764  0.062540  0.062763  1
  Ho  Ho6  1  0.439193  0.062865  0.438760  1
  Ho  Ho7  1  0.062540  0.439764  0.062763  1
  Ho  Ho8  1  0.438975  0.438975  0.062908  1
  Ho  Ho9  1  0.062701  0.062701  0.439516  1
  Ho  Ho10  1  0.187158  0.814990  0.815139  1
  Ho  Ho11  1  0.813104  0.186580  0.186786  1
  Ho  Ho12  1  0.814990  0.187158  0.815139  1
  Ho  Ho13  1  0.186580  0.813104  0.186786  1
  Ho  Ho14  1  0.815167  0.815167  0.187146  1
  Th  Th15  1  0.593660  0.593660  0.593851  1
  Cd  Cd16  1  0.831126  0.831126  0.830319  1
  Cd  Cd17  1  0.832068  0.832068  0.504796  1
  Cd  Cd18  1  0.831732  0.505206  0.831728  1
  Cd  Cd19  1  0.505206  0.831732  0.831728  1
  Ni  Ni20  1  0.392891  0.392891  0.394317  1
  Ni  Ni21  1  0.391221  0.391221  0.821681  1
  Ni  Ni22  1  0.392338  0.821741  0.391859  1
  Ni  Ni23  1  0.821741  0.392338  0.391859  1
