# generated using pymatgen
data_Li3La2CePt3
_symmetry_space_group_name_H-M   'P 1'
_cell_length_a   7.35504624
_cell_length_b   7.38638484
_cell_length_c   4.15430600
_cell_angle_alpha   90.00000000
_cell_angle_beta   90.00000000
_cell_angle_gamma   120.14102771
_symmetry_Int_Tables_number   1
_chemical_formula_structural   Li3La2CePt3
_chemical_formula_sum   'Li3 La2 Ce1 Pt3'
_cell_volume   195.17650050
_cell_formula_units_Z   1
loop_
 _symmetry_equiv_pos_site_id
 _symmetry_equiv_pos_as_xyz
  1  'x, y, z'
loop_
 _atom_site_type_symbol
 _atom_site_label
 _atom_site_symmetry_multiplicity
 _atom_site_fract_x
 _atom_site_fract_y
 _atom_site_fract_z
 _atom_site_occupancy
  Li  Li0  1  0.773893  0.769739  0.500000  1
  Li  Li1  1  0.226107  0.995846  0.500000  1
  Li  Li2  1  0.000000  0.228994  0.500000  1
  La  La3  1  0.407698  0.409671  0.000000  1
  La  La4  1  0.592302  0.001973  0.000000  1
  Ce  Ce5  1  0.000000  0.591845  0.000000  1
  Pt  Pt6  1  0.000000  0.990631  0.000000  1
  Pt  Pt7  1  0.680590  0.345945  0.500000  1
  Pt  Pt8  1  0.319410  0.665356  0.500000  1
