# generated using pymatgen
data_LaDyB5
_symmetry_space_group_name_H-M   'P 1'
_cell_length_a   7.24730800
_cell_length_b   7.23794261
_cell_length_c   7.25365995
_cell_angle_alpha   76.97082141
_cell_angle_beta   90.00000000
_cell_angle_gamma   90.00000000
_symmetry_Int_Tables_number   1
_chemical_formula_structural   LaDyB5
_chemical_formula_sum   'La4 Dy4 B20'
_cell_volume   370.69937893
_cell_formula_units_Z   4
loop_
 _symmetry_equiv_pos_site_id
 _symmetry_equiv_pos_as_xyz
  1  'x, y, z'
loop_
 _atom_site_type_symbol
 _atom_site_label
 _atom_site_symmetry_multiplicity
 _atom_site_fract_x
 _atom_site_fract_y
 _atom_site_fract_z
 _atom_site_occupancy
  La  La0  1  0.687760  0.781032  0.622719  1
  La  La1  1  0.187760  0.218968  0.877281  1
  La  La2  1  0.312240  0.218968  0.377281  1
  La  La3  1  0.812240  0.781032  0.122719  1
  Dy  Dy4  1  0.316274  0.746689  0.255624  1
  Dy  Dy5  1  0.816274  0.253311  0.244376  1
  Dy  Dy6  1  0.683726  0.253311  0.744376  1
  Dy  Dy7  1  0.183726  0.746689  0.755624  1
  B  B8  1  0.505148  0.315578  0.038524  1
  B  B9  1  0.005148  0.684422  0.461476  1
  B  B10  1  0.494852  0.684422  0.961476  1
  B  B11  1  0.994852  0.315578  0.538524  1
  B  B12  1  0.482955  0.923630  0.930099  1
  B  B13  1  0.982955  0.076370  0.569901  1
  B  B14  1  0.517045  0.076370  0.069901  1
  B  B15  1  0.017045  0.923630  0.430099  1
  B  B16  1  0.327787  0.495063  0.040777  1
  B  B17  1  0.827787  0.504937  0.459223  1
  B  B18  1  0.672213  0.504937  0.959223  1
  B  B19  1  0.172213  0.495063  0.540777  1
  B  B20  1  0.909056  0.498606  0.909501  1
  B  B21  1  0.409056  0.501394  0.590499  1
  B  B22  1  0.090944  0.501394  0.090499  1
  B  B23  1  0.590944  0.498606  0.409501  1
  B  B24  1  0.960555  0.496579  0.672638  1
  B  B25  1  0.460555  0.503421  0.827362  1
  B  B26  1  0.039445  0.503421  0.327362  1
  B  B27  1  0.539445  0.496579  0.172638  1
