# generated using pymatgen
data_NdSm3(CCl)2
_symmetry_space_group_name_H-M   'P 1'
_cell_length_a   3.74198700
_cell_length_b   3.74201129
_cell_length_c   14.15756605
_cell_angle_alpha   89.99676501
_cell_angle_beta   90.00236675
_cell_angle_gamma   120.00056149
_symmetry_Int_Tables_number   1
_chemical_formula_structural   NdSm3(CCl)2
_chemical_formula_sum   'Nd1 Sm3 C2 Cl2'
_cell_volume   171.68175246
_cell_formula_units_Z   1
loop_
 _symmetry_equiv_pos_site_id
 _symmetry_equiv_pos_as_xyz
  1  'x, y, z'
loop_
 _atom_site_type_symbol
 _atom_site_label
 _atom_site_symmetry_multiplicity
 _atom_site_fract_x
 _atom_site_fract_y
 _atom_site_fract_z
 _atom_site_occupancy
  Nd  Nd0  1  0.333381  0.666534  0.094385  1
  Sm  Sm1  1  0.666629  0.333494  0.595816  1
  Sm  Sm2  1  0.666707  0.333155  0.902634  1
  Sm  Sm3  1  0.333296  0.666833  0.406985  1
  C  C4  1  0.000038  0.999827  0.995138  1
  C  C5  1  0.999958  0.000160  0.501751  1
  Cl  Cl6  1  0.333330  0.666640  0.748276  1
  Cl  Cl7  1  0.666662  0.333358  0.255014  1
