# generated using pymatgen
data_YbEr3FeOs7
_symmetry_space_group_name_H-M   'P 1'
_cell_length_a   5.25440836
_cell_length_b   5.32328869
_cell_length_c   8.76168245
_cell_angle_alpha   89.99265686
_cell_angle_beta   89.88252037
_cell_angle_gamma   120.38561506
_symmetry_Int_Tables_number   1
_chemical_formula_structural   YbEr3FeOs7
_chemical_formula_sum   'Yb1 Er3 Fe1 Os7'
_cell_volume   211.40730031
_cell_formula_units_Z   1
loop_
 _symmetry_equiv_pos_site_id
 _symmetry_equiv_pos_as_xyz
  1  'x, y, z'
loop_
 _atom_site_type_symbol
 _atom_site_label
 _atom_site_symmetry_multiplicity
 _atom_site_fract_x
 _atom_site_fract_y
 _atom_site_fract_z
 _atom_site_occupancy
  Yb  Yb0  1  0.662578  0.331237  0.938404  1
  Er  Er1  1  0.663341  0.331702  0.568135  1
  Er  Er2  1  0.333818  0.666681  0.433716  1
  Er  Er3  1  0.332183  0.666049  0.061592  1
  Fe  Fe4  1  0.338652  0.169296  0.250379  1
  Os  Os5  1  0.998661  0.999010  0.496521  1
  Os  Os6  1  0.995778  0.997536  0.002343  1
  Os  Os7  1  0.173047  0.345441  0.749525  1
  Os  Os8  1  0.172788  0.828706  0.749422  1
  Os  Os9  1  0.663827  0.831883  0.749457  1
  Os  Os10  1  0.832471  0.655165  0.250221  1
  Os  Os11  1  0.832858  0.177295  0.250287  1
