# generated using pymatgen
data_Sm8Cu3Si12Pd
_symmetry_space_group_name_H-M   'P 1'
_cell_length_a   8.10553000
_cell_length_b   8.10553059
_cell_length_c   8.36784000
_cell_angle_alpha   90.00000000
_cell_angle_beta   90.00000000
_cell_angle_gamma   120.00000574
_symmetry_Int_Tables_number   1
_chemical_formula_structural   Sm8Cu3Si12Pd
_chemical_formula_sum   'Sm8 Cu3 Si12 Pd1'
_cell_volume   476.10949321
_cell_formula_units_Z   1
loop_
 _symmetry_equiv_pos_site_id
 _symmetry_equiv_pos_as_xyz
  1  'x, y, z'
loop_
 _atom_site_type_symbol
 _atom_site_label
 _atom_site_symmetry_multiplicity
 _atom_site_fract_x
 _atom_site_fract_y
 _atom_site_fract_z
 _atom_site_occupancy
  Sm  Sm0  1  0.498821  0.501179  0.750741  1
  Sm  Sm1  1  0.499207  0.500793  0.249261  1
  Sm  Sm2  1  0.002358  0.501179  0.750741  1
  Sm  Sm3  1  0.001585  0.500793  0.249261  1
  Sm  Sm4  1  0.498821  0.997642  0.750741  1
  Sm  Sm5  1  0.499207  0.998415  0.249261  1
  Sm  Sm6  1  0.000000  0.000000  0.750655  1
  Sm  Sm7  1  0.000000  0.000000  0.249566  1
  Cu  Cu8  1  0.666667  0.333333  0.997958  1
  Cu  Cu9  1  0.333333  0.666667  0.001221  1
  Cu  Cu10  1  0.333333  0.666667  0.499345  1
  Si  Si11  1  0.830581  0.169419  0.000442  1
  Si  Si12  1  0.169034  0.830966  0.999698  1
  Si  Si13  1  0.338837  0.169419  0.000442  1
  Si  Si14  1  0.168751  0.831249  0.499729  1
  Si  Si15  1  0.661933  0.830966  0.999698  1
  Si  Si16  1  0.833841  0.166159  0.500439  1
  Si  Si17  1  0.830581  0.661163  0.000442  1
  Si  Si18  1  0.662499  0.831249  0.499729  1
  Si  Si19  1  0.169034  0.338067  0.999698  1
  Si  Si20  1  0.332318  0.166159  0.500439  1
  Si  Si21  1  0.168751  0.337501  0.499729  1
  Si  Si22  1  0.833841  0.667682  0.500439  1
  Pd  Pd23  1  0.666667  0.333333  0.500326  1
