# generated using pymatgen
data_LaTh2(AlPd)3
_symmetry_space_group_name_H-M   'P 1'
_cell_length_a   7.33098002
_cell_length_b   7.33097963
_cell_length_c   4.22667700
_cell_angle_alpha   90.00000000
_cell_angle_beta   90.00000000
_cell_angle_gamma   120.00839516
_symmetry_Int_Tables_number   1
_chemical_formula_structural   LaTh2(AlPd)3
_chemical_formula_sum   'La1 Th2 Al3 Pd3'
_cell_volume   196.70572302
_cell_formula_units_Z   1
loop_
 _symmetry_equiv_pos_site_id
 _symmetry_equiv_pos_as_xyz
  1  'x, y, z'
loop_
 _atom_site_type_symbol
 _atom_site_label
 _atom_site_symmetry_multiplicity
 _atom_site_fract_x
 _atom_site_fract_y
 _atom_site_fract_z
 _atom_site_occupancy
  La  La0  1  0.419397  0.419397  0.500000  1
  Th  Th1  1  0.580346  0.000492  0.500000  1
  Th  Th2  1  0.000492  0.580346  0.500000  1
  Al  Al3  1  0.770101  0.770101  0.000000  1
  Al  Al4  1  0.229086  0.998889  0.000000  1
  Al  Al5  1  0.998889  0.229086  0.000000  1
  Pd  Pd6  1  0.675936  0.331909  0.000000  1
  Pd  Pd7  1  0.331909  0.675936  0.000000  1
  Pd  Pd8  1  0.993843  0.993843  0.500000  1
