# generated using pymatgen
data_Zr2Ni3P6Ru7
_symmetry_space_group_name_H-M   'P 1'
_cell_length_a   3.81302100
_cell_length_b   10.48901700
_cell_length_c   12.15449700
_cell_angle_alpha   90.00000000
_cell_angle_beta   90.00000000
_cell_angle_gamma   90.00000000
_symmetry_Int_Tables_number   1
_chemical_formula_structural   Zr2Ni3P6Ru7
_chemical_formula_sum   'Zr4 Ni6 P12 Ru14'
_cell_volume   486.11718820
_cell_formula_units_Z   2
loop_
 _symmetry_equiv_pos_site_id
 _symmetry_equiv_pos_as_xyz
  1  'x, y, z'
loop_
 _atom_site_type_symbol
 _atom_site_label
 _atom_site_symmetry_multiplicity
 _atom_site_fract_x
 _atom_site_fract_y
 _atom_site_fract_z
 _atom_site_occupancy
  Zr  Zr0  1  0.250000  0.589067  0.705918  1
  Zr  Zr1  1  0.250000  0.910933  0.205918  1
  Zr  Zr2  1  0.750000  0.416044  0.298162  1
  Zr  Zr3  1  0.750000  0.083956  0.798162  1
  Ni  Ni4  1  0.750000  0.110267  0.297440  1
  Ni  Ni5  1  0.750000  0.389733  0.797440  1
  Ni  Ni6  1  0.250000  0.457796  0.927531  1
  Ni  Ni7  1  0.250000  0.042204  0.427531  1
  Ni  Ni8  1  0.750000  0.532666  0.064513  1
  Ni  Ni9  1  0.750000  0.967334  0.564513  1
  P  P10  1  0.250000  0.416348  0.108985  1
  P  P11  1  0.250000  0.083652  0.608985  1
  P  P12  1  0.750000  0.573540  0.886022  1
  P  P13  1  0.750000  0.926460  0.386022  1
  P  P14  1  0.250000  0.262063  0.871986  1
  P  P15  1  0.250000  0.237937  0.371986  1
  P  P16  1  0.750000  0.728012  0.131406  1
  P  P17  1  0.750000  0.771988  0.631406  1
  P  P18  1  0.250000  0.600256  0.389547  1
  P  P19  1  0.250000  0.899744  0.889547  1
  P  P20  1  0.750000  0.403413  0.612941  1
  P  P21  1  0.750000  0.096587  0.112941  1
  Ru  Ru22  1  0.250000  0.708352  0.986761  1
  Ru  Ru23  1  0.250000  0.791648  0.486761  1
  Ru  Ru24  1  0.750000  0.283591  0.007809  1
  Ru  Ru25  1  0.750000  0.216409  0.507809  1
  Ru  Ru26  1  0.250000  0.410642  0.486249  1
  Ru  Ru27  1  0.250000  0.089358  0.986249  1
  Ru  Ru28  1  0.750000  0.597479  0.520715  1
  Ru  Ru29  1  0.750000  0.902521  0.020715  1
  Ru  Ru30  1  0.250000  0.221970  0.182716  1
  Ru  Ru31  1  0.250000  0.278030  0.682716  1
  Ru  Ru32  1  0.750000  0.772269  0.822141  1
  Ru  Ru33  1  0.750000  0.727731  0.322141  1
  Ru  Ru34  1  0.250000  0.892833  0.699160  1
  Ru  Ru35  1  0.250000  0.607167  0.199160  1
