# generated using pymatgen
data_TbDy2Sc3FeBi2
_symmetry_space_group_name_H-M   'P 1'
_cell_length_a   7.98804250
_cell_length_b   7.98840097
_cell_length_c   4.18561800
_cell_angle_alpha   90.00000000
_cell_angle_beta   90.00000000
_cell_angle_gamma   120.01776210
_symmetry_Int_Tables_number   1
_chemical_formula_structural   TbDy2Sc3FeBi2
_chemical_formula_sum   'Tb1 Dy2 Sc3 Fe1 Bi2'
_cell_volume   231.26647737
_cell_formula_units_Z   1
loop_
 _symmetry_equiv_pos_site_id
 _symmetry_equiv_pos_as_xyz
  1  'x, y, z'
loop_
 _atom_site_type_symbol
 _atom_site_label
 _atom_site_symmetry_multiplicity
 _atom_site_fract_x
 _atom_site_fract_y
 _atom_site_fract_z
 _atom_site_occupancy
  Tb  Tb0  1  0.612699  0.000002  0.000000  1
  Dy  Dy1  1  0.999824  0.613393  0.000000  1
  Dy  Dy2  1  0.386417  0.386597  0.000000  1
  Sc  Sc3  1  0.221369  0.999954  0.500000  1
  Sc  Sc4  1  0.000516  0.221664  0.500000  1
  Sc  Sc5  1  0.778902  0.778330  0.500000  1
  Fe  Fe6  1  0.001052  0.000029  0.000000  1
  Bi  Bi7  1  0.332419  0.665602  0.500000  1
  Bi  Bi8  1  0.666803  0.334430  0.500000  1
