# generated using pymatgen
data_Tm4Lu2FeSb2
_symmetry_space_group_name_H-M   'P 1'
_cell_length_a   8.06922610
_cell_length_b   8.06704347
_cell_length_c   4.10124800
_cell_angle_alpha   90.00000000
_cell_angle_beta   90.00000000
_cell_angle_gamma   119.99104731
_symmetry_Int_Tables_number   1
_chemical_formula_structural   Tm4Lu2FeSb2
_chemical_formula_sum   'Tm4 Lu2 Fe1 Sb2'
_cell_volume   231.22357780
_cell_formula_units_Z   1
loop_
 _symmetry_equiv_pos_site_id
 _symmetry_equiv_pos_as_xyz
  1  'x, y, z'
loop_
 _atom_site_type_symbol
 _atom_site_label
 _atom_site_symmetry_multiplicity
 _atom_site_fract_x
 _atom_site_fract_y
 _atom_site_fract_z
 _atom_site_occupancy
  Tm  Tm0  1  0.000000  0.233783  0.000000  1
  Tm  Tm1  1  0.000000  0.607024  0.500000  1
  Tm  Tm2  1  0.393755  0.393548  0.500000  1
  Tm  Tm3  1  0.606245  0.999793  0.500000  1
  Lu  Lu4  1  0.233474  0.999870  0.000000  1
  Lu  Lu5  1  0.766526  0.766396  0.000000  1
  Fe  Fe6  1  0.000000  0.999020  0.500000  1
  Sb  Sb7  1  0.333836  0.667201  0.000000  1
  Sb  Sb8  1  0.666164  0.333364  0.000000  1
