# generated using pymatgen
data_Li8In3GaPt4
_symmetry_space_group_name_H-M   'P 1'
_cell_length_a   6.29302972
_cell_length_b   6.29273494
_cell_length_c   6.29231600
_cell_angle_alpha   90.06366265
_cell_angle_beta   89.95769073
_cell_angle_gamma   90.04630985
_symmetry_Int_Tables_number   1
_chemical_formula_structural   Li8In3GaPt4
_chemical_formula_sum   'Li8 In3 Ga1 Pt4'
_cell_volume   249.17772584
_cell_formula_units_Z   1
loop_
 _symmetry_equiv_pos_site_id
 _symmetry_equiv_pos_as_xyz
  1  'x, y, z'
loop_
 _atom_site_type_symbol
 _atom_site_label
 _atom_site_symmetry_multiplicity
 _atom_site_fract_x
 _atom_site_fract_y
 _atom_site_fract_z
 _atom_site_occupancy
  Li  Li0  1  0.260368  0.739671  0.260356  1
  Li  Li1  1  0.739381  0.260617  0.260576  1
  Li  Li2  1  0.260601  0.260536  0.739468  1
  Li  Li3  1  0.000056  0.999972  0.000037  1
  Li  Li4  1  0.000066  0.500017  0.500016  1
  Li  Li5  1  0.739442  0.739419  0.739421  1
  Li  Li6  1  0.500009  0.999996  0.499991  1
  Li  Li7  1  0.500019  0.500000  0.000039  1
  In  In8  1  0.999916  0.000194  0.500294  1
  In  In9  1  0.999919  0.499736  0.999858  1
  In  In10  1  0.500308  0.999999  0.999837  1
  Ga  Ga11  1  0.499941  0.500069  0.499972  1
  Pt  Pt12  1  0.262313  0.262192  0.262344  1
  Pt  Pt13  1  0.737503  0.262426  0.737501  1
  Pt  Pt14  1  0.737786  0.737548  0.262435  1
  Pt  Pt15  1  0.262373  0.737612  0.737853  1
