# generated using pymatgen
data_CsSc4Br11
_symmetry_space_group_name_H-M   'P 1'
_cell_length_a   7.82982800
_cell_length_b   7.23180600
_cell_length_c   19.36963400
_cell_angle_alpha   90.00000000
_cell_angle_beta   90.00000000
_cell_angle_gamma   90.00000000
_symmetry_Int_Tables_number   1
_chemical_formula_structural   CsSc4Br11
_chemical_formula_sum   'Cs2 Sc8 Br22'
_cell_volume   1096.78222570
_cell_formula_units_Z   2
loop_
 _symmetry_equiv_pos_site_id
 _symmetry_equiv_pos_as_xyz
  1  'x, y, z'
loop_
 _atom_site_type_symbol
 _atom_site_label
 _atom_site_symmetry_multiplicity
 _atom_site_fract_x
 _atom_site_fract_y
 _atom_site_fract_z
 _atom_site_occupancy
  Cs  Cs0  1  0.500000  0.499522  0.250000  1
  Cs  Cs1  1  0.500000  0.500478  0.750000  1
  Sc  Sc2  1  0.000000  0.146272  0.668599  1
  Sc  Sc3  1  0.276205  0.000000  0.500000  1
  Sc  Sc4  1  0.723795  0.000000  0.000000  1
  Sc  Sc5  1  0.000000  0.853728  0.331401  1
  Sc  Sc6  1  0.000000  0.853728  0.168599  1
  Sc  Sc7  1  0.723795  0.000000  0.500000  1
  Sc  Sc8  1  0.000000  0.146272  0.831401  1
  Sc  Sc9  1  0.276205  0.000000  0.000000  1
  Br  Br10  1  0.500000  0.821072  0.921484  1
  Br  Br11  1  0.000000  0.852226  0.578180  1
  Br  Br12  1  0.755339  0.292310  0.914547  1
  Br  Br13  1  0.244661  0.292310  0.914547  1
  Br  Br14  1  0.000000  0.550751  0.250000  1
  Br  Br15  1  0.759488  0.006880  0.250000  1
  Br  Br16  1  0.244661  0.707690  0.085453  1
  Br  Br17  1  0.755339  0.707690  0.414547  1
  Br  Br18  1  0.000000  0.147774  0.421820  1
  Br  Br19  1  0.244661  0.292310  0.585453  1
  Br  Br20  1  0.755339  0.292310  0.585453  1
  Br  Br21  1  0.000000  0.449249  0.750000  1
  Br  Br22  1  0.759488  0.993120  0.750000  1
  Br  Br23  1  0.500000  0.821072  0.578516  1
  Br  Br24  1  0.240512  0.993120  0.750000  1
  Br  Br25  1  0.000000  0.147774  0.078180  1
  Br  Br26  1  0.755339  0.707690  0.085453  1
  Br  Br27  1  0.244661  0.707690  0.414547  1
  Br  Br28  1  0.000000  0.852226  0.921820  1
  Br  Br29  1  0.240512  0.006880  0.250000  1
  Br  Br30  1  0.500000  0.178928  0.078516  1
  Br  Br31  1  0.500000  0.178928  0.421484  1
