# generated using pymatgen
data_YTmSi2NiRu
_symmetry_space_group_name_H-M   'P 1'
_cell_length_a   4.20731500
_cell_length_b   6.85797436
_cell_length_c   7.15803668
_cell_angle_alpha   91.47728191
_cell_angle_beta   90.00000000
_cell_angle_gamma   90.00000000
_symmetry_Int_Tables_number   1
_chemical_formula_structural   YTmSi2NiRu
_chemical_formula_sum   'Y2 Tm2 Si4 Ni2 Ru2'
_cell_volume   206.46689791
_cell_formula_units_Z   2
loop_
 _symmetry_equiv_pos_site_id
 _symmetry_equiv_pos_as_xyz
  1  'x, y, z'
loop_
 _atom_site_type_symbol
 _atom_site_label
 _atom_site_symmetry_multiplicity
 _atom_site_fract_x
 _atom_site_fract_y
 _atom_site_fract_z
 _atom_site_occupancy
  Y  Y0  1  0.250000  0.992309  0.799175  1
  Y  Y1  1  0.750000  0.007691  0.200825  1
  Tm  Tm2  1  0.250000  0.490052  0.684512  1
  Tm  Tm3  1  0.750000  0.509948  0.315488  1
  Si  Si4  1  0.250000  0.300434  0.100109  1
  Si  Si5  1  0.750000  0.699566  0.899891  1
  Si  Si6  1  0.250000  0.801228  0.399903  1
  Si  Si7  1  0.750000  0.198772  0.600097  1
  Ni  Ni8  1  0.750000  0.831486  0.574208  1
  Ni  Ni9  1  0.250000  0.168514  0.425792  1
  Ru  Ru10  1  0.750000  0.344703  0.930102  1
  Ru  Ru11  1  0.250000  0.655297  0.069898  1
