# generated using pymatgen
data_Se(S8Br)3
_symmetry_space_group_name_H-M   'P 1'
_cell_length_a   15.38129562
_cell_length_b   15.38129457
_cell_length_c   15.38129513
_cell_angle_alpha   118.69208168
_cell_angle_beta   118.69207779
_cell_angle_gamma   118.69207518
_symmetry_Int_Tables_number   1
_chemical_formula_structural   Se(S8Br)3
_chemical_formula_sum   'Se1 S24 Br3'
_cell_volume   1074.45383484
_cell_formula_units_Z   1
loop_
 _symmetry_equiv_pos_site_id
 _symmetry_equiv_pos_as_xyz
  1  'x, y, z'
loop_
 _atom_site_type_symbol
 _atom_site_label
 _atom_site_symmetry_multiplicity
 _atom_site_fract_x
 _atom_site_fract_y
 _atom_site_fract_z
 _atom_site_occupancy
  Se  Se0  1  0.134842  0.134842  0.134842  1
  S  S1  1  0.024329  0.618898  0.618898  1
  S  S2  1  0.618898  0.618898  0.024329  1
  S  S3  1  0.618898  0.024329  0.618898  1
  S  S4  1  0.231815  0.840655  0.713445  1
  S  S5  1  0.840655  0.713445  0.231815  1
  S  S6  1  0.713445  0.231815  0.840655  1
  S  S7  1  0.840655  0.231815  0.713445  1
  S  S8  1  0.231815  0.713445  0.840655  1
  S  S9  1  0.713445  0.840655  0.231815  1
  S  S10  1  0.105064  0.633041  0.453799  1
  S  S11  1  0.633041  0.453799  0.105064  1
  S  S12  1  0.453799  0.105064  0.633041  1
  S  S13  1  0.633041  0.105064  0.453799  1
  S  S14  1  0.105064  0.453799  0.633041  1
  S  S15  1  0.453799  0.633041  0.105064  1
  S  S16  1  0.350703  0.739723  0.612511  1
  S  S17  1  0.739723  0.612511  0.350703  1
  S  S18  1  0.612511  0.350703  0.739723  1
  S  S19  1  0.739723  0.350703  0.612511  1
  S  S20  1  0.350703  0.612511  0.739723  1
  S  S21  1  0.612511  0.739723  0.350703  1
  S  S22  1  0.192569  0.474797  0.474797  1
  S  S23  1  0.474797  0.474797  0.192569  1
  S  S24  1  0.474797  0.192569  0.474797  1
  Br  Br25  1  0.153528  0.996466  0.996466  1
  Br  Br26  1  0.996466  0.996466  0.153528  1
  Br  Br27  1  0.996466  0.153528  0.996466  1
