# generated using pymatgen
data_Er7Tm3(Bi2Sb)2
_symmetry_space_group_name_H-M   'P 1'
_cell_length_a   8.14630000
_cell_length_b   9.39868102
_cell_length_c   11.93259800
_cell_angle_alpha   89.99635450
_cell_angle_beta   90.00000000
_cell_angle_gamma   90.00000000
_symmetry_Int_Tables_number   1
_chemical_formula_structural   Er7Tm3(Bi2Sb)2
_chemical_formula_sum   'Er14 Tm6 Bi8 Sb4'
_cell_volume   913.61310162
_cell_formula_units_Z   2
loop_
 _symmetry_equiv_pos_site_id
 _symmetry_equiv_pos_as_xyz
  1  'x, y, z'
loop_
 _atom_site_type_symbol
 _atom_site_label
 _atom_site_symmetry_multiplicity
 _atom_site_fract_x
 _atom_site_fract_y
 _atom_site_fract_z
 _atom_site_occupancy
  Er  Er0  1  0.353425  0.749971  0.214187  1
  Er  Er1  1  0.853425  0.750029  0.285813  1
  Er  Er2  1  0.646792  0.249925  0.785838  1
  Er  Er3  1  0.146792  0.250075  0.714162  1
  Er  Er4  1  0.688805  0.936739  0.058017  1
  Er  Er5  1  0.188805  0.563261  0.441983  1
  Er  Er6  1  0.473263  0.249834  0.488361  1
  Er  Er7  1  0.973263  0.250166  0.011639  1
  Er  Er8  1  0.527014  0.750143  0.511753  1
  Er  Er9  1  0.027014  0.749857  0.988247  1
  Er  Er10  1  0.316503  0.250002  0.217009  1
  Er  Er11  1  0.816503  0.249998  0.282991  1
  Er  Er12  1  0.683655  0.749884  0.782871  1
  Er  Er13  1  0.183655  0.750116  0.717129  1
  Tm  Tm14  1  0.688738  0.564266  0.058124  1
  Tm  Tm15  1  0.188738  0.935734  0.441876  1
  Tm  Tm16  1  0.311398  0.064364  0.941959  1
  Tm  Tm17  1  0.811398  0.435636  0.558041  1
  Tm  Tm18  1  0.311079  0.435828  0.941887  1
  Tm  Tm19  1  0.811079  0.064172  0.558113  1
  Bi  Bi20  1  0.565986  0.996070  0.325528  1
  Bi  Bi21  1  0.065986  0.503930  0.174472  1
  Bi  Bi22  1  0.433811  0.495993  0.674601  1
  Bi  Bi23  1  0.933811  0.004007  0.825399  1
  Bi  Bi24  1  0.433813  0.004058  0.674488  1
  Bi  Bi25  1  0.933813  0.495942  0.825512  1
  Bi  Bi26  1  0.566232  0.503947  0.325482  1
  Bi  Bi27  1  0.066232  0.996053  0.174518  1
  Sb  Sb28  1  0.405602  0.749720  0.958129  1
  Sb  Sb29  1  0.905602  0.750280  0.541871  1
  Sb  Sb30  1  0.593884  0.251144  0.041476  1
  Sb  Sb31  1  0.093884  0.248856  0.458524  1
