# generated using pymatgen
data_Er5In4PdRh
_symmetry_space_group_name_H-M   'P 1'
_cell_length_a   3.60039900
_cell_length_b   8.09453860
_cell_length_c   18.15473911
_cell_angle_alpha   89.98905984
_cell_angle_beta   90.00000000
_cell_angle_gamma   90.00000000
_symmetry_Int_Tables_number   1
_chemical_formula_structural   Er5In4PdRh
_chemical_formula_sum   'Er10 In8 Pd2 Rh2'
_cell_volume   529.09387679
_cell_formula_units_Z   2
loop_
 _symmetry_equiv_pos_site_id
 _symmetry_equiv_pos_as_xyz
  1  'x, y, z'
loop_
 _atom_site_type_symbol
 _atom_site_label
 _atom_site_symmetry_multiplicity
 _atom_site_fract_x
 _atom_site_fract_y
 _atom_site_fract_z
 _atom_site_occupancy
  Er  Er0  1  0.000000  0.115664  0.412970  1
  Er  Er1  1  0.000000  0.884336  0.587030  1
  Er  Er2  1  0.000000  0.381727  0.914401  1
  Er  Er3  1  0.000000  0.618273  0.085599  1
  Er  Er4  1  0.000000  0.235120  0.221526  1
  Er  Er5  1  0.000000  0.764880  0.778474  1
  Er  Er6  1  0.000000  0.248134  0.719914  1
  Er  Er7  1  0.000000  0.751866  0.280086  1
  Er  Er8  1  0.000000  0.000000  0.000000  1
  Er  Er9  1  0.000000  0.500000  0.500000  1
  In  In10  1  0.500000  0.423786  0.350838  1
  In  In11  1  0.500000  0.576214  0.649162  1
  In  In12  1  0.500000  0.074315  0.850515  1
  In  In13  1  0.500000  0.925685  0.149485  1
  In  In14  1  0.500000  0.292605  0.066782  1
  In  In15  1  0.500000  0.707395  0.933218  1
  In  In16  1  0.500000  0.207108  0.567361  1
  In  In17  1  0.500000  0.792892  0.432639  1
  Pd  Pd18  1  0.500000  0.478558  0.803752  1
  Pd  Pd19  1  0.500000  0.521442  0.196248  1
  Rh  Rh20  1  0.500000  0.022186  0.304533  1
  Rh  Rh21  1  0.500000  0.977814  0.695467  1
