# generated using pymatgen
data_La2Pr2HgIr
_symmetry_space_group_name_H-M   'P 1'
_cell_length_a   10.04877243
_cell_length_b   10.04877242
_cell_length_c   10.10147000
_cell_angle_alpha   59.82637833
_cell_angle_beta   59.82637837
_cell_angle_gamma   60.34725734
_symmetry_Int_Tables_number   1
_chemical_formula_structural   La2Pr2HgIr
_chemical_formula_sum   'La8 Pr8 Hg4 Ir4'
_cell_volume   721.22643183
_cell_formula_units_Z   4
loop_
 _symmetry_equiv_pos_site_id
 _symmetry_equiv_pos_as_xyz
  1  'x, y, z'
loop_
 _atom_site_type_symbol
 _atom_site_label
 _atom_site_symmetry_multiplicity
 _atom_site_fract_x
 _atom_site_fract_y
 _atom_site_fract_z
 _atom_site_occupancy
  La  La0  1  0.347557  0.347557  0.349804  1
  La  La1  1  0.347557  0.347557  0.955082  1
  La  La2  1  0.349804  0.955082  0.347557  1
  La  La3  1  0.955082  0.349804  0.347557  1
  La  La4  1  0.809588  0.190412  0.190412  1
  La  La5  1  0.190412  0.809588  0.809588  1
  La  La6  1  0.190412  0.809588  0.190412  1
  La  La7  1  0.809588  0.190412  0.809588  1
  Pr  Pr8  1  0.193783  0.193783  0.806217  1
  Pr  Pr9  1  0.806217  0.806217  0.193783  1
  Pr  Pr10  1  0.936999  0.563001  0.563001  1
  Pr  Pr11  1  0.563001  0.936999  0.936999  1
  Pr  Pr12  1  0.563001  0.936999  0.563001  1
  Pr  Pr13  1  0.936999  0.563001  0.936999  1
  Pr  Pr14  1  0.561472  0.561472  0.938528  1
  Pr  Pr15  1  0.938528  0.938528  0.561472  1
  Hg  Hg16  1  0.584425  0.584425  0.582690  1
  Hg  Hg17  1  0.584425  0.584425  0.248459  1
  Hg  Hg18  1  0.582690  0.248459  0.584425  1
  Hg  Hg19  1  0.248459  0.582690  0.584425  1
  Ir  Ir20  1  0.138607  0.138607  0.146203  1
  Ir  Ir21  1  0.138607  0.138607  0.576584  1
  Ir  Ir22  1  0.146203  0.576584  0.138607  1
  Ir  Ir23  1  0.576584  0.146203  0.138607  1
