# generated using pymatgen
data_ErLu11InCo4Ni
_symmetry_space_group_name_H-M   'P 1'
_cell_length_a   8.10178656
_cell_length_b   8.09016775
_cell_length_c   8.09016776
_cell_angle_alpha   110.72952428
_cell_angle_beta   111.11616496
_cell_angle_gamma   106.55028412
_symmetry_Int_Tables_number   1
_chemical_formula_structural   ErLu11InCo4Ni
_chemical_formula_sum   'Er1 Lu11 In1 Co4 Ni1'
_cell_volume   407.69894379
_cell_formula_units_Z   1
loop_
 _symmetry_equiv_pos_site_id
 _symmetry_equiv_pos_as_xyz
  1  'x, y, z'
loop_
 _atom_site_type_symbol
 _atom_site_label
 _atom_site_symmetry_multiplicity
 _atom_site_fract_x
 _atom_site_fract_y
 _atom_site_fract_z
 _atom_site_occupancy
  Er  Er0  1  0.408897  0.213883  0.195013  1
  Lu  Lu1  1  0.586743  0.783619  0.803124  1
  Lu  Lu2  1  0.019021  0.215706  0.803315  1
  Lu  Lu3  1  0.981454  0.785552  0.195902  1
  Lu  Lu4  1  0.186573  0.290633  0.477848  1
  Lu  Lu5  1  0.814220  0.711693  0.525107  1
  Lu  Lu6  1  0.186573  0.708724  0.895941  1
  Lu  Lu7  1  0.814220  0.289114  0.102526  1
  Lu  Lu8  1  0.314680  0.619847  0.303935  1
  Lu  Lu9  1  0.686126  0.381701  0.696704  1
  Lu  Lu10  1  0.314680  0.010744  0.694835  1
  Lu  Lu11  1  0.686126  0.989421  0.304422  1
  In  In12  1  0.501125  0.500637  0.000488  1
  Co  Co13  1  0.377541  0.999869  0.377671  1
  Co  Co14  1  0.626724  0.000536  0.626187  1
  Co  Co15  1  0.113884  0.614138  0.499745  1
  Co  Co16  1  0.888519  0.387033  0.501486  1
  Ni  Ni17  1  0.992895  0.997147  0.995748  1
