# generated using pymatgen
data_Tm4CdPd4Au
_symmetry_space_group_name_H-M   'P 1'
_cell_length_a   7.71054000
_cell_length_b   7.71054000
_cell_length_c   3.54917900
_cell_angle_alpha   90.00000000
_cell_angle_beta   90.00000000
_cell_angle_gamma   90.00000000
_symmetry_Int_Tables_number   1
_chemical_formula_structural   Tm4CdPd4Au
_chemical_formula_sum   'Tm4 Cd1 Pd4 Au1'
_cell_volume   211.00730573
_cell_formula_units_Z   1
loop_
 _symmetry_equiv_pos_site_id
 _symmetry_equiv_pos_as_xyz
  1  'x, y, z'
loop_
 _atom_site_type_symbol
 _atom_site_label
 _atom_site_symmetry_multiplicity
 _atom_site_fract_x
 _atom_site_fract_y
 _atom_site_fract_z
 _atom_site_occupancy
  Tm  Tm0  1  0.693828  0.146241  0.500000  1
  Tm  Tm1  1  0.306172  0.853759  0.500000  1
  Tm  Tm2  1  0.146241  0.306172  0.500000  1
  Tm  Tm3  1  0.853759  0.693828  0.500000  1
  Cd  Cd4  1  0.500000  0.500000  0.000000  1
  Pd  Pd5  1  0.144285  0.614169  0.000000  1
  Pd  Pd6  1  0.855715  0.385831  0.000000  1
  Pd  Pd7  1  0.614169  0.855715  0.000000  1
  Pd  Pd8  1  0.385831  0.144285  0.000000  1
  Au  Au9  1  0.000000  0.000000  0.000000  1
