# generated using pymatgen
data_Li3Dy3Sn2Pb
_symmetry_space_group_name_H-M   'P 1'
_cell_length_a   7.33278600
_cell_length_b   7.33278517
_cell_length_c   4.63267700
_cell_angle_alpha   90.00000000
_cell_angle_beta   90.00000000
_cell_angle_gamma   120.00000374
_symmetry_Int_Tables_number   1
_chemical_formula_structural   Li3Dy3Sn2Pb
_chemical_formula_sum   'Li3 Dy3 Sn2 Pb1'
_cell_volume   215.72506528
_cell_formula_units_Z   1
loop_
 _symmetry_equiv_pos_site_id
 _symmetry_equiv_pos_as_xyz
  1  'x, y, z'
loop_
 _atom_site_type_symbol
 _atom_site_label
 _atom_site_symmetry_multiplicity
 _atom_site_fract_x
 _atom_site_fract_y
 _atom_site_fract_z
 _atom_site_occupancy
  Li  Li0  1  0.768027  0.000000  0.500001  1
  Li  Li1  1  0.231971  0.231972  0.500001  1
  Li  Li2  1  0.000000  0.768028  0.500001  1
  Dy  Dy3  1  0.441020  0.000000  0.000000  1
  Dy  Dy4  1  0.000000  0.441020  0.000000  1
  Dy  Dy5  1  0.558979  0.558980  0.000000  1
  Sn  Sn6  1  0.666668  0.333334  0.500001  1
  Sn  Sn7  1  0.333333  0.666666  0.500001  1
  Pb  Pb8  1  0.000000  0.000000  0.000000  1
