# generated using pymatgen
data_Y10In3SiBi4
_symmetry_space_group_name_H-M   'P 1'
_cell_length_a   8.85025831
_cell_length_b   8.85025921
_cell_length_c   8.17954626
_cell_angle_alpha   89.98684741
_cell_angle_beta   89.98684344
_cell_angle_gamma   124.92970002
_symmetry_Int_Tables_number   1
_chemical_formula_structural   Y10In3SiBi4
_chemical_formula_sum   'Y10 In3 Si1 Bi4'
_cell_volume   525.26473554
_cell_formula_units_Z   1
loop_
 _symmetry_equiv_pos_site_id
 _symmetry_equiv_pos_as_xyz
  1  'x, y, z'
loop_
 _atom_site_type_symbol
 _atom_site_label
 _atom_site_symmetry_multiplicity
 _atom_site_fract_x
 _atom_site_fract_y
 _atom_site_fract_z
 _atom_site_occupancy
  Y  Y0  1  0.030775  0.287852  0.333929  1
  Y  Y1  1  0.962909  0.706422  0.658476  1
  Y  Y2  1  0.464936  0.197309  0.833866  1
  Y  Y3  1  0.804611  0.547129  0.174032  1
  Y  Y4  1  0.547129  0.804611  0.174032  1
  Y  Y5  1  0.197309  0.464936  0.833866  1
  Y  Y6  1  0.706422  0.962909  0.658476  1
  Y  Y7  1  0.287852  0.030775  0.333929  1
  Y  Y8  1  0.996751  0.996751  0.005227  1
  Y  Y9  1  0.505124  0.505124  0.496814  1
  In  In10  1  0.369571  0.369571  0.129607  1
  In  In11  1  0.629910  0.629910  0.869522  1
  In  In12  1  0.133666  0.133666  0.632522  1
  Si  Si13  1  0.864651  0.864651  0.365665  1
  Bi  Bi14  1  0.793852  0.205840  0.000825  1
  Bi  Bi15  1  0.205840  0.793852  0.000825  1
  Bi  Bi16  1  0.705133  0.293558  0.499193  1
  Bi  Bi17  1  0.293558  0.705133  0.499193  1
