# generated using pymatgen
data_Tl3RuRh3PbO13
_symmetry_space_group_name_H-M   'P 1'
_cell_length_a   7.29806082
_cell_length_b   7.28024136
_cell_length_c   7.24429600
_cell_angle_alpha   60.16319346
_cell_angle_beta   60.24340065
_cell_angle_gamma   60.39757583
_symmetry_Int_Tables_number   1
_chemical_formula_structural   Tl3RuRh3PbO13
_chemical_formula_sum   'Tl3 Ru1 Rh3 Pb1 O13'
_cell_volume   273.81528705
_cell_formula_units_Z   1
loop_
 _symmetry_equiv_pos_site_id
 _symmetry_equiv_pos_as_xyz
  1  'x, y, z'
loop_
 _atom_site_type_symbol
 _atom_site_label
 _atom_site_symmetry_multiplicity
 _atom_site_fract_x
 _atom_site_fract_y
 _atom_site_fract_z
 _atom_site_occupancy
  Tl  Tl0  1  0.873822  0.375488  0.375345  1
  Tl  Tl1  1  0.372848  0.373266  0.372133  1
  Tl  Tl2  1  0.372848  0.373266  0.881754  1
  Ru  Ru3  1  0.373166  0.875942  0.875446  1
  Rh  Rh4  1  0.877128  0.370980  0.875945  1
  Rh  Rh5  1  0.876567  0.875859  0.371697  1
  Rh  Rh6  1  0.876567  0.875859  0.875876  1
  Pb  Pb7  1  0.374833  0.876687  0.374241  1
  O  O8  1  0.201534  0.803578  0.798821  1
  O  O9  1  0.201534  0.803578  0.196066  1
  O  O10  1  0.549532  0.946792  0.950981  1
  O  O11  1  0.549532  0.946792  0.552694  1
  O  O12  1  0.958054  0.954529  0.543708  1
  O  O13  1  0.794030  0.797068  0.204451  1
  O  O14  1  0.548582  0.552542  0.949437  1
  O  O15  1  0.792528  0.203771  0.798497  1
  O  O16  1  0.792528  0.203771  0.205204  1
  O  O17  1  0.959524  0.542867  0.954897  1
  O  O18  1  0.959524  0.542867  0.542712  1
  O  O19  1  0.201919  0.194635  0.801723  1
  O  O20  1  0.493396  0.509865  0.498370  1
