# generated using pymatgen
data_Ho2TeC2
_symmetry_space_group_name_H-M   'P 1'
_cell_length_a   7.37449085
_cell_length_b   7.37449148
_cell_length_c   6.91689381
_cell_angle_alpha   100.96569596
_cell_angle_beta   100.96570685
_cell_angle_gamma   32.76438431
_symmetry_Int_Tables_number   1
_chemical_formula_structural   Ho2TeC2
_chemical_formula_sum   'Ho4 Te2 C4'
_cell_volume   199.53211203
_cell_formula_units_Z   2
loop_
 _symmetry_equiv_pos_site_id
 _symmetry_equiv_pos_as_xyz
  1  'x, y, z'
loop_
 _atom_site_type_symbol
 _atom_site_label
 _atom_site_symmetry_multiplicity
 _atom_site_fract_x
 _atom_site_fract_y
 _atom_site_fract_z
 _atom_site_occupancy
  Ho  Ho0  1  0.467973  0.839031  0.141489  1
  Ho  Ho1  1  0.160968  0.532026  0.358510  1
  Ho  Ho2  1  0.839031  0.467974  0.641489  1
  Ho  Ho3  1  0.532026  0.160968  0.858510  1
  Te  Te4  1  0.788678  0.211322  0.250000  1
  Te  Te5  1  0.211322  0.788679  0.750000  1
  C  C6  1  0.104382  0.354746  0.035064  1
  C  C7  1  0.645254  0.895617  0.464936  1
  C  C8  1  0.354746  0.104383  0.535064  1
  C  C9  1  0.895617  0.645254  0.964937  1
