# generated using pymatgen
data_Ho16MgCd3Ir3Ru
_symmetry_space_group_name_H-M   'P 1'
_cell_length_a   9.65074294
_cell_length_b   9.65074239
_cell_length_c   9.65074215
_cell_angle_alpha   59.60928179
_cell_angle_beta   59.60928420
_cell_angle_gamma   59.60927758
_symmetry_Int_Tables_number   1
_chemical_formula_structural   Ho16MgCd3Ir3Ru
_chemical_formula_sum   'Ho16 Mg1 Cd3 Ir3 Ru1'
_cell_volume   629.93159250
_cell_formula_units_Z   1
loop_
 _symmetry_equiv_pos_site_id
 _symmetry_equiv_pos_as_xyz
  1  'x, y, z'
loop_
 _atom_site_type_symbol
 _atom_site_label
 _atom_site_symmetry_multiplicity
 _atom_site_fract_x
 _atom_site_fract_y
 _atom_site_fract_z
 _atom_site_occupancy
  Ho  Ho0  1  0.599094  0.599094  0.599094  1
  Ho  Ho1  1  0.597417  0.597417  0.208294  1
  Ho  Ho2  1  0.597417  0.208294  0.597417  1
  Ho  Ho3  1  0.208294  0.597417  0.597417  1
  Ho  Ho4  1  0.061436  0.439083  0.439083  1
  Ho  Ho5  1  0.437347  0.061238  0.061238  1
  Ho  Ho6  1  0.439083  0.061436  0.439083  1
  Ho  Ho7  1  0.061238  0.437347  0.061238  1
  Ho  Ho8  1  0.439083  0.439083  0.061436  1
  Ho  Ho9  1  0.061238  0.061238  0.437347  1
  Ho  Ho10  1  0.189377  0.812305  0.812305  1
  Ho  Ho11  1  0.810651  0.188127  0.188127  1
  Ho  Ho12  1  0.812305  0.189377  0.812305  1
  Ho  Ho13  1  0.188127  0.810651  0.188127  1
  Ho  Ho14  1  0.812305  0.812305  0.189377  1
  Ho  Ho15  1  0.188127  0.188127  0.810651  1
  Mg  Mg16  1  0.825168  0.825168  0.825168  1
  Cd  Cd17  1  0.831296  0.831296  0.505266  1
  Cd  Cd18  1  0.831296  0.505266  0.831296  1
  Cd  Cd19  1  0.505266  0.831296  0.831296  1
  Ir  Ir20  1  0.393437  0.393437  0.826444  1
  Ir  Ir21  1  0.393437  0.826444  0.393437  1
  Ir  Ir22  1  0.826444  0.393437  0.393437  1
  Ru  Ru23  1  0.391121  0.391121  0.391121  1
