# generated using pymatgen
data_K8Tb3DyF20
_symmetry_space_group_name_H-M   'P 1'
_cell_length_a   6.71853713
_cell_length_b   7.32253900
_cell_length_c   11.07338021
_cell_angle_alpha   90.00000000
_cell_angle_beta   90.02229650
_cell_angle_gamma   90.00000000
_symmetry_Int_Tables_number   1
_chemical_formula_structural   K8Tb3DyF20
_chemical_formula_sum   'K8 Tb3 Dy1 F20'
_cell_volume   544.77427809
_cell_formula_units_Z   1
loop_
 _symmetry_equiv_pos_site_id
 _symmetry_equiv_pos_as_xyz
  1  'x, y, z'
loop_
 _atom_site_type_symbol
 _atom_site_label
 _atom_site_symmetry_multiplicity
 _atom_site_fract_x
 _atom_site_fract_y
 _atom_site_fract_z
 _atom_site_occupancy
  K  K0  1  0.527930  0.497745  0.827809  1
  K  K1  1  0.472100  0.502275  0.172194  1
  K  K2  1  0.027907  0.502271  0.672209  1
  K  K3  1  0.472100  0.997725  0.172194  1
  K  K4  1  0.972088  0.497740  0.327794  1
  K  K5  1  0.527930  0.002255  0.827809  1
  K  K6  1  0.972088  0.002260  0.327794  1
  K  K7  1  0.027907  0.997729  0.672209  1
  Tb  Tb8  1  0.564780  0.750000  0.501356  1
  Tb  Tb9  1  0.435219  0.250000  0.498639  1
  Tb  Tb10  1  0.064779  0.250000  0.998636  1
  Dy  Dy11  1  0.935268  0.750000  0.001244  1
  F  F12  1  0.835704  0.750000  0.809577  1
  F  F13  1  0.164690  0.250000  0.191244  1
  F  F14  1  0.335302  0.250000  0.691232  1
  F  F15  1  0.664685  0.750000  0.308780  1
  F  F16  1  0.366819  0.750000  0.662356  1
  F  F17  1  0.633186  0.250000  0.337639  1
  F  F18  1  0.866824  0.250000  0.837626  1
  F  F19  1  0.132246  0.750000  0.161624  1
  F  F20  1  0.894001  0.750000  0.513301  1
  F  F21  1  0.106002  0.250000  0.486704  1
  F  F22  1  0.393986  0.250000  0.986695  1
  F  F23  1  0.607390  0.750000  0.013263  1
  F  F24  1  0.643862  0.033756  0.578549  1
  F  F25  1  0.356137  0.966242  0.421449  1
  F  F26  1  0.143202  0.965479  0.921707  1
  F  F27  1  0.356137  0.533758  0.421449  1
  F  F28  1  0.856332  0.032883  0.078331  1
  F  F29  1  0.643862  0.466244  0.578549  1
  F  F30  1  0.856332  0.467117  0.078331  1
  F  F31  1  0.143202  0.534521  0.921707  1
