# generated using pymatgen
data_CrBi4Pd3F28
_symmetry_space_group_name_H-M   'P 1'
_cell_length_a   5.61609397
_cell_length_b   9.16675728
_cell_length_c   12.16246900
_cell_angle_alpha   61.84728865
_cell_angle_beta   90.11322264
_cell_angle_gamma   89.94898352
_symmetry_Int_Tables_number   1
_chemical_formula_structural   CrBi4Pd3F28
_chemical_formula_sum   'Cr1 Bi4 Pd3 F28'
_cell_volume   552.06160517
_cell_formula_units_Z   1
loop_
 _symmetry_equiv_pos_site_id
 _symmetry_equiv_pos_as_xyz
  1  'x, y, z'
loop_
 _atom_site_type_symbol
 _atom_site_label
 _atom_site_symmetry_multiplicity
 _atom_site_fract_x
 _atom_site_fract_y
 _atom_site_fract_z
 _atom_site_occupancy
  Cr  Cr0  1  0.758880  0.271279  0.958781  1
  Bi  Bi1  1  0.764275  0.819141  0.760113  1
  Bi  Bi2  1  0.263735  0.189400  0.739812  1
  Bi  Bi3  1  0.231861  0.187189  0.236903  1
  Bi  Bi4  1  0.736817  0.815148  0.261566  1
  Pd  Pd5  1  0.258048  0.729377  0.540818  1
  Pd  Pd6  1  0.242539  0.729299  0.040095  1
  Pd  Pd7  1  0.739754  0.272589  0.458230  1
  F  F8  1  0.429482  0.707422  0.912968  1
  F  F9  1  0.924025  0.293780  0.586573  1
  F  F10  1  0.569609  0.285152  0.076747  1
  F  F11  1  0.070861  0.708130  0.413132  1
  F  F12  1  0.442286  0.277326  0.541074  1
  F  F13  1  0.943378  0.720669  0.958676  1
  F  F14  1  0.556466  0.724378  0.457879  1
  F  F15  1  0.042077  0.273530  0.045433  1
  F  F16  1  0.774991  0.495325  0.867091  1
  F  F17  1  0.269629  0.488417  0.638313  1
  F  F18  1  0.234738  0.488506  0.136946  1
  F  F19  1  0.726296  0.513034  0.360925  1
  F  F20  1  0.757727  0.040021  0.050770  1
  F  F21  1  0.256248  0.972631  0.448349  1
  F  F22  1  0.241850  0.972966  0.948443  1
  F  F23  1  0.743147  0.028511  0.551483  1
  F  F24  1  0.967528  0.727409  0.630125  1
  F  F25  1  0.485464  0.266881  0.868701  1
  F  F26  1  0.031332  0.273588  0.369637  1
  F  F27  1  0.535193  0.731897  0.126654  1
  F  F28  1  0.060561  0.745848  0.171804  1
  F  F29  1  0.560344  0.256296  0.325482  1
  F  F30  1  0.945704  0.249427  0.839169  1
  F  F31  1  0.440635  0.743983  0.673119  1
  F  F32  1  0.402525  0.971244  0.227321  1
  F  F33  1  0.900314  0.028869  0.274694  1
  F  F34  1  0.597152  0.030340  0.771948  1
  F  F35  1  0.094529  0.970997  0.730226  1
