# generated using pymatgen
data_La2Dy3YRh18
_symmetry_space_group_name_H-M   'P 1'
_cell_length_a   5.31205100
_cell_length_b   5.31205317
_cell_length_c   17.57763800
_cell_angle_alpha   90.00017170
_cell_angle_beta   89.99955184
_cell_angle_gamma   119.99893195
_symmetry_Int_Tables_number   1
_chemical_formula_structural   La2Dy3YRh18
_chemical_formula_sum   'La2 Dy3 Y1 Rh18'
_cell_volume   429.55667414
_cell_formula_units_Z   1
loop_
 _symmetry_equiv_pos_site_id
 _symmetry_equiv_pos_as_xyz
  1  'x, y, z'
loop_
 _atom_site_type_symbol
 _atom_site_label
 _atom_site_symmetry_multiplicity
 _atom_site_fract_x
 _atom_site_fract_y
 _atom_site_fract_z
 _atom_site_occupancy
  La  La0  1  0.333333  0.666666  0.750053  1
  La  La1  1  0.666654  0.333340  0.249978  1
  Dy  Dy2  1  0.333341  0.666664  0.958475  1
  Dy  Dy3  1  0.666665  0.333340  0.041523  1
  Dy  Dy4  1  0.666662  0.333332  0.458410  1
  Y  Y5  1  0.333337  0.666660  0.541452  1
  Rh  Rh6  1  0.167218  0.832784  0.375301  1
  Rh  Rh7  1  0.167218  0.334452  0.375286  1
  Rh  Rh8  1  0.665546  0.832782  0.375292  1
  Rh  Rh9  1  0.832760  0.167229  0.624779  1
  Rh  Rh10  1  0.832766  0.665507  0.624788  1
  Rh  Rh11  1  0.334497  0.167245  0.624783  1
  Rh  Rh12  1  0.832741  0.167264  0.875357  1
  Rh  Rh13  1  0.832729  0.665450  0.875346  1
  Rh  Rh14  1  0.334540  0.167266  0.875348  1
  Rh  Rh15  1  0.167268  0.832739  0.124639  1
  Rh  Rh16  1  0.167267  0.334553  0.124652  1
  Rh  Rh17  1  0.665447  0.832726  0.124647  1
  Rh  Rh18  1  0.333321  0.666733  0.249975  1
  Rh  Rh19  1  0.666692  0.333266  0.749975  1
  Rh  Rh20  1  0.000005  0.999932  0.249951  1
  Rh  Rh21  1  0.999995  0.000069  0.749968  1
  Rh  Rh22  1  0.000002  0.000008  0.500010  1
  Rh  Rh23  1  0.999997  0.999993  0.000011  1
