# generated using pymatgen
data_TbYb3Ni2(OsO6)2
_symmetry_space_group_name_H-M   'P 1'
_cell_length_a   5.31860402
_cell_length_b   5.61959514
_cell_length_c   7.66009587
_cell_angle_alpha   89.99134035
_cell_angle_beta   90.57814606
_cell_angle_gamma   90.02843198
_symmetry_Int_Tables_number   1
_chemical_formula_structural   TbYb3Ni2(OsO6)2
_chemical_formula_sum   'Tb1 Yb3 Ni2 Os2 O12'
_cell_volume   228.93633307
_cell_formula_units_Z   1
loop_
 _symmetry_equiv_pos_site_id
 _symmetry_equiv_pos_as_xyz
  1  'x, y, z'
loop_
 _atom_site_type_symbol
 _atom_site_label
 _atom_site_symmetry_multiplicity
 _atom_site_fract_x
 _atom_site_fract_y
 _atom_site_fract_z
 _atom_site_occupancy
  Tb  Tb0  1  0.979662  0.071913  0.252427  1
  Yb  Yb1  1  0.519456  0.569076  0.247778  1
  Yb  Yb2  1  0.019809  0.931214  0.748354  1
  Yb  Yb3  1  0.479585  0.430155  0.753031  1
  Ni  Ni4  1  0.498192  0.998851  0.997203  1
  Ni  Ni5  1  0.000181  0.504482  0.502505  1
  Os  Os6  1  0.498168  0.998629  0.503259  1
  Os  Os7  1  0.001203  0.501787  0.997181  1
  O  O8  1  0.688412  0.287905  0.440270  1
  O  O9  1  0.818390  0.796302  0.056406  1
  O  O10  1  0.319708  0.705689  0.556520  1
  O  O11  1  0.182381  0.206767  0.947286  1
  O  O12  1  0.198032  0.188560  0.549224  1
  O  O13  1  0.298638  0.690333  0.949275  1
  O  O14  1  0.801609  0.811671  0.445355  1
  O  O15  1  0.705228  0.306002  0.053593  1
  O  O16  1  0.103375  0.465582  0.245105  1
  O  O17  1  0.387837  0.965318  0.254893  1
  O  O18  1  0.605746  0.035514  0.744079  1
  O  O19  1  0.894380  0.534253  0.756255  1
