# generated using pymatgen
data_YbLu2Mg(B4Ru5)2
_symmetry_space_group_name_H-M   'P 1'
_cell_length_a   3.01851800
_cell_length_b   8.60158520
_cell_length_c   10.15793865
_cell_angle_alpha   90.48177398
_cell_angle_beta   90.00000000
_cell_angle_gamma   90.00000000
_symmetry_Int_Tables_number   1
_chemical_formula_structural   YbLu2Mg(B4Ru5)2
_chemical_formula_sum   'Yb1 Lu2 Mg1 B8 Ru10'
_cell_volume   263.73179929
_cell_formula_units_Z   1
loop_
 _symmetry_equiv_pos_site_id
 _symmetry_equiv_pos_as_xyz
  1  'x, y, z'
loop_
 _atom_site_type_symbol
 _atom_site_label
 _atom_site_symmetry_multiplicity
 _atom_site_fract_x
 _atom_site_fract_y
 _atom_site_fract_z
 _atom_site_occupancy
  Yb  Yb0  1  0.500000  0.659073  0.820771  1
  Lu  Lu1  1  0.500000  0.344866  0.185550  1
  Lu  Lu2  1  0.500000  0.155911  0.677629  1
  Mg  Mg3  1  0.500000  0.846754  0.312752  1
  B  B4  1  0.500000  0.850441  0.599498  1
  B  B5  1  0.500000  0.140775  0.397870  1
  B  B6  1  0.500000  0.353994  0.900861  1
  B  B7  1  0.500000  0.650922  0.104816  1
  B  B8  1  0.500000  0.964541  0.910076  1
  B  B9  1  0.500000  0.035187  0.087949  1
  B  B10  1  0.500000  0.465970  0.590197  1
  B  B11  1  0.500000  0.538105  0.412053  1
  Ru  Ru12  1  0.000000  0.404057  0.740551  1
  Ru  Ru13  1  0.000000  0.606818  0.264632  1
  Ru  Ru14  1  0.000000  0.906038  0.759350  1
  Ru  Ru15  1  0.000000  0.091316  0.238308  1
  Ru  Ru16  1  0.000000  0.989786  0.493858  1
  Ru  Ru17  1  0.000000  0.499670  0.003523  1
  Ru  Ru18  1  0.000000  0.653714  0.547496  1
  Ru  Ru19  1  0.000000  0.339099  0.452833  1
  Ru  Ru20  1  0.000000  0.158715  0.954174  1
  Ru  Ru21  1  0.000000  0.844252  0.045252  1
