# generated using pymatgen
data_Zr2Fe11NiP7
_symmetry_space_group_name_H-M   'P 1'
_cell_length_a   8.86885781
_cell_length_b   8.90191678
_cell_length_c   3.58076000
_cell_angle_alpha   90.00000000
_cell_angle_beta   90.00000000
_cell_angle_gamma   119.67137735
_symmetry_Int_Tables_number   1
_chemical_formula_structural   Zr2Fe11NiP7
_chemical_formula_sum   'Zr2 Fe11 Ni1 P7'
_cell_volume   245.63242442
_cell_formula_units_Z   1
loop_
 _symmetry_equiv_pos_site_id
 _symmetry_equiv_pos_as_xyz
  1  'x, y, z'
loop_
 _atom_site_type_symbol
 _atom_site_label
 _atom_site_symmetry_multiplicity
 _atom_site_fract_x
 _atom_site_fract_y
 _atom_site_fract_z
 _atom_site_occupancy
  Zr  Zr0  1  0.999093  0.998027  0.000000  1
  Zr  Zr1  1  0.337539  0.671809  0.500000  1
  Fe  Fe2  1  0.297681  0.902573  0.000000  1
  Fe  Fe3  1  0.603383  0.702310  0.000000  1
  Fe  Fe4  1  0.820903  0.607190  0.000000  1
  Fe  Fe5  1  0.785975  0.176784  0.000000  1
  Fe  Fe6  1  0.389831  0.212147  0.000000  1
  Fe  Fe7  1  0.052129  0.770338  0.500000  1
  Fe  Fe8  1  0.717343  0.945478  0.500000  1
  Fe  Fe9  1  0.227777  0.282437  0.500000  1
  Fe  Fe10  1  0.893932  0.433668  0.500000  1
  Fe  Fe11  1  0.541992  0.109404  0.500000  1
  Fe  Fe12  1  0.566085  0.456395  0.500000  1
  Ni  Ni13  1  0.100810  0.399730  0.000000  1
  P  P14  1  0.079614  0.636654  0.000000  1
  P  P15  1  0.553412  0.922794  0.000000  1
  P  P16  1  0.373087  0.448007  0.000000  1
  P  P17  1  0.781397  0.736376  0.500000  1
  P  P18  1  0.950812  0.210379  0.500000  1
  P  P19  1  0.261465  0.045180  0.500000  1
  P  P20  1  0.665737  0.332317  0.000000  1
