# generated using pymatgen
data_Er6CrFe8(Co3P4)3
_symmetry_space_group_name_H-M   'P 1'
_cell_length_a   3.69210400
_cell_length_b   10.53236978
_cell_length_c   12.06549163
_cell_angle_alpha   89.90127454
_cell_angle_beta   90.00000000
_cell_angle_gamma   90.00000000
_symmetry_Int_Tables_number   1
_chemical_formula_structural   Er6CrFe8(Co3P4)3
_chemical_formula_sum   'Er6 Cr1 Fe8 Co9 P12'
_cell_volume   469.18530566
_cell_formula_units_Z   1
loop_
 _symmetry_equiv_pos_site_id
 _symmetry_equiv_pos_as_xyz
  1  'x, y, z'
loop_
 _atom_site_type_symbol
 _atom_site_label
 _atom_site_symmetry_multiplicity
 _atom_site_fract_x
 _atom_site_fract_y
 _atom_site_fract_z
 _atom_site_occupancy
  Er  Er0  1  0.750000  0.250063  0.475842  1
  Er  Er1  1  0.250000  0.749928  0.524917  1
  Er  Er2  1  0.250000  0.930437  0.794867  1
  Er  Er3  1  0.250000  0.570144  0.794689  1
  Er  Er4  1  0.750000  0.069428  0.203179  1
  Er  Er5  1  0.750000  0.429856  0.203003  1
  Cr  Cr6  1  0.250000  0.249769  0.848731  1
  Fe  Fe7  1  0.750000  0.748368  0.156223  1
  Fe  Fe8  1  0.750000  0.249976  0.012791  1
  Fe  Fe9  1  0.250000  0.750291  0.989098  1
  Fe  Fe10  1  0.250000  0.420391  0.005330  1
  Fe  Fe11  1  0.250000  0.078940  0.005807  1
  Fe  Fe12  1  0.250000  0.453929  0.568647  1
  Fe  Fe13  1  0.250000  0.046884  0.569122  1
  Fe  Fe14  1  0.250000  0.867994  0.292117  1
  Co  Co15  1  0.250000  0.250029  0.300389  1
  Co  Co16  1  0.750000  0.750309  0.699941  1
  Co  Co17  1  0.750000  0.584331  0.993952  1
  Co  Co18  1  0.750000  0.915674  0.994230  1
  Co  Co19  1  0.750000  0.549124  0.427723  1
  Co  Co20  1  0.750000  0.952088  0.429362  1
  Co  Co21  1  0.250000  0.630315  0.290223  1
  Co  Co22  1  0.750000  0.129899  0.710155  1
  Co  Co23  1  0.750000  0.370822  0.709898  1
  P  P24  1  0.250000  0.249600  0.115436  1
  P  P25  1  0.750000  0.750473  0.883791  1
  P  P26  1  0.250000  0.250110  0.653790  1
  P  P27  1  0.750000  0.752721  0.341767  1
  P  P28  1  0.250000  0.440200  0.383534  1
  P  P29  1  0.250000  0.058374  0.382959  1
  P  P30  1  0.750000  0.557984  0.615027  1
  P  P31  1  0.750000  0.942816  0.615522  1
  P  P32  1  0.250000  0.901385  0.109586  1
  P  P33  1  0.250000  0.597437  0.107415  1
  P  P34  1  0.750000  0.095284  0.895645  1
  P  P35  1  0.750000  0.404626  0.895297  1
