# generated using pymatgen
data_Li4Gd3ScPt4
_symmetry_space_group_name_H-M   'P 1'
_cell_length_a   3.98570200
_cell_length_b   6.94593192
_cell_length_c   8.40895000
_cell_angle_alpha   91.11276226
_cell_angle_beta   90.00000000
_cell_angle_gamma   90.00000000
_symmetry_Int_Tables_number   1
_chemical_formula_structural   Li4Gd3ScPt4
_chemical_formula_sum   'Li4 Gd3 Sc1 Pt4'
_cell_volume   232.75295666
_cell_formula_units_Z   1
loop_
 _symmetry_equiv_pos_site_id
 _symmetry_equiv_pos_as_xyz
  1  'x, y, z'
loop_
 _atom_site_type_symbol
 _atom_site_label
 _atom_site_symmetry_multiplicity
 _atom_site_fract_x
 _atom_site_fract_y
 _atom_site_fract_z
 _atom_site_occupancy
  Li  Li0  1  0.250000  0.881024  0.948449  1
  Li  Li1  1  0.250000  0.370231  0.553832  1
  Li  Li2  1  0.750000  0.123146  0.058928  1
  Li  Li3  1  0.750000  0.627950  0.440284  1
  Gd  Gd4  1  0.250000  0.454663  0.186757  1
  Gd  Gd5  1  0.750000  0.046657  0.673683  1
  Gd  Gd6  1  0.750000  0.553033  0.822111  1
  Sc  Sc7  1  0.250000  0.947974  0.322584  1
  Pt  Pt8  1  0.250000  0.256330  0.872428  1
  Pt  Pt9  1  0.250000  0.753101  0.615525  1
  Pt  Pt10  1  0.750000  0.759142  0.137599  1
  Pt  Pt11  1  0.750000  0.226752  0.367819  1
