# generated using pymatgen
data_RbPu3F12
_symmetry_space_group_name_H-M   'P 1'
_cell_length_a   6.94141923
_cell_length_b   6.94141912
_cell_length_c   6.94141900
_cell_angle_alpha   108.57645013
_cell_angle_beta   108.57645854
_cell_angle_gamma   111.27597241
_symmetry_Int_Tables_number   1
_chemical_formula_structural   RbPu3F12
_chemical_formula_sum   'Rb1 Pu3 F12'
_cell_volume   257.27551082
_cell_formula_units_Z   1
loop_
 _symmetry_equiv_pos_site_id
 _symmetry_equiv_pos_as_xyz
  1  'x, y, z'
loop_
 _atom_site_type_symbol
 _atom_site_label
 _atom_site_symmetry_multiplicity
 _atom_site_fract_x
 _atom_site_fract_y
 _atom_site_fract_z
 _atom_site_occupancy
  Rb  Rb0  1  0.000000  0.000000  0.000000  1
  Pu  Pu1  1  0.250000  0.750000  0.500000  1
  Pu  Pu2  1  0.500000  0.500000  0.000000  1
  Pu  Pu3  1  0.750000  0.250000  0.500000  1
  F  F4  1  0.551096  0.339968  0.244699  1
  F  F5  1  0.306396  0.551096  0.211127  1
  F  F6  1  0.339968  0.095269  0.788873  1
  F  F7  1  0.095269  0.306396  0.755301  1
  F  F8  1  0.345115  0.022410  0.367524  1
  F  F9  1  0.977590  0.345115  0.322705  1
  F  F10  1  0.022410  0.654885  0.677295  1
  F  F11  1  0.654885  0.977590  0.632476  1
  F  F12  1  0.904731  0.693604  0.244699  1
  F  F13  1  0.660032  0.904731  0.211127  1
  F  F14  1  0.693604  0.448904  0.788873  1
  F  F15  1  0.448904  0.660032  0.755301  1
