# generated using pymatgen
data_CeSmRh2F14
_symmetry_space_group_name_H-M   'P 1'
_cell_length_a   5.62581300
_cell_length_b   9.05092736
_cell_length_c   12.07057399
_cell_angle_alpha   62.07040170
_cell_angle_beta   90.00000000
_cell_angle_gamma   90.00000000
_symmetry_Int_Tables_number   1
_chemical_formula_structural   CeSmRh2F14
_chemical_formula_sum   'Ce2 Sm2 Rh4 F28'
_cell_volume   543.03089615
_cell_formula_units_Z   2
loop_
 _symmetry_equiv_pos_site_id
 _symmetry_equiv_pos_as_xyz
  1  'x, y, z'
loop_
 _atom_site_type_symbol
 _atom_site_label
 _atom_site_symmetry_multiplicity
 _atom_site_fract_x
 _atom_site_fract_y
 _atom_site_fract_z
 _atom_site_occupancy
  Ce  Ce0  1  0.756464  0.804530  0.765524  1
  Ce  Ce1  1  0.256464  0.195470  0.734476  1
  Sm  Sm2  1  0.239706  0.188609  0.235117  1
  Sm  Sm3  1  0.739706  0.811391  0.264883  1
  Rh  Rh4  1  0.756519  0.272177  0.957291  1
  Rh  Rh5  1  0.256519  0.727823  0.542709  1
  Rh  Rh6  1  0.244182  0.728306  0.041310  1
  Rh  Rh7  1  0.744182  0.271694  0.458690  1
  F  F8  1  0.442740  0.710313  0.912398  1
  F  F9  1  0.942740  0.289687  0.587602  1
  F  F10  1  0.561462  0.294534  0.082013  1
  F  F11  1  0.061462  0.705466  0.417987  1
  F  F12  1  0.448512  0.275828  0.548606  1
  F  F13  1  0.948512  0.724172  0.951394  1
  F  F14  1  0.549804  0.717403  0.458982  1
  F  F15  1  0.049804  0.282597  0.041018  1
  F  F16  1  0.767527  0.518799  0.857881  1
  F  F17  1  0.267527  0.481201  0.642119  1
  F  F18  1  0.232274  0.486368  0.137888  1
  F  F19  1  0.732274  0.513632  0.362112  1
  F  F20  1  0.757879  0.030227  0.048694  1
  F  F21  1  0.257879  0.969773  0.451306  1
  F  F22  1  0.243144  0.973419  0.944628  1
  F  F23  1  0.743144  0.026581  0.555372  1
  F  F24  1  0.969326  0.730635  0.637887  1
  F  F25  1  0.469326  0.269365  0.862113  1
  F  F26  1  0.029958  0.271037  0.367477  1
  F  F27  1  0.529958  0.728963  0.132523  1
  F  F28  1  0.052674  0.744938  0.169990  1
  F  F29  1  0.552674  0.255062  0.330010  1
  F  F30  1  0.947722  0.253513  0.825850  1
  F  F31  1  0.447722  0.746487  0.674150  1
  F  F32  1  0.409846  0.968795  0.230073  1
  F  F33  1  0.909846  0.031205  0.269927  1
  F  F34  1  0.590262  0.028989  0.769329  1
  F  F35  1  0.090262  0.971011  0.730671  1
