# generated using pymatgen
data_HBrN8
_symmetry_space_group_name_H-M   'P 1'
_cell_length_a   4.55800627
_cell_length_b   7.30509190
_cell_length_c   9.23715477
_cell_angle_alpha   74.04310155
_cell_angle_beta   76.61731545
_cell_angle_gamma   94.68851004
_symmetry_Int_Tables_number   1
_chemical_formula_structural   HBrN8
_chemical_formula_sum   'H1 Br1 N8'
_cell_volume   284.18998457
_cell_formula_units_Z   1
loop_
 _symmetry_equiv_pos_site_id
 _symmetry_equiv_pos_as_xyz
  1  'x, y, z'
loop_
 _atom_site_type_symbol
 _atom_site_label
 _atom_site_symmetry_multiplicity
 _atom_site_fract_x
 _atom_site_fract_y
 _atom_site_fract_z
 _atom_site_occupancy
  H  H0  1  0.170582  0.345593  0.808602  1
  Br  Br1  1  0.002379  0.388951  0.693100  1
  N  N2  1  0.688899  0.575992  0.305930  1
  N  N3  1  0.241675  0.132661  0.067789  1
  N  N4  1  0.225155  0.986856  0.150702  1
  N  N5  1  0.223529  0.955763  0.518909  1
  N  N6  1  0.406684  0.678254  0.906617  1
  N  N7  1  0.615011  0.789368  0.861541  1
  N  N8  1  0.460889  0.027479  0.498765  1
  N  N9  1  0.722216  0.475533  0.234238  1
