# generated using pymatgen
data_Dy4Tc4NiRu3
_symmetry_space_group_name_H-M   'P 1'
_cell_length_a   5.15059926
_cell_length_b   5.23233543
_cell_length_c   9.01904700
_cell_angle_alpha   90.00000000
_cell_angle_beta   90.00000000
_cell_angle_gamma   117.58658968
_symmetry_Int_Tables_number   1
_chemical_formula_structural   Dy4Tc4NiRu3
_chemical_formula_sum   'Dy4 Tc4 Ni1 Ru3'
_cell_volume   215.42723843
_cell_formula_units_Z   1
loop_
 _symmetry_equiv_pos_site_id
 _symmetry_equiv_pos_as_xyz
  1  'x, y, z'
loop_
 _atom_site_type_symbol
 _atom_site_label
 _atom_site_symmetry_multiplicity
 _atom_site_fract_x
 _atom_site_fract_y
 _atom_site_fract_z
 _atom_site_occupancy
  Dy  Dy0  1  0.665096  0.332762  0.560222  1
  Dy  Dy1  1  0.332115  0.672055  0.431736  1
  Dy  Dy2  1  0.332115  0.672055  0.068264  1
  Dy  Dy3  1  0.665096  0.332762  0.939778  1
  Tc  Tc4  1  0.166988  0.334238  0.750000  1
  Tc  Tc5  1  0.171615  0.828821  0.750000  1
  Tc  Tc6  1  0.657300  0.829607  0.750000  1
  Tc  Tc7  1  0.836787  0.159811  0.250000  1
  Ni  Ni8  1  0.840029  0.659324  0.250000  1
  Ru  Ru9  1  0.987706  0.005890  0.493405  1
  Ru  Ru10  1  0.987706  0.005890  0.006595  1
  Ru  Ru11  1  0.357451  0.166784  0.250000  1
