# generated using pymatgen
data_Dy3ErCu2(Si2Ru)2
_symmetry_space_group_name_H-M   'P 1'
_cell_length_a   4.22243000
_cell_length_b   6.95744480
_cell_length_c   7.34161071
_cell_angle_alpha   91.50732440
_cell_angle_beta   90.00000000
_cell_angle_gamma   90.00000000
_symmetry_Int_Tables_number   1
_chemical_formula_structural   Dy3ErCu2(Si2Ru)2
_chemical_formula_sum   'Dy3 Er1 Cu2 Si4 Ru2'
_cell_volume   215.60224321
_cell_formula_units_Z   1
loop_
 _symmetry_equiv_pos_site_id
 _symmetry_equiv_pos_as_xyz
  1  'x, y, z'
loop_
 _atom_site_type_symbol
 _atom_site_label
 _atom_site_symmetry_multiplicity
 _atom_site_fract_x
 _atom_site_fract_y
 _atom_site_fract_z
 _atom_site_occupancy
  Dy  Dy0  1  0.250000  0.993366  0.797158  1
  Dy  Dy1  1  0.750000  0.007183  0.203439  1
  Dy  Dy2  1  0.250000  0.493166  0.686974  1
  Er  Er3  1  0.750000  0.508255  0.310351  1
  Cu  Cu4  1  0.750000  0.831537  0.573663  1
  Cu  Cu5  1  0.250000  0.166781  0.425549  1
  Si  Si6  1  0.250000  0.299258  0.090351  1
  Si  Si7  1  0.750000  0.700586  0.911443  1
  Si  Si8  1  0.250000  0.795498  0.389294  1
  Si  Si9  1  0.750000  0.204899  0.609980  1
  Ru  Ru10  1  0.750000  0.347265  0.934450  1
  Ru  Ru11  1  0.250000  0.652205  0.067348  1
