# generated using pymatgen
data_LaNi6(BIr)6
_symmetry_space_group_name_H-M   'P 1'
_cell_length_a   6.32184263
_cell_length_b   6.32184301
_cell_length_c   6.32184421
_cell_angle_alpha   103.43929637
_cell_angle_beta   103.43930006
_cell_angle_gamma   103.43928315
_symmetry_Int_Tables_number   1
_chemical_formula_structural   LaNi6(BIr)6
_chemical_formula_sum   'La1 Ni6 B6 Ir6'
_cell_volume   227.78968008
_cell_formula_units_Z   1
loop_
 _symmetry_equiv_pos_site_id
 _symmetry_equiv_pos_as_xyz
  1  'x, y, z'
loop_
 _atom_site_type_symbol
 _atom_site_label
 _atom_site_symmetry_multiplicity
 _atom_site_fract_x
 _atom_site_fract_y
 _atom_site_fract_z
 _atom_site_occupancy
  La  La0  1  0.000000  0.000000  0.000000  1
  Ni  Ni1  1  0.543129  0.798813  0.543129  1
  Ni  Ni2  1  0.543129  0.543129  0.798813  1
  Ni  Ni3  1  0.798813  0.543129  0.543129  1
  Ni  Ni4  1  0.456871  0.201187  0.456871  1
  Ni  Ni5  1  0.456871  0.456871  0.201187  1
  Ni  Ni6  1  0.201187  0.456871  0.456871  1
  B  B7  1  0.769598  0.349976  0.769598  1
  B  B8  1  0.769598  0.769598  0.349976  1
  B  B9  1  0.349976  0.769598  0.769598  1
  B  B10  1  0.230402  0.650024  0.230402  1
  B  B11  1  0.230402  0.230402  0.650024  1
  B  B12  1  0.650024  0.230402  0.230402  1
  Ir  Ir13  1  0.138436  0.861564  0.500000  1
  Ir  Ir14  1  0.500000  0.138436  0.861564  1
  Ir  Ir15  1  0.861564  0.500000  0.138436  1
  Ir  Ir16  1  0.500000  0.861564  0.138436  1
  Ir  Ir17  1  0.138436  0.500000  0.861564  1
  Ir  Ir18  1  0.861564  0.138436  0.500000  1
