# generated using pymatgen
data_Nb8Fe2Co6Si13As
_symmetry_space_group_name_H-M   'P 1'
_cell_length_a   9.23201559
_cell_length_b   9.23093154
_cell_length_c   9.26161927
_cell_angle_alpha   94.23402990
_cell_angle_beta   94.24025172
_cell_angle_gamma   148.40232810
_symmetry_Int_Tables_number   1
_chemical_formula_structural   Nb8Fe2Co6Si13As
_chemical_formula_sum   'Nb8 Fe2 Co6 Si13 As1'
_cell_volume   398.02358424
_cell_formula_units_Z   1
loop_
 _symmetry_equiv_pos_site_id
 _symmetry_equiv_pos_as_xyz
  1  'x, y, z'
loop_
 _atom_site_type_symbol
 _atom_site_label
 _atom_site_symmetry_multiplicity
 _atom_site_fract_x
 _atom_site_fract_y
 _atom_site_fract_z
 _atom_site_occupancy
  Nb  Nb0  1  0.132941  0.132941  0.265880  1
  Nb  Nb1  1  0.867261  0.867261  0.734522  1
  Nb  Nb2  1  0.865639  0.134456  0.000268  1
  Nb  Nb3  1  0.134629  0.865812  0.000268  1
  Nb  Nb4  1  0.498850  0.690459  0.190100  1
  Nb  Nb5  1  0.501997  0.308718  0.810783  1
  Nb  Nb6  1  0.308786  0.502066  0.810783  1
  Nb  Nb7  1  0.691249  0.499640  0.190100  1
  Fe  Fe8  1  0.900240  0.400240  0.800480  1
  Fe  Fe9  1  0.600096  0.100096  0.200191  1
  Co  Co10  1  0.398898  0.898898  0.797796  1
  Co  Co11  1  0.101218  0.601218  0.202437  1
  Co  Co12  1  0.100926  0.895002  0.498812  1
  Co  Co13  1  0.397886  0.603809  0.498812  1
  Co  Co14  1  0.601344  0.400692  0.499030  1
  Co  Co15  1  0.897686  0.098338  0.499030  1
  Si  Si16  1  0.706056  0.706056  0.412111  1
  Si  Si17  1  0.708895  0.291481  0.000634  1
  Si  Si18  1  0.291739  0.709153  0.000634  1
  Si  Si19  1  0.995479  0.293279  0.295776  1
  Si  Si20  1  0.997800  0.700009  0.703948  1
  Si  Si21  1  0.706148  0.003939  0.703948  1
  Si  Si22  1  0.300297  0.002497  0.295776  1
  Si  Si23  1  0.504782  0.912413  0.403759  1
  Si  Si24  1  0.508619  0.100088  0.595923  1
  Si  Si25  1  0.087304  0.495834  0.595923  1
  Si  Si26  1  0.898977  0.491346  0.403759  1
  Si  Si27  1  0.751268  0.751275  0.000152  1
  Si  Si28  1  0.248884  0.248878  0.000152  1
  As  As29  1  0.294107  0.294107  0.588214  1
