# generated using pymatgen
data_Sc5(Re5Tc3)3
_symmetry_space_group_name_H-M   'P 1'
_cell_length_a   8.43879706
_cell_length_b   8.43879656
_cell_length_c   8.43879594
_cell_angle_alpha   109.52716744
_cell_angle_beta   109.52716944
_cell_angle_gamma   109.52715591
_symmetry_Int_Tables_number   1
_chemical_formula_structural   Sc5(Re5Tc3)3
_chemical_formula_sum   'Sc5 Re15 Tc9'
_cell_volume   461.65426027
_cell_formula_units_Z   1
loop_
 _symmetry_equiv_pos_site_id
 _symmetry_equiv_pos_as_xyz
  1  'x, y, z'
loop_
 _atom_site_type_symbol
 _atom_site_label
 _atom_site_symmetry_multiplicity
 _atom_site_fract_x
 _atom_site_fract_y
 _atom_site_fract_z
 _atom_site_occupancy
  Sc  Sc0  1  0.999666  0.999666  0.999666  1
  Sc  Sc1  1  0.630888  0.999763  0.999763  1
  Sc  Sc2  1  0.999763  0.630888  0.999763  1
  Sc  Sc3  1  0.999763  0.999763  0.630888  1
  Sc  Sc4  1  0.367795  0.367795  0.367795  1
  Re  Re5  1  0.601866  0.601866  0.277720  1
  Re  Re6  1  0.277720  0.601866  0.601866  1
  Re  Re7  1  0.601866  0.277720  0.601866  1
  Re  Re8  1  0.378215  0.193128  0.000583  1
  Re  Re9  1  0.185358  0.808522  0.808522  1
  Re  Re10  1  0.378215  0.000583  0.193128  1
  Re  Re11  1  0.193128  0.378215  0.000583  1
  Re  Re12  1  0.000583  0.378215  0.193128  1
  Re  Re13  1  0.808522  0.185358  0.808522  1
  Re  Re14  1  0.808522  0.808522  0.185358  1
  Re  Re15  1  0.000583  0.193128  0.378215  1
  Re  Re16  1  0.193128  0.000583  0.378215  1
  Re  Re17  1  0.620972  0.620972  0.812703  1
  Re  Re18  1  0.812703  0.620972  0.620972  1
  Re  Re19  1  0.620972  0.812703  0.620972  1
  Tc  Tc20  1  0.399060  0.677727  0.000446  1
  Tc  Tc21  1  0.721211  0.322048  0.322048  1
  Tc  Tc22  1  0.399060  0.000446  0.677727  1
  Tc  Tc23  1  0.677727  0.399060  0.000446  1
  Tc  Tc24  1  0.000446  0.399060  0.677727  1
  Tc  Tc25  1  0.322048  0.721211  0.322048  1
  Tc  Tc26  1  0.322048  0.322048  0.721211  1
  Tc  Tc27  1  0.000446  0.677727  0.399060  1
  Tc  Tc28  1  0.677727  0.000446  0.399060  1
