# generated using pymatgen
data_YbYRuC2
_symmetry_space_group_name_H-M   'P 1'
_cell_length_a   5.10418200
_cell_length_b   6.39641200
_cell_length_c   10.12034800
_cell_angle_alpha   90.00000000
_cell_angle_beta   90.00000000
_cell_angle_gamma   90.00000000
_symmetry_Int_Tables_number   1
_chemical_formula_structural   YbYRuC2
_chemical_formula_sum   'Yb4 Y4 Ru4 C8'
_cell_volume   330.41368573
_cell_formula_units_Z   4
loop_
 _symmetry_equiv_pos_site_id
 _symmetry_equiv_pos_as_xyz
  1  'x, y, z'
loop_
 _atom_site_type_symbol
 _atom_site_label
 _atom_site_symmetry_multiplicity
 _atom_site_fract_x
 _atom_site_fract_y
 _atom_site_fract_z
 _atom_site_occupancy
  Yb  Yb0  1  0.250000  0.531339  0.220919  1
  Yb  Yb1  1  0.750000  0.468661  0.779081  1
  Yb  Yb2  1  0.750000  0.968661  0.720919  1
  Yb  Yb3  1  0.250000  0.031339  0.279081  1
  Y  Y4  1  0.250000  0.683146  0.558387  1
  Y  Y5  1  0.750000  0.316854  0.441613  1
  Y  Y6  1  0.750000  0.816854  0.058387  1
  Y  Y7  1  0.250000  0.183146  0.941613  1
  Ru  Ru8  1  0.250000  0.719990  0.859709  1
  Ru  Ru9  1  0.750000  0.280010  0.140291  1
  Ru  Ru10  1  0.750000  0.780010  0.359709  1
  Ru  Ru11  1  0.250000  0.219990  0.640291  1
  C  C12  1  0.250000  0.457965  0.756915  1
  C  C13  1  0.750000  0.542035  0.243085  1
  C  C14  1  0.750000  0.042035  0.256915  1
  C  C15  1  0.250000  0.957965  0.743085  1
  C  C16  1  0.250000  0.813370  0.037506  1
  C  C17  1  0.750000  0.186630  0.962494  1
  C  C18  1  0.750000  0.686630  0.537506  1
  C  C19  1  0.250000  0.313370  0.462494  1
