# generated using pymatgen
data_La7Nd7Rh6
_symmetry_space_group_name_H-M   'P 1'
_cell_length_a   6.56728820
_cell_length_b   10.16003113
_cell_length_c   10.09783670
_cell_angle_alpha   120.20329819
_cell_angle_beta   89.88783505
_cell_angle_gamma   90.00005204
_symmetry_Int_Tables_number   1
_chemical_formula_structural   La7Nd7Rh6
_chemical_formula_sum   'La7 Nd7 Rh6'
_cell_volume   582.29846301
_cell_formula_units_Z   1
loop_
 _symmetry_equiv_pos_site_id
 _symmetry_equiv_pos_as_xyz
  1  'x, y, z'
loop_
 _atom_site_type_symbol
 _atom_site_label
 _atom_site_symmetry_multiplicity
 _atom_site_fract_x
 _atom_site_fract_y
 _atom_site_fract_z
 _atom_site_occupancy
  La  La0  1  0.474477  0.333198  0.666394  1
  La  La1  1  0.974890  0.667363  0.334731  1
  La  La2  1  0.234771  0.124199  0.874205  1
  La  La3  1  0.234750  0.749998  0.874179  1
  La  La4  1  0.234775  0.125749  0.251473  1
  La  La5  1  0.734252  0.874151  0.122892  1
  La  La6  1  0.734222  0.248731  0.122892  1
  Nd  Nd7  1  0.736260  0.873429  0.746855  1
  Nd  Nd8  1  0.442879  0.539103  0.461343  1
  Nd  Nd9  1  0.442850  0.922219  0.461332  1
  Nd  Nd10  1  0.438901  0.538764  0.077517  1
  Nd  Nd11  1  0.940448  0.462336  0.539790  1
  Nd  Nd12  1  0.940447  0.077460  0.539794  1
  Nd  Nd13  1  0.939320  0.461555  0.923097  1
  Rh  Rh14  1  0.197097  0.814308  0.187232  1
  Rh  Rh15  1  0.197089  0.372936  0.187254  1
  Rh  Rh16  1  0.199727  0.813672  0.627356  1
  Rh  Rh17  1  0.695013  0.190714  0.814435  1
  Rh  Rh18  1  0.694987  0.623725  0.814451  1
  Rh  Rh19  1  0.698844  0.186390  0.372781  1
