# generated using pymatgen
data_Sm2Mn3Co4Ni5P7
_symmetry_space_group_name_H-M   'P 1'
_cell_length_a   9.11416621
_cell_length_b   9.12392824
_cell_length_c   3.69366700
_cell_angle_alpha   90.00000000
_cell_angle_beta   90.00000000
_cell_angle_gamma   120.02373887
_symmetry_Int_Tables_number   1
_chemical_formula_structural   Sm2Mn3Co4Ni5P7
_chemical_formula_sum   'Sm2 Mn3 Co4 Ni5 P7'
_cell_volume   265.93974005
_cell_formula_units_Z   1
loop_
 _symmetry_equiv_pos_site_id
 _symmetry_equiv_pos_as_xyz
  1  'x, y, z'
loop_
 _atom_site_type_symbol
 _atom_site_label
 _atom_site_symmetry_multiplicity
 _atom_site_fract_x
 _atom_site_fract_y
 _atom_site_fract_z
 _atom_site_occupancy
  Sm  Sm0  1  0.666868  0.333235  0.000000  1
  Sm  Sm1  1  0.332388  0.666500  0.500000  1
  Mn  Mn2  1  0.214989  0.094767  0.000000  1
  Mn  Mn3  1  0.905148  0.121052  0.000000  1
  Mn  Mn4  1  0.881772  0.786461  0.000000  1
  Co  Co5  1  0.154748  0.276056  0.500000  1
  Co  Co6  1  0.725493  0.879119  0.500000  1
  Co  Co7  1  0.119707  0.845209  0.500000  1
  Co  Co8  1  0.047369  0.615011  0.000000  1
  Ni  Ni9  1  0.432234  0.060191  0.500000  1
  Ni  Ni10  1  0.939389  0.371564  0.500000  1
  Ni  Ni11  1  0.630602  0.567504  0.500000  1
  Ni  Ni12  1  0.385299  0.434870  0.000000  1
  Ni  Ni13  1  0.564683  0.950522  0.000000  1
  P  P14  1  0.110946  0.400788  0.000000  1
  P  P15  1  0.601469  0.713376  0.000000  1
  P  P16  1  0.283146  0.884532  0.000000  1
  P  P17  1  0.000593  0.001323  0.500000  1
  P  P18  1  0.403986  0.295129  0.500000  1
  P  P19  1  0.704356  0.108278  0.500000  1
  P  P20  1  0.894818  0.594512  0.500000  1
