# generated using pymatgen
data_Sc4BiC2Br
_symmetry_space_group_name_H-M   'P 1'
_cell_length_a   3.46454300
_cell_length_b   3.46454253
_cell_length_c   13.93103900
_cell_angle_alpha   90.00000000
_cell_angle_beta   90.00000000
_cell_angle_gamma   119.99999491
_symmetry_Int_Tables_number   1
_chemical_formula_structural   Sc4BiC2Br
_chemical_formula_sum   'Sc4 Bi1 C2 Br1'
_cell_volume   144.81248806
_cell_formula_units_Z   1
loop_
 _symmetry_equiv_pos_site_id
 _symmetry_equiv_pos_as_xyz
  1  'x, y, z'
loop_
 _atom_site_type_symbol
 _atom_site_label
 _atom_site_symmetry_multiplicity
 _atom_site_fract_x
 _atom_site_fract_y
 _atom_site_fract_z
 _atom_site_occupancy
  Sc  Sc0  1  0.333333  0.666667  0.071496  1
  Sc  Sc1  1  0.333333  0.666667  0.428504  1
  Sc  Sc2  1  0.666667  0.333333  0.595308  1
  Sc  Sc3  1  0.666667  0.333333  0.904692  1
  Bi  Bi4  1  0.666667  0.333333  0.250000  1
  C  C5  1  0.000000  0.000000  0.983973  1
  C  C6  1  0.000000  0.000000  0.516027  1
  Br  Br7  1  0.333333  0.666667  0.750000  1
