# generated using pymatgen
data_AcPt4PbO8
_symmetry_space_group_name_H-M   'P 1'
_cell_length_a   5.82531396
_cell_length_b   6.24631534
_cell_length_c   6.76639323
_cell_angle_alpha   115.89028262
_cell_angle_beta   96.05620343
_cell_angle_gamma   109.91444833
_symmetry_Int_Tables_number   1
_chemical_formula_structural   AcPt4PbO8
_chemical_formula_sum   'Ac1 Pt4 Pb1 O8'
_cell_volume   198.62110848
_cell_formula_units_Z   1
loop_
 _symmetry_equiv_pos_site_id
 _symmetry_equiv_pos_as_xyz
  1  'x, y, z'
loop_
 _atom_site_type_symbol
 _atom_site_label
 _atom_site_symmetry_multiplicity
 _atom_site_fract_x
 _atom_site_fract_y
 _atom_site_fract_z
 _atom_site_occupancy
  Ac  Ac0  1  0.869309  0.244038  0.133492  1
  Pt  Pt1  1  0.502411  0.501077  0.502510  1
  Pt  Pt2  1  0.998386  0.999905  0.500950  1
  Pt  Pt3  1  0.497029  0.500543  0.000568  1
  Pt  Pt4  1  0.498057  0.001195  0.501476  1
  Pb  Pb5  1  0.140865  0.744327  0.847891  1
  O  O6  1  0.525591  0.868940  0.730544  1
  O  O7  1  0.480770  0.137969  0.276618  1
  O  O8  1  0.834134  0.833400  0.154782  1
  O  O9  1  0.153710  0.169452  0.848500  1
  O  O10  1  0.868662  0.650257  0.489241  1
  O  O11  1  0.134679  0.349424  0.509608  1
  O  O12  1  0.365830  0.603659  0.277737  1
  O  O13  1  0.630567  0.395814  0.726082  1
