# generated using pymatgen
data_Nb10Ga12Os7
_symmetry_space_group_name_H-M   'P 1'
_cell_length_a   8.65465740
_cell_length_b   8.65465758
_cell_length_c   8.65465700
_cell_angle_alpha   59.99999840
_cell_angle_beta   59.99999772
_cell_angle_gamma   59.99999475
_symmetry_Int_Tables_number   1
_chemical_formula_structural   Nb10Ga12Os7
_chemical_formula_sum   'Nb10 Ga12 Os7'
_cell_volume   458.38943947
_cell_formula_units_Z   1
loop_
 _symmetry_equiv_pos_site_id
 _symmetry_equiv_pos_as_xyz
  1  'x, y, z'
loop_
 _atom_site_type_symbol
 _atom_site_label
 _atom_site_symmetry_multiplicity
 _atom_site_fract_x
 _atom_site_fract_y
 _atom_site_fract_z
 _atom_site_occupancy
  Nb  Nb0  1  0.690293  0.690293  0.309707  1
  Nb  Nb1  1  0.309707  0.690293  0.309707  1
  Nb  Nb2  1  0.690293  0.309707  0.309707  1
  Nb  Nb3  1  0.309707  0.309707  0.690293  1
  Nb  Nb4  1  0.690293  0.309707  0.690293  1
  Nb  Nb5  1  0.309707  0.690293  0.690293  1
  Nb  Nb6  1  0.877691  0.877691  0.366928  1
  Nb  Nb7  1  0.877691  0.366928  0.877691  1
  Nb  Nb8  1  0.366928  0.877691  0.877691  1
  Nb  Nb9  1  0.877691  0.877691  0.877691  1
  Ga  Ga10  1  0.121583  0.121583  0.635249  1
  Ga  Ga11  1  0.121583  0.635249  0.121583  1
  Ga  Ga12  1  0.635249  0.121583  0.121583  1
  Ga  Ga13  1  0.121583  0.121583  0.121583  1
  Ga  Ga14  1  0.654094  0.654094  0.037717  1
  Ga  Ga15  1  0.654094  0.037717  0.654094  1
  Ga  Ga16  1  0.037717  0.654094  0.654094  1
  Ga  Ga17  1  0.654094  0.654094  0.654094  1
  Ga  Ga18  1  0.343470  0.343470  0.969593  1
  Ga  Ga19  1  0.343470  0.969593  0.343470  1
  Ga  Ga20  1  0.969593  0.343470  0.343470  1
  Ga  Ga21  1  0.343470  0.343470  0.343470  1
  Os  Os22  1  0.000000  0.000000  0.000000  1
  Os  Os23  1  0.997871  0.997871  0.502129  1
  Os  Os24  1  0.502129  0.997871  0.502129  1
  Os  Os25  1  0.997871  0.502129  0.502129  1
  Os  Os26  1  0.502129  0.502129  0.997871  1
  Os  Os27  1  0.997871  0.502129  0.997871  1
  Os  Os28  1  0.502129  0.997871  0.997871  1
