# generated using pymatgen
data_CaTbPaIr3
_symmetry_space_group_name_H-M   'P 1'
_cell_length_a   5.84492206
_cell_length_b   5.37604270
_cell_length_c   5.84492300
_cell_angle_alpha   57.07039458
_cell_angle_beta   60.00000032
_cell_angle_gamma   57.07040179
_symmetry_Int_Tables_number   1
_chemical_formula_structural   CaTbPaIr3
_chemical_formula_sum   'Ca1 Tb1 Pa1 Ir3'
_cell_volume   123.81762581
_cell_formula_units_Z   1
loop_
 _symmetry_equiv_pos_site_id
 _symmetry_equiv_pos_as_xyz
  1  'x, y, z'
loop_
 _atom_site_type_symbol
 _atom_site_label
 _atom_site_symmetry_multiplicity
 _atom_site_fract_x
 _atom_site_fract_y
 _atom_site_fract_z
 _atom_site_occupancy
  Ca  Ca0  1  0.749627  0.751119  0.749627  1
  Tb  Tb1  1  0.501673  0.494979  0.501673  1
  Pa  Pa2  1  0.124519  0.626442  0.124519  1
  Ir  Ir3  1  0.124897  0.125820  0.624386  1
  Ir  Ir4  1  0.624386  0.125820  0.124897  1
  Ir  Ir5  1  0.124897  0.125820  0.124897  1
