# generated using pymatgen
data_LaYbC12
_symmetry_space_group_name_H-M   'P 1'
_cell_length_a   4.34715000
_cell_length_b   4.34714921
_cell_length_c   9.15246600
_cell_angle_alpha   90.00000000
_cell_angle_beta   90.00000000
_cell_angle_gamma   119.99999079
_symmetry_Int_Tables_number   1
_chemical_formula_structural   LaYbC12
_chemical_formula_sum   'La1 Yb1 C12'
_cell_volume   149.78832670
_cell_formula_units_Z   1
loop_
 _symmetry_equiv_pos_site_id
 _symmetry_equiv_pos_as_xyz
  1  'x, y, z'
loop_
 _atom_site_type_symbol
 _atom_site_label
 _atom_site_symmetry_multiplicity
 _atom_site_fract_x
 _atom_site_fract_y
 _atom_site_fract_z
 _atom_site_occupancy
  La  La0  1  0.333333  0.666667  0.250000  1
  Yb  Yb1  1  0.666667  0.333333  0.750000  1
  C  C2  1  0.333400  0.333659  0.511805  1
  C  C3  1  0.666341  0.999741  0.511805  1
  C  C4  1  0.000259  0.666600  0.511805  1
  C  C5  1  0.666341  0.666600  0.511805  1
  C  C6  1  0.000259  0.333659  0.511805  1
  C  C7  1  0.333400  0.999741  0.511805  1
  C  C8  1  0.666341  0.666600  0.988195  1
  C  C9  1  0.333400  0.999741  0.988195  1
  C  C10  1  0.000259  0.333659  0.988195  1
  C  C11  1  0.333400  0.333659  0.988195  1
  C  C12  1  0.000259  0.666600  0.988195  1
  C  C13  1  0.666341  0.999741  0.988195  1
