# generated using pymatgen
data_Li4AcSb2
_symmetry_space_group_name_H-M   'P 1'
_cell_length_a   8.99520279
_cell_length_b   8.99520334
_cell_length_c   8.99520272
_cell_angle_alpha   30.08816755
_cell_angle_beta   30.08816342
_cell_angle_gamma   30.08816366
_symmetry_Int_Tables_number   1
_chemical_formula_structural   Li4AcSb2
_chemical_formula_sum   'Li4 Ac1 Sb2'
_cell_volume   162.05687450
_cell_formula_units_Z   1
loop_
 _symmetry_equiv_pos_site_id
 _symmetry_equiv_pos_as_xyz
  1  'x, y, z'
loop_
 _atom_site_type_symbol
 _atom_site_label
 _atom_site_symmetry_multiplicity
 _atom_site_fract_x
 _atom_site_fract_y
 _atom_site_fract_z
 _atom_site_occupancy
  Li  Li0  1  0.860852  0.860852  0.860852  1
  Li  Li1  1  0.139148  0.139148  0.139148  1
  Li  Li2  1  0.567101  0.567101  0.567101  1
  Li  Li3  1  0.432899  0.432899  0.432899  1
  Ac  Ac4  1  0.000000  0.000000  0.000000  1
  Sb  Sb5  1  0.750954  0.750954  0.750954  1
  Sb  Sb6  1  0.249046  0.249046  0.249046  1
