# generated using pymatgen
data_Er8Tm12Si15Pt
_symmetry_space_group_name_H-M   'P 1'
_cell_length_a   7.61407441
_cell_length_b   7.59339554
_cell_length_c   13.86314830
_cell_angle_alpha   89.79851026
_cell_angle_beta   89.63642858
_cell_angle_gamma   90.26019490
_symmetry_Int_Tables_number   1
_chemical_formula_structural   Er8Tm12Si15Pt
_chemical_formula_sum   'Er8 Tm12 Si15 Pt1'
_cell_volume   801.49175157
_cell_formula_units_Z   1
loop_
 _symmetry_equiv_pos_site_id
 _symmetry_equiv_pos_as_xyz
  1  'x, y, z'
loop_
 _atom_site_type_symbol
 _atom_site_label
 _atom_site_symmetry_multiplicity
 _atom_site_fract_x
 _atom_site_fract_y
 _atom_site_fract_z
 _atom_site_occupancy
  Er  Er0  1  0.353089  0.002875  0.462035  1
  Er  Er1  1  0.499211  0.851725  0.713045  1
  Er  Er2  1  0.502524  0.145890  0.212336  1
  Er  Er3  1  0.852729  0.495855  0.288571  1
  Er  Er4  1  0.143731  0.506867  0.786241  1
  Er  Er5  1  0.646665  0.994734  0.961548  1
  Er  Er6  1  0.000884  0.349611  0.540012  1
  Er  Er7  1  0.998063  0.648684  0.038117  1
  Tm  Tm8  1  0.319109  0.320011  0.999938  1
  Tm  Tm9  1  0.178321  0.821044  0.250671  1
  Tm  Tm10  1  0.824112  0.181101  0.748099  1
  Tm  Tm11  1  0.678680  0.675896  0.500786  1
  Tm  Tm12  1  0.146299  0.997406  0.872268  1
  Tm  Tm13  1  0.503745  0.643529  0.124017  1
  Tm  Tm14  1  0.491083  0.350741  0.623995  1
  Tm  Tm15  1  0.643733  0.506744  0.876410  1
  Tm  Tm16  1  0.356065  0.493445  0.377323  1
  Tm  Tm17  1  0.856004  0.004571  0.371962  1
  Tm  Tm18  1  0.995858  0.141643  0.126887  1
  Tm  Tm19  1  0.009176  0.865601  0.623011  1
  Si  Si20  1  0.351786  0.704746  0.932273  1
  Si  Si21  1  0.645869  0.290783  0.430287  1
  Si  Si22  1  0.709418  0.354226  0.067548  1
  Si  Si23  1  0.294551  0.647352  0.570079  1
  Si  Si24  1  0.793870  0.850878  0.182100  1
  Si  Si25  1  0.148580  0.205203  0.317204  1
  Si  Si26  1  0.850827  0.796881  0.816656  1
  Si  Si27  1  0.298417  0.945580  0.062381  1
  Si  Si28  1  0.554044  0.796580  0.312653  1
  Si  Si29  1  0.453243  0.198956  0.814599  1
  Si  Si30  1  0.796431  0.561722  0.687467  1
  Si  Si31  1  0.203981  0.445399  0.188451  1
  Si  Si32  1  0.702435  0.055171  0.559351  1
  Si  Si33  1  0.938260  0.296404  0.940375  1
  Si  Si34  1  0.055295  0.700609  0.437149  1
  Pt  Pt35  1  0.203915  0.151533  0.684159  1
