# generated using pymatgen
data_Li2Th3Sn3C
_symmetry_space_group_name_H-M   'P 1'
_cell_length_a   9.11862000
_cell_length_b   9.11861864
_cell_length_c   6.13137300
_cell_angle_alpha   90.00000000
_cell_angle_beta   90.00000000
_cell_angle_gamma   120.00000492
_symmetry_Int_Tables_number   1
_chemical_formula_structural   Li2Th3Sn3C
_chemical_formula_sum   'Li4 Th6 Sn6 C2'
_cell_volume   441.51607276
_cell_formula_units_Z   2
loop_
 _symmetry_equiv_pos_site_id
 _symmetry_equiv_pos_as_xyz
  1  'x, y, z'
loop_
 _atom_site_type_symbol
 _atom_site_label
 _atom_site_symmetry_multiplicity
 _atom_site_fract_x
 _atom_site_fract_y
 _atom_site_fract_z
 _atom_site_occupancy
  Li  Li0  1  0.666667  0.333333  0.500000  1
  Li  Li1  1  0.333333  0.666667  0.500000  1
  Li  Li2  1  0.333333  0.666667  0.000000  1
  Li  Li3  1  0.666667  0.333333  0.000000  1
  Th  Th4  1  0.770110  0.770110  0.250000  1
  Th  Th5  1  0.229890  0.000000  0.250000  1
  Th  Th6  1  0.000000  0.229890  0.250000  1
  Th  Th7  1  0.229890  0.229890  0.750000  1
  Th  Th8  1  0.770110  0.000000  0.750000  1
  Th  Th9  1  0.000000  0.770110  0.750000  1
  Sn  Sn10  1  0.409462  0.409462  0.250000  1
  Sn  Sn11  1  0.590538  0.000000  0.250000  1
  Sn  Sn12  1  0.000000  0.590538  0.250000  1
  Sn  Sn13  1  0.590538  0.590538  0.750000  1
  Sn  Sn14  1  0.409462  0.000000  0.750000  1
  Sn  Sn15  1  0.000000  0.409462  0.750000  1
  C  C16  1  0.000000  0.000000  0.500000  1
  C  C17  1  0.000000  0.000000  0.000000  1
