# generated using pymatgen
data_Sr3Th5Pt8
_symmetry_space_group_name_H-M   'P 1'
_cell_length_a   4.47194000
_cell_length_b   5.96611852
_cell_length_c   14.94099100
_cell_angle_alpha   89.57064150
_cell_angle_beta   90.00000000
_cell_angle_gamma   90.00000000
_symmetry_Int_Tables_number   1
_chemical_formula_structural   Sr3Th5Pt8
_chemical_formula_sum   'Sr3 Th5 Pt8'
_cell_volume   398.61630049
_cell_formula_units_Z   1
loop_
 _symmetry_equiv_pos_site_id
 _symmetry_equiv_pos_as_xyz
  1  'x, y, z'
loop_
 _atom_site_type_symbol
 _atom_site_label
 _atom_site_symmetry_multiplicity
 _atom_site_fract_x
 _atom_site_fract_y
 _atom_site_fract_z
 _atom_site_occupancy
  Sr  Sr0  1  0.250000  0.540886  0.283328  1
  Sr  Sr1  1  0.750000  0.465807  0.717894  1
  Sr  Sr2  1  0.250000  0.965224  0.782037  1
  Th  Th3  1  0.250000  0.750897  0.531949  1
  Th  Th4  1  0.250000  0.739965  0.037821  1
  Th  Th5  1  0.750000  0.247007  0.969286  1
  Th  Th6  1  0.750000  0.033917  0.217568  1
  Th  Th7  1  0.750000  0.251161  0.460738  1
  Pt  Pt8  1  0.250000  0.053883  0.353085  1
  Pt  Pt9  1  0.750000  0.554173  0.140297  1
  Pt  Pt10  1  0.750000  0.737325  0.406609  1
  Pt  Pt11  1  0.250000  0.449092  0.872263  1
  Pt  Pt12  1  0.750000  0.958390  0.627422  1
  Pt  Pt13  1  0.750000  0.774741  0.911805  1
  Pt  Pt14  1  0.250000  0.202932  0.102579  1
  Pt  Pt15  1  0.250000  0.274599  0.585315  1
