# generated using pymatgen
data_NaDy3Ir8
_symmetry_space_group_name_H-M   'P 1'
_cell_length_a   5.34396500
_cell_length_b   5.34396386
_cell_length_c   8.69001600
_cell_angle_alpha   90.00000000
_cell_angle_beta   90.00000000
_cell_angle_gamma   119.99998847
_symmetry_Int_Tables_number   1
_chemical_formula_structural   NaDy3Ir8
_chemical_formula_sum   'Na1 Dy3 Ir8'
_cell_volume   214.92076414
_cell_formula_units_Z   1
loop_
 _symmetry_equiv_pos_site_id
 _symmetry_equiv_pos_as_xyz
  1  'x, y, z'
loop_
 _atom_site_type_symbol
 _atom_site_label
 _atom_site_symmetry_multiplicity
 _atom_site_fract_x
 _atom_site_fract_y
 _atom_site_fract_z
 _atom_site_occupancy
  Na  Na0  1  0.333333  0.666667  0.437664  1
  Dy  Dy1  1  0.333333  0.666667  0.083665  1
  Dy  Dy2  1  0.666667  0.333333  0.556386  1
  Dy  Dy3  1  0.666667  0.333333  0.929861  1
  Ir  Ir4  1  0.000000  0.000000  0.998273  1
  Ir  Ir5  1  0.000000  0.000000  0.498650  1
  Ir  Ir6  1  0.830731  0.661463  0.248395  1
  Ir  Ir7  1  0.170871  0.829129  0.750105  1
  Ir  Ir8  1  0.658259  0.829129  0.750105  1
  Ir  Ir9  1  0.338537  0.169269  0.248395  1
  Ir  Ir10  1  0.830731  0.169269  0.248395  1
  Ir  Ir11  1  0.170871  0.341741  0.750105  1
