# generated using pymatgen
data_Mg4Sn2Pd7Pt3
_symmetry_space_group_name_H-M   'P 1'
_cell_length_a   4.20353000
_cell_length_b   5.62211021
_cell_length_c   11.04656698
_cell_angle_alpha   90.22872663
_cell_angle_beta   90.00000000
_cell_angle_gamma   90.00000000
_symmetry_Int_Tables_number   1
_chemical_formula_structural   Mg4Sn2Pd7Pt3
_chemical_formula_sum   'Mg4 Sn2 Pd7 Pt3'
_cell_volume   261.05822206
_cell_formula_units_Z   1
loop_
 _symmetry_equiv_pos_site_id
 _symmetry_equiv_pos_as_xyz
  1  'x, y, z'
loop_
 _atom_site_type_symbol
 _atom_site_label
 _atom_site_symmetry_multiplicity
 _atom_site_fract_x
 _atom_site_fract_y
 _atom_site_fract_z
 _atom_site_occupancy
  Mg  Mg0  1  0.500000  0.173538  0.140152  1
  Mg  Mg1  1  0.500000  0.825069  0.858843  1
  Mg  Mg2  1  0.500000  0.324524  0.640629  1
  Mg  Mg3  1  0.500000  0.675414  0.359758  1
  Sn  Sn4  1  0.000000  0.000621  0.500127  1
  Sn  Sn5  1  0.000000  0.501905  0.000654  1
  Pd  Pd6  1  0.500000  0.697141  0.114705  1
  Pd  Pd7  1  0.000000  0.425945  0.244442  1
  Pd  Pd8  1  0.000000  0.573179  0.755213  1
  Pd  Pd9  1  0.000000  0.073385  0.744959  1
  Pd  Pd10  1  0.000000  0.926062  0.255090  1
  Pd  Pd11  1  0.000000  0.998784  0.999352  1
  Pd  Pd12  1  0.000000  0.500210  0.500018  1
  Pt  Pt13  1  0.500000  0.199396  0.384443  1
  Pt  Pt14  1  0.500000  0.800857  0.615034  1
  Pt  Pt15  1  0.500000  0.303968  0.886583  1
