# generated using pymatgen
data_Pr20Ga2Si9P
_symmetry_space_group_name_H-M   'P 1'
_cell_length_a   7.82383800
_cell_length_b   7.82383800
_cell_length_c   14.43078300
_cell_angle_alpha   90.00000000
_cell_angle_beta   90.00000000
_cell_angle_gamma   90.00000000
_symmetry_Int_Tables_number   1
_chemical_formula_structural   Pr20Ga2Si9P
_chemical_formula_sum   'Pr20 Ga2 Si9 P1'
_cell_volume   883.34345370
_cell_formula_units_Z   1
loop_
 _symmetry_equiv_pos_site_id
 _symmetry_equiv_pos_as_xyz
  1  'x, y, z'
loop_
 _atom_site_type_symbol
 _atom_site_label
 _atom_site_symmetry_multiplicity
 _atom_site_fract_x
 _atom_site_fract_y
 _atom_site_fract_z
 _atom_site_occupancy
  Pr  Pr0  1  0.816288  0.826647  0.604247  1
  Pr  Pr1  1  0.185197  0.830608  0.110035  1
  Pr  Pr2  1  0.170408  0.812875  0.395728  1
  Pr  Pr3  1  0.000000  0.500000  0.730665  1
  Pr  Pr4  1  0.829592  0.187125  0.395728  1
  Pr  Pr5  1  0.687125  0.670408  0.395728  1
  Pr  Pr6  1  0.673353  0.316288  0.604247  1
  Pr  Pr7  1  0.326647  0.683712  0.604247  1
  Pr  Pr8  1  0.000000  0.500000  0.225140  1
  Pr  Pr9  1  0.669392  0.685197  0.110035  1
  Pr  Pr10  1  0.685272  0.330741  0.889994  1
  Pr  Pr11  1  0.830741  0.814728  0.889994  1
  Pr  Pr12  1  0.312875  0.329592  0.395728  1
  Pr  Pr13  1  0.183712  0.173353  0.604247  1
  Pr  Pr14  1  0.814803  0.169392  0.110035  1
  Pr  Pr15  1  0.314728  0.669259  0.889994  1
  Pr  Pr16  1  0.330608  0.314803  0.110035  1
  Pr  Pr17  1  0.500000  0.000000  0.269291  1
  Pr  Pr18  1  0.169259  0.185272  0.889994  1
  Pr  Pr19  1  0.500000  0.000000  0.772291  1
  Ga  Ga20  1  0.500000  0.000000  0.995973  1
  Ga  Ga21  1  0.000000  0.500000  0.003682  1
  Si  Si22  1  0.613588  0.386212  0.253937  1
  Si  Si23  1  0.114023  0.886804  0.745993  1
  Si  Si24  1  0.386804  0.385977  0.745993  1
  Si  Si25  1  0.386412  0.613788  0.253937  1
  Si  Si26  1  0.886212  0.886412  0.253937  1
  Si  Si27  1  0.613196  0.614023  0.745993  1
  Si  Si28  1  0.885977  0.113196  0.745993  1
  Si  Si29  1  0.500000  0.000000  0.492518  1
  Si  Si30  1  0.113788  0.113588  0.253937  1
  P  P31  1  0.000000  0.500000  0.510703  1
