# generated using pymatgen
data_Ac2Fe2CoN3
_symmetry_space_group_name_H-M   'P 1'
_cell_length_a   6.49557904
_cell_length_b   6.49557843
_cell_length_c   6.35752800
_cell_angle_alpha   88.67797199
_cell_angle_beta   88.67797211
_cell_angle_gamma   117.88895839
_symmetry_Int_Tables_number   1
_chemical_formula_structural   Ac2Fe2CoN3
_chemical_formula_sum   'Ac4 Fe4 Co2 N6'
_cell_volume   236.84848714
_cell_formula_units_Z   2
loop_
 _symmetry_equiv_pos_site_id
 _symmetry_equiv_pos_as_xyz
  1  'x, y, z'
loop_
 _atom_site_type_symbol
 _atom_site_label
 _atom_site_symmetry_multiplicity
 _atom_site_fract_x
 _atom_site_fract_y
 _atom_site_fract_z
 _atom_site_occupancy
  Ac  Ac0  1  0.831639  0.666735  0.900977  1
  Ac  Ac1  1  0.333265  0.168361  0.599023  1
  Ac  Ac2  1  0.168361  0.333265  0.099023  1
  Ac  Ac3  1  0.666735  0.831639  0.400977  1
  Fe  Fe4  1  0.568215  0.162182  0.106647  1
  Fe  Fe5  1  0.431785  0.837818  0.893353  1
  Fe  Fe6  1  0.837818  0.431785  0.393353  1
  Fe  Fe7  1  0.162182  0.568215  0.606647  1
  Co  Co8  1  0.812541  0.187459  0.750000  1
  Co  Co9  1  0.187459  0.812541  0.250000  1
  N  N10  1  0.419919  0.580081  0.750000  1
  N  N11  1  0.580081  0.419919  0.250000  1
  N  N12  1  0.009933  0.734085  0.501400  1
  N  N13  1  0.734085  0.009933  0.001400  1
  N  N14  1  0.990067  0.265915  0.498600  1
  N  N15  1  0.265915  0.990067  0.998600  1
