# generated using pymatgen
data_Tb20Co3Bi8Pt
_symmetry_space_group_name_H-M   'P 1'
_cell_length_a   8.06848354
_cell_length_b   8.93908500
_cell_length_c   12.48088866
_cell_angle_alpha   90.00001283
_cell_angle_beta   90.29361760
_cell_angle_gamma   89.99998713
_symmetry_Int_Tables_number   1
_chemical_formula_structural   Tb20Co3Bi8Pt
_chemical_formula_sum   'Tb20 Co3 Bi8 Pt1'
_cell_volume   900.17052963
_cell_formula_units_Z   1
loop_
 _symmetry_equiv_pos_site_id
 _symmetry_equiv_pos_as_xyz
  1  'x, y, z'
loop_
 _atom_site_type_symbol
 _atom_site_label
 _atom_site_symmetry_multiplicity
 _atom_site_fract_x
 _atom_site_fract_y
 _atom_site_fract_z
 _atom_site_occupancy
  Tb  Tb0  1  0.848159  0.750001  0.800670  1
  Tb  Tb1  1  0.150785  0.250000  0.198357  1
  Tb  Tb2  1  0.347624  0.250000  0.699880  1
  Tb  Tb3  1  0.656935  0.750000  0.291474  1
  Tb  Tb4  1  0.375223  0.750000  0.698377  1
  Tb  Tb5  1  0.618530  0.249999  0.308604  1
  Tb  Tb6  1  0.881601  0.250000  0.809141  1
  Tb  Tb7  1  0.117981  0.749999  0.190087  1
  Tb  Tb8  1  0.952728  0.750000  0.501935  1
  Tb  Tb9  1  0.048094  0.250000  0.497862  1
  Tb  Tb10  1  0.451598  0.250000  0.998168  1
  Tb  Tb11  1  0.547450  0.750000  0.001049  1
  Tb  Tb12  1  0.679935  0.048351  0.566067  1
  Tb  Tb13  1  0.322021  0.967590  0.435645  1
  Tb  Tb14  1  0.175576  0.964084  0.937475  1
  Tb  Tb15  1  0.322021  0.532410  0.435645  1
  Tb  Tb16  1  0.822948  0.036350  0.062615  1
  Tb  Tb17  1  0.679934  0.451649  0.566067  1
  Tb  Tb18  1  0.822947  0.463651  0.062615  1
  Tb  Tb19  1  0.175576  0.535917  0.937475  1
  Co  Co20  1  0.434232  0.249999  0.490882  1
  Co  Co21  1  0.060775  0.250000  0.991402  1
  Co  Co22  1  0.937021  0.750000  0.008038  1
  Bi  Bi23  1  0.572151  0.491110  0.826773  1
  Bi  Bi24  1  0.427051  0.508080  0.173305  1
  Bi  Bi25  1  0.072404  0.508074  0.673999  1
  Bi  Bi26  1  0.427050  0.991920  0.173305  1
  Bi  Bi27  1  0.928439  0.491483  0.325790  1
  Bi  Bi28  1  0.572151  0.008890  0.826774  1
  Bi  Bi29  1  0.928439  0.008517  0.325790  1
  Bi  Bi30  1  0.072403  0.991927  0.673999  1
  Pt  Pt31  1  0.570222  0.750000  0.510729  1
