# generated using pymatgen
data_DyY3GaS3
_symmetry_space_group_name_H-M   'P 1'
_cell_length_a   6.91464989
_cell_length_b   6.91464970
_cell_length_c   6.91464916
_cell_angle_alpha   131.81564998
_cell_angle_beta   131.79567394
_cell_angle_gamma   70.53614105
_symmetry_Int_Tables_number   1
_chemical_formula_structural   DyY3GaS3
_chemical_formula_sum   'Dy1 Y3 Ga1 S3'
_cell_volume   179.98352306
_cell_formula_units_Z   1
loop_
 _symmetry_equiv_pos_site_id
 _symmetry_equiv_pos_as_xyz
  1  'x, y, z'
loop_
 _atom_site_type_symbol
 _atom_site_label
 _atom_site_symmetry_multiplicity
 _atom_site_fract_x
 _atom_site_fract_y
 _atom_site_fract_z
 _atom_site_occupancy
  Dy  Dy0  1  0.500000  0.000000  0.500000  1
  Y  Y1  1  0.747737  0.747737  0.000000  1
  Y  Y2  1  0.252264  0.252264  0.000000  1
  Y  Y3  1  0.000000  0.500000  0.500000  1
  Ga  Ga4  1  0.000000  0.000000  0.000000  1
  S  S5  1  0.500000  0.500000  0.000000  1
  S  S6  1  0.250114  0.750114  0.500000  1
  S  S7  1  0.749886  0.249886  0.500000  1
