# generated using pymatgen
data_Yb3PuN4
_symmetry_space_group_name_H-M   'P 1'
_cell_length_a   6.84982910
_cell_length_b   9.09140311
_cell_length_c   5.97774639
_cell_angle_alpha   29.14899528
_cell_angle_beta   55.04422305
_cell_angle_gamma   41.11074262
_symmetry_Int_Tables_number   1
_chemical_formula_structural   Yb3PuN4
_chemical_formula_sum   'Yb3 Pu1 N4'
_cell_volume   114.93860778
_cell_formula_units_Z   1
loop_
 _symmetry_equiv_pos_site_id
 _symmetry_equiv_pos_as_xyz
  1  'x, y, z'
loop_
 _atom_site_type_symbol
 _atom_site_label
 _atom_site_symmetry_multiplicity
 _atom_site_fract_x
 _atom_site_fract_y
 _atom_site_fract_z
 _atom_site_occupancy
  Yb  Yb0  1  0.250000  0.500000  0.000000  1
  Yb  Yb1  1  0.750000  0.500000  0.000000  1
  Yb  Yb2  1  0.500000  0.000000  0.000000  1
  Pu  Pu3  1  0.000000  0.000000  0.000000  1
  N  N4  1  0.500000  0.500000  0.500000  1
  N  N5  1  0.202754  0.000000  0.594491  1
  N  N6  1  0.000000  0.500000  0.500000  1
  N  N7  1  0.797246  0.000000  0.405509  1
