# generated using pymatgen
data_Yb(Cu2As)2
_symmetry_space_group_name_H-M   'P 1'
_cell_length_a   7.45176800
_cell_length_b   7.45176800
_cell_length_c   3.91489000
_cell_angle_alpha   90.00000000
_cell_angle_beta   90.00000000
_cell_angle_gamma   90.00000000
_symmetry_Int_Tables_number   1
_chemical_formula_structural   Yb(Cu2As)2
_chemical_formula_sum   'Yb2 Cu8 As4'
_cell_volume   217.38932519
_cell_formula_units_Z   2
loop_
 _symmetry_equiv_pos_site_id
 _symmetry_equiv_pos_as_xyz
  1  'x, y, z'
loop_
 _atom_site_type_symbol
 _atom_site_label
 _atom_site_symmetry_multiplicity
 _atom_site_fract_x
 _atom_site_fract_y
 _atom_site_fract_z
 _atom_site_occupancy
  Yb  Yb0  1  0.500000  0.500000  0.000000  1
  Yb  Yb1  1  0.000000  0.000000  0.500000  1
  Cu  Cu2  1  0.588417  0.154575  0.500000  1
  Cu  Cu3  1  0.411583  0.845425  0.500000  1
  Cu  Cu4  1  0.088417  0.345425  0.000000  1
  Cu  Cu5  1  0.911583  0.654575  0.000000  1
  Cu  Cu6  1  0.154575  0.588417  0.500000  1
  Cu  Cu7  1  0.845425  0.411583  0.500000  1
  Cu  Cu8  1  0.345425  0.088417  0.000000  1
  Cu  Cu9  1  0.654575  0.911583  0.000000  1
  As  As10  1  0.716715  0.716715  0.500000  1
  As  As11  1  0.283285  0.283285  0.500000  1
  As  As12  1  0.216715  0.783285  0.000000  1
  As  As13  1  0.783285  0.216715  0.000000  1
