# generated using pymatgen
data_LaTa(NbS2)8
_symmetry_space_group_name_H-M   'P 1'
_cell_length_a   6.70643800
_cell_length_b   6.70643791
_cell_length_c   13.42150900
_cell_angle_alpha   90.00000000
_cell_angle_beta   90.00000000
_cell_angle_gamma   120.00001029
_symmetry_Int_Tables_number   1
_chemical_formula_structural   LaTa(NbS2)8
_chemical_formula_sum   'La1 Ta1 Nb8 S16'
_cell_volume   522.77613782
_cell_formula_units_Z   1
loop_
 _symmetry_equiv_pos_site_id
 _symmetry_equiv_pos_as_xyz
  1  'x, y, z'
loop_
 _atom_site_type_symbol
 _atom_site_label
 _atom_site_symmetry_multiplicity
 _atom_site_fract_x
 _atom_site_fract_y
 _atom_site_fract_z
 _atom_site_occupancy
  La  La0  1  0.000000  0.000000  0.000000  1
  Ta  Ta1  1  0.000000  0.000000  0.500000  1
  Nb  Nb2  1  0.000000  0.000000  0.268572  1
  Nb  Nb3  1  0.000000  0.000000  0.731428  1
  Nb  Nb4  1  0.504746  0.009493  0.271569  1
  Nb  Nb5  1  0.495254  0.990507  0.728431  1
  Nb  Nb6  1  0.990507  0.495254  0.271569  1
  Nb  Nb7  1  0.009493  0.504746  0.728431  1
  Nb  Nb8  1  0.504746  0.495254  0.271569  1
  Nb  Nb9  1  0.495254  0.504746  0.728431  1
  S  S10  1  0.333333  0.666667  0.609530  1
  S  S11  1  0.666667  0.333333  0.390470  1
  S  S12  1  0.666667  0.333333  0.151638  1
  S  S13  1  0.333333  0.666667  0.848362  1
  S  S14  1  0.169954  0.339907  0.153762  1
  S  S15  1  0.830046  0.660093  0.846238  1
  S  S16  1  0.660093  0.830046  0.153762  1
  S  S17  1  0.833119  0.666239  0.611597  1
  S  S18  1  0.339907  0.169954  0.846238  1
  S  S19  1  0.166881  0.333761  0.388403  1
  S  S20  1  0.169954  0.830046  0.153762  1
  S  S21  1  0.333761  0.166881  0.611597  1
  S  S22  1  0.830046  0.169954  0.846238  1
  S  S23  1  0.666239  0.833119  0.388403  1
  S  S24  1  0.833119  0.166881  0.611597  1
  S  S25  1  0.166881  0.833119  0.388403  1
