# generated using pymatgen
data_Sc4FeMoOs6
_symmetry_space_group_name_H-M   'P 1'
_cell_length_a   5.15908561
_cell_length_b   5.22077031
_cell_length_c   8.66239100
_cell_angle_alpha   90.00000000
_cell_angle_beta   90.00000000
_cell_angle_gamma   120.92314616
_symmetry_Int_Tables_number   1
_chemical_formula_structural   Sc4FeMoOs6
_chemical_formula_sum   'Sc4 Fe1 Mo1 Os6'
_cell_volume   200.15211987
_cell_formula_units_Z   1
loop_
 _symmetry_equiv_pos_site_id
 _symmetry_equiv_pos_as_xyz
  1  'x, y, z'
loop_
 _atom_site_type_symbol
 _atom_site_label
 _atom_site_symmetry_multiplicity
 _atom_site_fract_x
 _atom_site_fract_y
 _atom_site_fract_z
 _atom_site_occupancy
  Sc  Sc0  1  0.335270  0.664113  0.438603  1
  Sc  Sc1  1  0.665810  0.334390  0.567319  1
  Sc  Sc2  1  0.665810  0.334390  0.932681  1
  Sc  Sc3  1  0.335270  0.664113  0.061397  1
  Fe  Fe4  1  0.168471  0.339728  0.750000  1
  Mo  Mo5  1  0.338694  0.168096  0.250000  1
  Os  Os6  1  0.174563  0.829412  0.750000  1
  Os  Os7  1  0.829641  0.658842  0.250000  1
  Os  Os8  1  0.653119  0.828865  0.750000  1
  Os  Os9  1  0.002965  0.002734  0.995128  1
  Os  Os10  1  0.827420  0.172584  0.250000  1
  Os  Os11  1  0.002965  0.002734  0.504872  1
