# generated using pymatgen
data_Pr3ThAg3As8Au
_symmetry_space_group_name_H-M   'P 1'
_cell_length_a   5.82631400
_cell_length_b   5.84835752
_cell_length_c   20.92016745
_cell_angle_alpha   89.75856951
_cell_angle_beta   90.00000000
_cell_angle_gamma   90.00000000
_symmetry_Int_Tables_number   1
_chemical_formula_structural   Pr3ThAg3As8Au
_chemical_formula_sum   'Pr6 Th2 Ag6 As16 Au2'
_cell_volume   712.83514068
_cell_formula_units_Z   2
loop_
 _symmetry_equiv_pos_site_id
 _symmetry_equiv_pos_as_xyz
  1  'x, y, z'
loop_
 _atom_site_type_symbol
 _atom_site_label
 _atom_site_symmetry_multiplicity
 _atom_site_fract_x
 _atom_site_fract_y
 _atom_site_fract_z
 _atom_site_occupancy
  Pr  Pr0  1  0.751686  0.988253  0.882879  1
  Pr  Pr1  1  0.251686  0.011747  0.117121  1
  Pr  Pr2  1  0.751378  0.489533  0.611845  1
  Pr  Pr3  1  0.251378  0.510467  0.388155  1
  Pr  Pr4  1  0.248219  0.485709  0.886937  1
  Pr  Pr5  1  0.748219  0.514291  0.113063  1
  Th  Th6  1  0.248280  0.992499  0.615280  1
  Th  Th7  1  0.748280  0.007501  0.384720  1
  Ag  Ag8  1  0.499716  0.733517  0.749456  1
  Ag  Ag9  1  0.999716  0.266483  0.250544  1
  Ag  Ag10  1  0.500197  0.267622  0.250694  1
  Ag  Ag11  1  0.000197  0.732378  0.749306  1
  Ag  Ag12  1  0.500358  0.235960  0.749323  1
  Ag  Ag13  1  0.000358  0.764040  0.250677  1
  As  As14  1  0.749180  0.989302  0.657482  1
  As  As15  1  0.249180  0.010698  0.342518  1
  As  As16  1  0.250074  0.986973  0.837957  1
  As  As17  1  0.750074  0.013027  0.162043  1
  As  As18  1  0.250494  0.490592  0.656406  1
  As  As19  1  0.750494  0.509408  0.343594  1
  As  As20  1  0.750027  0.486750  0.838181  1
  As  As21  1  0.250027  0.513250  0.161819  1
  As  As22  1  0.003465  0.230147  0.499946  1
  As  As23  1  0.503465  0.769853  0.500054  1
  As  As24  1  0.982658  0.223953  0.999598  1
  As  As25  1  0.482658  0.776047  0.000402  1
  As  As26  1  0.996157  0.769835  0.499854  1
  As  As27  1  0.496157  0.230165  0.500146  1
  As  As28  1  0.017153  0.775734  0.000665  1
  As  As29  1  0.517153  0.224266  0.999335  1
  Au  Au30  1  0.500959  0.766440  0.250674  1
  Au  Au31  1  0.000959  0.233560  0.749326  1
