# generated using pymatgen
data_Th5Nb3(Ni4As3)4
_symmetry_space_group_name_H-M   'P 1'
_cell_length_a   12.83349700
_cell_length_b   12.83349775
_cell_length_c   3.96586700
_cell_angle_alpha   90.00000000
_cell_angle_beta   90.00000000
_cell_angle_gamma   120.00000064
_symmetry_Int_Tables_number   1
_chemical_formula_structural   Th5Nb3(Ni4As3)4
_chemical_formula_sum   'Th5 Nb3 Ni16 As12'
_cell_volume   565.66437308
_cell_formula_units_Z   1
loop_
 _symmetry_equiv_pos_site_id
 _symmetry_equiv_pos_as_xyz
  1  'x, y, z'
loop_
 _atom_site_type_symbol
 _atom_site_label
 _atom_site_symmetry_multiplicity
 _atom_site_fract_x
 _atom_site_fract_y
 _atom_site_fract_z
 _atom_site_occupancy
  Th  Th0  1  0.187747  0.187747  0.500000  1
  Th  Th1  1  0.812253  0.000000  0.500000  1
  Th  Th2  1  0.000000  0.812253  0.500000  1
  Th  Th3  1  0.333333  0.666667  0.000000  1
  Th  Th4  1  0.666667  0.333333  0.000000  1
  Nb  Nb5  1  0.568723  0.568723  0.000000  1
  Nb  Nb6  1  0.431277  0.000000  0.000000  1
  Nb  Nb7  1  0.000000  0.431277  0.000000  1
  Ni  Ni8  1  0.722062  0.722062  0.500000  1
  Ni  Ni9  1  0.277938  0.000000  0.500000  1
  Ni  Ni10  1  0.000000  0.277938  0.500000  1
  Ni  Ni11  1  0.185377  0.376086  0.000000  1
  Ni  Ni12  1  0.623914  0.809291  0.000000  1
  Ni  Ni13  1  0.190709  0.814623  0.000000  1
  Ni  Ni14  1  0.809291  0.623914  0.000000  1
  Ni  Ni15  1  0.814623  0.190709  0.000000  1
  Ni  Ni16  1  0.376086  0.185377  0.000000  1
  Ni  Ni17  1  0.363568  0.485411  0.500000  1
  Ni  Ni18  1  0.514589  0.878158  0.500000  1
  Ni  Ni19  1  0.121842  0.636432  0.500000  1
  Ni  Ni20  1  0.878158  0.514589  0.500000  1
  Ni  Ni21  1  0.636432  0.121842  0.500000  1
  Ni  Ni22  1  0.485411  0.363568  0.500000  1
  Ni  Ni23  1  0.000000  0.000000  0.000000  1
  As  As24  1  0.818945  0.818945  0.000000  1
  As  As25  1  0.181055  0.000000  0.000000  1
  As  As26  1  0.000000  0.181055  0.000000  1
  As  As27  1  0.167939  0.476793  0.500000  1
  As  As28  1  0.523207  0.691146  0.500000  1
  As  As29  1  0.308854  0.832061  0.500000  1
  As  As30  1  0.691146  0.523207  0.500000  1
  As  As31  1  0.832061  0.308854  0.500000  1
  As  As32  1  0.476793  0.167939  0.500000  1
  As  As33  1  0.370842  0.370842  0.000000  1
  As  As34  1  0.629158  0.000000  0.000000  1
  As  As35  1  0.000000  0.629158  0.000000  1
