# generated using pymatgen
data_Er9MgCd3Re
_symmetry_space_group_name_H-M   'P 1'
_cell_length_a   9.44873500
_cell_length_b   9.44873565
_cell_length_c   9.62594600
_cell_angle_alpha   90.00000000
_cell_angle_beta   90.00000000
_cell_angle_gamma   120.00000124
_symmetry_Int_Tables_number   1
_chemical_formula_structural   Er9MgCd3Re
_chemical_formula_sum   'Er18 Mg2 Cd6 Re2'
_cell_volume   744.25440667
_cell_formula_units_Z   2
loop_
 _symmetry_equiv_pos_site_id
 _symmetry_equiv_pos_as_xyz
  1  'x, y, z'
loop_
 _atom_site_type_symbol
 _atom_site_label
 _atom_site_symmetry_multiplicity
 _atom_site_fract_x
 _atom_site_fract_y
 _atom_site_fract_z
 _atom_site_occupancy
  Er  Er0  1  0.208661  0.791339  0.443345  1
  Er  Er1  1  0.208661  0.417322  0.443345  1
  Er  Er2  1  0.582678  0.791339  0.443345  1
  Er  Er3  1  0.791339  0.208661  0.556655  1
  Er  Er4  1  0.791339  0.582678  0.556655  1
  Er  Er5  1  0.417322  0.208661  0.556655  1
  Er  Er6  1  0.791339  0.208661  0.943345  1
  Er  Er7  1  0.791339  0.582678  0.943345  1
  Er  Er8  1  0.417322  0.208661  0.943345  1
  Er  Er9  1  0.208661  0.791339  0.056655  1
  Er  Er10  1  0.208661  0.417322  0.056655  1
  Er  Er11  1  0.582678  0.791339  0.056655  1
  Er  Er12  1  0.539410  0.460590  0.250000  1
  Er  Er13  1  0.539410  0.078821  0.250000  1
  Er  Er14  1  0.921179  0.460590  0.250000  1
  Er  Er15  1  0.460590  0.539410  0.750000  1
  Er  Er16  1  0.460590  0.921179  0.750000  1
  Er  Er17  1  0.078821  0.539410  0.750000  1
  Mg  Mg18  1  0.000000  0.000000  0.500000  1
  Mg  Mg19  1  0.000000  0.000000  0.000000  1
  Cd  Cd20  1  0.888706  0.111294  0.250000  1
  Cd  Cd21  1  0.888706  0.777412  0.250000  1
  Cd  Cd22  1  0.222588  0.111294  0.250000  1
  Cd  Cd23  1  0.111294  0.888706  0.750000  1
  Cd  Cd24  1  0.111294  0.222588  0.750000  1
  Cd  Cd25  1  0.777412  0.888706  0.750000  1
  Re  Re26  1  0.333333  0.666667  0.250000  1
  Re  Re27  1  0.666667  0.333333  0.750000  1
