# generated using pymatgen
data_PrNd5(PtRh5)3
_symmetry_space_group_name_H-M   'P 1'
_cell_length_a   5.38060501
_cell_length_b   5.38035879
_cell_length_c   17.73833300
_cell_angle_alpha   90.00000000
_cell_angle_beta   90.00000000
_cell_angle_gamma   120.00929217
_symmetry_Int_Tables_number   1
_chemical_formula_structural   PrNd5(PtRh5)3
_chemical_formula_sum   'Pr1 Nd5 Pt3 Rh15'
_cell_volume   444.67745588
_cell_formula_units_Z   1
loop_
 _symmetry_equiv_pos_site_id
 _symmetry_equiv_pos_as_xyz
  1  'x, y, z'
loop_
 _atom_site_type_symbol
 _atom_site_label
 _atom_site_symmetry_multiplicity
 _atom_site_fract_x
 _atom_site_fract_y
 _atom_site_fract_z
 _atom_site_occupancy
  Pr  Pr0  1  0.333333  0.666669  0.750000  1
  Nd  Nd1  1  0.333338  0.666663  0.543255  1
  Nd  Nd2  1  0.666664  0.333322  0.044100  1
  Nd  Nd3  1  0.666664  0.333322  0.455900  1
  Nd  Nd4  1  0.333338  0.666663  0.956745  1
  Nd  Nd5  1  0.666663  0.333343  0.250000  1
  Pt  Pt6  1  0.000011  0.999968  0.250000  1
  Pt  Pt7  1  0.999993  0.999978  0.999722  1
  Pt  Pt8  1  0.999993  0.999978  0.500278  1
  Rh  Rh9  1  0.168128  0.336252  0.127254  1
  Rh  Rh10  1  0.832643  0.665299  0.627924  1
  Rh  Rh11  1  0.663744  0.831877  0.127252  1
  Rh  Rh12  1  0.168136  0.831867  0.127240  1
  Rh  Rh13  1  0.832639  0.167371  0.627905  1
  Rh  Rh14  1  0.334717  0.167366  0.627915  1
  Rh  Rh15  1  0.832643  0.665299  0.872076  1
  Rh  Rh16  1  0.832639  0.167371  0.872095  1
  Rh  Rh17  1  0.334717  0.167366  0.872085  1
  Rh  Rh18  1  0.663744  0.831877  0.372748  1
  Rh  Rh19  1  0.168136  0.831867  0.372760  1
  Rh  Rh20  1  0.168128  0.336252  0.372746  1
  Rh  Rh21  1  0.999989  0.000028  0.750000  1
  Rh  Rh22  1  0.333328  0.666684  0.250000  1
  Rh  Rh23  1  0.666673  0.333320  0.750000  1
