# generated using pymatgen
data_Tb2Dy8(GaSb)3
_symmetry_space_group_name_H-M   'P 1'
_cell_length_a   8.79865017
_cell_length_b   8.80055839
_cell_length_c   6.48162900
_cell_angle_alpha   90.00000000
_cell_angle_beta   90.00000000
_cell_angle_gamma   120.01500403
_symmetry_Int_Tables_number   1
_chemical_formula_structural   Tb2Dy8(GaSb)3
_chemical_formula_sum   'Tb2 Dy8 Ga3 Sb3'
_cell_volume   434.58566693
_cell_formula_units_Z   1
loop_
 _symmetry_equiv_pos_site_id
 _symmetry_equiv_pos_as_xyz
  1  'x, y, z'
loop_
 _atom_site_type_symbol
 _atom_site_label
 _atom_site_symmetry_multiplicity
 _atom_site_fract_x
 _atom_site_fract_y
 _atom_site_fract_z
 _atom_site_occupancy
  Tb  Tb0  1  0.754669  0.999980  0.750000  1
  Tb  Tb1  1  0.242607  0.232156  0.750000  1
  Dy  Dy2  1  0.010434  0.767692  0.750000  1
  Dy  Dy3  1  0.012054  0.248916  0.250000  1
  Dy  Dy4  1  0.763235  0.751136  0.250000  1
  Dy  Dy5  1  0.235747  0.999961  0.250000  1
  Dy  Dy6  1  0.327280  0.666755  0.497457  1
  Dy  Dy7  1  0.660606  0.333301  0.002559  1
  Dy  Dy8  1  0.660606  0.333301  0.497441  1
  Dy  Dy9  1  0.327280  0.666755  0.002543  1
  Ga  Ga10  1  0.397779  0.999897  0.750000  1
  Ga  Ga11  1  0.395566  0.396229  0.250000  1
  Ga  Ga12  1  0.999318  0.603724  0.250000  1
  Sb  Sb13  1  0.997571  0.392801  0.750000  1
  Sb  Sb14  1  0.605069  0.607389  0.750000  1
  Sb  Sb15  1  0.610178  0.000006  0.250000  1
