# generated using pymatgen
data_TmMn2FeNi2P3
_symmetry_space_group_name_H-M   'P 1'
_cell_length_a   3.61486400
_cell_length_b   10.37415500
_cell_length_c   12.09506100
_cell_angle_alpha   90.00000000
_cell_angle_beta   90.00000000
_cell_angle_gamma   90.00000000
_symmetry_Int_Tables_number   1
_chemical_formula_structural   TmMn2FeNi2P3
_chemical_formula_sum   'Tm4 Mn8 Fe4 Ni8 P12'
_cell_volume   453.57881100
_cell_formula_units_Z   4
loop_
 _symmetry_equiv_pos_site_id
 _symmetry_equiv_pos_as_xyz
  1  'x, y, z'
loop_
 _atom_site_type_symbol
 _atom_site_label
 _atom_site_symmetry_multiplicity
 _atom_site_fract_x
 _atom_site_fract_y
 _atom_site_fract_z
 _atom_site_occupancy
  Tm  Tm0  1  0.250000  0.580816  0.709751  1
  Tm  Tm1  1  0.250000  0.919184  0.209751  1
  Tm  Tm2  1  0.750000  0.419184  0.290249  1
  Tm  Tm3  1  0.750000  0.080816  0.790249  1
  Mn  Mn4  1  0.250000  0.711584  0.994330  1
  Mn  Mn5  1  0.250000  0.788416  0.494330  1
  Mn  Mn6  1  0.750000  0.288416  0.005670  1
  Mn  Mn7  1  0.750000  0.211584  0.505670  1
  Mn  Mn8  1  0.250000  0.407882  0.491826  1
  Mn  Mn9  1  0.250000  0.092118  0.991826  1
  Mn  Mn10  1  0.750000  0.592118  0.508174  1
  Mn  Mn11  1  0.750000  0.907882  0.008174  1
  Fe  Fe12  1  0.250000  0.463198  0.932496  1
  Fe  Fe13  1  0.250000  0.036802  0.432496  1
  Fe  Fe14  1  0.750000  0.536802  0.067504  1
  Fe  Fe15  1  0.750000  0.963198  0.567504  1
  Ni  Ni16  1  0.250000  0.226372  0.178857  1
  Ni  Ni17  1  0.250000  0.273628  0.678857  1
  Ni  Ni18  1  0.750000  0.773628  0.821143  1
  Ni  Ni19  1  0.750000  0.726372  0.321143  1
  Ni  Ni20  1  0.250000  0.880618  0.700968  1
  Ni  Ni21  1  0.250000  0.619382  0.200968  1
  Ni  Ni22  1  0.750000  0.119382  0.299032  1
  Ni  Ni23  1  0.750000  0.380618  0.799032  1
  P  P24  1  0.250000  0.424368  0.110658  1
  P  P25  1  0.250000  0.075632  0.610658  1
  P  P26  1  0.750000  0.575632  0.889342  1
  P  P27  1  0.750000  0.924368  0.389342  1
  P  P28  1  0.250000  0.265377  0.869591  1
  P  P29  1  0.250000  0.234623  0.369591  1
  P  P30  1  0.750000  0.734623  0.130409  1
  P  P31  1  0.750000  0.765377  0.630409  1
  P  P32  1  0.250000  0.597780  0.387582  1
  P  P33  1  0.250000  0.902220  0.887582  1
  P  P34  1  0.750000  0.402220  0.612418  1
  P  P35  1  0.750000  0.097780  0.112418  1
