# generated using pymatgen
data_K7Rb5Be4O10
_symmetry_space_group_name_H-M   'P 1'
_cell_length_a   6.63194020
_cell_length_b   8.99481078
_cell_length_c   8.99617875
_cell_angle_alpha   77.61037023
_cell_angle_beta   72.34800643
_cell_angle_gamma   72.34845058
_symmetry_Int_Tables_number   1
_chemical_formula_structural   K7Rb5Be4O10
_chemical_formula_sum   'K7 Rb5 Be4 O10'
_cell_volume   482.84241515
_cell_formula_units_Z   1
loop_
 _symmetry_equiv_pos_site_id
 _symmetry_equiv_pos_as_xyz
  1  'x, y, z'
loop_
 _atom_site_type_symbol
 _atom_site_label
 _atom_site_symmetry_multiplicity
 _atom_site_fract_x
 _atom_site_fract_y
 _atom_site_fract_z
 _atom_site_occupancy
  K  K0  1  0.506769  0.274864  0.721554  1
  K  K1  1  0.998542  0.777994  0.224419  1
  K  K2  1  0.499475  0.724706  0.276281  1
  K  K3  1  0.006061  0.222839  0.774893  1
  K  K4  1  0.752212  0.481733  0.016837  1
  K  K5  1  0.252147  0.985114  0.513494  1
  K  K6  1  0.752309  0.014711  0.483895  1
  Rb  Rb7  1  0.756944  0.902558  0.900393  1
  Rb  Rb8  1  0.249651  0.403568  0.407276  1
  Rb  Rb9  1  0.748198  0.597539  0.595780  1
  Rb  Rb10  1  0.255147  0.091343  0.094850  1
  Rb  Rb11  1  0.252089  0.507969  0.990717  1
  Be  Be12  1  0.161034  0.660428  0.656004  1
  Be  Be13  1  0.665530  0.155657  0.158309  1
  Be  Be14  1  0.349168  0.840653  0.836096  1
  Be  Be15  1  0.845229  0.338114  0.340837  1
  O  O16  1  0.109963  0.740736  0.492211  1
  O  O17  1  0.624316  0.230870  0.991007  1
  O  O18  1  0.112857  0.495166  0.732925  1
  O  O19  1  0.611081  0.993512  0.239822  1
  O  O20  1  0.393034  0.765197  0.003064  1
  O  O21  1  0.894033  0.258699  0.505448  1
  O  O22  1  0.395283  0.006371  0.757630  1
  O  O23  1  0.880137  0.507645  0.267899  1
  O  O24  1  0.260139  0.748652  0.744351  1
  O  O25  1  0.762553  0.245462  0.246109  1
