# generated using pymatgen
data_Li4La(Cu2P3)2
_symmetry_space_group_name_H-M   'P 1'
_cell_length_a   8.08145849
_cell_length_b   8.08145943
_cell_length_c   8.08145895
_cell_angle_alpha   151.49749579
_cell_angle_beta   114.28900093
_cell_angle_gamma   73.13392388
_symmetry_Int_Tables_number   1
_chemical_formula_structural   Li4La(Cu2P3)2
_chemical_formula_sum   'Li4 La1 Cu4 P6'
_cell_volume   226.46052084
_cell_formula_units_Z   1
loop_
 _symmetry_equiv_pos_site_id
 _symmetry_equiv_pos_as_xyz
  1  'x, y, z'
loop_
 _atom_site_type_symbol
 _atom_site_label
 _atom_site_symmetry_multiplicity
 _atom_site_fract_x
 _atom_site_fract_y
 _atom_site_fract_z
 _atom_site_occupancy
  Li  Li0  1  0.717198  0.717198  0.000000  1
  Li  Li1  1  0.661620  0.500000  0.161620  1
  Li  Li2  1  0.338380  0.500000  0.838380  1
  Li  Li3  1  0.282802  0.282802  0.000000  1
  La  La4  1  0.000000  0.000000  0.000000  1
  Cu  Cu5  1  0.905780  0.176314  0.729467  1
  Cu  Cu6  1  0.553153  0.823686  0.729467  1
  Cu  Cu7  1  0.446847  0.176314  0.270533  1
  Cu  Cu8  1  0.094220  0.823686  0.270533  1
  P  P9  1  0.976620  0.347481  0.629139  1
  P  P10  1  0.718341  0.347481  0.370861  1
  P  P11  1  0.585630  0.085630  0.500000  1
  P  P12  1  0.414370  0.914370  0.500000  1
  P  P13  1  0.281659  0.652519  0.629139  1
  P  P14  1  0.023380  0.652519  0.370861  1
