# generated using pymatgen
data_Ca3La(ZnGa)4
_symmetry_space_group_name_H-M   'P 1'
_cell_length_a   7.36820061
_cell_length_b   4.55922900
_cell_length_c   7.79198597
_cell_angle_alpha   90.00000000
_cell_angle_beta   90.12880451
_cell_angle_gamma   90.00000000
_symmetry_Int_Tables_number   1
_chemical_formula_structural   Ca3La(ZnGa)4
_chemical_formula_sum   'Ca3 La1 Zn4 Ga4'
_cell_volume   261.75796915
_cell_formula_units_Z   1
loop_
 _symmetry_equiv_pos_site_id
 _symmetry_equiv_pos_as_xyz
  1  'x, y, z'
loop_
 _atom_site_type_symbol
 _atom_site_label
 _atom_site_symmetry_multiplicity
 _atom_site_fract_x
 _atom_site_fract_y
 _atom_site_fract_z
 _atom_site_occupancy
  Ca  Ca0  1  0.000917  0.250000  0.290336  1
  Ca  Ca1  1  0.999857  0.749999  0.708261  1
  Ca  Ca2  1  0.499392  0.749999  0.786939  1
  La  La3  1  0.500245  0.250000  0.207190  1
  Zn  Zn4  1  0.190119  0.749999  0.083291  1
  Zn  Zn5  1  0.694435  0.749999  0.419653  1
  Zn  Zn6  1  0.303181  0.250000  0.585593  1
  Zn  Zn7  1  0.809038  0.250000  0.914922  1
  Ga  Ga8  1  0.801958  0.749999  0.088934  1
  Ga  Ga9  1  0.304543  0.749999  0.414095  1
  Ga  Ga10  1  0.699579  0.250000  0.588402  1
  Ga  Ga11  1  0.196738  0.250000  0.912384  1
