# generated using pymatgen
data_Y3Ti2Sn3O
_symmetry_space_group_name_H-M   'P 1'
_cell_length_a   8.61516500
_cell_length_b   8.61516410
_cell_length_c   5.87046300
_cell_angle_alpha   90.00000000
_cell_angle_beta   90.00000000
_cell_angle_gamma   119.99999961
_symmetry_Int_Tables_number   1
_chemical_formula_structural   Y3Ti2Sn3O
_chemical_formula_sum   'Y6 Ti4 Sn6 O2'
_cell_volume   377.33765182
_cell_formula_units_Z   2
loop_
 _symmetry_equiv_pos_site_id
 _symmetry_equiv_pos_as_xyz
  1  'x, y, z'
loop_
 _atom_site_type_symbol
 _atom_site_label
 _atom_site_symmetry_multiplicity
 _atom_site_fract_x
 _atom_site_fract_y
 _atom_site_fract_z
 _atom_site_occupancy
  Y  Y0  1  0.000000  0.770478  0.750000  1
  Y  Y1  1  0.000000  0.229522  0.250000  1
  Y  Y2  1  0.229522  0.229522  0.750000  1
  Y  Y3  1  0.229522  0.000000  0.250000  1
  Y  Y4  1  0.770478  0.770478  0.250000  1
  Y  Y5  1  0.770478  0.000000  0.750000  1
  Ti  Ti6  1  0.333333  0.666667  0.000000  1
  Ti  Ti7  1  0.333333  0.666667  0.500000  1
  Ti  Ti8  1  0.666667  0.333333  0.000000  1
  Ti  Ti9  1  0.666667  0.333333  0.500000  1
  Sn  Sn10  1  0.000000  0.590107  0.250000  1
  Sn  Sn11  1  0.000000  0.409893  0.750000  1
  Sn  Sn12  1  0.409893  0.409893  0.250000  1
  Sn  Sn13  1  0.590107  0.590107  0.750000  1
  Sn  Sn14  1  0.409893  0.000000  0.750000  1
  Sn  Sn15  1  0.590107  0.000000  0.250000  1
  O  O16  1  0.000000  0.000000  0.000000  1
  O  O17  1  0.000000  0.000000  0.500000  1
