# generated using pymatgen
data_Hf2Be9Re
_symmetry_space_group_name_H-M   'P 1'
_cell_length_a   7.55474153
_cell_length_b   7.55474179
_cell_length_c   7.55474210
_cell_angle_alpha   35.23809669
_cell_angle_beta   35.23809280
_cell_angle_gamma   35.23808939
_symmetry_Int_Tables_number   1
_chemical_formula_structural   Hf2Be9Re
_chemical_formula_sum   'Hf2 Be9 Re1'
_cell_volume   128.21658738
_cell_formula_units_Z   1
loop_
 _symmetry_equiv_pos_site_id
 _symmetry_equiv_pos_as_xyz
  1  'x, y, z'
loop_
 _atom_site_type_symbol
 _atom_site_label
 _atom_site_symmetry_multiplicity
 _atom_site_fract_x
 _atom_site_fract_y
 _atom_site_fract_z
 _atom_site_occupancy
  Hf  Hf0  1  0.142844  0.142844  0.142844  1
  Hf  Hf1  1  0.995464  0.995464  0.995464  1
  Be  Be2  1  0.416608  0.918005  0.416608  1
  Be  Be3  1  0.416608  0.416608  0.918005  1
  Be  Be4  1  0.918005  0.416608  0.416608  1
  Be  Be5  1  0.587499  0.072896  0.587499  1
  Be  Be6  1  0.587499  0.587499  0.072896  1
  Be  Be7  1  0.072896  0.587499  0.587499  1
  Be  Be8  1  0.667357  0.667357  0.667357  1
  Be  Be9  1  0.336430  0.336430  0.336430  1
  Be  Be10  1  0.500599  0.500599  0.500599  1
  Re  Re11  1  0.858192  0.858192  0.858192  1
