# generated using pymatgen
data_TbScMnB6
_symmetry_space_group_name_H-M   'P 1'
_cell_length_a   3.46101500
_cell_length_b   8.95682200
_cell_length_c   11.34943200
_cell_angle_alpha   90.00000000
_cell_angle_beta   90.00000000
_cell_angle_gamma   90.00000000
_symmetry_Int_Tables_number   1
_chemical_formula_structural   TbScMnB6
_chemical_formula_sum   'Tb4 Sc4 Mn4 B24'
_cell_volume   351.82893376
_cell_formula_units_Z   4
loop_
 _symmetry_equiv_pos_site_id
 _symmetry_equiv_pos_as_xyz
  1  'x, y, z'
loop_
 _atom_site_type_symbol
 _atom_site_label
 _atom_site_symmetry_multiplicity
 _atom_site_fract_x
 _atom_site_fract_y
 _atom_site_fract_z
 _atom_site_occupancy
  Tb  Tb0  1  0.000000  0.322732  0.414873  1
  Tb  Tb1  1  0.000000  0.677268  0.585127  1
  Tb  Tb2  1  0.000000  0.822732  0.085127  1
  Tb  Tb3  1  0.000000  0.177268  0.914873  1
  Sc  Sc4  1  0.000000  0.943197  0.368926  1
  Sc  Sc5  1  0.000000  0.056803  0.631074  1
  Sc  Sc6  1  0.000000  0.443197  0.131074  1
  Sc  Sc7  1  0.000000  0.556803  0.868926  1
  Mn  Mn8  1  0.000000  0.640733  0.317726  1
  Mn  Mn9  1  0.000000  0.359267  0.682274  1
  Mn  Mn10  1  0.000000  0.140733  0.182274  1
  Mn  Mn11  1  0.000000  0.859267  0.817726  1
  B  B12  1  0.500000  0.555681  0.430582  1
  B  B13  1  0.500000  0.444319  0.569418  1
  B  B14  1  0.500000  0.055681  0.069418  1
  B  B15  1  0.500000  0.944319  0.930582  1
  B  B16  1  0.500000  0.751907  0.416128  1
  B  B17  1  0.500000  0.248093  0.583872  1
  B  B18  1  0.500000  0.251907  0.083872  1
  B  B19  1  0.500000  0.748093  0.916128  1
  B  B20  1  0.500000  0.793004  0.265115  1
  B  B21  1  0.500000  0.206996  0.734885  1
  B  B22  1  0.500000  0.293004  0.234885  1
  B  B23  1  0.500000  0.706996  0.765115  1
  B  B24  1  0.500000  0.629319  0.184262  1
  B  B25  1  0.500000  0.370681  0.815738  1
  B  B26  1  0.500000  0.129319  0.315738  1
  B  B27  1  0.500000  0.870681  0.684262  1
  B  B28  1  0.500000  0.983909  0.213620  1
  B  B29  1  0.500000  0.016091  0.786380  1
  B  B30  1  0.500000  0.483909  0.286380  1
  B  B31  1  0.500000  0.516091  0.713620  1
  B  B32  1  0.500000  0.596271  0.025945  1
  B  B33  1  0.500000  0.403729  0.974055  1
  B  B34  1  0.500000  0.096271  0.474055  1
  B  B35  1  0.500000  0.903729  0.525945  1
