# generated using pymatgen
data_Pr16Cd4IrOs2Ru
_symmetry_space_group_name_H-M   'P 1'
_cell_length_a   10.03421164
_cell_length_b   10.04224565
_cell_length_c   10.07843000
_cell_angle_alpha   59.88074151
_cell_angle_beta   59.85412479
_cell_angle_gamma   59.75847924
_symmetry_Int_Tables_number   1
_chemical_formula_structural   Pr16Cd4IrOs2Ru
_chemical_formula_sum   'Pr16 Cd4 Ir1 Os2 Ru1'
_cell_volume   715.35727239
_cell_formula_units_Z   1
loop_
 _symmetry_equiv_pos_site_id
 _symmetry_equiv_pos_as_xyz
  1  'x, y, z'
loop_
 _atom_site_type_symbol
 _atom_site_label
 _atom_site_symmetry_multiplicity
 _atom_site_fract_x
 _atom_site_fract_y
 _atom_site_fract_z
 _atom_site_occupancy
  Pr  Pr0  1  0.345095  0.346914  0.347918  1
  Pr  Pr1  1  0.345095  0.346914  0.960071  1
  Pr  Pr2  1  0.344848  0.960567  0.347293  1
  Pr  Pr3  1  0.961901  0.345423  0.346338  1
  Pr  Pr4  1  0.810525  0.190758  0.191104  1
  Pr  Pr5  1  0.190938  0.808960  0.809807  1
  Pr  Pr6  1  0.190938  0.808960  0.190295  1
  Pr  Pr7  1  0.810525  0.190758  0.807613  1
  Pr  Pr8  1  0.191333  0.190423  0.809122  1
  Pr  Pr9  1  0.811519  0.807255  0.190613  1
  Pr  Pr10  1  0.939517  0.559245  0.561263  1
  Pr  Pr11  1  0.558535  0.939567  0.939908  1
  Pr  Pr12  1  0.558535  0.939567  0.561991  1
  Pr  Pr13  1  0.939517  0.559245  0.939975  1
  Pr  Pr14  1  0.560995  0.562151  0.938427  1
  Pr  Pr15  1  0.940622  0.941246  0.559066  1
  Cd  Cd16  1  0.579217  0.579293  0.579732  1
  Cd  Cd17  1  0.579217  0.579293  0.261758  1
  Cd  Cd18  1  0.579291  0.260875  0.579917  1
  Cd  Cd19  1  0.261118  0.579242  0.579820  1
  Ir  Ir20  1  0.580848  0.140252  0.139450  1
  Os  Os21  1  0.140247  0.138579  0.138091  1
  Os  Os22  1  0.140247  0.138579  0.583083  1
  Ru  Ru23  1  0.139379  0.585934  0.137344  1
