# generated using pymatgen
data_Er5Tm5(IrPb3)2
_symmetry_space_group_name_H-M   'P 1'
_cell_length_a   9.14125204
_cell_length_b   9.14125104
_cell_length_c   6.78643200
_cell_angle_alpha   90.00000000
_cell_angle_beta   90.00000000
_cell_angle_gamma   119.98921415
_symmetry_Int_Tables_number   1
_chemical_formula_structural   Er5Tm5(IrPb3)2
_chemical_formula_sum   'Er5 Tm5 Ir2 Pb6'
_cell_volume   491.16865530
_cell_formula_units_Z   1
loop_
 _symmetry_equiv_pos_site_id
 _symmetry_equiv_pos_as_xyz
  1  'x, y, z'
loop_
 _atom_site_type_symbol
 _atom_site_label
 _atom_site_symmetry_multiplicity
 _atom_site_fract_x
 _atom_site_fract_y
 _atom_site_fract_z
 _atom_site_occupancy
  Er  Er0  1  0.764621  0.764621  0.250000  1
  Er  Er1  1  0.333312  0.666664  0.500009  1
  Er  Er2  1  0.666664  0.333312  0.500009  1
  Er  Er3  1  0.333312  0.666664  0.999991  1
  Er  Er4  1  0.666664  0.333312  0.999991  1
  Tm  Tm5  1  0.999996  0.764829  0.750000  1
  Tm  Tm6  1  0.235199  0.000008  0.250000  1
  Tm  Tm7  1  0.235088  0.235088  0.750000  1
  Tm  Tm8  1  0.000008  0.235199  0.250000  1
  Tm  Tm9  1  0.764829  0.999996  0.750000  1
  Ir  Ir10  1  0.000197  0.000197  0.999802  1
  Ir  Ir11  1  0.000197  0.000197  0.500198  1
  Pb  Pb12  1  0.405160  0.000005  0.750000  1
  Pb  Pb13  1  0.594802  0.000069  0.250000  1
  Pb  Pb14  1  0.405083  0.405083  0.250000  1
  Pb  Pb15  1  0.000069  0.594802  0.250000  1
  Pb  Pb16  1  0.000005  0.405160  0.750000  1
  Pb  Pb17  1  0.594794  0.594794  0.750000  1
