# generated using pymatgen
data_Sm2SiNiBr2
_symmetry_space_group_name_H-M   'P 1'
_cell_length_a   4.09872700
_cell_length_b   4.09872787
_cell_length_c   11.40747000
_cell_angle_alpha   90.00000000
_cell_angle_beta   90.00000000
_cell_angle_gamma   119.99998490
_symmetry_Int_Tables_number   1
_chemical_formula_structural   Sm2SiNiBr2
_chemical_formula_sum   'Sm2 Si1 Ni1 Br2'
_cell_volume   165.96561161
_cell_formula_units_Z   1
loop_
 _symmetry_equiv_pos_site_id
 _symmetry_equiv_pos_as_xyz
  1  'x, y, z'
loop_
 _atom_site_type_symbol
 _atom_site_label
 _atom_site_symmetry_multiplicity
 _atom_site_fract_x
 _atom_site_fract_y
 _atom_site_fract_z
 _atom_site_occupancy
  Sm  Sm0  1  0.000000  0.000000  0.162937  1
  Sm  Sm1  1  0.000000  0.000000  0.835321  1
  Si  Si2  1  0.666667  0.333333  0.995267  1
  Ni  Ni3  1  0.333333  0.666667  0.004454  1
  Br  Br4  1  0.333333  0.666667  0.671890  1
  Br  Br5  1  0.666667  0.333333  0.330133  1
