# generated using pymatgen
data_Zn22Co3Ni
_symmetry_space_group_name_H-M   'P 1'
_cell_length_a   7.76838436
_cell_length_b   7.76838359
_cell_length_c   7.76838400
_cell_angle_alpha   109.47109389
_cell_angle_beta   109.47108813
_cell_angle_gamma   109.47108969
_symmetry_Int_Tables_number   1
_chemical_formula_structural   Zn22Co3Ni
_chemical_formula_sum   'Zn22 Co3 Ni1'
_cell_volume   360.88784349
_cell_formula_units_Z   1
loop_
 _symmetry_equiv_pos_site_id
 _symmetry_equiv_pos_as_xyz
  1  'x, y, z'
loop_
 _atom_site_type_symbol
 _atom_site_label
 _atom_site_symmetry_multiplicity
 _atom_site_fract_x
 _atom_site_fract_y
 _atom_site_fract_z
 _atom_site_occupancy
  Zn  Zn0  1  0.207653  0.998447  0.998447  1
  Zn  Zn1  1  0.998447  0.207653  0.998447  1
  Zn  Zn2  1  0.998447  0.998447  0.207653  1
  Zn  Zn3  1  0.793655  0.793655  0.793655  1
  Zn  Zn4  1  0.997321  0.644112  0.644112  1
  Zn  Zn5  1  0.353727  0.999822  0.353727  1
  Zn  Zn6  1  0.353727  0.353727  0.999822  1
  Zn  Zn7  1  0.999822  0.353727  0.353727  1
  Zn  Zn8  1  0.644112  0.997321  0.644112  1
  Zn  Zn9  1  0.644112  0.644112  0.997321  1
  Zn  Zn10  1  0.351727  0.740216  0.000465  1
  Zn  Zn11  1  0.612188  0.260313  0.260313  1
  Zn  Zn12  1  0.351727  0.000465  0.740216  1
  Zn  Zn13  1  0.740216  0.351727  0.000465  1
  Zn  Zn14  1  0.000465  0.351727  0.740216  1
  Zn  Zn15  1  0.260313  0.612188  0.260313  1
  Zn  Zn16  1  0.260313  0.260313  0.612188  1
  Zn  Zn17  1  0.000465  0.740216  0.351727  1
  Zn  Zn18  1  0.740216  0.000465  0.351727  1
  Zn  Zn19  1  0.649685  0.649685  0.388521  1
  Zn  Zn20  1  0.388521  0.649685  0.649685  1
  Zn  Zn21  1  0.649685  0.388521  0.649685  1
  Co  Co22  1  0.655668  0.001434  0.001434  1
  Co  Co23  1  0.001434  0.655668  0.001434  1
  Co  Co24  1  0.001434  0.001434  0.655668  1
  Ni  Ni25  1  0.344917  0.344917  0.344917  1
