# generated using pymatgen
data_KV2TcS6
_symmetry_space_group_name_H-M   'P 1'
_cell_length_a   5.33892300
_cell_length_b   5.33892503
_cell_length_c   15.92080400
_cell_angle_alpha   90.00000000
_cell_angle_beta   90.00000000
_cell_angle_gamma   119.99999363
_symmetry_Int_Tables_number   1
_chemical_formula_structural   KV2TcS6
_chemical_formula_sum   'K2 V4 Tc2 S12'
_cell_volume   393.00957835
_cell_formula_units_Z   2
loop_
 _symmetry_equiv_pos_site_id
 _symmetry_equiv_pos_as_xyz
  1  'x, y, z'
loop_
 _atom_site_type_symbol
 _atom_site_label
 _atom_site_symmetry_multiplicity
 _atom_site_fract_x
 _atom_site_fract_y
 _atom_site_fract_z
 _atom_site_occupancy
  K  K0  1  0.000000  0.000000  0.000000  1
  K  K1  1  0.000000  0.000000  0.500000  1
  V  V2  1  0.333333  0.666667  0.250000  1
  V  V3  1  0.666667  0.333333  0.750000  1
  V  V4  1  0.666667  0.333333  0.250000  1
  V  V5  1  0.333333  0.666667  0.750000  1
  Tc  Tc6  1  0.000000  0.000000  0.750000  1
  Tc  Tc7  1  0.000000  0.000000  0.250000  1
  S  S8  1  0.341149  0.000000  0.154940  1
  S  S9  1  0.000000  0.341149  0.154940  1
  S  S10  1  0.658851  0.658851  0.154940  1
  S  S11  1  0.341149  0.341149  0.654940  1
  S  S12  1  0.658851  0.658851  0.345060  1
  S  S13  1  0.658851  0.000000  0.654940  1
  S  S14  1  0.000000  0.658851  0.654940  1
  S  S15  1  0.000000  0.658851  0.845060  1
  S  S16  1  0.341149  0.341149  0.845060  1
  S  S17  1  0.000000  0.341149  0.345060  1
  S  S18  1  0.341149  0.000000  0.345060  1
  S  S19  1  0.658851  0.000000  0.845060  1
