# generated using pymatgen
data_Th5Mg(SnIr)6
_symmetry_space_group_name_H-M   'P 1'
_cell_length_a   7.52490771
_cell_length_b   7.51512544
_cell_length_c   8.26090100
_cell_angle_alpha   90.00000000
_cell_angle_beta   90.00000000
_cell_angle_gamma   120.09896544
_symmetry_Int_Tables_number   1
_chemical_formula_structural   Th5Mg(SnIr)6
_chemical_formula_sum   'Th5 Mg1 Sn6 Ir6'
_cell_volume   404.16760475
_cell_formula_units_Z   1
loop_
 _symmetry_equiv_pos_site_id
 _symmetry_equiv_pos_as_xyz
  1  'x, y, z'
loop_
 _atom_site_type_symbol
 _atom_site_label
 _atom_site_symmetry_multiplicity
 _atom_site_fract_x
 _atom_site_fract_y
 _atom_site_fract_z
 _atom_site_occupancy
  Th  Th0  1  0.417220  0.001027  0.250000  1
  Th  Th1  1  0.583823  0.585417  0.750000  1
  Th  Th2  1  0.591407  0.588601  0.250000  1
  Th  Th3  1  0.001211  0.410279  0.250000  1
  Th  Th4  1  0.000571  0.415516  0.750000  1
  Mg  Mg5  1  0.394282  0.004369  0.750000  1
  Sn  Sn6  1  0.253017  0.246208  0.502291  1
  Sn  Sn7  1  0.253017  0.246208  0.997709  1
  Sn  Sn8  1  0.741390  0.999678  0.990200  1
  Sn  Sn9  1  0.006960  0.753275  0.502537  1
  Sn  Sn10  1  0.741390  0.999678  0.509800  1
  Sn  Sn11  1  0.006960  0.753275  0.997463  1
  Ir  Ir12  1  0.671383  0.336352  0.502585  1
  Ir  Ir13  1  0.671383  0.336352  0.997415  1
  Ir  Ir14  1  0.334419  0.662325  0.000747  1
  Ir  Ir15  1  0.334419  0.662325  0.499253  1
  Ir  Ir16  1  0.995593  0.999580  0.750000  1
  Ir  Ir17  1  0.001556  0.999532  0.250000  1
