# generated using pymatgen
data_Y19HoCd6OsPd
_symmetry_space_group_name_H-M   'P 1'
_cell_length_a   9.69637726
_cell_length_b   9.69637789
_cell_length_c   9.86534862
_cell_angle_alpha   90.05690796
_cell_angle_beta   89.94309195
_cell_angle_gamma   119.98706144
_symmetry_Int_Tables_number   1
_chemical_formula_structural   Y19HoCd6OsPd
_chemical_formula_sum   'Y19 Ho1 Cd6 Os1 Pd1'
_cell_volume   803.37521180
_cell_formula_units_Z   1
loop_
 _symmetry_equiv_pos_site_id
 _symmetry_equiv_pos_as_xyz
  1  'x, y, z'
loop_
 _atom_site_type_symbol
 _atom_site_label
 _atom_site_symmetry_multiplicity
 _atom_site_fract_x
 _atom_site_fract_y
 _atom_site_fract_z
 _atom_site_occupancy
  Y  Y0  1  0.209449  0.419227  0.939584  1
  Y  Y1  1  0.580773  0.790551  0.939584  1
  Y  Y2  1  0.792274  0.207726  0.057721  1
  Y  Y3  1  0.792497  0.584541  0.057625  1
  Y  Y4  1  0.415459  0.207503  0.057625  1
  Y  Y5  1  0.792223  0.207777  0.442290  1
  Y  Y6  1  0.792254  0.584495  0.442305  1
  Y  Y7  1  0.415505  0.207746  0.442305  1
  Y  Y8  1  0.209487  0.790513  0.560691  1
  Y  Y9  1  0.209580  0.419092  0.560486  1
  Y  Y10  1  0.580908  0.790420  0.560486  1
  Y  Y11  1  0.540249  0.459751  0.749983  1
  Y  Y12  1  0.539926  0.080166  0.750165  1
  Y  Y13  1  0.919834  0.460074  0.750165  1
  Y  Y14  1  0.456941  0.543059  0.250045  1
  Y  Y15  1  0.456772  0.913743  0.249735  1
  Y  Y16  1  0.086257  0.543228  0.249735  1
  Y  Y17  1  0.000189  0.999811  0.000515  1
  Y  Y18  1  0.000002  0.999998  0.499403  1
  Ho  Ho19  1  0.209991  0.790009  0.938981  1
  Cd  Cd20  1  0.884836  0.115164  0.750005  1
  Cd  Cd21  1  0.884865  0.769674  0.749982  1
  Cd  Cd22  1  0.230326  0.115135  0.749982  1
  Cd  Cd23  1  0.115180  0.884820  0.250006  1
  Cd  Cd24  1  0.115170  0.230375  0.250010  1
  Cd  Cd25  1  0.769625  0.884830  0.250010  1
  Os  Os26  1  0.332774  0.667226  0.750631  1
  Pd  Pd27  1  0.666655  0.333345  0.249942  1
