# generated using pymatgen
data_LuReN3
_symmetry_space_group_name_H-M   'P 1'
_cell_length_a   7.33166932
_cell_length_b   7.33166965
_cell_length_c   6.23777635
_cell_angle_alpha   71.91783122
_cell_angle_beta   71.91782401
_cell_angle_gamma   80.63014085
_symmetry_Int_Tables_number   1
_chemical_formula_structural   LuReN3
_chemical_formula_sum   'Lu4 Re4 N12'
_cell_volume   302.17906292
_cell_formula_units_Z   4
loop_
 _symmetry_equiv_pos_site_id
 _symmetry_equiv_pos_as_xyz
  1  'x, y, z'
loop_
 _atom_site_type_symbol
 _atom_site_label
 _atom_site_symmetry_multiplicity
 _atom_site_fract_x
 _atom_site_fract_y
 _atom_site_fract_z
 _atom_site_occupancy
  Lu  Lu0  1  0.907620  0.092380  0.750000  1
  Lu  Lu1  1  0.092380  0.907620  0.250000  1
  Lu  Lu2  1  0.716795  0.283205  0.250000  1
  Lu  Lu3  1  0.283205  0.716795  0.750000  1
  Re  Re4  1  0.621171  0.795623  0.286131  1
  Re  Re5  1  0.204377  0.378829  0.213869  1
  Re  Re6  1  0.378829  0.204377  0.713869  1
  Re  Re7  1  0.795623  0.621171  0.786131  1
  N  N8  1  0.669651  0.628927  0.095050  1
  N  N9  1  0.367505  0.873772  0.340746  1
  N  N10  1  0.371073  0.330349  0.404950  1
  N  N11  1  0.126228  0.632495  0.159254  1
  N  N12  1  0.005016  0.217301  0.338518  1
  N  N13  1  0.782699  0.994984  0.161482  1
  N  N14  1  0.217301  0.005016  0.838518  1
  N  N15  1  0.632495  0.126228  0.659254  1
  N  N16  1  0.330349  0.371073  0.904950  1
  N  N17  1  0.873772  0.367505  0.840746  1
  N  N18  1  0.628927  0.669651  0.595050  1
  N  N19  1  0.994984  0.782699  0.661482  1
