# generated using pymatgen
data_Tm7Hf(Ta3Ge4)4
_symmetry_space_group_name_H-M   'P 1'
_cell_length_a   6.94221986
_cell_length_b   7.09374385
_cell_length_c   13.43979704
_cell_angle_alpha   90.07055646
_cell_angle_beta   90.10263629
_cell_angle_gamma   90.03359421
_symmetry_Int_Tables_number   1
_chemical_formula_structural   Tm7Hf(Ta3Ge4)4
_chemical_formula_sum   'Tm7 Hf1 Ta12 Ge16'
_cell_volume   661.85899416
_cell_formula_units_Z   1
loop_
 _symmetry_equiv_pos_site_id
 _symmetry_equiv_pos_as_xyz
  1  'x, y, z'
loop_
 _atom_site_type_symbol
 _atom_site_label
 _atom_site_symmetry_multiplicity
 _atom_site_fract_x
 _atom_site_fract_y
 _atom_site_fract_z
 _atom_site_occupancy
  Tm  Tm0  1  0.491832  0.675769  0.593340  1
  Tm  Tm1  1  0.993267  0.825546  0.906703  1
  Tm  Tm2  1  0.506711  0.325535  0.093913  1
  Tm  Tm3  1  0.006978  0.173756  0.407280  1
  Tm  Tm4  1  0.506433  0.325056  0.407128  1
  Tm  Tm5  1  0.006457  0.175061  0.093878  1
  Tm  Tm6  1  0.493027  0.675325  0.905219  1
  Hf  Hf7  1  0.988740  0.822990  0.594976  1
  Ta  Ta8  1  0.660564  0.165302  0.625137  1
  Ta  Ta9  1  0.157863  0.332138  0.872354  1
  Ta  Ta10  1  0.342910  0.832132  0.126058  1
  Ta  Ta11  1  0.844275  0.670766  0.375763  1
  Ta  Ta12  1  0.342526  0.831992  0.374074  1
  Ta  Ta13  1  0.841959  0.667786  0.126577  1
  Ta  Ta14  1  0.659858  0.166769  0.873204  1
  Ta  Ta15  1  0.158203  0.331629  0.625070  1
  Ta  Ta16  1  0.836224  0.488468  0.748118  1
  Ta  Ta17  1  0.333530  0.012376  0.748687  1
  Ta  Ta18  1  0.164957  0.513640  0.250783  1
  Ta  Ta19  1  0.665702  0.987507  0.251103  1
  Ge  Ge20  1  0.682156  0.961234  0.459847  1
  Ge  Ge21  1  0.178696  0.538094  0.041680  1
  Ge  Ge22  1  0.321779  0.039079  0.957825  1
  Ge  Ge23  1  0.822397  0.463854  0.542243  1
  Ge  Ge24  1  0.313424  0.034420  0.542194  1
  Ge  Ge25  1  0.820706  0.460968  0.958145  1
  Ge  Ge26  1  0.678758  0.961493  0.041926  1
  Ge  Ge27  1  0.178149  0.540651  0.459795  1
  Ge  Ge28  1  0.459864  0.380909  0.749221  1
  Ge  Ge29  1  0.959639  0.116374  0.748721  1
  Ge  Ge30  1  0.542007  0.618824  0.250512  1
  Ge  Ge31  1  0.041538  0.882170  0.249932  1
  Ge  Ge32  1  0.694831  0.854627  0.749306  1
  Ge  Ge33  1  0.191722  0.646803  0.748279  1
  Ge  Ge34  1  0.306086  0.144999  0.250251  1
  Ge  Ge35  1  0.806236  0.355963  0.250756  1
