# generated using pymatgen
data_Tm4As4Rh9
_symmetry_space_group_name_H-M   'P 1'
_cell_length_a   7.23438435
_cell_length_b   7.23438501
_cell_length_c   7.23979800
_cell_angle_alpha   109.56368725
_cell_angle_beta   109.56367230
_cell_angle_gamma   109.25605057
_symmetry_Int_Tables_number   1
_chemical_formula_structural   Tm4As4Rh9
_chemical_formula_sum   'Tm4 As4 Rh9'
_cell_volume   291.78748718
_cell_formula_units_Z   1
loop_
 _symmetry_equiv_pos_site_id
 _symmetry_equiv_pos_as_xyz
  1  'x, y, z'
loop_
 _atom_site_type_symbol
 _atom_site_label
 _atom_site_symmetry_multiplicity
 _atom_site_fract_x
 _atom_site_fract_y
 _atom_site_fract_z
 _atom_site_occupancy
  Tm  Tm0  1  0.986589  0.986589  0.482214  1
  Tm  Tm1  1  0.987149  0.487149  0.974300  1
  Tm  Tm2  1  0.487149  0.987149  0.974300  1
  Tm  Tm3  1  0.495626  0.495626  0.482214  1
  As  As4  1  0.680435  0.680435  0.986049  1
  As  As5  1  0.336192  0.998589  0.334779  1
  As  As6  1  0.998589  0.336192  0.334779  1
  As  As7  1  0.305614  0.305614  0.986049  1
  Rh  Rh8  1  0.727106  0.978969  0.706075  1
  Rh  Rh9  1  0.978969  0.727106  0.706075  1
  Rh  Rh10  1  0.745903  0.245903  0.491805  1
  Rh  Rh11  1  0.745414  0.492531  0.237944  1
  Rh  Rh12  1  0.500730  0.244497  0.745227  1
  Rh  Rh13  1  0.244497  0.500730  0.745227  1
  Rh  Rh14  1  0.245903  0.745903  0.491805  1
  Rh  Rh15  1  0.492531  0.745414  0.237944  1
  Rh  Rh16  1  0.041610  0.041610  0.083219  1
