# generated using pymatgen
data_Eu2Ga5IrRh2
_symmetry_space_group_name_H-M   'P 1'
_cell_length_a   8.65893655
_cell_length_b   8.68733544
_cell_length_c   8.68733700
_cell_angle_alpha   141.13983001
_cell_angle_beta   108.04241408
_cell_angle_gamma   84.97016712
_symmetry_Int_Tables_number   1
_chemical_formula_structural   Eu2Ga5IrRh2
_chemical_formula_sum   'Eu4 Ga10 Ir2 Rh4'
_cell_volume   376.72557266
_cell_formula_units_Z   2
loop_
 _symmetry_equiv_pos_site_id
 _symmetry_equiv_pos_as_xyz
  1  'x, y, z'
loop_
 _atom_site_type_symbol
 _atom_site_label
 _atom_site_symmetry_multiplicity
 _atom_site_fract_x
 _atom_site_fract_y
 _atom_site_fract_z
 _atom_site_occupancy
  Eu  Eu0  1  0.632092  0.858705  0.773387  1
  Eu  Eu1  1  0.367908  0.141295  0.226613  1
  Eu  Eu2  1  0.085472  0.359228  0.726244  1
  Eu  Eu3  1  0.914528  0.640772  0.273756  1
  Ga  Ga4  1  0.293438  0.044137  0.749566  1
  Ga  Ga5  1  0.706562  0.955863  0.250434  1
  Ga  Ga6  1  0.706562  0.456128  0.750699  1
  Ga  Ga7  1  0.293438  0.543872  0.249301  1
  Ga  Ga8  1  0.415706  0.588877  0.826825  1
  Ga  Ga9  1  0.584294  0.411123  0.173175  1
  Ga  Ga10  1  0.762321  0.088620  0.673703  1
  Ga  Ga11  1  0.237679  0.911380  0.326297  1
  Ga  Ga12  1  0.000000  0.748734  0.748734  1
  Ga  Ga13  1  0.000000  0.251266  0.251266  1
  Ir  Ir14  1  0.240313  0.647293  0.593020  1
  Ir  Ir15  1  0.759687  0.352707  0.406980  1
  Rh  Rh16  1  0.054403  0.145669  0.908733  1
  Rh  Rh17  1  0.945597  0.854331  0.091267  1
  Rh  Rh18  1  0.500000  0.749888  0.249888  1
  Rh  Rh19  1  0.500000  0.250112  0.750112  1
