# generated using pymatgen
data_Er20Ir5Os4Pd3
_symmetry_space_group_name_H-M   'P 1'
_cell_length_a   10.81765850
_cell_length_b   10.81765850
_cell_length_c   6.39227943
_cell_angle_alpha   89.97036450
_cell_angle_beta   89.97036450
_cell_angle_gamma   90.19794783
_symmetry_Int_Tables_number   1
_chemical_formula_structural   Er20Ir5Os4Pd3
_chemical_formula_sum   'Er20 Ir5 Os4 Pd3'
_cell_volume   748.03096734
_cell_formula_units_Z   1
loop_
 _symmetry_equiv_pos_site_id
 _symmetry_equiv_pos_as_xyz
  1  'x, y, z'
loop_
 _atom_site_type_symbol
 _atom_site_label
 _atom_site_symmetry_multiplicity
 _atom_site_fract_x
 _atom_site_fract_y
 _atom_site_fract_z
 _atom_site_occupancy
  Er  Er0  1  0.296358  0.084034  0.368965  1
  Er  Er1  1  0.295565  0.909188  0.877573  1
  Er  Er2  1  0.702155  0.088921  0.871477  1
  Er  Er3  1  0.700776  0.910513  0.370892  1
  Er  Er4  1  0.581582  0.792086  0.877592  1
  Er  Er5  1  0.581329  0.207694  0.377223  1
  Er  Er6  1  0.412503  0.792639  0.377538  1
  Er  Er7  1  0.417353  0.207347  0.877152  1
  Er  Er8  1  0.207914  0.418418  0.622408  1
  Er  Er9  1  0.207361  0.587497  0.122462  1
  Er  Er10  1  0.792306  0.418671  0.122777  1
  Er  Er11  1  0.792653  0.582647  0.622848  1
  Er  Er12  1  0.915966  0.703642  0.131035  1
  Er  Er13  1  0.911079  0.297845  0.628523  1
  Er  Er14  1  0.090812  0.704435  0.622427  1
  Er  Er15  1  0.089487  0.299224  0.129108  1
  Er  Er16  1  0.001850  0.997295  0.498644  1
  Er  Er17  1  0.002705  0.998150  0.001356  1
  Er  Er18  1  0.499560  0.499835  0.000541  1
  Er  Er19  1  0.500165  0.500440  0.499459  1
  Ir  Ir20  1  0.150235  0.849765  0.250000  1
  Ir  Ir21  1  0.652996  0.347004  0.750000  1
  Ir  Ir22  1  0.653517  0.653033  0.249706  1
  Ir  Ir23  1  0.346967  0.346483  0.250294  1
  Ir  Ir24  1  0.347924  0.652076  0.750000  1
  Os  Os25  1  0.500814  0.000028  0.123142  1
  Os  Os26  1  0.500410  0.999819  0.624975  1
  Os  Os27  1  0.000181  0.499590  0.875025  1
  Os  Os28  1  0.999972  0.499186  0.376858  1
  Pd  Pd29  1  0.848102  0.151898  0.250000  1
  Pd  Pd30  1  0.846543  0.847141  0.750224  1
  Pd  Pd31  1  0.152859  0.153457  0.749776  1
