# generated using pymatgen
data_Li3Ca2Co3Ni6As7
_symmetry_space_group_name_H-M   'P 1'
_cell_length_a   3.86583700
_cell_length_b   9.48201263
_cell_length_c   9.48201100
_cell_angle_alpha   119.99999780
_cell_angle_beta   90.00000000
_cell_angle_gamma   90.00000000
_symmetry_Int_Tables_number   1
_chemical_formula_structural   Li3Ca2Co3Ni6As7
_chemical_formula_sum   'Li3 Ca2 Co3 Ni6 As7'
_cell_volume   301.00600798
_cell_formula_units_Z   1
loop_
 _symmetry_equiv_pos_site_id
 _symmetry_equiv_pos_as_xyz
  1  'x, y, z'
loop_
 _atom_site_type_symbol
 _atom_site_label
 _atom_site_symmetry_multiplicity
 _atom_site_fract_x
 _atom_site_fract_y
 _atom_site_fract_z
 _atom_site_occupancy
  Li  Li0  1  0.500000  0.788702  0.894420  1
  Li  Li1  1  0.500000  0.105718  0.211298  1
  Li  Li2  1  0.500000  0.105580  0.894282  1
  Ca  Ca3  1  0.000000  0.666667  0.333333  1
  Ca  Ca4  1  0.500000  0.333333  0.666667  1
  Co  Co5  1  0.500000  0.952534  0.386090  1
  Co  Co6  1  0.500000  0.433556  0.047466  1
  Co  Co7  1  0.500000  0.613910  0.566444  1
  Ni  Ni8  1  0.000000  0.572137  0.947605  1
  Ni  Ni9  1  0.000000  0.375467  0.427863  1
  Ni  Ni10  1  0.000000  0.052395  0.624533  1
  Ni  Ni11  1  0.000000  0.875235  0.161251  1
  Ni  Ni12  1  0.000000  0.286018  0.124765  1
  Ni  Ni13  1  0.000000  0.838749  0.713982  1
  As  As14  1  0.500000  0.709302  0.117772  1
  As  As15  1  0.500000  0.408471  0.290698  1
  As  As16  1  0.500000  0.882228  0.591529  1
  As  As17  1  0.000000  0.000000  0.000000  1
  As  As18  1  0.000000  0.587599  0.698764  1
  As  As19  1  0.000000  0.111164  0.412401  1
  As  As20  1  0.000000  0.301236  0.888836  1
