# generated using pymatgen
data_HoLu9In8Ir3Pt
_symmetry_space_group_name_H-M   'P 1'
_cell_length_a   3.54312500
_cell_length_b   8.00393406
_cell_length_c   18.03614633
_cell_angle_alpha   90.06023628
_cell_angle_beta   90.00000000
_cell_angle_gamma   90.00000000
_symmetry_Int_Tables_number   1
_chemical_formula_structural   HoLu9In8Ir3Pt
_chemical_formula_sum   'Ho1 Lu9 In8 Ir3 Pt1'
_cell_volume   511.48568819
_cell_formula_units_Z   1
loop_
 _symmetry_equiv_pos_site_id
 _symmetry_equiv_pos_as_xyz
  1  'x, y, z'
loop_
 _atom_site_type_symbol
 _atom_site_label
 _atom_site_symmetry_multiplicity
 _atom_site_fract_x
 _atom_site_fract_y
 _atom_site_fract_z
 _atom_site_occupancy
  Ho  Ho0  1  0.000000  0.500041  0.500362  1
  Lu  Lu1  1  0.000000  0.115100  0.413124  1
  Lu  Lu2  1  0.000000  0.884046  0.588866  1
  Lu  Lu3  1  0.000000  0.383899  0.911308  1
  Lu  Lu4  1  0.000000  0.615709  0.086303  1
  Lu  Lu5  1  0.000000  0.236257  0.222046  1
  Lu  Lu6  1  0.000000  0.758421  0.777805  1
  Lu  Lu7  1  0.000000  0.258222  0.722498  1
  Lu  Lu8  1  0.000000  0.749124  0.279031  1
  Lu  Lu9  1  0.000000  0.998928  0.999366  1
  In  In10  1  0.500000  0.424049  0.351911  1
  In  In11  1  0.500000  0.571943  0.648724  1
  In  In12  1  0.500000  0.072217  0.851912  1
  In  In13  1  0.500000  0.927233  0.147450  1
  In  In14  1  0.500000  0.291372  0.064843  1
  In  In15  1  0.500000  0.706501  0.933148  1
  In  In16  1  0.500000  0.205612  0.567149  1
  In  In17  1  0.500000  0.793772  0.433514  1
  Ir  Ir18  1  0.500000  0.022226  0.304013  1
  Ir  Ir19  1  0.500000  0.981480  0.696913  1
  Ir  Ir20  1  0.500000  0.481519  0.803278  1
  Pt  Pt21  1  0.500000  0.522325  0.196439  1
