# generated using pymatgen
data_Co4TeIr7O24
_symmetry_space_group_name_H-M   'P 1'
_cell_length_a   4.55568128
_cell_length_b   10.49045993
_cell_length_c   9.11762228
_cell_angle_alpha   64.24347239
_cell_angle_beta   90.17198416
_cell_angle_gamma   90.07392465
_symmetry_Int_Tables_number   1
_chemical_formula_structural   Co4TeIr7O24
_chemical_formula_sum   'Co4 Te1 Ir7 O24'
_cell_volume   392.44874674
_cell_formula_units_Z   1
loop_
 _symmetry_equiv_pos_site_id
 _symmetry_equiv_pos_as_xyz
  1  'x, y, z'
loop_
 _atom_site_type_symbol
 _atom_site_label
 _atom_site_symmetry_multiplicity
 _atom_site_fract_x
 _atom_site_fract_y
 _atom_site_fract_z
 _atom_site_occupancy
  Co  Co0  1  0.997215  0.000887  0.504600  1
  Co  Co1  1  0.500004  0.498585  0.000711  1
  Co  Co2  1  0.002771  0.000861  0.994526  1
  Co  Co3  1  0.500009  0.500488  0.499747  1
  Te  Te4  1  0.500088  0.832159  0.333819  1
  Ir  Ir5  1  0.995416  0.666146  0.673343  1
  Ir  Ir6  1  0.004472  0.666153  0.160566  1
  Ir  Ir7  1  0.998596  0.331267  0.333724  1
  Ir  Ir8  1  0.001406  0.331215  0.835062  1
  Ir  Ir9  1  0.499970  0.168116  0.165957  1
  Ir  Ir10  1  0.500026  0.169464  0.665303  1
  Ir  Ir11  1  0.499976  0.831788  0.834096  1
  O  O12  1  0.305717  0.000831  0.346146  1
  O  O13  1  0.312267  0.000611  0.843636  1
  O  O14  1  0.687712  0.000599  0.655808  1
  O  O15  1  0.694292  0.000882  0.152957  1
  O  O16  1  0.190582  0.498798  0.847811  1
  O  O17  1  0.187623  0.499568  0.342755  1
  O  O18  1  0.809289  0.498789  0.153394  1
  O  O19  1  0.812415  0.499573  0.657691  1
  O  O20  1  0.303254  0.330963  0.182093  1
  O  O21  1  0.302826  0.331674  0.683117  1
  O  O22  1  0.194721  0.830557  0.684578  1
  O  O23  1  0.194773  0.832091  0.180472  1
  O  O24  1  0.306564  0.667709  0.012662  1
  O  O25  1  0.303017  0.670965  0.513449  1
  O  O26  1  0.198834  0.168117  0.014219  1
  O  O27  1  0.196381  0.169534  0.514186  1
  O  O28  1  0.805244  0.830555  0.984825  1
  O  O29  1  0.805247  0.832111  0.487373  1
  O  O30  1  0.696726  0.330964  0.986977  1
  O  O31  1  0.697135  0.331675  0.485237  1
  O  O32  1  0.693614  0.667708  0.819554  1
  O  O33  1  0.697075  0.670941  0.315561  1
  O  O34  1  0.801163  0.168127  0.317710  1
  O  O35  1  0.803581  0.169530  0.816335  1
