# generated using pymatgen
data_Ti3Mn2BeFeAs2
_symmetry_space_group_name_H-M   'P 1'
_cell_length_a   6.33527500
_cell_length_b   6.31906096
_cell_length_c   3.41491600
_cell_angle_alpha   90.00000000
_cell_angle_beta   90.00000000
_cell_angle_gamma   120.08491023
_symmetry_Int_Tables_number   1
_chemical_formula_structural   Ti3Mn2BeFeAs2
_chemical_formula_sum   'Ti3 Mn2 Be1 Fe1 As2'
_cell_volume   118.29229276
_cell_formula_units_Z   1
loop_
 _symmetry_equiv_pos_site_id
 _symmetry_equiv_pos_as_xyz
  1  'x, y, z'
loop_
 _atom_site_type_symbol
 _atom_site_label
 _atom_site_symmetry_multiplicity
 _atom_site_fract_x
 _atom_site_fract_y
 _atom_site_fract_z
 _atom_site_occupancy
  Ti  Ti0  1  0.606997  0.000000  0.000000  1
  Ti  Ti1  1  0.997829  0.606453  0.000000  1
  Ti  Ti2  1  0.391377  0.393547  0.000000  1
  Mn  Mn3  1  0.997358  0.230742  0.500000  1
  Mn  Mn4  1  0.766616  0.769258  0.500000  1
  Be  Be5  1  0.006755  0.000000  0.000000  1
  Fe  Fe6  1  0.236310  0.000000  0.500000  1
  As  As7  1  0.331777  0.666798  0.500000  1
  As  As8  1  0.664981  0.333202  0.500000  1
