# generated using pymatgen
data_CsGaSiTe4
_symmetry_space_group_name_H-M   'P 1'
_cell_length_a   18.67390623
_cell_length_b   7.91240200
_cell_length_c   8.81631470
_cell_angle_alpha   70.10048172
_cell_angle_beta   90.14440161
_cell_angle_gamma   90.01368440
_symmetry_Int_Tables_number   1
_chemical_formula_structural   CsGaSiTe4
_chemical_formula_sum   'Cs4 Ga4 Si4 Te16'
_cell_volume   1224.87396153
_cell_formula_units_Z   4
loop_
 _symmetry_equiv_pos_site_id
 _symmetry_equiv_pos_as_xyz
  1  'x, y, z'
loop_
 _atom_site_type_symbol
 _atom_site_label
 _atom_site_symmetry_multiplicity
 _atom_site_fract_x
 _atom_site_fract_y
 _atom_site_fract_z
 _atom_site_occupancy
  Cs  Cs0  1  0.397150  0.954825  0.181336  1
  Cs  Cs1  1  0.896275  0.045843  0.818011  1
  Cs  Cs2  1  0.602277  0.525912  0.830500  1
  Cs  Cs3  1  0.101533  0.473362  0.169315  1
  Ga  Ga4  1  0.584933  0.164913  0.478286  1
  Ga  Ga5  1  0.083728  0.834206  0.522138  1
  Ga  Ga6  1  0.271844  0.589040  0.700084  1
  Ga  Ga7  1  0.772185  0.411874  0.300401  1
  Si  Si8  1  0.920582  0.683362  0.457901  1
  Si  Si9  1  0.726542  0.914777  0.279897  1
  Si  Si10  1  0.225661  0.085487  0.719674  1
  Si  Si11  1  0.420321  0.317060  0.541601  1
  Te  Te12  1  0.598788  0.884105  0.380815  1
  Te  Te13  1  0.097502  0.114627  0.619679  1
  Te  Te14  1  0.410217  0.591879  0.626155  1
  Te  Te15  1  0.910504  0.408313  0.374025  1
  Te  Te16  1  0.801853  0.789030  0.536926  1
  Te  Te17  1  0.301094  0.210790  0.463174  1
  Te  Te18  1  0.200068  0.715755  0.430907  1
  Te  Te19  1  0.701179  0.284493  0.569548  1
  Te  Te20  1  0.764693  0.224806  0.099747  1
  Te  Te21  1  0.263871  0.775489  0.900901  1
  Te  Te22  1  0.235965  0.265722  0.906305  1
  Te  Te23  1  0.735833  0.734651  0.093018  1
  Te  Te24  1  0.997035  0.924223  0.261454  1
  Te  Te25  1  0.497776  0.076696  0.737374  1
  Te  Te26  1  0.990132  0.603051  0.720264  1
  Te  Te27  1  0.490453  0.395709  0.280564  1
