# generated using pymatgen
data_Tb2Ga9Ir2Pt
_symmetry_space_group_name_H-M   'P 1'
_cell_length_a   7.63631621
_cell_length_b   7.63631636
_cell_length_c   9.50229700
_cell_angle_alpha   90.00000000
_cell_angle_beta   90.00000000
_cell_angle_gamma   119.90359769
_symmetry_Int_Tables_number   1
_chemical_formula_structural   Tb2Ga9Ir2Pt
_chemical_formula_sum   'Tb4 Ga18 Ir4 Pt2'
_cell_volume   480.33928600
_cell_formula_units_Z   2
loop_
 _symmetry_equiv_pos_site_id
 _symmetry_equiv_pos_as_xyz
  1  'x, y, z'
loop_
 _atom_site_type_symbol
 _atom_site_label
 _atom_site_symmetry_multiplicity
 _atom_site_fract_x
 _atom_site_fract_y
 _atom_site_fract_z
 _atom_site_occupancy
  Tb  Tb0  1  0.996613  0.669678  0.250000  1
  Tb  Tb1  1  0.003387  0.330322  0.750000  1
  Tb  Tb2  1  0.669678  0.996613  0.250000  1
  Tb  Tb3  1  0.330322  0.003387  0.750000  1
  Ga  Ga4  1  0.131533  0.131533  0.250000  1
  Ga  Ga5  1  0.868467  0.868467  0.750000  1
  Ga  Ga6  1  0.998653  0.337678  0.080950  1
  Ga  Ga7  1  0.001347  0.662322  0.919050  1
  Ga  Ga8  1  0.001347  0.662322  0.580950  1
  Ga  Ga9  1  0.337678  0.998653  0.419050  1
  Ga  Ga10  1  0.998653  0.337678  0.419050  1
  Ga  Ga11  1  0.662322  0.001347  0.580950  1
  Ga  Ga12  1  0.662322  0.001347  0.919050  1
  Ga  Ga13  1  0.337678  0.998653  0.080950  1
  Ga  Ga14  1  0.335722  0.335722  0.567022  1
  Ga  Ga15  1  0.664278  0.664278  0.432978  1
  Ga  Ga16  1  0.664278  0.664278  0.067022  1
  Ga  Ga17  1  0.335722  0.335722  0.932978  1
  Ga  Ga18  1  0.337475  0.546523  0.250000  1
  Ga  Ga19  1  0.662525  0.453477  0.750000  1
  Ga  Ga20  1  0.546523  0.337475  0.250000  1
  Ga  Ga21  1  0.453477  0.662525  0.750000  1
  Ir  Ir22  1  0.671173  0.328827  0.000000  1
  Ir  Ir23  1  0.328827  0.671173  0.000000  1
  Ir  Ir24  1  0.328827  0.671173  0.500000  1
  Ir  Ir25  1  0.671173  0.328827  0.500000  1
  Pt  Pt26  1  0.000000  0.000000  0.000000  1
  Pt  Pt27  1  0.000000  0.000000  0.500000  1
