# generated using pymatgen
data_Dy2Er6Tc(B8Ru)3
_symmetry_space_group_name_H-M   'P 1'
_cell_length_a   3.64843800
_cell_length_b   9.10729865
_cell_length_c   11.49193800
_cell_angle_alpha   89.91217810
_cell_angle_beta   90.00000000
_cell_angle_gamma   90.00000000
_symmetry_Int_Tables_number   1
_chemical_formula_structural   Dy2Er6Tc(B8Ru)3
_chemical_formula_sum   'Dy2 Er6 Tc1 B24 Ru3'
_cell_volume   381.84693840
_cell_formula_units_Z   1
loop_
 _symmetry_equiv_pos_site_id
 _symmetry_equiv_pos_as_xyz
  1  'x, y, z'
loop_
 _atom_site_type_symbol
 _atom_site_label
 _atom_site_symmetry_multiplicity
 _atom_site_fract_x
 _atom_site_fract_y
 _atom_site_fract_z
 _atom_site_occupancy
  Dy  Dy0  1  0.000000  0.323724  0.413236  1
  Dy  Dy1  1  0.000000  0.677501  0.583531  1
  Er  Er2  1  0.000000  0.819979  0.087769  1
  Er  Er3  1  0.000000  0.177373  0.915246  1
  Er  Er4  1  0.000000  0.943141  0.371874  1
  Er  Er5  1  0.000000  0.057568  0.628674  1
  Er  Er6  1  0.000000  0.443830  0.128003  1
  Er  Er7  1  0.000000  0.557071  0.871482  1
  Tc  Tc8  1  0.000000  0.637846  0.320537  1
  B  B9  1  0.500000  0.553151  0.432856  1
  B  B10  1  0.500000  0.446232  0.567692  1
  B  B11  1  0.500000  0.053379  0.066719  1
  B  B12  1  0.500000  0.946238  0.933591  1
  B  B13  1  0.500000  0.748883  0.418889  1
  B  B14  1  0.500000  0.251654  0.581101  1
  B  B15  1  0.500000  0.248157  0.079925  1
  B  B16  1  0.500000  0.751585  0.919858  1
  B  B17  1  0.500000  0.791693  0.265279  1
  B  B18  1  0.500000  0.208940  0.734773  1
  B  B19  1  0.500000  0.290549  0.232995  1
  B  B20  1  0.500000  0.709808  0.766154  1
  B  B21  1  0.500000  0.631151  0.184808  1
  B  B22  1  0.500000  0.368548  0.815549  1
  B  B23  1  0.500000  0.130885  0.314233  1
  B  B24  1  0.500000  0.869712  0.685321  1
  B  B25  1  0.500000  0.982422  0.212311  1
  B  B26  1  0.500000  0.017549  0.788220  1
  B  B27  1  0.500000  0.482076  0.286846  1
  B  B28  1  0.500000  0.516915  0.713036  1
  B  B29  1  0.500000  0.606362  0.028787  1
  B  B30  1  0.500000  0.392987  0.970160  1
  B  B31  1  0.500000  0.106155  0.471042  1
  B  B32  1  0.500000  0.895657  0.529575  1
  Ru  Ru33  1  0.000000  0.361699  0.680314  1
  Ru  Ru34  1  0.000000  0.137043  0.178089  1
  Ru  Ru35  1  0.000000  0.862536  0.821526  1
