# generated using pymatgen
data_TmTh3(CoB4)4
_symmetry_space_group_name_H-M   'P 1'
_cell_length_a   6.92812152
_cell_length_b   6.92812171
_cell_length_c   6.92812200
_cell_angle_alpha   112.42956674
_cell_angle_beta   112.42956737
_cell_angle_gamma   103.70394496
_symmetry_Int_Tables_number   1
_chemical_formula_structural   TmTh3(CoB4)4
_chemical_formula_sum   'Tm1 Th3 Co4 B16'
_cell_volume   254.07224235
_cell_formula_units_Z   1
loop_
 _symmetry_equiv_pos_site_id
 _symmetry_equiv_pos_as_xyz
  1  'x, y, z'
loop_
 _atom_site_type_symbol
 _atom_site_label
 _atom_site_symmetry_multiplicity
 _atom_site_fract_x
 _atom_site_fract_y
 _atom_site_fract_z
 _atom_site_occupancy
  Tm  Tm0  1  0.784067  0.784067  0.000000  1
  Th  Th1  1  0.750382  0.250382  0.500000  1
  Th  Th2  1  0.250382  0.750382  0.500000  1
  Th  Th3  1  0.210323  0.210323  0.000000  1
  Co  Co4  1  0.500347  0.271589  0.771242  1
  Co  Co5  1  0.500347  0.729105  0.228758  1
  Co  Co6  1  0.729105  0.500347  0.228758  1
  Co  Co7  1  0.271589  0.500347  0.771242  1
  B  B8  1  0.419655  0.419655  0.538051  1
  B  B9  1  0.881603  0.881603  0.461949  1
  B  B10  1  0.581934  0.118572  0.000000  1
  B  B11  1  0.118572  0.581934  0.000000  1
  B  B12  1  0.581934  0.581934  0.463361  1
  B  B13  1  0.118572  0.118572  0.536639  1
  B  B14  1  0.881603  0.419655  0.000000  1
  B  B15  1  0.419655  0.881603  0.000000  1
  B  B16  1  0.111848  0.275487  0.387354  1
  B  B17  1  0.888135  0.724495  0.612646  1
  B  B18  1  0.888135  0.275487  0.163639  1
  B  B19  1  0.111848  0.724495  0.836361  1
  B  B20  1  0.724495  0.888135  0.612646  1
  B  B21  1  0.275487  0.111848  0.387354  1
  B  B22  1  0.724495  0.111848  0.836361  1
  B  B23  1  0.275487  0.888135  0.163639  1
