# generated using pymatgen
data_Sr2Ga5GePd2
_symmetry_space_group_name_H-M   'P 1'
_cell_length_a   6.22857777
_cell_length_b   6.22857666
_cell_length_c   6.00661000
_cell_angle_alpha   90.00000000
_cell_angle_beta   90.00000000
_cell_angle_gamma   116.43098602
_symmetry_Int_Tables_number   1
_chemical_formula_structural   Sr2Ga5GePd2
_chemical_formula_sum   'Sr2 Ga5 Ge1 Pd2'
_cell_volume   208.66939000
_cell_formula_units_Z   1
loop_
 _symmetry_equiv_pos_site_id
 _symmetry_equiv_pos_as_xyz
  1  'x, y, z'
loop_
 _atom_site_type_symbol
 _atom_site_label
 _atom_site_symmetry_multiplicity
 _atom_site_fract_x
 _atom_site_fract_y
 _atom_site_fract_z
 _atom_site_occupancy
  Sr  Sr0  1  0.233801  0.766199  0.750000  1
  Sr  Sr1  1  0.766090  0.233910  0.250000  1
  Ga  Ga2  1  0.338532  0.661468  0.250000  1
  Ga  Ga3  1  0.720818  0.720699  0.999233  1
  Ga  Ga4  1  0.720818  0.720699  0.500767  1
  Ga  Ga5  1  0.279301  0.279182  0.999233  1
  Ga  Ga6  1  0.279301  0.279182  0.500767  1
  Ge  Ge7  1  0.661114  0.338886  0.750000  1
  Pd  Pd8  1  0.901959  0.098041  0.750000  1
  Pd  Pd9  1  0.098265  0.901735  0.250000  1
