# generated using pymatgen
data_Ba3CdPtO6
_symmetry_space_group_name_H-M   'P 1'
_cell_length_a   7.17659632
_cell_length_b   7.17659672
_cell_length_c   7.17659702
_cell_angle_alpha   91.33259294
_cell_angle_beta   91.33259232
_cell_angle_gamma   91.33257863
_symmetry_Int_Tables_number   1
_chemical_formula_structural   Ba3CdPtO6
_chemical_formula_sum   'Ba6 Cd2 Pt2 O12'
_cell_volume   369.31550263
_cell_formula_units_Z   2
loop_
 _symmetry_equiv_pos_site_id
 _symmetry_equiv_pos_as_xyz
  1  'x, y, z'
loop_
 _atom_site_type_symbol
 _atom_site_label
 _atom_site_symmetry_multiplicity
 _atom_site_fract_x
 _atom_site_fract_y
 _atom_site_fract_z
 _atom_site_occupancy
  Ba  Ba0  1  0.750000  0.388688  0.111312  1
  Ba  Ba1  1  0.111312  0.750000  0.388688  1
  Ba  Ba2  1  0.250000  0.611312  0.888688  1
  Ba  Ba3  1  0.388688  0.111312  0.750000  1
  Ba  Ba4  1  0.611312  0.888688  0.250000  1
  Ba  Ba5  1  0.888688  0.250000  0.611312  1
  Cd  Cd6  1  0.250000  0.250000  0.250000  1
  Cd  Cd7  1  0.750000  0.750000  0.750000  1
  Pt  Pt8  1  0.500000  0.500000  0.500000  1
  Pt  Pt9  1  0.000000  0.000000  0.000000  1
  O  O10  1  0.088430  0.273528  0.956047  1
  O  O11  1  0.956047  0.088430  0.273528  1
  O  O12  1  0.273528  0.956047  0.088430  1
  O  O13  1  0.411570  0.543953  0.226472  1
  O  O14  1  0.226472  0.411570  0.543953  1
  O  O15  1  0.543953  0.226472  0.411570  1
  O  O16  1  0.911570  0.726472  0.043953  1
  O  O17  1  0.043953  0.911570  0.726472  1
  O  O18  1  0.726472  0.043953  0.911570  1
  O  O19  1  0.588430  0.456047  0.773528  1
  O  O20  1  0.456047  0.773528  0.588430  1
  O  O21  1  0.773528  0.588430  0.456047  1
