# generated using pymatgen
data_Tm2Cr2Co10As7
_symmetry_space_group_name_H-M   'P 1'
_cell_length_a   3.73715400
_cell_length_b   9.39447783
_cell_length_c   9.42484709
_cell_angle_alpha   119.90314077
_cell_angle_beta   90.00000000
_cell_angle_gamma   90.00000000
_symmetry_Int_Tables_number   1
_chemical_formula_structural   Tm2Cr2Co10As7
_chemical_formula_sum   'Tm2 Cr2 Co10 As7'
_cell_volume   286.84127042
_cell_formula_units_Z   1
loop_
 _symmetry_equiv_pos_site_id
 _symmetry_equiv_pos_as_xyz
  1  'x, y, z'
loop_
 _atom_site_type_symbol
 _atom_site_label
 _atom_site_symmetry_multiplicity
 _atom_site_fract_x
 _atom_site_fract_y
 _atom_site_fract_z
 _atom_site_occupancy
  Tm  Tm0  1  0.000000  0.671508  0.337521  1
  Tm  Tm1  1  0.500000  0.332161  0.666606  1
  Cr  Cr2  1  0.500000  0.774814  0.892827  1
  Cr  Cr3  1  0.500000  0.120812  0.223628  1
  Co  Co4  1  0.000000  0.568188  0.940560  1
  Co  Co5  1  0.000000  0.370913  0.431621  1
  Co  Co6  1  0.000000  0.059236  0.628247  1
  Co  Co7  1  0.500000  0.095848  0.878141  1
  Co  Co8  1  0.000000  0.879351  0.156815  1
  Co  Co9  1  0.000000  0.281786  0.122756  1
  Co  Co10  1  0.000000  0.841509  0.721235  1
  Co  Co11  1  0.500000  0.947510  0.381930  1
  Co  Co12  1  0.500000  0.433342  0.049232  1
  Co  Co13  1  0.500000  0.618301  0.565134  1
  As  As14  1  0.000000  0.002309  0.998568  1
  As  As15  1  0.500000  0.707847  0.118253  1
  As  As16  1  0.500000  0.413406  0.291857  1
  As  As17  1  0.500000  0.886533  0.595089  1
  As  As18  1  0.000000  0.585135  0.701552  1
  As  As19  1  0.000000  0.115152  0.414154  1
  As  As20  1  0.000000  0.294334  0.884273  1
