# generated using pymatgen
data_Zr4CuSi4
_symmetry_space_group_name_H-M   'P 1'
_cell_length_a   5.27309505
_cell_length_b   5.27309443
_cell_length_c   8.74689182
_cell_angle_alpha   71.63090796
_cell_angle_beta   71.63090908
_cell_angle_gamma   42.20640466
_symmetry_Int_Tables_number   1
_chemical_formula_structural   Zr4CuSi4
_chemical_formula_sum   'Zr4 Cu1 Si4'
_cell_volume   153.78666004
_cell_formula_units_Z   1
loop_
 _symmetry_equiv_pos_site_id
 _symmetry_equiv_pos_as_xyz
  1  'x, y, z'
loop_
 _atom_site_type_symbol
 _atom_site_label
 _atom_site_symmetry_multiplicity
 _atom_site_fract_x
 _atom_site_fract_y
 _atom_site_fract_z
 _atom_site_occupancy
  Zr  Zr0  1  0.108552  0.108552  0.618292  1
  Zr  Zr1  1  0.891448  0.891448  0.381708  1
  Zr  Zr2  1  0.755807  0.755807  0.842966  1
  Zr  Zr3  1  0.244193  0.244193  0.157034  1
  Cu  Cu4  1  0.000000  0.000000  0.000000  1
  Si  Si5  1  0.386739  0.386739  0.614591  1
  Si  Si6  1  0.613261  0.613261  0.385409  1
  Si  Si7  1  0.464391  0.464391  0.851228  1
  Si  Si8  1  0.535609  0.535609  0.148772  1
