# generated using pymatgen
data_Nd10CdSi4Ge
_symmetry_space_group_name_H-M   'P 1'
_cell_length_a   7.76273000
_cell_length_b   9.22647287
_cell_length_c   7.76273000
_cell_angle_alpha   114.87734404
_cell_angle_beta   90.00000000
_cell_angle_gamma   114.87734404
_symmetry_Int_Tables_number   1
_chemical_formula_structural   Nd10CdSi4Ge
_chemical_formula_sum   'Nd10 Cd1 Si4 Ge1'
_cell_volume   446.89100282
_cell_formula_units_Z   1
loop_
 _symmetry_equiv_pos_site_id
 _symmetry_equiv_pos_as_xyz
  1  'x, y, z'
loop_
 _atom_site_type_symbol
 _atom_site_label
 _atom_site_symmetry_multiplicity
 _atom_site_fract_x
 _atom_site_fract_y
 _atom_site_fract_z
 _atom_site_occupancy
  Nd  Nd0  1  0.973760  0.947519  0.973760  1
  Nd  Nd1  1  0.526240  0.052481  0.526240  1
  Nd  Nd2  1  0.522194  0.721665  0.672515  1
  Nd  Nd3  1  0.199473  0.721665  0.049151  1
  Nd  Nd4  1  0.672515  0.721665  0.199473  1
  Nd  Nd5  1  0.049151  0.721665  0.522194  1
  Nd  Nd6  1  0.450849  0.278335  0.300527  1
  Nd  Nd7  1  0.827485  0.278335  0.977806  1
  Nd  Nd8  1  0.300527  0.278335  0.827485  1
  Nd  Nd9  1  0.977806  0.278335  0.450849  1
  Cd  Cd10  1  0.750000  0.500000  0.750000  1
  Si  Si11  1  0.883763  0.000000  0.616237  1
  Si  Si12  1  0.116237  0.000000  0.383763  1
  Si  Si13  1  0.616237  0.000000  0.116237  1
  Si  Si14  1  0.383763  0.000000  0.883763  1
  Ge  Ge15  1  0.250000  0.500000  0.250000  1
