# generated using pymatgen
data_CaHo3FeSb3O14
_symmetry_space_group_name_H-M   'P 1'
_cell_length_a   7.27653456
_cell_length_b   7.27801448
_cell_length_c   7.27546463
_cell_angle_alpha   118.51386274
_cell_angle_beta   61.48394577
_cell_angle_gamma   118.51217560
_symmetry_Int_Tables_number   1
_chemical_formula_structural   CaHo3FeSb3O14
_chemical_formula_sum   'Ca1 Ho3 Fe1 Sb3 O14'
_cell_volume   281.53647718
_cell_formula_units_Z   1
loop_
 _symmetry_equiv_pos_site_id
 _symmetry_equiv_pos_as_xyz
  1  'x, y, z'
loop_
 _atom_site_type_symbol
 _atom_site_label
 _atom_site_symmetry_multiplicity
 _atom_site_fract_x
 _atom_site_fract_y
 _atom_site_fract_z
 _atom_site_occupancy
  Ca  Ca0  1  0.500007  0.500006  0.999996  1
  Ho  Ho1  1  0.000003  0.500013  0.000009  1
  Ho  Ho2  1  0.500010  0.000001  0.999993  1
  Ho  Ho3  1  0.500001  0.499997  0.499997  1
  Fe  Fe4  1  0.999888  0.999895  0.499998  1
  Sb  Sb5  1  0.499985  0.000017  0.499992  1
  Sb  Sb6  1  0.000029  0.499992  0.500015  1
  Sb  Sb7  1  0.000007  0.000006  0.999996  1
  O  O8  1  0.627696  0.372229  0.127571  1
  O  O9  1  0.372314  0.627785  0.872431  1
  O  O10  1  0.082858  0.325593  0.174207  1
  O  O11  1  0.674367  0.917323  0.174212  1
  O  O12  1  0.674386  0.325553  0.583858  1
  O  O13  1  0.917148  0.674433  0.825799  1
  O  O14  1  0.325656  0.082680  0.825778  1
  O  O15  1  0.325631  0.674465  0.416145  1
  O  O16  1  0.647556  0.906764  0.592439  1
  O  O17  1  0.093296  0.352706  0.592602  1
  O  O18  1  0.092564  0.907334  0.148043  1
  O  O19  1  0.352459  0.093239  0.407563  1
  O  O20  1  0.906702  0.647298  0.407390  1
  O  O21  1  0.907436  0.092673  0.851964  1
