# generated using pymatgen
data_Tb2TmNb3(B2Ru5)2
_symmetry_space_group_name_H-M   'P 1'
_cell_length_a   9.62098999
_cell_length_b   9.62099045
_cell_length_c   3.11522400
_cell_angle_alpha   90.00000000
_cell_angle_beta   90.00000000
_cell_angle_gamma   90.70679226
_symmetry_Int_Tables_number   1
_chemical_formula_structural   Tb2TmNb3(B2Ru5)2
_chemical_formula_sum   'Tb2 Tm1 Nb3 B4 Ru10'
_cell_volume   288.33394984
_cell_formula_units_Z   1
loop_
 _symmetry_equiv_pos_site_id
 _symmetry_equiv_pos_as_xyz
  1  'x, y, z'
loop_
 _atom_site_type_symbol
 _atom_site_label
 _atom_site_symmetry_multiplicity
 _atom_site_fract_x
 _atom_site_fract_y
 _atom_site_fract_z
 _atom_site_occupancy
  Tb  Tb0  1  0.824122  0.675230  0.000000  1
  Tb  Tb1  1  0.175230  0.324122  0.000000  1
  Tm  Tm2  1  0.325720  0.825720  0.000000  1
  Nb  Nb3  1  0.675446  0.175446  0.000000  1
  Nb  Nb4  1  0.497892  0.503250  0.000000  1
  Nb  Nb5  1  0.003250  0.997892  0.000000  1
  B  B6  1  0.622379  0.881348  0.000000  1
  B  B7  1  0.381348  0.122379  0.000000  1
  B  B8  1  0.119861  0.619861  0.000000  1
  B  B9  1  0.876078  0.376078  0.000000  1
  Ru  Ru10  1  0.569378  0.722960  0.500000  1
  Ru  Ru11  1  0.440942  0.279665  0.500000  1
  Ru  Ru12  1  0.071398  0.780723  0.500000  1
  Ru  Ru13  1  0.915243  0.213295  0.500000  1
  Ru  Ru14  1  0.280723  0.571398  0.500000  1
  Ru  Ru15  1  0.713295  0.415243  0.500000  1
  Ru  Ru16  1  0.222960  0.069378  0.500000  1
  Ru  Ru17  1  0.779665  0.940942  0.500000  1
  Ru  Ru18  1  0.508809  0.008809  0.500000  1
  Ru  Ru19  1  0.996261  0.496261  0.500000  1
