# generated using pymatgen
data_Na6Ga7Pd16
_symmetry_space_group_name_H-M   'P 1'
_cell_length_a   8.88898094
_cell_length_b   8.88898164
_cell_length_c   8.88898000
_cell_angle_alpha   59.99999867
_cell_angle_beta   59.99999605
_cell_angle_gamma   59.99999784
_symmetry_Int_Tables_number   1
_chemical_formula_structural   Na6Ga7Pd16
_chemical_formula_sum   'Na6 Ga7 Pd16'
_cell_volume   496.63908031
_cell_formula_units_Z   1
loop_
 _symmetry_equiv_pos_site_id
 _symmetry_equiv_pos_as_xyz
  1  'x, y, z'
loop_
 _atom_site_type_symbol
 _atom_site_label
 _atom_site_symmetry_multiplicity
 _atom_site_fract_x
 _atom_site_fract_y
 _atom_site_fract_z
 _atom_site_occupancy
  Na  Na0  1  0.704426  0.295574  0.295574  1
  Na  Na1  1  0.295574  0.704426  0.704426  1
  Na  Na2  1  0.295574  0.704426  0.295574  1
  Na  Na3  1  0.295574  0.295574  0.704426  1
  Na  Na4  1  0.704426  0.295574  0.704426  1
  Na  Na5  1  0.704426  0.704426  0.295574  1
  Ga  Ga6  1  0.500000  0.000000  0.000000  1
  Ga  Ga7  1  0.000000  0.500000  0.500000  1
  Ga  Ga8  1  0.000000  0.500000  0.000000  1
  Ga  Ga9  1  0.000000  0.000000  0.500000  1
  Ga  Ga10  1  0.500000  0.000000  0.500000  1
  Ga  Ga11  1  0.500000  0.500000  0.000000  1
  Ga  Ga12  1  0.000000  0.000000  0.000000  1
  Pd  Pd13  1  0.331467  0.331467  0.331467  1
  Pd  Pd14  1  0.331467  0.331467  0.005602  1
  Pd  Pd15  1  0.005602  0.331467  0.331467  1
  Pd  Pd16  1  0.331467  0.005602  0.331467  1
  Pd  Pd17  1  0.668533  0.668533  0.668533  1
  Pd  Pd18  1  0.668533  0.668533  0.994398  1
  Pd  Pd19  1  0.668533  0.994398  0.668533  1
  Pd  Pd20  1  0.994398  0.668533  0.668533  1
  Pd  Pd21  1  0.117409  0.117409  0.117409  1
  Pd  Pd22  1  0.117409  0.117409  0.647774  1
  Pd  Pd23  1  0.647774  0.117409  0.117409  1
  Pd  Pd24  1  0.117409  0.647774  0.117409  1
  Pd  Pd25  1  0.882591  0.882591  0.882591  1
  Pd  Pd26  1  0.882591  0.882591  0.352226  1
  Pd  Pd27  1  0.882591  0.352226  0.882591  1
  Pd  Pd28  1  0.352226  0.882591  0.882591  1
