# generated using pymatgen
data_Tb9Ho(Pb3Br)2
_symmetry_space_group_name_H-M   'P 1'
_cell_length_a   9.30640800
_cell_length_b   9.30640859
_cell_length_c   6.69880900
_cell_angle_alpha   90.00000000
_cell_angle_beta   90.00000000
_cell_angle_gamma   119.99999081
_symmetry_Int_Tables_number   1
_chemical_formula_structural   Tb9Ho(Pb3Br)2
_chemical_formula_sum   'Tb9 Ho1 Pb6 Br2'
_cell_volume   502.44956114
_cell_formula_units_Z   1
loop_
 _symmetry_equiv_pos_site_id
 _symmetry_equiv_pos_as_xyz
  1  'x, y, z'
loop_
 _atom_site_type_symbol
 _atom_site_label
 _atom_site_symmetry_multiplicity
 _atom_site_fract_x
 _atom_site_fract_y
 _atom_site_fract_z
 _atom_site_occupancy
  Tb  Tb0  1  0.267321  0.999959  0.249949  1
  Tb  Tb1  1  0.732638  0.999959  0.750051  1
  Tb  Tb2  1  0.000041  0.267362  0.249949  1
  Tb  Tb3  1  0.000041  0.732679  0.750051  1
  Tb  Tb4  1  0.732638  0.732679  0.249949  1
  Tb  Tb5  1  0.267321  0.267362  0.750051  1
  Tb  Tb6  1  0.666667  0.333333  0.000000  1
  Tb  Tb7  1  0.666667  0.333333  0.500000  1
  Tb  Tb8  1  0.333333  0.666667  0.500000  1
  Ho  Ho9  1  0.333333  0.666667  0.000000  1
  Pb  Pb10  1  0.612242  0.999834  0.249902  1
  Pb  Pb11  1  0.387591  0.999834  0.750098  1
  Pb  Pb12  1  0.000166  0.612409  0.249902  1
  Pb  Pb13  1  0.000166  0.387758  0.750098  1
  Pb  Pb14  1  0.387591  0.387758  0.249902  1
  Pb  Pb15  1  0.612242  0.612409  0.750098  1
  Br  Br16  1  0.000000  0.000000  0.000000  1
  Br  Br17  1  0.000000  0.000000  0.500000  1
