# generated using pymatgen
data_NdDy3(ZnGa)4
_symmetry_space_group_name_H-M   'P 1'
_cell_length_a   4.45748200
_cell_length_b   7.24377962
_cell_length_c   7.69672075
_cell_angle_alpha   90.18424715
_cell_angle_beta   90.00000000
_cell_angle_gamma   90.00000000
_symmetry_Int_Tables_number   1
_chemical_formula_structural   NdDy3(ZnGa)4
_chemical_formula_sum   'Nd1 Dy3 Zn4 Ga4'
_cell_volume   248.51826431
_cell_formula_units_Z   1
loop_
 _symmetry_equiv_pos_site_id
 _symmetry_equiv_pos_as_xyz
  1  'x, y, z'
loop_
 _atom_site_type_symbol
 _atom_site_label
 _atom_site_symmetry_multiplicity
 _atom_site_fract_x
 _atom_site_fract_y
 _atom_site_fract_z
 _atom_site_occupancy
  Nd  Nd0  1  0.250000  0.999486  0.756450  1
  Dy  Dy1  1  0.250000  0.499215  0.743917  1
  Dy  Dy2  1  0.750000  0.999384  0.245057  1
  Dy  Dy3  1  0.750000  0.498739  0.255135  1
  Zn  Zn4  1  0.250000  0.785961  0.413887  1
  Zn  Zn5  1  0.250000  0.295958  0.084102  1
  Zn  Zn6  1  0.750000  0.282031  0.582194  1
  Zn  Zn7  1  0.750000  0.763304  0.919248  1
  Ga  Ga8  1  0.250000  0.216465  0.412818  1
  Ga  Ga9  1  0.250000  0.709432  0.085627  1
  Ga  Ga10  1  0.750000  0.718124  0.582025  1
  Ga  Ga11  1  0.750000  0.231903  0.919538  1
