# generated using pymatgen
data_Cs2Zn(CO3)2
_symmetry_space_group_name_H-M   'P 1'
_cell_length_a   7.45126508
_cell_length_b   7.13632186
_cell_length_c   9.89376120
_cell_angle_alpha   101.33769517
_cell_angle_beta   67.87900047
_cell_angle_gamma   121.47095592
_symmetry_Int_Tables_number   1
_chemical_formula_structural   Cs2Zn(CO3)2
_chemical_formula_sum   'Cs4 Zn2 C4 O12'
_cell_volume   415.68146627
_cell_formula_units_Z   2
loop_
 _symmetry_equiv_pos_site_id
 _symmetry_equiv_pos_as_xyz
  1  'x, y, z'
loop_
 _atom_site_type_symbol
 _atom_site_label
 _atom_site_symmetry_multiplicity
 _atom_site_fract_x
 _atom_site_fract_y
 _atom_site_fract_z
 _atom_site_occupancy
  Cs  Cs0  1  0.645652  0.331331  0.093151  1
  Cs  Cs1  1  0.988804  0.831330  0.406849  1
  Cs  Cs2  1  0.564323  0.168670  0.593151  1
  Cs  Cs3  1  0.407474  0.668671  0.906850  1
  Zn  Zn4  1  0.977524  0.000000  0.000000  1
  Zn  Zn5  1  0.227525  0.500001  0.500000  1
  C  C6  1  0.097754  0.317245  0.228582  1
  C  C7  1  0.576337  0.817246  0.271419  1
  C  C8  1  0.030509  0.182754  0.728582  1
  C  C9  1  0.009090  0.682754  0.771418  1
  O  O10  1  0.180800  0.241466  0.101875  1
  O  O11  1  0.461198  0.884243  0.250452  1
  O  O12  1  0.750596  0.816453  0.168031  1
  O  O13  1  0.168626  0.316452  0.331969  1
  O  O14  1  0.961648  0.384242  0.249548  1
  O  O15  1  0.532675  0.741467  0.398125  1
  O  O16  1  0.189333  0.258534  0.601875  1
  O  O17  1  0.826954  0.615758  0.750452  1
  O  O18  1  0.184143  0.683548  0.668031  1
  O  O19  1  0.102174  0.183547  0.831969  1
  O  O20  1  0.827406  0.115757  0.749549  1
  O  O21  1  0.041208  0.758533  0.898125  1
