# generated using pymatgen
data_La7NdRu4
_symmetry_space_group_name_H-M   'P 1'
_cell_length_a   7.40580520
_cell_length_b   5.26901900
_cell_length_c   8.56390823
_cell_angle_alpha   90.00000000
_cell_angle_beta   89.97347431
_cell_angle_gamma   90.00000000
_symmetry_Int_Tables_number   1
_chemical_formula_structural   La7NdRu4
_chemical_formula_sum   'La7 Nd1 Ru4'
_cell_volume   334.17503875
_cell_formula_units_Z   1
loop_
 _symmetry_equiv_pos_site_id
 _symmetry_equiv_pos_as_xyz
  1  'x, y, z'
loop_
 _atom_site_type_symbol
 _atom_site_label
 _atom_site_symmetry_multiplicity
 _atom_site_fract_x
 _atom_site_fract_y
 _atom_site_fract_z
 _atom_site_occupancy
  La  La0  1  0.028274  0.750000  0.158945  1
  La  La1  1  0.525227  0.750000  0.340023  1
  La  La2  1  0.870078  0.250000  0.396687  1
  La  La3  1  0.129963  0.750000  0.603413  1
  La  La4  1  0.473060  0.250000  0.658902  1
  La  La5  1  0.973203  0.250000  0.842204  1
  La  La6  1  0.628726  0.750000  0.897988  1
  Nd  Nd7  1  0.367796  0.250000  0.099332  1
  Ru  Ru8  1  0.758234  0.250000  0.068049  1
  Ru  Ru9  1  0.254254  0.250000  0.435022  1
  Ru  Ru10  1  0.745212  0.750000  0.568057  1
  Ru  Ru11  1  0.245973  0.750000  0.931377  1
