# generated using pymatgen
data_Y3Zr4UF28
_symmetry_space_group_name_H-M   'P 1'
_cell_length_a   5.80138671
_cell_length_b   9.22014726
_cell_length_c   12.37005131
_cell_angle_alpha   62.11002587
_cell_angle_beta   89.91574649
_cell_angle_gamma   89.89992283
_symmetry_Int_Tables_number   1
_chemical_formula_structural   Y3Zr4UF28
_chemical_formula_sum   'Y3 Zr4 U1 F28'
_cell_volume   584.81395736
_cell_formula_units_Z   1
loop_
 _symmetry_equiv_pos_site_id
 _symmetry_equiv_pos_as_xyz
  1  'x, y, z'
loop_
 _atom_site_type_symbol
 _atom_site_label
 _atom_site_symmetry_multiplicity
 _atom_site_fract_x
 _atom_site_fract_y
 _atom_site_fract_z
 _atom_site_occupancy
  Y  Y0  1  0.744200  0.818605  0.265657  1
  Y  Y1  1  0.243530  0.185208  0.233673  1
  Y  Y2  1  0.257604  0.190497  0.733831  1
  Zr  Zr3  1  0.743151  0.279972  0.451442  1
  Zr  Zr4  1  0.244682  0.725012  0.050671  1
  Zr  Zr5  1  0.254713  0.725249  0.539625  1
  Zr  Zr6  1  0.755224  0.270463  0.956989  1
  U  U7  1  0.757974  0.817280  0.765692  1
  F  F8  1  0.462341  0.712138  0.925745  1
  F  F9  1  0.965418  0.287154  0.576612  1
  F  F10  1  0.532065  0.286004  0.078728  1
  F  F11  1  0.031996  0.710230  0.417972  1
  F  F12  1  0.457334  0.280742  0.550084  1
  F  F13  1  0.955927  0.716199  0.957403  1
  F  F14  1  0.546200  0.719385  0.447143  1
  F  F15  1  0.043031  0.278418  0.051655  1
  F  F16  1  0.765741  0.518977  0.859786  1
  F  F17  1  0.265198  0.474129  0.638300  1
  F  F18  1  0.235447  0.474450  0.143897  1
  F  F19  1  0.732259  0.527881  0.356360  1
  F  F20  1  0.759060  0.021422  0.059497  1
  F  F21  1  0.259300  0.974706  0.440361  1
  F  F22  1  0.239303  0.973228  0.942456  1
  F  F23  1  0.737918  0.029702  0.554910  1
  F  F24  1  0.984089  0.732238  0.643046  1
  F  F25  1  0.485699  0.264802  0.851590  1
  F  F26  1  0.009367  0.265169  0.348603  1
  F  F27  1  0.513017  0.735239  0.153565  1
  F  F28  1  0.032895  0.747157  0.175497  1
  F  F29  1  0.529797  0.254453  0.328264  1
  F  F30  1  0.967540  0.250468  0.829857  1
  F  F31  1  0.461135  0.737493  0.670505  1
  F  F32  1  0.433268  0.976897  0.235880  1
  F  F33  1  0.934151  0.025609  0.264490  1
  F  F34  1  0.572968  0.035815  0.766923  1
  F  F35  1  0.086457  0.977614  0.733289  1
