# generated using pymatgen
data_Ce2AgHg3
_symmetry_space_group_name_H-M   'P 1'
_cell_length_a   6.12665849
_cell_length_b   6.12214109
_cell_length_c   6.12214097
_cell_angle_alpha   131.19861941
_cell_angle_beta   111.55052588
_cell_angle_gamma   88.49611703
_symmetry_Int_Tables_number   1
_chemical_formula_structural   Ce2AgHg3
_chemical_formula_sum   'Ce2 Ag1 Hg3'
_cell_volume   152.87929134
_cell_formula_units_Z   1
loop_
 _symmetry_equiv_pos_site_id
 _symmetry_equiv_pos_as_xyz
  1  'x, y, z'
loop_
 _atom_site_type_symbol
 _atom_site_label
 _atom_site_symmetry_multiplicity
 _atom_site_fract_x
 _atom_site_fract_y
 _atom_site_fract_z
 _atom_site_occupancy
  Ce  Ce0  1  0.750747  0.500331  0.250416  1
  Ce  Ce1  1  0.248982  0.499468  0.749514  1
  Ag  Ag2  1  0.333113  0.831437  0.501676  1
  Hg  Hg3  1  0.174619  0.174319  0.000301  1
  Hg  Hg4  1  0.833171  0.835154  0.998017  1
  Hg  Hg5  1  0.659367  0.159291  0.500076  1
