# generated using pymatgen
data_Pr9Nd11(CoPd2)4
_symmetry_space_group_name_H-M   'P 1'
_cell_length_a   8.59703900
_cell_length_b   8.31256700
_cell_length_c   12.06662601
_cell_angle_alpha   90.00000000
_cell_angle_beta   90.00378356
_cell_angle_gamma   90.00000000
_symmetry_Int_Tables_number   1
_chemical_formula_structural   Pr9Nd11(CoPd2)4
_chemical_formula_sum   'Pr9 Nd11 Co4 Pd8'
_cell_volume   862.32287599
_cell_formula_units_Z   1
loop_
 _symmetry_equiv_pos_site_id
 _symmetry_equiv_pos_as_xyz
  1  'x, y, z'
loop_
 _atom_site_type_symbol
 _atom_site_label
 _atom_site_symmetry_multiplicity
 _atom_site_fract_x
 _atom_site_fract_y
 _atom_site_fract_z
 _atom_site_occupancy
  Pr  Pr0  1  0.665958  0.750000  0.293832  1
  Pr  Pr1  1  0.375584  0.750000  0.695272  1
  Pr  Pr2  1  0.624171  0.250000  0.304911  1
  Pr  Pr3  1  0.875734  0.250000  0.804870  1
  Pr  Pr4  1  0.124750  0.750000  0.195336  1
  Pr  Pr5  1  0.965047  0.750000  0.496182  1
  Pr  Pr6  1  0.035398  0.250000  0.504108  1
  Pr  Pr7  1  0.464628  0.250000  0.004104  1
  Pr  Pr8  1  0.535366  0.750000  0.995655  1
  Nd  Nd9  1  0.834878  0.750000  0.793850  1
  Nd  Nd10  1  0.164992  0.250000  0.205784  1
  Nd  Nd11  1  0.334688  0.250000  0.705743  1
  Nd  Nd12  1  0.670660  0.035490  0.582482  1
  Nd  Nd13  1  0.328949  0.965536  0.417897  1
  Nd  Nd14  1  0.170664  0.965258  0.917630  1
  Nd  Nd15  1  0.328949  0.534464  0.417897  1
  Nd  Nd16  1  0.829506  0.035427  0.082154  1
  Nd  Nd17  1  0.670660  0.464510  0.582482  1
  Nd  Nd18  1  0.829506  0.464573  0.082154  1
  Nd  Nd19  1  0.170664  0.534742  0.917630  1
  Co  Co20  1  0.561542  0.750000  0.509063  1
  Co  Co21  1  0.438012  0.250000  0.491622  1
  Co  Co22  1  0.061931  0.250000  0.991597  1
  Co  Co23  1  0.938217  0.750000  0.008379  1
  Pd  Pd24  1  0.562810  0.476334  0.824541  1
  Pd  Pd25  1  0.436446  0.523018  0.175102  1
  Pd  Pd26  1  0.062845  0.523752  0.675434  1
  Pd  Pd27  1  0.436446  0.976982  0.175102  1
  Pd  Pd28  1  0.937672  0.475767  0.324605  1
  Pd  Pd29  1  0.562810  0.023666  0.824541  1
  Pd  Pd30  1  0.937672  0.024233  0.324605  1
  Pd  Pd31  1  0.062845  0.976248  0.675434  1
