# generated using pymatgen
data_CaPr8Lu11Si16
_symmetry_space_group_name_H-M   'P 1'
_cell_length_a   7.41575296
_cell_length_b   7.73490500
_cell_length_c   14.68428500
_cell_angle_alpha   90.00000000
_cell_angle_beta   90.00000000
_cell_angle_gamma   90.05825294
_symmetry_Int_Tables_number   1
_chemical_formula_structural   CaPr8Lu11Si16
_chemical_formula_sum   'Ca1 Pr8 Lu11 Si16'
_cell_volume   842.29227607
_cell_formula_units_Z   1
loop_
 _symmetry_equiv_pos_site_id
 _symmetry_equiv_pos_as_xyz
  1  'x, y, z'
loop_
 _atom_site_type_symbol
 _atom_site_label
 _atom_site_symmetry_multiplicity
 _atom_site_fract_x
 _atom_site_fract_y
 _atom_site_fract_z
 _atom_site_occupancy
  Ca  Ca0  1  0.660526  0.989942  0.750000  1
  Pr  Pr1  1  0.015226  0.174875  0.401088  1
  Pr  Pr2  1  0.514947  0.326016  0.400796  1
  Pr  Pr3  1  0.484110  0.676929  0.901832  1
  Pr  Pr4  1  0.484110  0.676929  0.598168  1
  Pr  Pr5  1  0.983175  0.824952  0.596886  1
  Pr  Pr6  1  0.983175  0.824952  0.903114  1
  Pr  Pr7  1  0.514947  0.326016  0.099204  1
  Pr  Pr8  1  0.015226  0.174875  0.098912  1
  Lu  Lu9  1  0.329356  0.179047  0.622312  1
  Lu  Lu10  1  0.672485  0.820699  0.375198  1
  Lu  Lu11  1  0.172337  0.677510  0.376399  1
  Lu  Lu12  1  0.828230  0.320558  0.878175  1
  Lu  Lu13  1  0.828230  0.320558  0.621825  1
  Lu  Lu14  1  0.839905  0.493307  0.250000  1
  Lu  Lu15  1  0.340011  0.006722  0.250000  1
  Lu  Lu16  1  0.329356  0.179047  0.877688  1
  Lu  Lu17  1  0.172337  0.677510  0.123601  1
  Lu  Lu18  1  0.672485  0.820699  0.124802  1
  Lu  Lu19  1  0.159254  0.507395  0.750000  1
  Si  Si20  1  0.270572  0.881236  0.750000  1
  Si  Si21  1  0.466199  0.617519  0.250000  1
  Si  Si22  1  0.040953  0.120711  0.750000  1
  Si  Si23  1  0.534549  0.387460  0.750000  1
  Si  Si24  1  0.153242  0.467145  0.539924  1
  Si  Si25  1  0.967750  0.881457  0.250000  1
  Si  Si26  1  0.716828  0.120460  0.250000  1
  Si  Si27  1  0.847553  0.533424  0.040118  1
  Si  Si28  1  0.348737  0.965594  0.039792  1
  Si  Si29  1  0.153242  0.467145  0.960076  1
  Si  Si30  1  0.652391  0.036289  0.533651  1
  Si  Si31  1  0.348737  0.965594  0.460208  1
  Si  Si32  1  0.847553  0.533424  0.459882  1
  Si  Si33  1  0.782741  0.607682  0.750000  1
  Si  Si34  1  0.217135  0.380034  0.250000  1
  Si  Si35  1  0.652391  0.036289  0.966349  1
