# generated using pymatgen
data_Y3MgIn2Ga2Ag
_symmetry_space_group_name_H-M   'P 1'
_cell_length_a   7.28687500
_cell_length_b   7.29445180
_cell_length_c   4.50424100
_cell_angle_alpha   90.00000000
_cell_angle_beta   90.00000000
_cell_angle_gamma   119.96565031
_symmetry_Int_Tables_number   1
_chemical_formula_structural   Y3MgIn2Ga2Ag
_chemical_formula_sum   'Y3 Mg1 In2 Ga2 Ag1'
_cell_volume   207.41322694
_cell_formula_units_Z   1
loop_
 _symmetry_equiv_pos_site_id
 _symmetry_equiv_pos_as_xyz
  1  'x, y, z'
loop_
 _atom_site_type_symbol
 _atom_site_label
 _atom_site_symmetry_multiplicity
 _atom_site_fract_x
 _atom_site_fract_y
 _atom_site_fract_z
 _atom_site_occupancy
  Y  Y0  1  0.000369  0.574817  0.500000  1
  Y  Y1  1  0.425552  0.425183  0.500000  1
  Y  Y2  1  0.575422  0.000000  0.500000  1
  Mg  Mg3  1  0.241904  0.000000  0.000000  1
  In  In4  1  0.002930  0.252039  0.000000  1
  In  In5  1  0.750890  0.747961  0.000000  1
  Ga  Ga6  1  0.334862  0.673155  0.000000  1
  Ga  Ga7  1  0.661708  0.326845  0.000000  1
  Ag  Ag8  1  0.006362  0.000000  0.500000  1
