# generated using pymatgen
data_Nd4Er12Cd4IrPt3
_symmetry_space_group_name_H-M   'P 1'
_cell_length_a   9.69370853
_cell_length_b   9.65295395
_cell_length_c   9.65295198
_cell_angle_alpha   60.35204800
_cell_angle_beta   60.16693759
_cell_angle_gamma   60.16693641
_symmetry_Int_Tables_number   1
_chemical_formula_structural   Nd4Er12Cd4IrPt3
_chemical_formula_sum   'Nd4 Er12 Cd4 Ir1 Pt3'
_cell_volume   641.99935017
_cell_formula_units_Z   1
loop_
 _symmetry_equiv_pos_site_id
 _symmetry_equiv_pos_as_xyz
  1  'x, y, z'
loop_
 _atom_site_type_symbol
 _atom_site_label
 _atom_site_symmetry_multiplicity
 _atom_site_fract_x
 _atom_site_fract_y
 _atom_site_fract_z
 _atom_site_occupancy
  Nd  Nd0  1  0.568036  0.933494  0.566262  1
  Nd  Nd1  1  0.937318  0.562259  0.935101  1
  Nd  Nd2  1  0.568036  0.566262  0.933494  1
  Nd  Nd3  1  0.937318  0.935101  0.562259  1
  Er  Er4  1  0.354994  0.345134  0.345134  1
  Er  Er5  1  0.352090  0.353103  0.948842  1
  Er  Er6  1  0.352090  0.948842  0.353103  1
  Er  Er7  1  0.938070  0.353577  0.353577  1
  Er  Er8  1  0.809751  0.186435  0.186435  1
  Er  Er9  1  0.188284  0.812333  0.812333  1
  Er  Er10  1  0.191206  0.811275  0.188078  1
  Er  Er11  1  0.809382  0.186317  0.814510  1
  Er  Er12  1  0.191206  0.188078  0.811275  1
  Er  Er13  1  0.809382  0.814510  0.186317  1
  Er  Er14  1  0.948020  0.553866  0.553866  1
  Er  Er15  1  0.556463  0.946897  0.946897  1
  Cd  Cd16  1  0.584643  0.577552  0.577552  1
  Cd  Cd17  1  0.575862  0.585507  0.258407  1
  Cd  Cd18  1  0.575862  0.258407  0.585507  1
  Cd  Cd19  1  0.258538  0.579194  0.579194  1
  Ir  Ir20  1  0.572807  0.138322  0.138322  1
  Pt  Pt21  1  0.143940  0.143266  0.143266  1
  Pt  Pt22  1  0.138349  0.148560  0.571703  1
  Pt  Pt23  1  0.138349  0.571703  0.148560  1
