# generated using pymatgen
data_Y7Pa(CdIr)2
_symmetry_space_group_name_H-M   'P 1'
_cell_length_a   9.67768820
_cell_length_b   9.67768796
_cell_length_c   9.72960900
_cell_angle_alpha   59.82237055
_cell_angle_beta   59.82237140
_cell_angle_gamma   59.63763597
_symmetry_Int_Tables_number   1
_chemical_formula_structural   Y7Pa(CdIr)2
_chemical_formula_sum   'Y14 Pa2 Cd4 Ir4'
_cell_volume   640.84837761
_cell_formula_units_Z   2
loop_
 _symmetry_equiv_pos_site_id
 _symmetry_equiv_pos_as_xyz
  1  'x, y, z'
loop_
 _atom_site_type_symbol
 _atom_site_label
 _atom_site_symmetry_multiplicity
 _atom_site_fract_x
 _atom_site_fract_y
 _atom_site_fract_z
 _atom_site_occupancy
  Y  Y0  1  0.351994  0.946317  0.350844  1
  Y  Y1  1  0.946317  0.351994  0.350844  1
  Y  Y2  1  0.809919  0.190672  0.190090  1
  Y  Y3  1  0.190672  0.809919  0.809319  1
  Y  Y4  1  0.190672  0.809919  0.190090  1
  Y  Y5  1  0.809919  0.190672  0.809319  1
  Y  Y6  1  0.189488  0.189488  0.810512  1
  Y  Y7  1  0.811053  0.811053  0.188947  1
  Y  Y8  1  0.940260  0.562070  0.562698  1
  Y  Y9  1  0.562070  0.940260  0.934973  1
  Y  Y10  1  0.562070  0.940260  0.562698  1
  Y  Y11  1  0.940260  0.562070  0.934973  1
  Y  Y12  1  0.561509  0.561509  0.938491  1
  Y  Y13  1  0.938300  0.938300  0.561700  1
  Pa  Pa14  1  0.343479  0.343479  0.348005  1
  Pa  Pa15  1  0.343479  0.343479  0.965036  1
  Cd  Cd16  1  0.579548  0.579548  0.583724  1
  Cd  Cd17  1  0.579548  0.579548  0.257182  1
  Cd  Cd18  1  0.577770  0.255104  0.583563  1
  Cd  Cd19  1  0.255104  0.577770  0.583563  1
  Ir  Ir20  1  0.148184  0.148184  0.135601  1
  Ir  Ir21  1  0.148184  0.148184  0.568033  1
  Ir  Ir22  1  0.155656  0.564549  0.139898  1
  Ir  Ir23  1  0.564549  0.155656  0.139898  1
