# generated using pymatgen
data_Ca6LaCeBi6
_symmetry_space_group_name_H-M   'P 1'
_cell_length_a   8.48564237
_cell_length_b   8.41630834
_cell_length_c   8.51424875
_cell_angle_alpha   109.42389807
_cell_angle_beta   109.81112532
_cell_angle_gamma   109.30586900
_symmetry_Int_Tables_number   1
_chemical_formula_structural   Ca6LaCeBi6
_chemical_formula_sum   'Ca6 La1 Ce1 Bi6'
_cell_volume   467.34765207
_cell_formula_units_Z   1
loop_
 _symmetry_equiv_pos_site_id
 _symmetry_equiv_pos_as_xyz
  1  'x, y, z'
loop_
 _atom_site_type_symbol
 _atom_site_label
 _atom_site_symmetry_multiplicity
 _atom_site_fract_x
 _atom_site_fract_y
 _atom_site_fract_z
 _atom_site_occupancy
  Ca  Ca0  1  0.636229  0.638750  0.640481  1
  Ca  Ca1  1  0.858417  0.498884  0.996311  1
  Ca  Ca2  1  0.504494  0.003735  0.863026  1
  Ca  Ca3  1  0.503328  0.997884  0.360649  1
  Ca  Ca4  1  0.359379  0.502635  0.995913  1
  Ca  Ca5  1  0.997517  0.359883  0.502393  1
  La  La6  1  0.143373  0.143622  0.143126  1
  Ce  Ce7  1  0.000330  0.854998  0.500005  1
  Bi  Bi8  1  0.751384  0.874983  0.127568  1
  Bi  Bi9  1  0.373468  0.246332  0.622580  1
  Bi  Bi10  1  0.245300  0.623924  0.374065  1
  Bi  Bi11  1  0.875950  0.124609  0.749375  1
  Bi  Bi12  1  0.623850  0.378063  0.251751  1
  Bi  Bi13  1  0.126981  0.751698  0.872759  1
