# generated using pymatgen
data_V15P12W
_symmetry_space_group_name_H-M   'P 1'
_cell_length_a   6.83648246
_cell_length_b   6.83648246
_cell_length_c   17.26230800
_cell_angle_alpha   90.00000000
_cell_angle_beta   90.00000000
_cell_angle_gamma   152.46170413
_symmetry_Int_Tables_number   1
_chemical_formula_structural   V15P12W
_chemical_formula_sum   'V15 P12 W1'
_cell_volume   373.01563216
_cell_formula_units_Z   1
loop_
 _symmetry_equiv_pos_site_id
 _symmetry_equiv_pos_as_xyz
  1  'x, y, z'
loop_
 _atom_site_type_symbol
 _atom_site_label
 _atom_site_symmetry_multiplicity
 _atom_site_fract_x
 _atom_site_fract_y
 _atom_site_fract_z
 _atom_site_occupancy
  V  V0  1  0.736895  0.263105  0.661407  1
  V  V1  1  0.261793  0.738207  0.339045  1
  V  V2  1  0.736895  0.263105  0.838593  1
  V  V3  1  0.261793  0.738207  0.160955  1
  V  V4  1  0.534172  0.465828  0.620038  1
  V  V5  1  0.466287  0.533713  0.380203  1
  V  V6  1  0.534172  0.465828  0.879962  1
  V  V7  1  0.466287  0.533713  0.119797  1
  V  V8  1  0.668092  0.331908  0.473796  1
  V  V9  1  0.333505  0.666495  0.528093  1
  V  V10  1  0.668092  0.331908  0.026204  1
  V  V11  1  0.333505  0.666495  0.971907  1
  V  V12  1  0.999536  0.000464  0.501011  1
  V  V13  1  0.999536  0.000464  0.998989  1
  V  V14  1  0.942610  0.057390  0.750000  1
  P  P15  1  0.903038  0.096962  0.617504  1
  P  P16  1  0.097558  0.902442  0.386388  1
  P  P17  1  0.903038  0.096962  0.882496  1
  P  P18  1  0.097558  0.902442  0.113612  1
  P  P19  1  0.842080  0.157920  0.423875  1
  P  P20  1  0.158184  0.841816  0.576969  1
  P  P21  1  0.842080  0.157920  0.076125  1
  P  P22  1  0.158184  0.841816  0.923031  1
  P  P23  1  0.699779  0.300221  0.250000  1
  P  P24  1  0.304601  0.695399  0.750000  1
  P  P25  1  0.411498  0.588502  0.250000  1
  P  P26  1  0.583556  0.416444  0.750000  1
  W  W27  1  0.055676  0.944324  0.250000  1
