# generated using pymatgen
data_YPu2(Ni3As2)3
_symmetry_space_group_name_H-M   'P 1'
_cell_length_a   3.91794300
_cell_length_b   10.91160200
_cell_length_c   12.90230100
_cell_angle_alpha   90.00000000
_cell_angle_beta   90.00000000
_cell_angle_gamma   90.00000000
_symmetry_Int_Tables_number   1
_chemical_formula_structural   YPu2(Ni3As2)3
_chemical_formula_sum   'Y2 Pu4 Ni18 As12'
_cell_volume   551.58671743
_cell_formula_units_Z   2
loop_
 _symmetry_equiv_pos_site_id
 _symmetry_equiv_pos_as_xyz
  1  'x, y, z'
loop_
 _atom_site_type_symbol
 _atom_site_label
 _atom_site_symmetry_multiplicity
 _atom_site_fract_x
 _atom_site_fract_y
 _atom_site_fract_z
 _atom_site_occupancy
  Y  Y0  1  0.000000  0.500000  0.520747  1
  Y  Y1  1  0.500000  0.000000  0.479253  1
  Pu  Pu2  1  0.500000  0.816238  0.206817  1
  Pu  Pu3  1  0.500000  0.183762  0.206817  1
  Pu  Pu4  1  0.000000  0.683762  0.793183  1
  Pu  Pu5  1  0.000000  0.316238  0.793183  1
  Ni  Ni6  1  0.500000  0.500000  0.156186  1
  Ni  Ni7  1  0.000000  0.000000  0.843814  1
  Ni  Ni8  1  0.500000  0.500000  0.698839  1
  Ni  Ni9  1  0.000000  0.000000  0.301161  1
  Ni  Ni10  1  0.000000  0.500000  0.983856  1
  Ni  Ni11  1  0.500000  0.000000  0.016144  1
  Ni  Ni12  1  0.500000  0.333310  0.998395  1
  Ni  Ni13  1  0.500000  0.666690  0.998395  1
  Ni  Ni14  1  0.000000  0.166690  0.001605  1
  Ni  Ni15  1  0.000000  0.833310  0.001605  1
  Ni  Ni16  1  0.500000  0.303480  0.427816  1
  Ni  Ni17  1  0.500000  0.696520  0.427816  1
  Ni  Ni18  1  0.000000  0.196520  0.572184  1
  Ni  Ni19  1  0.000000  0.803480  0.572184  1
  Ni  Ni20  1  0.500000  0.880442  0.706581  1
  Ni  Ni21  1  0.500000  0.119558  0.706581  1
  Ni  Ni22  1  0.000000  0.619558  0.293419  1
  Ni  Ni23  1  0.000000  0.380442  0.293419  1
  As  As24  1  0.500000  0.500000  0.877632  1
  As  As25  1  0.000000  0.000000  0.122368  1
  As  As26  1  0.500000  0.500000  0.343134  1
  As  As27  1  0.000000  0.000000  0.656866  1
  As  As28  1  0.500000  0.313229  0.613591  1
  As  As29  1  0.500000  0.686771  0.613591  1
  As  As30  1  0.000000  0.186771  0.386409  1
  As  As31  1  0.000000  0.813229  0.386409  1
  As  As32  1  0.500000  0.846885  0.890336  1
  As  As33  1  0.500000  0.153115  0.890336  1
  As  As34  1  0.000000  0.653115  0.109664  1
  As  As35  1  0.000000  0.346885  0.109664  1
