# generated using pymatgen
data_Ti8Al15Os2Pd5
_symmetry_space_group_name_H-M   'P 1'
_cell_length_a   8.69414321
_cell_length_b   8.72638885
_cell_length_c   8.69408495
_cell_angle_alpha   120.04334329
_cell_angle_beta   119.84402389
_cell_angle_gamma   89.99378200
_symmetry_Int_Tables_number   1
_chemical_formula_structural   Ti8Al15Os2Pd5
_chemical_formula_sum   'Ti8 Al15 Os2 Pd5'
_cell_volume   467.22923133
_cell_formula_units_Z   1
loop_
 _symmetry_equiv_pos_site_id
 _symmetry_equiv_pos_as_xyz
  1  'x, y, z'
loop_
 _atom_site_type_symbol
 _atom_site_label
 _atom_site_symmetry_multiplicity
 _atom_site_fract_x
 _atom_site_fract_y
 _atom_site_fract_z
 _atom_site_occupancy
  Ti  Ti0  1  0.789112  0.286857  0.078383  1
  Ti  Ti1  1  0.208361  0.286839  0.497736  1
  Ti  Ti2  1  0.209147  0.715931  0.506702  1
  Ti  Ti3  1  0.220128  0.718617  0.928052  1
  Ti  Ti4  1  0.790623  0.718768  0.498559  1
  Ti  Ti5  1  0.787632  0.277517  0.489970  1
  Ti  Ti6  1  0.370817  0.114297  0.743497  1
  Ti  Ti7  1  0.380113  0.636582  0.256503  1
  Al  Al8  1  0.997970  0.500816  0.502740  1
  Al  Al9  1  0.156141  0.348666  0.192489  1
  Al  Al10  1  0.153464  0.965287  0.811865  1
  Al  Al11  1  0.154083  0.346921  0.809216  1
  Al  Al12  1  0.537859  0.346942  0.192909  1
  Al  Al13  1  0.848835  0.651773  0.802967  1
  Al  Al14  1  0.842366  0.029260  0.186887  1
  Al  Al15  1  0.845526  0.655809  0.191234  1
  Al  Al16  1  0.464499  0.655766  0.810219  1
  Al  Al17  1  0.381150  0.120685  0.254960  1
  Al  Al18  1  0.865720  0.120691  0.739554  1
  Al  Al19  1  0.623745  0.877896  0.254154  1
  Al  Al20  1  0.620892  0.364111  0.743192  1
  Al  Al21  1  0.617473  0.879248  0.744447  1
  Al  Al22  1  0.134813  0.879259  0.261774  1
  Os  Os23  1  0.002035  0.001045  0.503236  1
  Os  Os24  1  0.497814  0.001030  0.999020  1
  Pd  Pd25  1  0.500225  0.497283  0.997090  1
  Pd  Pd26  1  0.501310  0.499719  0.502416  1
  Pd  Pd27  1  0.997282  0.499754  0.998441  1
  Pd  Pd28  1  0.000097  0.001525  0.001454  1
  Pd  Pd29  1  0.500762  0.001108  0.500335  1
