# generated using pymatgen
data_Er5Mn3(Si3Ni4)4
_symmetry_space_group_name_H-M   'P 1'
_cell_length_a   12.32210200
_cell_length_b   12.32210132
_cell_length_c   3.74140000
_cell_angle_alpha   90.00000000
_cell_angle_beta   90.00000000
_cell_angle_gamma   120.00000719
_symmetry_Int_Tables_number   1
_chemical_formula_structural   Er5Mn3(Si3Ni4)4
_chemical_formula_sum   'Er5 Mn3 Si12 Ni16'
_cell_volume   491.96512515
_cell_formula_units_Z   1
loop_
 _symmetry_equiv_pos_site_id
 _symmetry_equiv_pos_as_xyz
  1  'x, y, z'
loop_
 _atom_site_type_symbol
 _atom_site_label
 _atom_site_symmetry_multiplicity
 _atom_site_fract_x
 _atom_site_fract_y
 _atom_site_fract_z
 _atom_site_occupancy
  Er  Er0  1  0.187188  0.187188  0.500000  1
  Er  Er1  1  0.812812  0.000000  0.500000  1
  Er  Er2  1  0.000000  0.812812  0.500000  1
  Er  Er3  1  0.333333  0.666667  0.000000  1
  Er  Er4  1  0.666667  0.333333  0.000000  1
  Mn  Mn5  1  0.563113  0.563113  0.000000  1
  Mn  Mn6  1  0.436887  0.000000  0.000000  1
  Mn  Mn7  1  0.000000  0.436887  0.000000  1
  Si  Si8  1  0.819136  0.819136  0.000000  1
  Si  Si9  1  0.180864  0.000000  0.000000  1
  Si  Si10  1  0.000000  0.180864  0.000000  1
  Si  Si11  1  0.163912  0.479525  0.500000  1
  Si  Si12  1  0.520475  0.684388  0.500000  1
  Si  Si13  1  0.315612  0.836088  0.500000  1
  Si  Si14  1  0.684388  0.520475  0.500000  1
  Si  Si15  1  0.836088  0.315612  0.500000  1
  Si  Si16  1  0.479525  0.163912  0.500000  1
  Si  Si17  1  0.367716  0.367716  0.000000  1
  Si  Si18  1  0.632284  0.000000  0.000000  1
  Si  Si19  1  0.000000  0.632284  0.000000  1
  Ni  Ni20  1  0.718941  0.718941  0.500000  1
  Ni  Ni21  1  0.281059  0.000000  0.500000  1
  Ni  Ni22  1  0.000000  0.281059  0.500000  1
  Ni  Ni23  1  0.180930  0.377346  0.000000  1
  Ni  Ni24  1  0.622654  0.803583  0.000000  1
  Ni  Ni25  1  0.196417  0.819070  0.000000  1
  Ni  Ni26  1  0.803583  0.622654  0.000000  1
  Ni  Ni27  1  0.819070  0.196417  0.000000  1
  Ni  Ni28  1  0.377346  0.180930  0.000000  1
  Ni  Ni29  1  0.356869  0.480460  0.500000  1
  Ni  Ni30  1  0.519540  0.876410  0.500000  1
  Ni  Ni31  1  0.123590  0.643131  0.500000  1
  Ni  Ni32  1  0.876410  0.519540  0.500000  1
  Ni  Ni33  1  0.643131  0.123590  0.500000  1
  Ni  Ni34  1  0.480460  0.356869  0.500000  1
  Ni  Ni35  1  0.000000  0.000000  0.000000  1
