# generated using pymatgen
data_Ti2BeB3Mo4
_symmetry_space_group_name_H-M   'P 1'
_cell_length_a   6.06192251
_cell_length_b   6.06192244
_cell_length_c   3.18006300
_cell_angle_alpha   90.00000000
_cell_angle_beta   90.00000000
_cell_angle_gamma   89.85883780
_symmetry_Int_Tables_number   1
_chemical_formula_structural   Ti2BeB3Mo4
_chemical_formula_sum   'Ti2 Be1 B3 Mo4'
_cell_volume   116.85711532
_cell_formula_units_Z   1
loop_
 _symmetry_equiv_pos_site_id
 _symmetry_equiv_pos_as_xyz
  1  'x, y, z'
loop_
 _atom_site_type_symbol
 _atom_site_label
 _atom_site_symmetry_multiplicity
 _atom_site_fract_x
 _atom_site_fract_y
 _atom_site_fract_z
 _atom_site_occupancy
  Ti  Ti0  1  0.998910  0.002433  0.000000  1
  Ti  Ti1  1  0.502433  0.498910  0.000000  1
  Be  Be2  1  0.112403  0.612403  0.000000  1
  B  B3  1  0.885779  0.385779  0.000000  1
  B  B4  1  0.610147  0.889658  0.000000  1
  B  B5  1  0.389658  0.110147  0.000000  1
  Mo  Mo6  1  0.676513  0.176513  0.500000  1
  Mo  Mo7  1  0.332504  0.832504  0.500000  1
  Mo  Mo8  1  0.175114  0.316541  0.500000  1
  Mo  Mo9  1  0.816541  0.675114  0.500000  1
