# generated using pymatgen
data_PrNd3Y6(Sn5Rh2)4
_symmetry_space_group_name_H-M   'P 1'
_cell_length_a   14.15471504
_cell_length_b   14.15471504
_cell_length_c   4.57131800
_cell_angle_alpha   90.00000000
_cell_angle_beta   90.00000000
_cell_angle_gamma   89.99181530
_symmetry_Int_Tables_number   1
_chemical_formula_structural   PrNd3Y6(Sn5Rh2)4
_chemical_formula_sum   'Pr1 Nd3 Y6 Sn20 Rh8'
_cell_volume   915.89078674
_cell_formula_units_Z   1
loop_
 _symmetry_equiv_pos_site_id
 _symmetry_equiv_pos_as_xyz
  1  'x, y, z'
loop_
 _atom_site_type_symbol
 _atom_site_label
 _atom_site_symmetry_multiplicity
 _atom_site_fract_x
 _atom_site_fract_y
 _atom_site_fract_z
 _atom_site_occupancy
  Pr  Pr0  1  0.611899  0.888101  0.500000  1
  Nd  Nd1  1  0.888111  0.388106  0.500000  1
  Nd  Nd2  1  0.111894  0.611889  0.500000  1
  Nd  Nd3  1  0.388074  0.111926  0.500000  1
  Y  Y4  1  0.499988  0.499981  0.000000  1
  Y  Y5  1  0.000019  0.000012  0.000000  1
  Y  Y6  1  0.677332  0.177358  0.500000  1
  Y  Y7  1  0.322642  0.822668  0.500000  1
  Y  Y8  1  0.177334  0.322666  0.500000  1
  Y  Y9  1  0.822693  0.677307  0.500000  1
  Sn  Sn10  1  0.570221  0.070348  0.000000  1
  Sn  Sn11  1  0.429652  0.929779  0.000000  1
  Sn  Sn12  1  0.070217  0.429783  0.000000  1
  Sn  Sn13  1  0.929785  0.570215  0.000000  1
  Sn  Sn14  1  0.654283  0.698095  0.000000  1
  Sn  Sn15  1  0.345748  0.301801  0.000000  1
  Sn  Sn16  1  0.154246  0.801783  0.000000  1
  Sn  Sn17  1  0.845761  0.198219  0.000000  1
  Sn  Sn18  1  0.301781  0.654239  0.000000  1
  Sn  Sn19  1  0.698217  0.345754  0.000000  1
  Sn  Sn20  1  0.198199  0.154252  0.000000  1
  Sn  Sn21  1  0.801905  0.845717  0.000000  1
  Sn  Sn22  1  0.661657  0.505678  0.500000  1
  Sn  Sn23  1  0.338371  0.494325  0.500000  1
  Sn  Sn24  1  0.161647  0.994319  0.500000  1
  Sn  Sn25  1  0.838401  0.005693  0.500000  1
  Sn  Sn26  1  0.494307  0.661599  0.500000  1
  Sn  Sn27  1  0.505681  0.338353  0.500000  1
  Sn  Sn28  1  0.005675  0.161629  0.500000  1
  Sn  Sn29  1  0.994322  0.838343  0.500000  1
  Rh  Rh30  1  0.746209  0.529181  0.000000  1
  Rh  Rh31  1  0.253794  0.470816  0.000000  1
  Rh  Rh32  1  0.246165  0.970862  0.000000  1
  Rh  Rh33  1  0.753968  0.029335  0.000000  1
  Rh  Rh34  1  0.470665  0.746032  0.000000  1
  Rh  Rh35  1  0.529138  0.253835  0.000000  1
  Rh  Rh36  1  0.029184  0.246206  0.000000  1
  Rh  Rh37  1  0.970819  0.753791  0.000000  1
