# generated using pymatgen
data_Pr7ThTlPd24
_symmetry_space_group_name_H-M   'P 1'
_cell_length_a   8.57515931
_cell_length_b   8.57515952
_cell_length_c   8.57515900
_cell_angle_alpha   89.86930112
_cell_angle_beta   89.86930112
_cell_angle_gamma   89.86929731
_symmetry_Int_Tables_number   1
_chemical_formula_structural   Pr7ThTlPd24
_chemical_formula_sum   'Pr7 Th1 Tl1 Pd24'
_cell_volume   630.55533094
_cell_formula_units_Z   1
loop_
 _symmetry_equiv_pos_site_id
 _symmetry_equiv_pos_as_xyz
  1  'x, y, z'
loop_
 _atom_site_type_symbol
 _atom_site_label
 _atom_site_symmetry_multiplicity
 _atom_site_fract_x
 _atom_site_fract_y
 _atom_site_fract_z
 _atom_site_occupancy
  Pr  Pr0  1  0.748410  0.748410  0.748410  1
  Pr  Pr1  1  0.748681  0.748681  0.250241  1
  Pr  Pr2  1  0.748681  0.250241  0.748681  1
  Pr  Pr3  1  0.251422  0.251422  0.750955  1
  Pr  Pr4  1  0.251422  0.750955  0.251422  1
  Pr  Pr5  1  0.250241  0.748681  0.748681  1
  Pr  Pr6  1  0.750955  0.251422  0.251422  1
  Th  Th7  1  0.253394  0.253394  0.253394  1
  Tl  Tl8  1  0.997501  0.997501  0.997501  1
  Pd  Pd9  1  0.267811  0.498361  0.004661  1
  Pd  Pd10  1  0.732078  0.498846  0.999713  1
  Pd  Pd11  1  0.004661  0.267811  0.498361  1
  Pd  Pd12  1  0.498361  0.267811  0.004661  1
  Pd  Pd13  1  0.999713  0.732078  0.498846  1
  Pd  Pd14  1  0.498846  0.732078  0.999713  1
  Pd  Pd15  1  0.498361  0.004661  0.267811  1
  Pd  Pd16  1  0.267811  0.004661  0.498361  1
  Pd  Pd17  1  0.498846  0.999713  0.732078  1
  Pd  Pd18  1  0.732078  0.999713  0.498846  1
  Pd  Pd19  1  0.004661  0.498361  0.267811  1
  Pd  Pd20  1  0.999713  0.498846  0.732078  1
  Pd  Pd21  1  0.255790  0.498239  0.498239  1
  Pd  Pd22  1  0.745534  0.499390  0.499390  1
  Pd  Pd23  1  0.498239  0.255790  0.498239  1
  Pd  Pd24  1  0.499390  0.745534  0.499390  1
  Pd  Pd25  1  0.498239  0.498239  0.255790  1
  Pd  Pd26  1  0.499390  0.499390  0.745534  1
  Pd  Pd27  1  0.315888  0.002115  0.002115  1
  Pd  Pd28  1  0.680238  0.999705  0.999705  1
  Pd  Pd29  1  0.002115  0.315888  0.002115  1
  Pd  Pd30  1  0.999705  0.680238  0.999705  1
  Pd  Pd31  1  0.002115  0.002115  0.315888  1
  Pd  Pd32  1  0.999705  0.999705  0.680238  1
