# generated using pymatgen
data_Be2Si2NiRu3
_symmetry_space_group_name_H-M   'P 1'
_cell_length_a   3.99505400
_cell_length_b   5.72669601
_cell_length_c   11.98441904
_cell_angle_alpha   90.00740392
_cell_angle_beta   90.00473289
_cell_angle_gamma   90.00023464
_symmetry_Int_Tables_number   1
_chemical_formula_structural   Be2Si2NiRu3
_chemical_formula_sum   'Be6 Si6 Ni3 Ru9'
_cell_volume   274.18504624
_cell_formula_units_Z   3
loop_
 _symmetry_equiv_pos_site_id
 _symmetry_equiv_pos_as_xyz
  1  'x, y, z'
loop_
 _atom_site_type_symbol
 _atom_site_label
 _atom_site_symmetry_multiplicity
 _atom_site_fract_x
 _atom_site_fract_y
 _atom_site_fract_z
 _atom_site_occupancy
  Be  Be0  1  0.000000  0.002461  0.001665  1
  Be  Be1  1  0.499487  0.501571  0.164069  1
  Be  Be2  1  0.999619  0.997462  0.333414  1
  Be  Be3  1  0.499999  0.499513  0.499170  1
  Be  Be4  1  0.000424  0.001573  0.668541  1
  Be  Be5  1  0.500420  0.500937  0.834228  1
  Si  Si6  1  0.000053  0.498147  0.001232  1
  Si  Si7  1  0.499629  0.997502  0.164149  1
  Si  Si8  1  0.999679  0.502630  0.331582  1
  Si  Si9  1  0.500000  0.001246  0.497830  1
  Si  Si10  1  0.000337  0.498290  0.670526  1
  Si  Si11  1  0.500348  0.998551  0.834770  1
  Ni  Ni12  1  0.500095  0.249786  0.007232  1
  Ni  Ni13  1  0.499995  0.750601  0.001175  1
  Ni  Ni14  1  0.999616  0.250298  0.158338  1
  Ru  Ru15  1  0.999689  0.751042  0.156492  1
  Ru  Ru16  1  0.499689  0.250670  0.323196  1
  Ru  Ru17  1  0.499726  0.749586  0.327816  1
  Ru  Ru18  1  0.000006  0.250187  0.497479  1
  Ru  Ru19  1  0.000003  0.749826  0.500843  1
  Ru  Ru20  1  0.500359  0.249950  0.669262  1
  Ru  Ru21  1  0.500256  0.749915  0.668518  1
  Ru  Ru22  1  0.000339  0.248309  0.845310  1
  Ru  Ru23  1  0.000229  0.749958  0.843165  1
