# generated using pymatgen
data_SmTl3Pd4F28
_symmetry_space_group_name_H-M   'P 1'
_cell_length_a   5.48582292
_cell_length_b   8.80858888
_cell_length_c   11.89664600
_cell_angle_alpha   62.54772592
_cell_angle_beta   90.10334676
_cell_angle_gamma   90.04165316
_symmetry_Int_Tables_number   1
_chemical_formula_structural   SmTl3Pd4F28
_chemical_formula_sum   'Sm1 Tl3 Pd4 F28'
_cell_volume   510.13956329
_cell_formula_units_Z   1
loop_
 _symmetry_equiv_pos_site_id
 _symmetry_equiv_pos_as_xyz
  1  'x, y, z'
loop_
 _atom_site_type_symbol
 _atom_site_label
 _atom_site_symmetry_multiplicity
 _atom_site_fract_x
 _atom_site_fract_y
 _atom_site_fract_z
 _atom_site_occupancy
  Sm  Sm0  1  0.738640  0.813175  0.264940  1
  Tl  Tl1  1  0.763544  0.815723  0.762807  1
  Tl  Tl2  1  0.263734  0.185314  0.737112  1
  Tl  Tl3  1  0.233697  0.189280  0.236200  1
  Pd  Pd4  1  0.761317  0.276503  0.953789  1
  Pd  Pd5  1  0.258467  0.725070  0.547819  1
  Pd  Pd6  1  0.242717  0.724121  0.041703  1
  Pd  Pd7  1  0.738378  0.270265  0.456687  1
  F  F8  1  0.427120  0.693122  0.915093  1
  F  F9  1  0.921965  0.300017  0.584654  1
  F  F10  1  0.580130  0.307752  0.081376  1
  F  F11  1  0.075013  0.704338  0.415546  1
  F  F12  1  0.428001  0.274584  0.536009  1
  F  F13  1  0.931696  0.718529  0.962847  1
  F  F14  1  0.564067  0.723732  0.465211  1
  F  F15  1  0.072143  0.282835  0.031978  1
  F  F16  1  0.787329  0.524761  0.850734  1
  F  F17  1  0.284109  0.474337  0.645658  1
  F  F18  1  0.215152  0.475519  0.146698  1
  F  F19  1  0.718521  0.518028  0.359360  1
  F  F20  1  0.755765  0.028855  0.047855  1
  F  F21  1  0.253666  0.972209  0.459550  1
  F  F22  1  0.247709  0.971659  0.952726  1
  F  F23  1  0.744623  0.022581  0.545872  1
  F  F24  1  0.950180  0.718790  0.630965  1
  F  F25  1  0.451448  0.278983  0.871101  1
  F  F26  1  0.047455  0.278976  0.372380  1
  F  F27  1  0.543573  0.721636  0.128880  1
  F  F28  1  0.065483  0.742898  0.176876  1
  F  F29  1  0.566335  0.257326  0.316013  1
  F  F30  1  0.932439  0.257825  0.815184  1
  F  F31  1  0.430773  0.736446  0.687862  1
  F  F32  1  0.391976  0.970982  0.226994  1
  F  F33  1  0.898776  0.043523  0.271537  1
  F  F34  1  0.606736  0.036396  0.773957  1
  F  F35  1  0.107325  0.963907  0.726023  1
