# generated using pymatgen
data_Cd2GeB2Rh5
_symmetry_space_group_name_H-M   'P 1'
_cell_length_a   9.62192200
_cell_length_b   9.62192200
_cell_length_c   2.93674200
_cell_angle_alpha   90.00000000
_cell_angle_beta   90.00000000
_cell_angle_gamma   90.00000000
_symmetry_Int_Tables_number   1
_chemical_formula_structural   Cd2GeB2Rh5
_chemical_formula_sum   'Cd4 Ge2 B4 Rh10'
_cell_volume   271.88763580
_cell_formula_units_Z   2
loop_
 _symmetry_equiv_pos_site_id
 _symmetry_equiv_pos_as_xyz
  1  'x, y, z'
loop_
 _atom_site_type_symbol
 _atom_site_label
 _atom_site_symmetry_multiplicity
 _atom_site_fract_x
 _atom_site_fract_y
 _atom_site_fract_z
 _atom_site_occupancy
  Cd  Cd0  1  0.824304  0.324304  0.000000  1
  Cd  Cd1  1  0.324304  0.175696  0.000000  1
  Cd  Cd2  1  0.675696  0.824304  0.000000  1
  Cd  Cd3  1  0.175696  0.675696  0.000000  1
  Ge  Ge4  1  0.000000  0.000000  0.000000  1
  Ge  Ge5  1  0.500000  0.500000  0.000000  1
  B  B6  1  0.624904  0.124904  0.000000  1
  B  B7  1  0.124904  0.375096  0.000000  1
  B  B8  1  0.875096  0.624904  0.000000  1
  B  B9  1  0.375096  0.875096  0.000000  1
  Rh  Rh10  1  0.070392  0.214706  0.500000  1
  Rh  Rh11  1  0.214706  0.929608  0.500000  1
  Rh  Rh12  1  0.785294  0.070392  0.500000  1
  Rh  Rh13  1  0.929608  0.785294  0.500000  1
  Rh  Rh14  1  0.429608  0.714706  0.500000  1
  Rh  Rh15  1  0.570392  0.285294  0.500000  1
  Rh  Rh16  1  0.714706  0.570392  0.500000  1
  Rh  Rh17  1  0.285294  0.429608  0.500000  1
  Rh  Rh18  1  0.500000  0.000000  0.500000  1
  Rh  Rh19  1  0.000000  0.500000  0.500000  1
