# generated using pymatgen
data_La2Dy7Er11Bi12
_symmetry_space_group_name_H-M   'P 1'
_cell_length_a   8.31455324
_cell_length_b   9.51698502
_cell_length_c   12.16879500
_cell_angle_alpha   90.00048163
_cell_angle_beta   90.03124390
_cell_angle_gamma   89.99606242
_symmetry_Int_Tables_number   1
_chemical_formula_structural   La2Dy7Er11Bi12
_chemical_formula_sum   'La2 Dy7 Er11 Bi12'
_cell_volume   962.91025831
_cell_formula_units_Z   1
loop_
 _symmetry_equiv_pos_site_id
 _symmetry_equiv_pos_as_xyz
  1  'x, y, z'
loop_
 _atom_site_type_symbol
 _atom_site_label
 _atom_site_symmetry_multiplicity
 _atom_site_fract_x
 _atom_site_fract_y
 _atom_site_fract_z
 _atom_site_occupancy
  La  La0  1  0.183926  0.749979  0.722163  1
  La  La1  1  0.684323  0.750107  0.777973  1
  Dy  Dy2  1  0.813940  0.249670  0.281650  1
  Dy  Dy3  1  0.313797  0.249870  0.217917  1
  Dy  Dy4  1  0.808005  0.436274  0.559182  1
  Dy  Dy5  1  0.353954  0.749825  0.217926  1
  Dy  Dy6  1  0.853716  0.749543  0.281940  1
  Dy  Dy7  1  0.646946  0.249500  0.784772  1
  Dy  Dy8  1  0.147907  0.249524  0.715728  1
  Er  Er9  1  0.023991  0.749851  0.990349  1
  Er  Er10  1  0.523899  0.749992  0.509672  1
  Er  Er11  1  0.975407  0.249842  0.013232  1
  Er  Er12  1  0.474720  0.249654  0.486737  1
  Er  Er13  1  0.307809  0.434307  0.940992  1
  Er  Er14  1  0.807565  0.065725  0.559349  1
  Er  Er15  1  0.692508  0.935145  0.061409  1
  Er  Er16  1  0.192498  0.565028  0.438494  1
  Er  Er17  1  0.692382  0.564779  0.061435  1
  Er  Er18  1  0.193157  0.935542  0.438222  1
  Er  Er19  1  0.307753  0.065473  0.941099  1
  Bi  Bi20  1  0.434958  0.010178  0.669842  1
  Bi  Bi21  1  0.935174  0.489359  0.830332  1
  Bi  Bi22  1  0.566412  0.503395  0.326789  1
  Bi  Bi23  1  0.066420  0.996087  0.173045  1
  Bi  Bi24  1  0.566435  0.996222  0.326888  1
  Bi  Bi25  1  0.066591  0.503537  0.172943  1
  Bi  Bi26  1  0.434613  0.489396  0.669882  1
  Bi  Bi27  1  0.935010  0.010342  0.830359  1
  Bi  Bi28  1  0.404689  0.749914  0.964029  1
  Bi  Bi29  1  0.905430  0.752136  0.535594  1
  Bi  Bi30  1  0.593120  0.249995  0.042472  1
  Bi  Bi31  1  0.092949  0.249810  0.457585  1
