# generated using pymatgen
data_LaEu3(Si5Pt3)2
_symmetry_space_group_name_H-M   'P 1'
_cell_length_a   8.33000299
_cell_length_b   8.33865389
_cell_length_c   8.33865439
_cell_angle_alpha   137.28732069
_cell_angle_beta   104.98144378
_cell_angle_gamma   90.40134623
_symmetry_Int_Tables_number   1
_chemical_formula_structural   LaEu3(Si5Pt3)2
_chemical_formula_sum   'La1 Eu3 Si10 Pt6'
_cell_volume   361.98885855
_cell_formula_units_Z   1
loop_
 _symmetry_equiv_pos_site_id
 _symmetry_equiv_pos_as_xyz
  1  'x, y, z'
loop_
 _atom_site_type_symbol
 _atom_site_label
 _atom_site_symmetry_multiplicity
 _atom_site_fract_x
 _atom_site_fract_y
 _atom_site_fract_z
 _atom_site_occupancy
  La  La0  1  0.604209  0.870830  0.733379  1
  Eu  Eu1  1  0.862708  0.629407  0.233301  1
  Eu  Eu2  1  0.137692  0.371064  0.766627  1
  Eu  Eu3  1  0.394595  0.128463  0.266132  1
  Si  Si4  1  0.499840  0.749129  0.247627  1
  Si  Si5  1  0.499840  0.252213  0.750711  1
  Si  Si6  1  0.228814  0.979956  0.749895  1
  Si  Si7  1  0.770840  0.519516  0.751035  1
  Si  Si8  1  0.770840  0.019806  0.251324  1
  Si  Si9  1  0.228814  0.478919  0.248857  1
  Si  Si10  1  0.038696  0.888182  0.150514  1
  Si  Si11  1  0.963889  0.113437  0.850453  1
  Si  Si12  1  0.740516  0.388955  0.351562  1
  Si  Si13  1  0.259108  0.610215  0.648893  1
  Pt  Pt14  1  0.999197  0.751768  0.751353  1
  Pt  Pt15  1  0.999197  0.247844  0.247428  1
  Pt  Pt16  1  0.253718  0.864612  0.389108  1
  Pt  Pt17  1  0.747511  0.135741  0.611769  1
  Pt  Pt18  1  0.476418  0.364159  0.112259  1
  Pt  Pt19  1  0.523562  0.635785  0.887776  1
