# generated using pymatgen
data_Ho8AlGaPd23
_symmetry_space_group_name_H-M   'P 1'
_cell_length_a   8.20272000
_cell_length_b   8.34011400
_cell_length_c   8.48497900
_cell_angle_alpha   90.00000000
_cell_angle_beta   90.00000000
_cell_angle_gamma   90.00000000
_symmetry_Int_Tables_number   1
_chemical_formula_structural   Ho8AlGaPd23
_chemical_formula_sum   'Ho8 Al1 Ga1 Pd23'
_cell_volume   580.47115829
_cell_formula_units_Z   1
loop_
 _symmetry_equiv_pos_site_id
 _symmetry_equiv_pos_as_xyz
  1  'x, y, z'
loop_
 _atom_site_type_symbol
 _atom_site_label
 _atom_site_symmetry_multiplicity
 _atom_site_fract_x
 _atom_site_fract_y
 _atom_site_fract_z
 _atom_site_occupancy
  Ho  Ho0  1  0.251058  0.244280  0.264071  1
  Ho  Ho1  1  0.747618  0.746782  0.747803  1
  Ho  Ho2  1  0.747618  0.746782  0.252197  1
  Ho  Ho3  1  0.747618  0.253218  0.747803  1
  Ho  Ho4  1  0.251058  0.244280  0.735929  1
  Ho  Ho5  1  0.251058  0.755720  0.264071  1
  Ho  Ho6  1  0.251058  0.755720  0.735929  1
  Ho  Ho7  1  0.747618  0.253218  0.252197  1
  Al  Al8  1  0.996286  0.000000  0.000000  1
  Ga  Ga9  1  0.275002  0.500000  0.000000  1
  Pd  Pd10  1  0.744063  0.500000  0.000000  1
  Pd  Pd11  1  0.996503  0.257522  0.500000  1
  Pd  Pd12  1  0.490211  0.262984  0.000000  1
  Pd  Pd13  1  0.996503  0.742478  0.500000  1
  Pd  Pd14  1  0.490211  0.737016  0.000000  1
  Pd  Pd15  1  0.501129  0.000000  0.259653  1
  Pd  Pd16  1  0.257427  0.000000  0.500000  1
  Pd  Pd17  1  0.501129  0.000000  0.740347  1
  Pd  Pd18  1  0.740655  0.000000  0.500000  1
  Pd  Pd19  1  0.004542  0.500000  0.260663  1
  Pd  Pd20  1  0.004542  0.500000  0.739337  1
  Pd  Pd21  1  0.252320  0.500000  0.500000  1
  Pd  Pd22  1  0.746542  0.500000  0.500000  1
  Pd  Pd23  1  0.502244  0.253325  0.500000  1
  Pd  Pd24  1  0.502244  0.746675  0.500000  1
  Pd  Pd25  1  0.492418  0.500000  0.252370  1
  Pd  Pd26  1  0.492418  0.500000  0.747630  1
  Pd  Pd27  1  0.286977  0.000000  0.000000  1
  Pd  Pd28  1  0.705285  0.000000  0.000000  1
  Pd  Pd29  1  0.017132  0.293433  0.000000  1
  Pd  Pd30  1  0.017132  0.706567  0.000000  1
  Pd  Pd31  1  0.996189  0.000000  0.284483  1
  Pd  Pd32  1  0.996189  0.000000  0.715517  1
