# generated using pymatgen
data_Dy2Ho4Al24Ru7Pt
_symmetry_space_group_name_H-M   'P 1'
_cell_length_a   8.82127996
_cell_length_b   8.82128047
_cell_length_c   9.55440900
_cell_angle_alpha   90.17104501
_cell_angle_beta   89.82895216
_cell_angle_gamma   119.86737110
_symmetry_Int_Tables_number   1
_chemical_formula_structural   Dy2Ho4Al24Ru7Pt
_chemical_formula_sum   'Dy2 Ho4 Al24 Ru7 Pt1'
_cell_volume   644.72420896
_cell_formula_units_Z   1
loop_
 _symmetry_equiv_pos_site_id
 _symmetry_equiv_pos_as_xyz
  1  'x, y, z'
loop_
 _atom_site_type_symbol
 _atom_site_label
 _atom_site_symmetry_multiplicity
 _atom_site_fract_x
 _atom_site_fract_y
 _atom_site_fract_z
 _atom_site_occupancy
  Dy  Dy0  1  0.807970  0.613421  0.750218  1
  Dy  Dy1  1  0.386579  0.192030  0.750218  1
  Ho  Ho2  1  0.194609  0.805391  0.249728  1
  Ho  Ho3  1  0.192152  0.386913  0.249681  1
  Ho  Ho4  1  0.613087  0.807848  0.249681  1
  Ho  Ho5  1  0.805467  0.194533  0.750278  1
  Al  Al6  1  0.561841  0.438159  0.247879  1
  Al  Al7  1  0.560661  0.121801  0.251226  1
  Al  Al8  1  0.878199  0.439339  0.251226  1
  Al  Al9  1  0.437924  0.562076  0.752170  1
  Al  Al10  1  0.439410  0.878007  0.748766  1
  Al  Al11  1  0.121993  0.560590  0.748766  1
  Al  Al12  1  0.323567  0.157722  0.422009  1
  Al  Al13  1  0.837497  0.162503  0.422168  1
  Al  Al14  1  0.842278  0.676433  0.422009  1
  Al  Al15  1  0.676359  0.842339  0.577739  1
  Al  Al16  1  0.162569  0.837431  0.577647  1
  Al  Al17  1  0.157661  0.323641  0.577739  1
  Al  Al18  1  0.675859  0.837484  0.921696  1
  Al  Al19  1  0.162646  0.837354  0.921927  1
  Al  Al20  1  0.162516  0.324141  0.921696  1
  Al  Al21  1  0.324063  0.162617  0.078578  1
  Al  Al22  1  0.837418  0.162582  0.078264  1
  Al  Al23  1  0.837383  0.675937  0.078578  1
  Al  Al24  1  0.669281  0.330719  0.519741  1
  Al  Al25  1  0.330836  0.669164  0.480016  1
  Al  Al26  1  0.333196  0.666804  0.016994  1
  Al  Al27  1  0.666864  0.333136  0.983242  1
  Al  Al28  1  0.999677  0.000323  0.249992  1
  Al  Al29  1  0.000202  0.999798  0.750021  1
  Ru  Ru30  1  0.999999  0.000001  0.499976  1
  Ru  Ru31  1  0.000001  0.999999  0.000029  1
  Ru  Ru32  1  0.500023  0.999837  0.499854  1
  Ru  Ru33  1  0.000163  0.499977  0.499854  1
  Ru  Ru34  1  0.499902  0.500098  0.000221  1
  Ru  Ru35  1  0.500012  0.999822  0.000155  1
  Ru  Ru36  1  0.000178  0.499988  0.000155  1
  Pt  Pt37  1  0.499956  0.500044  0.499864  1
