# generated using pymatgen
data_TbDy(CdSn)3
_symmetry_space_group_name_H-M   'P 1'
_cell_length_a   4.63615600
_cell_length_b   4.75508500
_cell_length_c   8.97507500
_cell_angle_alpha   90.00000000
_cell_angle_beta   90.00000000
_cell_angle_gamma   90.00000000
_symmetry_Int_Tables_number   1
_chemical_formula_structural   TbDy(CdSn)3
_chemical_formula_sum   'Tb1 Dy1 Cd3 Sn3'
_cell_volume   197.85836318
_cell_formula_units_Z   1
loop_
 _symmetry_equiv_pos_site_id
 _symmetry_equiv_pos_as_xyz
  1  'x, y, z'
loop_
 _atom_site_type_symbol
 _atom_site_label
 _atom_site_symmetry_multiplicity
 _atom_site_fract_x
 _atom_site_fract_y
 _atom_site_fract_z
 _atom_site_occupancy
  Tb  Tb0  1  0.000000  0.000000  0.243376  1
  Dy  Dy1  1  0.000000  0.000000  0.756669  1
  Cd  Cd2  1  0.500000  0.500000  0.254429  1
  Cd  Cd3  1  0.500000  0.500000  0.745593  1
  Cd  Cd4  1  0.000000  0.500000  0.500052  1
  Sn  Sn5  1  0.000000  0.500000  0.999904  1
  Sn  Sn6  1  0.500000  0.000000  0.500093  1
  Sn  Sn7  1  0.500000  0.000000  0.999885  1
