# generated using pymatgen
data_Y10(InBi)3
_symmetry_space_group_name_H-M   'P 1'
_cell_length_a   6.63369200
_cell_length_b   9.07347525
_cell_length_c   9.09275418
_cell_angle_alpha   120.08958377
_cell_angle_beta   90.00000000
_cell_angle_gamma   90.00002642
_symmetry_Int_Tables_number   1
_chemical_formula_structural   Y10(InBi)3
_chemical_formula_sum   'Y10 In3 Bi3'
_cell_volume   473.54613463
_cell_formula_units_Z   1
loop_
 _symmetry_equiv_pos_site_id
 _symmetry_equiv_pos_as_xyz
  1  'x, y, z'
loop_
 _atom_site_type_symbol
 _atom_site_label
 _atom_site_symmetry_multiplicity
 _atom_site_fract_x
 _atom_site_fract_y
 _atom_site_fract_z
 _atom_site_occupancy
  Y  Y0  1  0.250000  0.244560  0.008582  1
  Y  Y1  1  0.750000  0.757209  0.998062  1
  Y  Y2  1  0.249999  0.998954  0.235242  1
  Y  Y3  1  0.750001  0.242135  0.231819  1
  Y  Y4  1  0.497764  0.656093  0.323723  1
  Y  Y5  1  0.002237  0.656093  0.323722  1
  Y  Y6  1  0.498008  0.339543  0.672690  1
  Y  Y7  1  0.001993  0.339543  0.672690  1
  Y  Y8  1  0.250002  0.755149  0.765104  1
  Y  Y9  1  0.750000  0.008299  0.766740  1
  In  In10  1  0.750000  0.397302  0.996770  1
  In  In11  1  0.250000  0.604396  0.001113  1
  In  In12  1  0.250000  0.393347  0.397863  1
  Bi  Bi13  1  0.749999  0.001333  0.392817  1
  Bi  Bi14  1  0.250000  0.997016  0.607991  1
  Bi  Bi15  1  0.750000  0.609027  0.605072  1
