# generated using pymatgen
data_PrNd9(Pb3N)2
_symmetry_space_group_name_H-M   'P 1'
_cell_length_a   9.24503900
_cell_length_b   9.24535519
_cell_length_c   6.76123400
_cell_angle_alpha   90.00000000
_cell_angle_beta   90.00000000
_cell_angle_gamma   120.00113356
_symmetry_Int_Tables_number   1
_chemical_formula_structural   PrNd9(Pb3N)2
_chemical_formula_sum   'Pr1 Nd9 Pb6 N2'
_cell_volume   500.47684077
_cell_formula_units_Z   1
loop_
 _symmetry_equiv_pos_site_id
 _symmetry_equiv_pos_as_xyz
  1  'x, y, z'
loop_
 _atom_site_type_symbol
 _atom_site_label
 _atom_site_symmetry_multiplicity
 _atom_site_fract_x
 _atom_site_fract_y
 _atom_site_fract_z
 _atom_site_occupancy
  Pr  Pr0  1  0.000000  0.783249  0.250000  1
  Nd  Nd1  1  0.666495  0.333108  0.999694  1
  Nd  Nd2  1  0.333505  0.666613  0.999694  1
  Nd  Nd3  1  0.333505  0.666613  0.500306  1
  Nd  Nd4  1  0.666495  0.333108  0.500306  1
  Nd  Nd5  1  0.785773  0.786009  0.750000  1
  Nd  Nd6  1  0.214227  0.000237  0.750000  1
  Nd  Nd7  1  0.000000  0.214201  0.750000  1
  Nd  Nd8  1  0.214037  0.214148  0.250000  1
  Nd  Nd9  1  0.785963  0.000110  0.250000  1
  Pb  Pb10  1  0.404144  0.404196  0.750000  1
  Pb  Pb11  1  0.595856  0.000052  0.750000  1
  Pb  Pb12  1  0.000000  0.596094  0.750000  1
  Pb  Pb13  1  0.594786  0.595352  0.250000  1
  Pb  Pb14  1  0.405214  0.000566  0.250000  1
  Pb  Pb15  1  0.000000  0.403843  0.250000  1
  N  N16  1  0.000000  0.001251  0.998685  1
  N  N17  1  0.000000  0.001251  0.501315  1
