# generated using pymatgen
data_Sr8Zn3Si12Hg
_symmetry_space_group_name_H-M   'P 1'
_cell_length_a   11.88151682
_cell_length_b   10.28618914
_cell_length_c   8.37836300
_cell_angle_alpha   78.33442080
_cell_angle_beta   58.06742421
_cell_angle_gamma   43.68779338
_symmetry_Int_Tables_number   1
_chemical_formula_structural   Sr8Zn3Si12Hg
_chemical_formula_sum   'Sr8 Zn3 Si12 Hg1'
_cell_volume   571.16209506
_cell_formula_units_Z   1
loop_
 _symmetry_equiv_pos_site_id
 _symmetry_equiv_pos_as_xyz
  1  'x, y, z'
loop_
 _atom_site_type_symbol
 _atom_site_label
 _atom_site_symmetry_multiplicity
 _atom_site_fract_x
 _atom_site_fract_y
 _atom_site_fract_z
 _atom_site_occupancy
  Sr  Sr0  1  0.121475  0.123021  0.879394  1
  Sr  Sr1  1  0.878013  0.874175  0.121970  1
  Sr  Sr2  1  0.123993  0.127680  0.373459  1
  Sr  Sr3  1  0.375504  0.376103  0.122932  1
  Sr  Sr4  1  0.622605  0.619878  0.378797  1
  Sr  Sr5  1  0.376423  0.378033  0.624275  1
  Sr  Sr6  1  0.626483  0.626715  0.874043  1
  Sr  Sr7  1  0.875119  0.874672  0.624531  1
  Zn  Zn8  1  0.082215  0.416860  0.082769  1
  Zn  Zn9  1  0.832871  0.167352  0.832900  1
  Zn  Zn10  1  0.168018  0.833346  0.166537  1
  Si  Si11  1  0.922596  0.593486  0.413250  1
  Si  Si12  1  0.064418  0.426451  0.596186  1
  Si  Si13  1  0.416109  0.079939  0.917933  1
  Si  Si14  1  0.600282  0.916314  0.058513  1
  Si  Si15  1  0.329612  0.658130  0.834490  1
  Si  Si16  1  0.658494  0.330326  0.176786  1
  Si  Si17  1  0.832245  0.168969  0.333753  1
  Si  Si18  1  0.171309  0.834270  0.662514  1
  Si  Si19  1  0.912990  0.580988  0.920640  1
  Si  Si20  1  0.584919  0.904866  0.595029  1
  Si  Si21  1  0.336687  0.668631  0.330695  1
  Si  Si22  1  0.670122  0.337945  0.662498  1
  Hg  Hg23  1  0.417499  0.081856  0.416103  1
