# generated using pymatgen
data_Sr5FeSi9(Pb3O11)3
_symmetry_space_group_name_H-M   'P 1'
_cell_length_a   10.05249000
_cell_length_b   10.05248938
_cell_length_c   10.56325800
_cell_angle_alpha   90.00000000
_cell_angle_beta   90.00000000
_cell_angle_gamma   119.99999633
_symmetry_Int_Tables_number   1
_chemical_formula_structural   Sr5FeSi9(Pb3O11)3
_chemical_formula_sum   'Sr5 Fe1 Si9 Pb9 O33'
_cell_volume   924.43378240
_cell_formula_units_Z   1
loop_
 _symmetry_equiv_pos_site_id
 _symmetry_equiv_pos_as_xyz
  1  'x, y, z'
loop_
 _atom_site_type_symbol
 _atom_site_label
 _atom_site_symmetry_multiplicity
 _atom_site_fract_x
 _atom_site_fract_y
 _atom_site_fract_z
 _atom_site_occupancy
  Sr  Sr0  1  0.000000  0.000000  0.164972  1
  Sr  Sr1  1  0.333333  0.666667  0.180700  1
  Sr  Sr2  1  0.000000  0.000000  0.835028  1
  Sr  Sr3  1  0.333333  0.666667  0.819300  1
  Sr  Sr4  1  0.000000  0.000000  0.500000  1
  Fe  Fe5  1  0.333333  0.666667  0.500000  1
  Si  Si6  1  0.268824  0.950644  0.356125  1
  Si  Si7  1  0.049356  0.318180  0.356125  1
  Si  Si8  1  0.644752  0.932909  0.000000  1
  Si  Si9  1  0.681820  0.731176  0.643875  1
  Si  Si10  1  0.288158  0.355248  0.000000  1
  Si  Si11  1  0.268824  0.950644  0.643875  1
  Si  Si12  1  0.067091  0.711842  0.000000  1
  Si  Si13  1  0.049356  0.318180  0.643875  1
  Si  Si14  1  0.681820  0.731176  0.356125  1
  Pb  Pb15  1  0.932202  0.598874  0.680557  1
  Pb  Pb16  1  0.401126  0.333328  0.319443  1
  Pb  Pb17  1  0.654379  0.589106  0.000000  1
  Pb  Pb18  1  0.934728  0.345621  0.000000  1
  Pb  Pb19  1  0.666672  0.067798  0.680557  1
  Pb  Pb20  1  0.410894  0.065272  0.000000  1
  Pb  Pb21  1  0.932202  0.598874  0.319443  1
  Pb  Pb22  1  0.401126  0.333328  0.680557  1
  Pb  Pb23  1  0.666672  0.067798  0.319443  1
  O  O24  1  0.180709  0.170974  0.000000  1
  O  O25  1  0.291773  0.036370  0.500000  1
  O  O26  1  0.963630  0.255403  0.500000  1
  O  O27  1  0.407874  0.423491  0.122695  1
  O  O28  1  0.136400  0.216030  0.332421  1
  O  O29  1  0.352723  0.089870  0.748674  1
  O  O30  1  0.167951  0.500765  0.640932  1
  O  O31  1  0.015618  0.592126  0.122695  1
  O  O32  1  0.332814  0.832049  0.359068  1
  O  O33  1  0.167951  0.500765  0.359068  1
  O  O34  1  0.783970  0.920369  0.332421  1
  O  O35  1  0.332814  0.832049  0.640932  1
  O  O36  1  0.910130  0.262854  0.748674  1
  O  O37  1  0.352723  0.089870  0.251326  1
  O  O38  1  0.990265  0.819291  0.000000  1
  O  O39  1  0.737146  0.647277  0.748674  1
  O  O40  1  0.737146  0.647277  0.251326  1
  O  O41  1  0.744597  0.708227  0.500000  1
  O  O42  1  0.550730  0.742172  0.000000  1
  O  O43  1  0.136400  0.216030  0.667579  1
  O  O44  1  0.576509  0.984382  0.877305  1
  O  O45  1  0.079631  0.863600  0.332421  1
  O  O46  1  0.910130  0.262854  0.251326  1
  O  O47  1  0.499235  0.667186  0.640932  1
  O  O48  1  0.079631  0.863600  0.667579  1
  O  O49  1  0.576509  0.984382  0.122695  1
  O  O50  1  0.257828  0.808557  0.000000  1
  O  O51  1  0.191443  0.449270  0.000000  1
  O  O52  1  0.499235  0.667186  0.359068  1
  O  O53  1  0.783970  0.920369  0.667579  1
  O  O54  1  0.829026  0.009735  0.000000  1
  O  O55  1  0.015618  0.592126  0.877305  1
  O  O56  1  0.407874  0.423491  0.877305  1
