# generated using pymatgen
data_Zr8Ti2Sn6Se
_symmetry_space_group_name_H-M   'P 1'
_cell_length_a   5.78365900
_cell_length_b   8.54745706
_cell_length_c   8.54747000
_cell_angle_alpha   119.99997923
_cell_angle_beta   89.99983212
_cell_angle_gamma   90.00001743
_symmetry_Int_Tables_number   1
_chemical_formula_structural   Zr8Ti2Sn6Se
_chemical_formula_sum   'Zr8 Ti2 Sn6 Se1'
_cell_volume   365.93834096
_cell_formula_units_Z   1
loop_
 _symmetry_equiv_pos_site_id
 _symmetry_equiv_pos_as_xyz
  1  'x, y, z'
loop_
 _atom_site_type_symbol
 _atom_site_label
 _atom_site_symmetry_multiplicity
 _atom_site_fract_x
 _atom_site_fract_y
 _atom_site_fract_z
 _atom_site_occupancy
  Zr  Zr0  1  0.999997  0.666668  0.333333  1
  Zr  Zr1  1  0.000000  0.333335  0.666669  1
  Zr  Zr2  1  0.769889  0.254920  0.999988  1
  Zr  Zr3  1  0.769881  0.745060  0.745074  1
  Zr  Zr4  1  0.769888  0.000009  0.254938  1
  Zr  Zr5  1  0.230109  0.745065  0.999986  1
  Zr  Zr6  1  0.230119  0.254927  0.254935  1
  Zr  Zr7  1  0.230114  0.000019  0.745081  1
  Ti  Ti8  1  0.499998  0.333337  0.666664  1
  Ti  Ti9  1  0.500001  0.666665  0.333334  1
  Sn  Sn10  1  0.736596  0.604649  0.999937  1
  Sn  Sn11  1  0.736602  0.395282  0.395348  1
  Sn  Sn12  1  0.736596  0.000063  0.604714  1
  Sn  Sn13  1  0.263404  0.395291  0.999938  1
  Sn  Sn14  1  0.263402  0.604652  0.604714  1
  Sn  Sn15  1  0.263404  0.000062  0.395348  1
  Se  Se16  1  0.500000  0.999999  0.000001  1
