# generated using pymatgen
data_Lu4Os4Ru3W
_symmetry_space_group_name_H-M   'P 1'
_cell_length_a   5.41032670
_cell_length_b   5.16988976
_cell_length_c   8.94375800
_cell_angle_alpha   90.00000000
_cell_angle_beta   90.00000000
_cell_angle_gamma   121.24030096
_symmetry_Int_Tables_number   1
_chemical_formula_structural   Lu4Os4Ru3W
_chemical_formula_sum   'Lu4 Os4 Ru3 W1'
_cell_volume   213.89013902
_cell_formula_units_Z   1
loop_
 _symmetry_equiv_pos_site_id
 _symmetry_equiv_pos_as_xyz
  1  'x, y, z'
loop_
 _atom_site_type_symbol
 _atom_site_label
 _atom_site_symmetry_multiplicity
 _atom_site_fract_x
 _atom_site_fract_y
 _atom_site_fract_z
 _atom_site_occupancy
  Lu  Lu0  1  0.332685  0.666602  0.432819  1
  Lu  Lu1  1  0.671849  0.343469  0.563638  1
  Lu  Lu2  1  0.671849  0.343469  0.936362  1
  Lu  Lu3  1  0.332685  0.666602  0.067181  1
  Os  Os4  1  0.167699  0.820015  0.750000  1
  Os  Os5  1  0.338818  0.168419  0.250000  1
  Os  Os6  1  0.825426  0.653033  0.250000  1
  Os  Os7  1  0.828014  0.166389  0.250000  1
  Ru  Ru8  1  0.646595  0.820335  0.750000  1
  Ru  Ru9  1  0.013362  0.015346  0.001241  1
  Ru  Ru10  1  0.013362  0.015346  0.498759  1
  W  W11  1  0.157655  0.320977  0.750000  1
