# generated using pymatgen
data_Pr9Nd(Si2Sn)2
_symmetry_space_group_name_H-M   'P 1'
_cell_length_a   7.97898800
_cell_length_b   9.22182516
_cell_length_c   7.97898800
_cell_angle_alpha   115.63358885
_cell_angle_beta   90.00000000
_cell_angle_gamma   115.63358885
_symmetry_Int_Tables_number   1
_chemical_formula_structural   Pr9Nd(Si2Sn)2
_chemical_formula_sum   'Pr9 Nd1 Si4 Sn2'
_cell_volume   464.39975931
_cell_formula_units_Z   1
loop_
 _symmetry_equiv_pos_site_id
 _symmetry_equiv_pos_as_xyz
  1  'x, y, z'
loop_
 _atom_site_type_symbol
 _atom_site_label
 _atom_site_symmetry_multiplicity
 _atom_site_fract_x
 _atom_site_fract_y
 _atom_site_fract_z
 _atom_site_occupancy
  Pr  Pr0  1  0.500000  0.000000  0.500000  1
  Pr  Pr1  1  0.535320  0.720890  0.685632  1
  Pr  Pr2  1  0.185573  0.720890  0.035260  1
  Pr  Pr3  1  0.685632  0.720890  0.185573  1
  Pr  Pr4  1  0.035260  0.720890  0.535320  1
  Pr  Pr5  1  0.464680  0.279110  0.314368  1
  Pr  Pr6  1  0.814427  0.279110  0.964740  1
  Pr  Pr7  1  0.314368  0.279110  0.814427  1
  Pr  Pr8  1  0.964740  0.279110  0.464680  1
  Nd  Nd9  1  0.000000  0.000000  0.000000  1
  Si  Si10  1  0.884078  0.000000  0.616131  1
  Si  Si11  1  0.115922  0.000000  0.383869  1
  Si  Si12  1  0.616131  0.000000  0.115922  1
  Si  Si13  1  0.383869  0.000000  0.884078  1
  Sn  Sn14  1  0.750059  0.500118  0.750059  1
  Sn  Sn15  1  0.249941  0.499882  0.249941  1
