# generated using pymatgen
data_Na2Sc3Si6P6Ir19
_symmetry_space_group_name_H-M   'P 1'
_cell_length_a   12.68824599
_cell_length_b   12.68824491
_cell_length_c   3.92575200
_cell_angle_alpha   90.00000000
_cell_angle_beta   90.00000000
_cell_angle_gamma   120.04523847
_symmetry_Int_Tables_number   1
_chemical_formula_structural   Na2Sc3Si6P6Ir19
_chemical_formula_sum   'Na2 Sc3 Si6 P6 Ir19'
_cell_volume   547.08962652
_cell_formula_units_Z   1
loop_
 _symmetry_equiv_pos_site_id
 _symmetry_equiv_pos_as_xyz
  1  'x, y, z'
loop_
 _atom_site_type_symbol
 _atom_site_label
 _atom_site_symmetry_multiplicity
 _atom_site_fract_x
 _atom_site_fract_y
 _atom_site_fract_z
 _atom_site_occupancy
  Na  Na0  1  0.817742  0.999519  0.500000  1
  Na  Na1  1  0.999519  0.817742  0.500000  1
  Sc  Sc2  1  0.333594  0.666191  0.000000  1
  Sc  Sc3  1  0.666191  0.333594  0.000000  1
  Sc  Sc4  1  0.177784  0.177784  0.500000  1
  Si  Si5  1  0.169648  0.483529  0.500000  1
  Si  Si6  1  0.517698  0.687066  0.500000  1
  Si  Si7  1  0.312801  0.830535  0.500000  1
  Si  Si8  1  0.687066  0.517698  0.500000  1
  Si  Si9  1  0.830535  0.312801  0.500000  1
  Si  Si10  1  0.483529  0.169648  0.500000  1
  P  P11  1  0.177826  0.997887  0.000000  1
  P  P12  1  0.997887  0.177826  0.000000  1
  P  P13  1  0.822827  0.822827  0.000000  1
  P  P14  1  0.636011  0.999927  0.000000  1
  P  P15  1  0.999927  0.636011  0.000000  1
  P  P16  1  0.363203  0.363203  0.000000  1
  Ir  Ir17  1  0.453805  0.003735  0.000000  1
  Ir  Ir18  1  0.003735  0.453805  0.000000  1
  Ir  Ir19  1  0.546640  0.546640  0.000000  1
  Ir  Ir20  1  0.358833  0.488228  0.500000  1
  Ir  Ir21  1  0.510539  0.871605  0.500000  1
  Ir  Ir22  1  0.128633  0.640463  0.500000  1
  Ir  Ir23  1  0.871605  0.510539  0.500000  1
  Ir  Ir24  1  0.640463  0.128633  0.500000  1
  Ir  Ir25  1  0.488228  0.358833  0.500000  1
  Ir  Ir26  1  0.182475  0.370224  0.000000  1
  Ir  Ir27  1  0.623287  0.806910  0.000000  1
  Ir  Ir28  1  0.193941  0.817231  0.000000  1
  Ir  Ir29  1  0.806910  0.623287  0.000000  1
  Ir  Ir30  1  0.817231  0.193941  0.000000  1
  Ir  Ir31  1  0.370224  0.182475  0.000000  1
  Ir  Ir32  1  0.281247  0.002402  0.500000  1
  Ir  Ir33  1  0.002402  0.281247  0.500000  1
  Ir  Ir34  1  0.719933  0.719933  0.500000  1
  Ir  Ir35  1  0.006080  0.006080  0.000000  1
