# generated using pymatgen
data_TaV4TeO12
_symmetry_space_group_name_H-M   'P 1'
_cell_length_a   4.65366213
_cell_length_b   4.65366060
_cell_length_c   9.28416600
_cell_angle_alpha   90.00011552
_cell_angle_beta   90.00016676
_cell_angle_gamma   90.42124307
_symmetry_Int_Tables_number   1
_chemical_formula_structural   TaV4TeO12
_chemical_formula_sum   'Ta1 V4 Te1 O12'
_cell_volume   201.05770210
_cell_formula_units_Z   1
loop_
 _symmetry_equiv_pos_site_id
 _symmetry_equiv_pos_as_xyz
  1  'x, y, z'
loop_
 _atom_site_type_symbol
 _atom_site_label
 _atom_site_symmetry_multiplicity
 _atom_site_fract_x
 _atom_site_fract_y
 _atom_site_fract_z
 _atom_site_occupancy
  Ta  Ta0  1  0.499995  0.500004  0.497046  1
  V  V1  1  0.499999  0.499999  0.165944  1
  V  V2  1  0.999998  0.999991  0.334998  1
  V  V3  1  0.999998  0.000000  0.663620  1
  V  V4  1  0.500004  0.499999  0.831500  1
  Te  Te5  1  0.000004  0.999998  0.999681  1
  O  O6  1  0.297930  0.297925  0.997758  1
  O  O7  1  0.196878  0.803118  0.506901  1
  O  O8  1  0.803114  0.196883  0.506901  1
  O  O9  1  0.702078  0.702070  0.997757  1
  O  O10  1  0.705938  0.705943  0.664596  1
  O  O11  1  0.294059  0.294062  0.664598  1
  O  O12  1  0.696625  0.696634  0.338835  1
  O  O13  1  0.193513  0.806486  0.160586  1
  O  O14  1  0.806490  0.193515  0.160583  1
  O  O15  1  0.807970  0.192031  0.834931  1
  O  O16  1  0.192034  0.807966  0.834930  1
  O  O17  1  0.303369  0.303371  0.338834  1
