# generated using pymatgen
data_DyEr23Ru14
_symmetry_space_group_name_H-M   'P 1'
_cell_length_a   11.20195804
_cell_length_b   8.30866191
_cell_length_c   11.15738094
_cell_angle_alpha   56.50209725
_cell_angle_beta   89.98596460
_cell_angle_gamma   89.99830902
_symmetry_Int_Tables_number   1
_chemical_formula_structural   DyEr23Ru14
_chemical_formula_sum   'Dy1 Er23 Ru14'
_cell_volume   865.97306685
_cell_formula_units_Z   1
loop_
 _symmetry_equiv_pos_site_id
 _symmetry_equiv_pos_as_xyz
  1  'x, y, z'
loop_
 _atom_site_type_symbol
 _atom_site_label
 _atom_site_symmetry_multiplicity
 _atom_site_fract_x
 _atom_site_fract_y
 _atom_site_fract_z
 _atom_site_occupancy
  Dy  Dy0  1  0.705028  0.241636  0.532011  1
  Er  Er1  1  0.205721  0.757957  0.968642  1
  Er  Er2  1  0.844841  0.507741  0.655460  1
  Er  Er3  1  0.344579  0.492719  0.844543  1
  Er  Er4  1  0.155423  0.492442  0.344686  1
  Er  Er5  1  0.655274  0.507488  0.155019  1
  Er  Er6  1  0.006652  0.852048  0.362013  1
  Er  Er7  1  0.506640  0.148135  0.138098  1
  Er  Er8  1  0.993807  0.148151  0.637990  1
  Er  Er9  1  0.493277  0.851847  0.861973  1
  Er  Er10  1  0.794241  0.241791  0.031665  1
  Er  Er11  1  0.294265  0.757780  0.468748  1
  Er  Er12  1  0.931181  0.777261  0.090556  1
  Er  Er13  1  0.430205  0.222947  0.409037  1
  Er  Er14  1  0.068811  0.222930  0.909436  1
  Er  Er15  1  0.568934  0.777022  0.590456  1
  Er  Er16  1  0.301610  0.241845  0.674745  1
  Er  Er17  1  0.802008  0.757634  0.825672  1
  Er  Er18  1  0.698482  0.758546  0.325199  1
  Er  Er19  1  0.198251  0.241987  0.174417  1
  Er  Er20  1  0.925564  0.279528  0.293447  1
  Er  Er21  1  0.425453  0.720560  0.206409  1
  Er  Er22  1  0.074724  0.720539  0.706504  1
  Er  Er23  1  0.574425  0.279595  0.793974  1
  Ru  Ru24  1  0.499076  0.500958  0.499962  1
  Ru  Ru25  1  0.000132  0.499777  0.000096  1
  Ru  Ru26  1  0.647645  0.923459  0.033908  1
  Ru  Ru27  1  0.147826  0.076818  0.465717  1
  Ru  Ru28  1  0.352220  0.076623  0.966122  1
  Ru  Ru29  1  0.852348  0.922853  0.533984  1
  Ru  Ru30  1  0.397866  0.484318  0.103681  1
  Ru  Ru31  1  0.898648  0.515879  0.396034  1
  Ru  Ru32  1  0.601698  0.515591  0.896347  1
  Ru  Ru33  1  0.101927  0.484207  0.603982  1
  Ru  Ru34  1  0.821483  0.099454  0.849181  1
  Ru  Ru35  1  0.321138  0.900403  0.651364  1
  Ru  Ru36  1  0.178932  0.900396  0.151289  1
  Ru  Ru37  1  0.679661  0.099128  0.347634  1
