# generated using pymatgen
data_Tb4Cu2ReRu5
_symmetry_space_group_name_H-M   'P 1'
_cell_length_a   5.25972600
_cell_length_b   5.14692219
_cell_length_c   8.92396000
_cell_angle_alpha   90.00000000
_cell_angle_beta   90.00000000
_cell_angle_gamma   115.95944210
_symmetry_Int_Tables_number   1
_chemical_formula_structural   Tb4Cu2ReRu5
_chemical_formula_sum   'Tb4 Cu2 Re1 Ru5'
_cell_volume   217.20925755
_cell_formula_units_Z   1
loop_
 _symmetry_equiv_pos_site_id
 _symmetry_equiv_pos_as_xyz
  1  'x, y, z'
loop_
 _atom_site_type_symbol
 _atom_site_label
 _atom_site_symmetry_multiplicity
 _atom_site_fract_x
 _atom_site_fract_y
 _atom_site_fract_z
 _atom_site_occupancy
  Tb  Tb0  1  0.321318  0.667252  0.437406  1
  Tb  Tb1  1  0.661041  0.331964  0.565008  1
  Tb  Tb2  1  0.661041  0.331964  0.934992  1
  Tb  Tb3  1  0.321318  0.667252  0.062594  1
  Cu  Cu4  1  0.188705  0.841527  0.750000  1
  Cu  Cu5  1  0.181174  0.341700  0.750000  1
  Re  Re6  1  0.838138  0.157081  0.250000  1
  Ru  Ru7  1  0.977767  0.000287  0.501792  1
  Ru  Ru8  1  0.977767  0.000287  0.998208  1
  Ru  Ru9  1  0.829526  0.648023  0.250000  1
  Ru  Ru10  1  0.348948  0.165456  0.250000  1
  Ru  Ru11  1  0.693257  0.847207  0.750000  1
