# generated using pymatgen
data_Sr3Ac(PIr)4
_symmetry_space_group_name_H-M   'P 1'
_cell_length_a   6.39598702
_cell_length_b   6.39598627
_cell_length_c   6.39598701
_cell_angle_alpha   90.07161412
_cell_angle_beta   90.07161885
_cell_angle_gamma   89.92838775
_symmetry_Int_Tables_number   1
_chemical_formula_structural   Sr3Ac(PIr)4
_chemical_formula_sum   'Sr3 Ac1 P4 Ir4'
_cell_volume   261.65055038
_cell_formula_units_Z   1
loop_
 _symmetry_equiv_pos_site_id
 _symmetry_equiv_pos_as_xyz
  1  'x, y, z'
loop_
 _atom_site_type_symbol
 _atom_site_label
 _atom_site_symmetry_multiplicity
 _atom_site_fract_x
 _atom_site_fract_y
 _atom_site_fract_z
 _atom_site_occupancy
  Sr  Sr0  1  0.884177  0.612062  0.383204  1
  Sr  Sr1  1  0.616796  0.384177  0.887938  1
  Sr  Sr2  1  0.112062  0.116796  0.115823  1
  Ac  Ac3  1  0.382488  0.882488  0.617512  1
  P  P4  1  0.662404  0.162404  0.337596  1
  P  P5  1  0.164945  0.336728  0.663651  1
  P  P6  1  0.336349  0.664945  0.163272  1
  P  P7  1  0.836728  0.836349  0.835055  1
  Ir  Ir8  1  0.091216  0.591216  0.908784  1
  Ir  Ir9  1  0.588702  0.910420  0.086286  1
  Ir  Ir10  1  0.913714  0.088702  0.589580  1
  Ir  Ir11  1  0.410420  0.413714  0.411298  1
