# generated using pymatgen
data_Pr8HoErIn6
_symmetry_space_group_name_H-M   'P 1'
_cell_length_a   6.29050313
_cell_length_b   9.42438299
_cell_length_c   9.42438300
_cell_angle_alpha   83.76493303
_cell_angle_beta   70.81534893
_cell_angle_gamma   70.81534423
_symmetry_Int_Tables_number   1
_chemical_formula_structural   Pr8HoErIn6
_chemical_formula_sum   'Pr8 Ho1 Er1 In6'
_cell_volume   498.38198745
_cell_formula_units_Z   1
loop_
 _symmetry_equiv_pos_site_id
 _symmetry_equiv_pos_as_xyz
  1  'x, y, z'
loop_
 _atom_site_type_symbol
 _atom_site_label
 _atom_site_symmetry_multiplicity
 _atom_site_fract_x
 _atom_site_fract_y
 _atom_site_fract_z
 _atom_site_occupancy
  Pr  Pr0  1  0.720240  0.864605  0.692163  1
  Pr  Pr1  1  0.279290  0.135325  0.307849  1
  Pr  Pr2  1  0.779760  0.307837  0.135395  1
  Pr  Pr3  1  0.220710  0.692151  0.864675  1
  Pr  Pr4  1  0.585240  0.692534  0.135496  1
  Pr  Pr5  1  0.415383  0.307489  0.864592  1
  Pr  Pr6  1  0.084617  0.135408  0.692511  1
  Pr  Pr7  1  0.914760  0.864504  0.307466  1
  Ho  Ho8  1  0.250000  0.498940  0.501060  1
  Er  Er9  1  0.750000  0.501092  0.498908  1
  In  In10  1  0.156499  0.500384  0.187084  1
  In  In11  1  0.842883  0.499727  0.812921  1
  In  In12  1  0.343501  0.812916  0.499616  1
  In  In13  1  0.657117  0.187079  0.500273  1
  In  In14  1  0.250000  0.000065  0.999935  1
  In  In15  1  0.750000  0.999947  0.000053  1
