# generated using pymatgen
data_CsMn6S7
_symmetry_space_group_name_H-M   'P 1'
_cell_length_a   8.98694540
_cell_length_b   8.98694560
_cell_length_c   8.98694539
_cell_angle_alpha   61.70381370
_cell_angle_beta   61.70380701
_cell_angle_gamma   61.70379815
_symmetry_Int_Tables_number   1
_chemical_formula_structural   CsMn6S7
_chemical_formula_sum   'Cs2 Mn12 S14'
_cell_volume   532.84221834
_cell_formula_units_Z   2
loop_
 _symmetry_equiv_pos_site_id
 _symmetry_equiv_pos_as_xyz
  1  'x, y, z'
loop_
 _atom_site_type_symbol
 _atom_site_label
 _atom_site_symmetry_multiplicity
 _atom_site_fract_x
 _atom_site_fract_y
 _atom_site_fract_z
 _atom_site_occupancy
  Cs  Cs0  1  0.384403  0.384403  0.384403  1
  Cs  Cs1  1  0.615597  0.615597  0.615597  1
  Mn  Mn2  1  0.304560  0.126350  0.998089  1
  Mn  Mn3  1  0.192980  0.888079  0.060601  1
  Mn  Mn4  1  0.888079  0.060601  0.192980  1
  Mn  Mn5  1  0.939399  0.807020  0.111921  1
  Mn  Mn6  1  0.807020  0.111921  0.939399  1
  Mn  Mn7  1  0.111921  0.939399  0.807020  1
  Mn  Mn8  1  0.998089  0.304560  0.126350  1
  Mn  Mn9  1  0.873650  0.001911  0.695440  1
  Mn  Mn10  1  0.126350  0.998089  0.304560  1
  Mn  Mn11  1  0.001911  0.695440  0.873650  1
  Mn  Mn12  1  0.695440  0.873650  0.001911  1
  Mn  Mn13  1  0.060601  0.192980  0.888079  1
  S  S14  1  0.983329  0.224043  0.661892  1
  S  S15  1  0.224043  0.661892  0.983329  1
  S  S16  1  0.661892  0.983329  0.224043  1
  S  S17  1  0.016671  0.775957  0.338108  1
  S  S18  1  0.775957  0.338108  0.016671  1
  S  S19  1  0.338108  0.016671  0.775957  1
  S  S20  1  0.164648  0.407234  0.830498  1
  S  S21  1  0.407234  0.830498  0.164648  1
  S  S22  1  0.830498  0.164648  0.407234  1
  S  S23  1  0.835352  0.592766  0.169502  1
  S  S24  1  0.592766  0.169502  0.835352  1
  S  S25  1  0.169502  0.835352  0.592766  1
  S  S26  1  0.778974  0.778974  0.778974  1
  S  S27  1  0.221026  0.221026  0.221026  1
