# generated using pymatgen
data_Tm12InCo4Os
_symmetry_space_group_name_H-M   'P 1'
_cell_length_a   8.17360985
_cell_length_b   8.17360997
_cell_length_c   8.17360969
_cell_angle_alpha   111.50168510
_cell_angle_beta   110.94228463
_cell_angle_gamma   106.02423821
_symmetry_Int_Tables_number   1
_chemical_formula_structural   Tm12InCo4Os
_chemical_formula_sum   'Tm12 In1 Co4 Os1'
_cell_volume   419.21559110
_cell_formula_units_Z   1
loop_
 _symmetry_equiv_pos_site_id
 _symmetry_equiv_pos_as_xyz
  1  'x, y, z'
loop_
 _atom_site_type_symbol
 _atom_site_label
 _atom_site_symmetry_multiplicity
 _atom_site_fract_x
 _atom_site_fract_y
 _atom_site_fract_z
 _atom_site_occupancy
  Tm  Tm0  1  0.417530  0.223171  0.194358  1
  Tm  Tm1  1  0.582470  0.776829  0.805642  1
  Tm  Tm2  1  0.028813  0.223171  0.805642  1
  Tm  Tm3  1  0.971187  0.776829  0.194358  1
  Tm  Tm4  1  0.181742  0.277738  0.459479  1
  Tm  Tm5  1  0.818258  0.722262  0.540521  1
  Tm  Tm6  1  0.181742  0.722262  0.904004  1
  Tm  Tm7  1  0.818258  0.277738  0.095996  1
  Tm  Tm8  1  0.314871  0.620830  0.305959  1
  Tm  Tm9  1  0.685129  0.379170  0.694041  1
  Tm  Tm10  1  0.314871  0.008911  0.694041  1
  Tm  Tm11  1  0.685129  0.991089  0.305959  1
  In  In12  1  0.500000  0.500000  0.000000  1
  Co  Co13  1  0.374787  0.000000  0.374787  1
  Co  Co14  1  0.625213  0.000000  0.625213  1
  Co  Co15  1  0.111984  0.611984  0.500000  1
  Co  Co16  1  0.888016  0.388016  0.500000  1
  Os  Os17  1  0.000000  0.000000  0.000000  1
