# generated using pymatgen
data_Sm3UN4
_symmetry_space_group_name_H-M   'P 1'
_cell_length_a   7.08902450
_cell_length_b   9.37147174
_cell_length_c   6.12945428
_cell_angle_alpha   29.21761040
_cell_angle_beta   54.67067630
_cell_angle_gamma   40.84801491
_symmetry_Int_Tables_number   1
_chemical_formula_structural   Sm3UN4
_chemical_formula_sum   'Sm3 U1 N4'
_cell_volume   125.65236257
_cell_formula_units_Z   1
loop_
 _symmetry_equiv_pos_site_id
 _symmetry_equiv_pos_as_xyz
  1  'x, y, z'
loop_
 _atom_site_type_symbol
 _atom_site_label
 _atom_site_symmetry_multiplicity
 _atom_site_fract_x
 _atom_site_fract_y
 _atom_site_fract_z
 _atom_site_occupancy
  Sm  Sm0  1  0.250000  0.500000  0.000000  1
  Sm  Sm1  1  0.750000  0.500000  0.000000  1
  Sm  Sm2  1  0.500000  0.000000  0.000000  1
  U  U3  1  0.000000  0.000000  0.000000  1
  N  N4  1  0.500000  0.500000  0.500000  1
  N  N5  1  0.221750  0.000000  0.556498  1
  N  N6  1  0.000000  0.500000  0.500000  1
  N  N7  1  0.778250  0.000000  0.443502  1
