# generated using pymatgen
data_Zr5Fe15Co2(NiP6)2
_symmetry_space_group_name_H-M   'P 1'
_cell_length_a   11.81146666
_cell_length_b   11.78848120
_cell_length_c   3.63799700
_cell_angle_alpha   90.00000000
_cell_angle_beta   90.00000000
_cell_angle_gamma   120.10255794
_symmetry_Int_Tables_number   1
_chemical_formula_structural   Zr5Fe15Co2(NiP6)2
_chemical_formula_sum   'Zr5 Fe15 Co2 Ni2 P12'
_cell_volume   438.23282613
_cell_formula_units_Z   1
loop_
 _symmetry_equiv_pos_site_id
 _symmetry_equiv_pos_as_xyz
  1  'x, y, z'
loop_
 _atom_site_type_symbol
 _atom_site_label
 _atom_site_symmetry_multiplicity
 _atom_site_fract_x
 _atom_site_fract_y
 _atom_site_fract_z
 _atom_site_occupancy
  Zr  Zr0  1  0.333523  0.667945  0.500000  1
  Zr  Zr1  1  0.668223  0.332560  0.500000  1
  Zr  Zr2  1  0.811090  0.999308  0.000000  1
  Zr  Zr3  1  0.000870  0.812381  0.000000  1
  Zr  Zr4  1  0.186449  0.187603  0.000000  1
  Fe  Fe5  1  0.623898  0.802212  0.500000  1
  Fe  Fe6  1  0.197385  0.821933  0.500000  1
  Fe  Fe7  1  0.177379  0.376328  0.500000  1
  Fe  Fe8  1  0.379752  0.183350  0.500000  1
  Fe  Fe9  1  0.803686  0.620727  0.500000  1
  Fe  Fe10  1  0.817374  0.195986  0.500000  1
  Fe  Fe11  1  0.283788  0.001472  0.000000  1
  Fe  Fe12  1  0.998602  0.282878  0.000000  1
  Fe  Fe13  1  0.716632  0.715279  0.000000  1
  Fe  Fe14  1  0.445357  0.001757  0.500000  1
  Fe  Fe15  1  0.998036  0.443386  0.500000  1
  Fe  Fe16  1  0.555039  0.554377  0.500000  1
  Fe  Fe17  1  0.513829  0.874946  0.000000  1
  Fe  Fe18  1  0.125693  0.639691  0.000000  1
  Fe  Fe19  1  0.359797  0.486296  0.000000  1
  Co  Co20  1  0.877212  0.513894  0.000000  1
  Co  Co21  1  0.638395  0.124437  0.000000  1
  Ni  Ni22  1  0.487550  0.362127  0.000000  1
  Ni  Ni23  1  0.999955  0.999847  0.500000  1
  P  P24  1  0.181660  0.001713  0.500000  1
  P  P25  1  0.998067  0.179898  0.500000  1
  P  P26  1  0.819377  0.818300  0.500000  1
  P  P27  1  0.519874  0.688465  0.000000  1
  P  P28  1  0.312396  0.832758  0.000000  1
  P  P29  1  0.167678  0.480656  0.000000  1
  P  P30  1  0.479468  0.165042  0.000000  1
  P  P31  1  0.692210  0.521335  0.000000  1
  P  P32  1  0.832878  0.311763  0.000000  1
  P  P33  1  0.631611  0.996696  0.500000  1
  P  P34  1  0.003586  0.635201  0.500000  1
  P  P35  1  0.361679  0.367455  0.500000  1
