# generated using pymatgen
data_Ho6Si11GePt8
_symmetry_space_group_name_H-M   'P 1'
_cell_length_a   4.25745600
_cell_length_b   8.56048387
_cell_length_c   12.91083707
_cell_angle_alpha   80.29677725
_cell_angle_beta   90.00000000
_cell_angle_gamma   90.00000000
_symmetry_Int_Tables_number   1
_chemical_formula_structural   Ho6Si11GePt8
_chemical_formula_sum   'Ho6 Si11 Ge1 Pt8'
_cell_volume   463.81521497
_cell_formula_units_Z   1
loop_
 _symmetry_equiv_pos_site_id
 _symmetry_equiv_pos_as_xyz
  1  'x, y, z'
loop_
 _atom_site_type_symbol
 _atom_site_label
 _atom_site_symmetry_multiplicity
 _atom_site_fract_x
 _atom_site_fract_y
 _atom_site_fract_z
 _atom_site_occupancy
  Ho  Ho0  1  0.250000  0.764004  0.439368  1
  Ho  Ho1  1  0.250000  0.585199  0.183749  1
  Ho  Ho2  1  0.750000  0.234125  0.562041  1
  Ho  Ho3  1  0.750000  0.416048  0.815036  1
  Ho  Ho4  1  0.750000  0.927085  0.816544  1
  Ho  Ho5  1  0.250000  0.074183  0.183268  1
  Si  Si6  1  0.750000  0.588129  0.572740  1
  Si  Si7  1  0.750000  0.127438  0.004069  1
  Si  Si8  1  0.750000  0.871995  0.575427  1
  Si  Si9  1  0.250000  0.698239  0.714837  1
  Si  Si10  1  0.750000  0.305365  0.284534  1
  Si  Si11  1  0.750000  0.807968  0.275402  1
  Si  Si12  1  0.250000  0.873431  0.995298  1
  Si  Si13  1  0.250000  0.194345  0.724029  1
  Si  Si14  1  0.250000  0.378682  0.001544  1
  Si  Si15  1  0.250000  0.115617  0.429955  1
  Si  Si16  1  0.750000  0.621899  0.997827  1
  Ge  Ge17  1  0.250000  0.405138  0.426261  1
  Pt  Pt18  1  0.750000  0.352425  0.097973  1
  Pt  Pt19  1  0.250000  0.971837  0.624217  1
  Pt  Pt20  1  0.750000  0.850445  0.087561  1
  Pt  Pt21  1  0.750000  0.030158  0.374507  1
  Pt  Pt22  1  0.250000  0.648211  0.901686  1
  Pt  Pt23  1  0.250000  0.150560  0.911866  1
  Pt  Pt24  1  0.750000  0.539175  0.372698  1
  Pt  Pt25  1  0.250000  0.468299  0.627561  1
