# generated using pymatgen
data_V17Co2Si12Tc
_symmetry_space_group_name_H-M   'P 1'
_cell_length_a   7.01634834
_cell_length_b   7.01634848
_cell_length_c   13.19065800
_cell_angle_alpha   90.00000000
_cell_angle_beta   90.00000000
_cell_angle_gamma   140.21766698
_symmetry_Int_Tables_number   1
_chemical_formula_structural   V17Co2Si12Tc
_chemical_formula_sum   'V17 Co2 Si12 Tc1'
_cell_volume   415.51086420
_cell_formula_units_Z   1
loop_
 _symmetry_equiv_pos_site_id
 _symmetry_equiv_pos_as_xyz
  1  'x, y, z'
loop_
 _atom_site_type_symbol
 _atom_site_label
 _atom_site_symmetry_multiplicity
 _atom_site_fract_x
 _atom_site_fract_y
 _atom_site_fract_z
 _atom_site_occupancy
  V  V0  1  0.072028  0.422662  0.398197  1
  V  V1  1  0.570719  0.931497  0.903303  1
  V  V2  1  0.422662  0.072028  0.601803  1
  V  V3  1  0.931497  0.570719  0.096697  1
  V  V4  1  0.850351  0.653007  0.679467  1
  V  V5  1  0.349966  0.151345  0.176478  1
  V  V6  1  0.653007  0.850351  0.320533  1
  V  V7  1  0.151345  0.349966  0.823522  1
  V  V8  1  0.653007  0.850351  0.679467  1
  V  V9  1  0.151345  0.349966  0.176478  1
  V  V10  1  0.850351  0.653007  0.320533  1
  V  V11  1  0.349966  0.151345  0.823522  1
  V  V12  1  0.422662  0.072028  0.398197  1
  V  V13  1  0.931497  0.570719  0.903303  1
  V  V14  1  0.072028  0.422662  0.601803  1
  V  V15  1  0.570719  0.931497  0.096697  1
  V  V16  1  0.997945  0.997945  0.500000  1
  Co  Co17  1  0.501453  0.501453  0.000000  1
  Co  Co18  1  0.000357  0.000357  0.000000  1
  Si  Si19  1  0.250471  0.749714  0.751809  1
  Si  Si20  1  0.749714  0.250471  0.248191  1
  Si  Si21  1  0.749714  0.250471  0.751809  1
  Si  Si22  1  0.250471  0.749714  0.248191  1
  Si  Si23  1  0.244968  0.244968  0.666949  1
  Si  Si24  1  0.751402  0.751402  0.153973  1
  Si  Si25  1  0.244968  0.244968  0.333051  1
  Si  Si26  1  0.751402  0.751402  0.846027  1
  Si  Si27  1  0.584779  0.919010  0.500000  1
  Si  Si28  1  0.096842  0.404936  0.000000  1
  Si  Si29  1  0.919010  0.584779  0.500000  1
  Si  Si30  1  0.404936  0.096842  0.000000  1
  Tc  Tc31  1  0.498418  0.498418  0.500000  1
