# generated using pymatgen
data_Dy2HoIn3GaPt2
_symmetry_space_group_name_H-M   'P 1'
_cell_length_a   7.68317872
_cell_length_b   7.67598321
_cell_length_c   3.92106900
_cell_angle_alpha   90.00000000
_cell_angle_beta   90.00000000
_cell_angle_gamma   120.08055847
_symmetry_Int_Tables_number   1
_chemical_formula_structural   Dy2HoIn3GaPt2
_chemical_formula_sum   'Dy2 Ho1 In3 Ga1 Pt2'
_cell_volume   200.10454476
_cell_formula_units_Z   1
loop_
 _symmetry_equiv_pos_site_id
 _symmetry_equiv_pos_as_xyz
  1  'x, y, z'
loop_
 _atom_site_type_symbol
 _atom_site_label
 _atom_site_symmetry_multiplicity
 _atom_site_fract_x
 _atom_site_fract_y
 _atom_site_fract_z
 _atom_site_occupancy
  Dy  Dy0  1  0.606819  0.014702  0.500000  1
  Dy  Dy1  1  0.407883  0.393453  0.500000  1
  Ho  Ho2  1  0.984705  0.591915  0.500000  1
  In  In3  1  0.739301  0.739895  0.000000  1
  In  In4  1  0.000610  0.260754  0.000000  1
  In  In5  1  0.259959  0.999102  0.000000  1
  Ga  Ga6  1  0.333132  0.666641  0.000000  1
  Pt  Pt7  1  0.667483  0.333893  0.000000  1
  Pt  Pt8  1  0.000107  0.999645  0.500000  1
