# generated using pymatgen
data_Yb6Sc8Al8Ir7
_symmetry_space_group_name_H-M   'P 1'
_cell_length_a   9.30823527
_cell_length_b   9.30823521
_cell_length_c   9.30823500
_cell_angle_alpha   59.99999719
_cell_angle_beta   59.99999741
_cell_angle_gamma   59.99999805
_symmetry_Int_Tables_number   1
_chemical_formula_structural   Yb6Sc8Al8Ir7
_chemical_formula_sum   'Yb6 Sc8 Al8 Ir7'
_cell_volume   570.27852551
_cell_formula_units_Z   1
loop_
 _symmetry_equiv_pos_site_id
 _symmetry_equiv_pos_as_xyz
  1  'x, y, z'
loop_
 _atom_site_type_symbol
 _atom_site_label
 _atom_site_symmetry_multiplicity
 _atom_site_fract_x
 _atom_site_fract_y
 _atom_site_fract_z
 _atom_site_occupancy
  Yb  Yb0  1  0.695741  0.695741  0.304259  1
  Yb  Yb1  1  0.304259  0.695741  0.304259  1
  Yb  Yb2  1  0.695741  0.304259  0.304259  1
  Yb  Yb3  1  0.304259  0.304259  0.695741  1
  Yb  Yb4  1  0.695741  0.304259  0.695741  1
  Yb  Yb5  1  0.304259  0.695741  0.695741  1
  Sc  Sc6  1  0.877918  0.877918  0.366247  1
  Sc  Sc7  1  0.877918  0.366247  0.877918  1
  Sc  Sc8  1  0.366247  0.877918  0.877918  1
  Sc  Sc9  1  0.877918  0.877918  0.877918  1
  Sc  Sc10  1  0.122082  0.122082  0.633753  1
  Sc  Sc11  1  0.122082  0.633753  0.122082  1
  Sc  Sc12  1  0.633753  0.122082  0.122082  1
  Sc  Sc13  1  0.122082  0.122082  0.122082  1
  Al  Al14  1  0.670934  0.670934  0.987197  1
  Al  Al15  1  0.670934  0.987197  0.670934  1
  Al  Al16  1  0.987197  0.670934  0.670934  1
  Al  Al17  1  0.670934  0.670934  0.670934  1
  Al  Al18  1  0.329066  0.329066  0.012803  1
  Al  Al19  1  0.329066  0.012803  0.329066  1
  Al  Al20  1  0.012803  0.329066  0.329066  1
  Al  Al21  1  0.329066  0.329066  0.329066  1
  Ir  Ir22  1  0.000000  0.000000  0.000000  1
  Ir  Ir23  1  0.000000  0.000000  0.500000  1
  Ir  Ir24  1  0.500000  0.000000  0.500000  1
  Ir  Ir25  1  0.000000  0.500000  0.500000  1
  Ir  Ir26  1  0.500000  0.500000  0.000000  1
  Ir  Ir27  1  0.000000  0.500000  0.000000  1
  Ir  Ir28  1  0.500000  0.000000  0.000000  1
