# generated using pymatgen
data_Gd3MgRe3MoN12
_symmetry_space_group_name_H-M   'P 1'
_cell_length_a   11.14972133
_cell_length_b   11.14972110
_cell_length_c   11.14972200
_cell_angle_alpha   109.47122226
_cell_angle_beta   109.47122186
_cell_angle_gamma   109.47121982
_symmetry_Int_Tables_number   1
_chemical_formula_structural   Gd3MgRe3MoN12
_chemical_formula_sum   'Gd12 Mg4 Re12 Mo4 N48'
_cell_volume   1067.01409056
_cell_formula_units_Z   4
loop_
 _symmetry_equiv_pos_site_id
 _symmetry_equiv_pos_as_xyz
  1  'x, y, z'
loop_
 _atom_site_type_symbol
 _atom_site_label
 _atom_site_symmetry_multiplicity
 _atom_site_fract_x
 _atom_site_fract_y
 _atom_site_fract_z
 _atom_site_occupancy
  Gd  Gd0  1  0.250000  0.374958  0.124958  1
  Gd  Gd1  1  0.375042  0.750000  0.125041  1
  Gd  Gd2  1  0.374958  0.124958  0.250000  1
  Gd  Gd3  1  0.874958  0.624958  0.250000  1
  Gd  Gd4  1  0.750000  0.125041  0.375042  1
  Gd  Gd5  1  0.124958  0.250000  0.374958  1
  Gd  Gd6  1  0.875042  0.750000  0.625042  1
  Gd  Gd7  1  0.250000  0.874958  0.624958  1
  Gd  Gd8  1  0.125041  0.375042  0.750000  1
  Gd  Gd9  1  0.625042  0.875042  0.750000  1
  Gd  Gd10  1  0.624958  0.250000  0.874958  1
  Gd  Gd11  1  0.750000  0.625042  0.875042  1
  Mg  Mg12  1  0.499999  0.000000  0.000000  1
  Mg  Mg13  1  0.000000  0.499999  0.000000  1
  Mg  Mg14  1  0.000000  0.000000  0.499999  1
  Mg  Mg15  1  0.499999  0.499999  0.499999  1
  Re  Re16  1  0.872960  0.250000  0.122960  1
  Re  Re17  1  0.750000  0.877040  0.127040  1
  Re  Re18  1  0.622960  0.372960  0.250000  1
  Re  Re19  1  0.122960  0.872960  0.250000  1
  Re  Re20  1  0.250000  0.622960  0.372960  1
  Re  Re21  1  0.627040  0.750000  0.377040  1
  Re  Re22  1  0.372960  0.250000  0.622960  1
  Re  Re23  1  0.750000  0.377040  0.627040  1
  Re  Re24  1  0.877040  0.127040  0.750000  1
  Re  Re25  1  0.377040  0.627040  0.750000  1
  Re  Re26  1  0.250000  0.122960  0.872960  1
  Re  Re27  1  0.127040  0.750000  0.877040  1
  Mo  Mo28  1  0.000000  0.000000  0.000000  1
  Mo  Mo29  1  0.500000  0.500000  0.000000  1
  Mo  Mo30  1  0.500000  0.000000  0.500000  1
  Mo  Mo31  1  0.000000  0.500000  0.500000  1
  N  N32  1  0.201665  0.115600  0.016322  1
  N  N33  1  0.309635  0.898299  0.021093  1
  N  N34  1  0.877206  0.398300  0.088665  1
  N  N35  1  0.701665  0.685343  0.086064  1
  N  N36  1  0.615600  0.413936  0.099278  1
  N  N37  1  0.978906  0.690363  0.101699  1
  N  N38  1  0.016322  0.201665  0.115600  1
  N  N39  1  0.601699  0.911336  0.122793  1
  N  N40  1  0.211457  0.588664  0.190364  1
  N  N41  1  0.483678  0.599278  0.185343  1
  N  N42  1  0.115600  0.016322  0.201665  1
  N  N43  1  0.588664  0.190364  0.211457  1
  N  N44  1  0.478906  0.377207  0.288542  1
  N  N45  1  0.314657  0.913936  0.298335  1
  N  N46  1  0.898299  0.021093  0.309635  1
  N  N47  1  0.913936  0.298335  0.314657  1
  N  N48  1  0.288542  0.478906  0.377207  1
  N  N49  1  0.586064  0.900722  0.384400  1
  N  N50  1  0.814657  0.516322  0.400722  1
  N  N51  1  0.088665  0.877206  0.398300  1
  N  N52  1  0.099278  0.615600  0.413936  1
  N  N53  1  0.809636  0.788542  0.411335  1
  N  N54  1  0.599278  0.185343  0.483678  1
  N  N55  1  0.377207  0.288542  0.478906  1
  N  N56  1  0.622793  0.711457  0.521093  1
  N  N57  1  0.400722  0.814657  0.516322  1
  N  N58  1  0.190364  0.211457  0.588664  1
  N  N59  1  0.900722  0.384400  0.586064  1
  N  N60  1  0.911336  0.122793  0.601699  1
  N  N61  1  0.185343  0.483678  0.599278  1
  N  N62  1  0.413936  0.099278  0.615600  1
  N  N63  1  0.711457  0.521093  0.622793  1
  N  N64  1  0.086064  0.701665  0.685343  1
  N  N65  1  0.101699  0.978906  0.690363  1
  N  N66  1  0.685343  0.086064  0.701665  1
  N  N67  1  0.521093  0.622793  0.711457  1
  N  N68  1  0.411335  0.809636  0.788542  1
  N  N69  1  0.884400  0.983679  0.798336  1
  N  N70  1  0.516322  0.400722  0.814657  1
  N  N71  1  0.788542  0.411335  0.809636  1
  N  N72  1  0.398300  0.088665  0.877206  1
  N  N73  1  0.983679  0.798336  0.884400  1
  N  N74  1  0.021093  0.309635  0.898299  1
  N  N75  1  0.384400  0.586064  0.900722  1
  N  N76  1  0.298335  0.314657  0.913936  1
  N  N77  1  0.122793  0.601699  0.911336  1
  N  N78  1  0.690363  0.101699  0.978906  1
  N  N79  1  0.798336  0.884400  0.983679  1
