# generated using pymatgen
data_CsTh2(TeSe2)2
_symmetry_space_group_name_H-M   'P 1'
_cell_length_a   12.39004060
_cell_length_b   12.39004052
_cell_length_c   5.79961290
_cell_angle_alpha   90.83144300
_cell_angle_beta   89.16855588
_cell_angle_gamma   159.61980562
_symmetry_Int_Tables_number   1
_chemical_formula_structural   CsTh2(TeSe2)2
_chemical_formula_sum   'Cs1 Th2 Te2 Se4'
_cell_volume   310.01729952
_cell_formula_units_Z   1
loop_
 _symmetry_equiv_pos_site_id
 _symmetry_equiv_pos_as_xyz
  1  'x, y, z'
loop_
 _atom_site_type_symbol
 _atom_site_label
 _atom_site_symmetry_multiplicity
 _atom_site_fract_x
 _atom_site_fract_y
 _atom_site_fract_z
 _atom_site_occupancy
  Cs  Cs0  1  0.496686  0.503314  0.052747  1
  Th  Th1  1  0.686455  0.313545  0.003943  1
  Th  Th2  1  0.313352  0.686648  0.484517  1
  Te  Te3  1  0.114152  0.885848  0.739094  1
  Te  Te4  1  0.886095  0.113905  0.744137  1
  Se  Se5  1  0.270932  0.729068  0.991059  1
  Se  Se6  1  0.729339  0.270661  0.497499  1
  Se  Se7  1  0.119932  0.880068  0.237141  1
  Se  Se8  1  0.879756  0.120244  0.249864  1
