# generated using pymatgen
data_LaPt2Au3
_symmetry_space_group_name_H-M   'P 1'
_cell_length_a   5.52099723
_cell_length_b   5.52099704
_cell_length_c   5.52099743
_cell_angle_alpha   119.92630676
_cell_angle_beta   119.26489234
_cell_angle_gamma   90.70282261
_symmetry_Int_Tables_number   1
_chemical_formula_structural   LaPt2Au3
_chemical_formula_sum   'La1 Pt2 Au3'
_cell_volume   119.71014413
_cell_formula_units_Z   1
loop_
 _symmetry_equiv_pos_site_id
 _symmetry_equiv_pos_as_xyz
  1  'x, y, z'
loop_
 _atom_site_type_symbol
 _atom_site_label
 _atom_site_symmetry_multiplicity
 _atom_site_fract_x
 _atom_site_fract_y
 _atom_site_fract_z
 _atom_site_occupancy
  La  La0  1  0.005923  0.005923  0.000000  1
  Pt  Pt1  1  0.125067  0.374222  0.750845  1
  Pt  Pt2  1  0.623378  0.374222  0.249155  1
  Au  Au3  1  0.623287  0.872062  0.248775  1
  Au  Au4  1  0.623287  0.374511  0.751225  1
  Au  Au5  1  0.249060  0.749060  0.500000  1
