# generated using pymatgen
data_LaNd7(CdIr)2
_symmetry_space_group_name_H-M   'P 1'
_cell_length_a   9.99590959
_cell_length_b   9.99590985
_cell_length_c   9.99725100
_cell_angle_alpha   59.99555829
_cell_angle_beta   59.99555744
_cell_angle_gamma   60.04395549
_symmetry_Int_Tables_number   1
_chemical_formula_structural   LaNd7(CdIr)2
_chemical_formula_sum   'La2 Nd14 Cd4 Ir4'
_cell_volume   706.52108673
_cell_formula_units_Z   2
loop_
 _symmetry_equiv_pos_site_id
 _symmetry_equiv_pos_as_xyz
  1  'x, y, z'
loop_
 _atom_site_type_symbol
 _atom_site_label
 _atom_site_symmetry_multiplicity
 _atom_site_fract_x
 _atom_site_fract_y
 _atom_site_fract_z
 _atom_site_occupancy
  La  La0  1  0.347222  0.347222  0.347875  1
  La  La1  1  0.347222  0.347222  0.957681  1
  Nd  Nd2  1  0.348785  0.951774  0.349721  1
  Nd  Nd3  1  0.951774  0.348785  0.349721  1
  Nd  Nd4  1  0.810300  0.189683  0.190855  1
  Nd  Nd5  1  0.189683  0.810300  0.809162  1
  Nd  Nd6  1  0.189683  0.810300  0.190855  1
  Nd  Nd7  1  0.810300  0.189683  0.809162  1
  Nd  Nd8  1  0.189790  0.189790  0.810210  1
  Nd  Nd9  1  0.809253  0.809253  0.190747  1
  Nd  Nd10  1  0.938800  0.561270  0.561854  1
  Nd  Nd11  1  0.561270  0.938800  0.938075  1
  Nd  Nd12  1  0.561270  0.938800  0.561854  1
  Nd  Nd13  1  0.938800  0.561270  0.938075  1
  Nd  Nd14  1  0.562760  0.562760  0.937240  1
  Nd  Nd15  1  0.939251  0.939251  0.560749  1
  Cd  Cd16  1  0.580726  0.580726  0.579064  1
  Cd  Cd17  1  0.580726  0.580726  0.259482  1
  Cd  Cd18  1  0.581526  0.258599  0.579937  1
  Cd  Cd19  1  0.258599  0.581526  0.579937  1
  Ir  Ir20  1  0.142208  0.142208  0.140538  1
  Ir  Ir21  1  0.142208  0.142208  0.575045  1
  Ir  Ir22  1  0.142460  0.575380  0.141079  1
  Ir  Ir23  1  0.575380  0.142460  0.141079  1
