# generated using pymatgen
data_Mn7(TcW)3
_symmetry_space_group_name_H-M   'P 1'
_cell_length_a   9.08879234
_cell_length_b   9.08879226
_cell_length_c   9.08879184
_cell_angle_alpha   30.11013506
_cell_angle_beta   30.11013985
_cell_angle_gamma   30.11013804
_symmetry_Int_Tables_number   1
_chemical_formula_structural   Mn7(TcW)3
_chemical_formula_sum   'Mn7 Tc3 W3'
_cell_volume   167.39478122
_cell_formula_units_Z   1
loop_
 _symmetry_equiv_pos_site_id
 _symmetry_equiv_pos_as_xyz
  1  'x, y, z'
loop_
 _atom_site_type_symbol
 _atom_site_label
 _atom_site_symmetry_multiplicity
 _atom_site_fract_x
 _atom_site_fract_y
 _atom_site_fract_z
 _atom_site_occupancy
  Mn  Mn0  1  0.586412  0.093997  0.093997  1
  Mn  Mn1  1  0.093997  0.093997  0.586412  1
  Mn  Mn2  1  0.907591  0.907591  0.410294  1
  Mn  Mn3  1  0.907591  0.410294  0.907591  1
  Mn  Mn4  1  0.000076  0.000076  0.000076  1
  Mn  Mn5  1  0.093997  0.586412  0.093997  1
  Mn  Mn6  1  0.410294  0.907591  0.907591  1
  Tc  Tc7  1  0.347858  0.347858  0.347858  1
  Tc  Tc8  1  0.165253  0.165253  0.165253  1
  Tc  Tc9  1  0.548883  0.548883  0.548883  1
  W  W10  1  0.651640  0.651640  0.651640  1
  W  W11  1  0.453122  0.453122  0.453122  1
  W  W12  1  0.833287  0.833287  0.833287  1
