# generated using pymatgen
data_Lu9Sc3Ru4
_symmetry_space_group_name_H-M   'P 1'
_cell_length_a   6.09320616
_cell_length_b   7.12147844
_cell_length_c   8.84799800
_cell_angle_alpha   90.00000000
_cell_angle_beta   90.00000000
_cell_angle_gamma   90.53388781
_symmetry_Int_Tables_number   1
_chemical_formula_structural   Lu9Sc3Ru4
_chemical_formula_sum   'Lu9 Sc3 Ru4'
_cell_volume   383.92129101
_cell_formula_units_Z   1
loop_
 _symmetry_equiv_pos_site_id
 _symmetry_equiv_pos_as_xyz
  1  'x, y, z'
loop_
 _atom_site_type_symbol
 _atom_site_label
 _atom_site_symmetry_multiplicity
 _atom_site_fract_x
 _atom_site_fract_y
 _atom_site_fract_z
 _atom_site_occupancy
  Lu  Lu0  1  0.332174  0.675852  0.063019  1
  Lu  Lu1  1  0.166909  0.179084  0.436424  1
  Lu  Lu2  1  0.669458  0.323718  0.560781  1
  Lu  Lu3  1  0.833394  0.821815  0.939299  1
  Lu  Lu4  1  0.669458  0.323718  0.939219  1
  Lu  Lu5  1  0.833394  0.821815  0.560701  1
  Lu  Lu6  1  0.332174  0.675852  0.436981  1
  Lu  Lu7  1  0.166909  0.179084  0.063576  1
  Lu  Lu8  1  0.370560  0.960128  0.750000  1
  Sc  Sc9  1  0.870106  0.542483  0.250000  1
  Sc  Sc10  1  0.629892  0.042411  0.250000  1
  Sc  Sc11  1  0.130410  0.457721  0.750000  1
  Ru  Ru12  1  0.026348  0.881643  0.250000  1
  Ru  Ru13  1  0.474524  0.381931  0.250000  1
  Ru  Ru14  1  0.965279  0.120314  0.750000  1
  Ru  Ru15  1  0.529011  0.612431  0.750000  1
