# generated using pymatgen
data_Li8B3PPd7Pt5
_symmetry_space_group_name_H-M   'P 1'
_cell_length_a   6.88203080
_cell_length_b   6.91399648
_cell_length_c   6.94671180
_cell_angle_alpha   90.83494849
_cell_angle_beta   91.02405975
_cell_angle_gamma   88.86551285
_symmetry_Int_Tables_number   1
_chemical_formula_structural   Li8B3PPd7Pt5
_chemical_formula_sum   'Li8 B3 P1 Pd7 Pt5'
_cell_volume   330.38977717
_cell_formula_units_Z   1
loop_
 _symmetry_equiv_pos_site_id
 _symmetry_equiv_pos_as_xyz
  1  'x, y, z'
loop_
 _atom_site_type_symbol
 _atom_site_label
 _atom_site_symmetry_multiplicity
 _atom_site_fract_x
 _atom_site_fract_y
 _atom_site_fract_z
 _atom_site_occupancy
  Li  Li0  1  0.299031  0.308450  0.310464  1
  Li  Li1  1  0.061964  0.446358  0.560499  1
  Li  Li2  1  0.543078  0.041409  0.456662  1
  Li  Li3  1  0.446173  0.559343  0.052879  1
  Li  Li4  1  0.207653  0.706586  0.790218  1
  Li  Li5  1  0.945118  0.945725  0.938302  1
  Li  Li6  1  0.808013  0.193574  0.700781  1
  Li  Li7  1  0.688143  0.801315  0.188975  1
  B  B8  1  0.366902  0.106920  0.861534  1
  B  B9  1  0.610273  0.638710  0.629713  1
  B  B10  1  0.144037  0.873089  0.394527  1
  P  P11  1  0.873626  0.372743  0.120908  1
  Pd  Pd12  1  0.447862  0.371046  0.691643  1
  Pd  Pd13  1  0.052342  0.648763  0.189576  1
  Pd  Pd14  1  0.933913  0.095949  0.297901  1
  Pd  Pd15  1  0.304958  0.943160  0.128345  1
  Pd  Pd16  1  0.703454  0.435294  0.399635  1
  Pd  Pd17  1  0.595376  0.198206  0.067401  1
  Pd  Pd18  1  0.873990  0.807939  0.554013  1
  Pt  Pt19  1  0.178534  0.072108  0.621195  1
  Pt  Pt20  1  0.567558  0.879017  0.818417  1
  Pt  Pt21  1  0.379837  0.678988  0.429720  1
  Pt  Pt22  1  0.151593  0.316177  0.945605  1
  Pt  Pt23  1  0.816570  0.559132  0.851088  1
