# generated using pymatgen
data_LuSc4Nb3Ru8
_symmetry_space_group_name_H-M   'P 1'
_cell_length_a   6.40162700
_cell_length_b   4.54795900
_cell_length_c   9.11798000
_cell_angle_alpha   90.00000000
_cell_angle_beta   90.00262005
_cell_angle_gamma   90.00000000
_symmetry_Int_Tables_number   1
_chemical_formula_structural   LuSc4Nb3Ru8
_chemical_formula_sum   'Lu1 Sc4 Nb3 Ru8'
_cell_volume   265.46394352
_cell_formula_units_Z   1
loop_
 _symmetry_equiv_pos_site_id
 _symmetry_equiv_pos_as_xyz
  1  'x, y, z'
loop_
 _atom_site_type_symbol
 _atom_site_label
 _atom_site_symmetry_multiplicity
 _atom_site_fract_x
 _atom_site_fract_y
 _atom_site_fract_z
 _atom_site_occupancy
  Lu  Lu0  1  0.250035  0.250001  0.125003  1
  Sc  Sc1  1  0.750026  0.250001  0.125005  1
  Sc  Sc2  1  0.250037  0.750000  0.375643  1
  Sc  Sc3  1  0.749972  0.250001  0.624999  1
  Sc  Sc4  1  0.249972  0.750000  0.874369  1
  Nb  Nb5  1  0.750030  0.750000  0.374075  1
  Nb  Nb6  1  0.249974  0.250001  0.625020  1
  Nb  Nb7  1  0.749975  0.750000  0.875923  1
  Ru  Ru8  1  0.511888  0.750000  0.124959  1
  Ru  Ru9  1  0.988129  0.750000  0.124958  1
  Ru  Ru10  1  0.505321  0.250001  0.383144  1
  Ru  Ru11  1  0.994705  0.250001  0.383156  1
  Ru  Ru12  1  0.000628  0.750000  0.625016  1
  Ru  Ru13  1  0.499351  0.750000  0.625051  1
  Ru  Ru14  1  0.994585  0.250001  0.866849  1
  Ru  Ru15  1  0.505370  0.250001  0.866832  1
