# generated using pymatgen
data_Tb2DyTmAl2
_symmetry_space_group_name_H-M   'P 1'
_cell_length_a   5.11301900
_cell_length_b   6.55025800
_cell_length_c   9.42468900
_cell_angle_alpha   90.00000000
_cell_angle_beta   90.00000000
_cell_angle_gamma   90.00000000
_symmetry_Int_Tables_number   1
_chemical_formula_structural   Tb2DyTmAl2
_chemical_formula_sum   'Tb4 Dy2 Tm2 Al4'
_cell_volume   315.64785388
_cell_formula_units_Z   2
loop_
 _symmetry_equiv_pos_site_id
 _symmetry_equiv_pos_as_xyz
  1  'x, y, z'
loop_
 _atom_site_type_symbol
 _atom_site_label
 _atom_site_symmetry_multiplicity
 _atom_site_fract_x
 _atom_site_fract_y
 _atom_site_fract_z
 _atom_site_occupancy
  Tb  Tb0  1  0.250000  0.809674  0.928478  1
  Tb  Tb1  1  0.250000  0.309674  0.571522  1
  Tb  Tb2  1  0.750000  0.190564  0.074282  1
  Tb  Tb3  1  0.750000  0.690564  0.425718  1
  Dy  Dy4  1  0.750000  0.027748  0.711274  1
  Dy  Dy5  1  0.750000  0.527748  0.788726  1
  Tm  Tm6  1  0.250000  0.972667  0.289772  1
  Tm  Tm7  1  0.250000  0.472667  0.210228  1
  Al  Al8  1  0.250000  0.290714  0.898288  1
  Al  Al9  1  0.250000  0.790714  0.601712  1
  Al  Al10  1  0.750000  0.708634  0.102788  1
  Al  Al11  1  0.750000  0.208634  0.397212  1
