# generated using pymatgen
data_Y7Ho(TmBi)12
_symmetry_space_group_name_H-M   'P 1'
_cell_length_a   8.20738942
_cell_length_b   9.43642500
_cell_length_c   12.00939461
_cell_angle_alpha   90.00000000
_cell_angle_beta   89.96346069
_cell_angle_gamma   90.00000000
_symmetry_Int_Tables_number   1
_chemical_formula_structural   Y7Ho(TmBi)12
_chemical_formula_sum   'Y7 Ho1 Tm12 Bi12'
_cell_volume   930.10838473
_cell_formula_units_Z   1
loop_
 _symmetry_equiv_pos_site_id
 _symmetry_equiv_pos_as_xyz
  1  'x, y, z'
loop_
 _atom_site_type_symbol
 _atom_site_label
 _atom_site_symmetry_multiplicity
 _atom_site_fract_x
 _atom_site_fract_y
 _atom_site_fract_z
 _atom_site_occupancy
  Y  Y0  1  0.686348  0.750000  0.781452  1
  Y  Y1  1  0.813783  0.250000  0.281424  1
  Y  Y2  1  0.313664  0.250000  0.218517  1
  Y  Y3  1  0.353447  0.750000  0.216121  1
  Y  Y4  1  0.853691  0.750000  0.283908  1
  Y  Y5  1  0.646336  0.250000  0.783809  1
  Y  Y6  1  0.146347  0.250000  0.716184  1
  Ho  Ho7  1  0.186541  0.750000  0.718210  1
  Tm  Tm8  1  0.025204  0.750000  0.988661  1
  Tm  Tm9  1  0.524701  0.750000  0.511142  1
  Tm  Tm10  1  0.975084  0.250000  0.010924  1
  Tm  Tm11  1  0.475011  0.250000  0.489158  1
  Tm  Tm12  1  0.307273  0.434541  0.940568  1
  Tm  Tm13  1  0.807211  0.065525  0.559388  1
  Tm  Tm14  1  0.692716  0.934531  0.059363  1
  Tm  Tm15  1  0.192798  0.565563  0.440822  1
  Tm  Tm16  1  0.692716  0.565469  0.059363  1
  Tm  Tm17  1  0.192798  0.934437  0.440822  1
  Tm  Tm18  1  0.307273  0.065459  0.940568  1
  Tm  Tm19  1  0.807211  0.434475  0.559388  1
  Bi  Bi20  1  0.433371  0.003560  0.672583  1
  Bi  Bi21  1  0.934109  0.496319  0.827306  1
  Bi  Bi22  1  0.566219  0.503936  0.327574  1
  Bi  Bi23  1  0.066159  0.996086  0.172500  1
  Bi  Bi24  1  0.566219  0.996064  0.327574  1
  Bi  Bi25  1  0.066159  0.503914  0.172500  1
  Bi  Bi26  1  0.433371  0.496440  0.672583  1
  Bi  Bi27  1  0.934109  0.003681  0.827306  1
  Bi  Bi28  1  0.406216  0.750000  0.957587  1
  Bi  Bi29  1  0.906730  0.750000  0.542729  1
  Bi  Bi30  1  0.593618  0.250000  0.042204  1
  Bi  Bi31  1  0.093566  0.250000  0.457760  1
