# generated using pymatgen
data_Os3RuS8
_symmetry_space_group_name_H-M   'P 1'
_cell_length_a   5.66744312
_cell_length_b   5.66744312
_cell_length_c   5.66744312
_cell_angle_alpha   89.98310805
_cell_angle_beta   90.01689195
_cell_angle_gamma   89.98310805
_symmetry_Int_Tables_number   1
_chemical_formula_structural   Os3RuS8
_chemical_formula_sum   'Os3 Ru1 S8'
_cell_volume   182.03774812
_cell_formula_units_Z   1
loop_
 _symmetry_equiv_pos_site_id
 _symmetry_equiv_pos_as_xyz
  1  'x, y, z'
loop_
 _atom_site_type_symbol
 _atom_site_label
 _atom_site_symmetry_multiplicity
 _atom_site_fract_x
 _atom_site_fract_y
 _atom_site_fract_z
 _atom_site_occupancy
  Os  Os0  1  0.500000  0.500000  0.000000  1
  Os  Os1  1  0.500000  0.000000  0.500000  1
  Os  Os2  1  0.000000  0.000000  0.000000  1
  Ru  Ru3  1  0.000000  0.500000  0.500000  1
  S  S4  1  0.384222  0.115778  0.884222  1
  S  S5  1  0.115540  0.885897  0.384878  1
  S  S6  1  0.884878  0.384460  0.114103  1
  S  S7  1  0.614103  0.615122  0.615540  1
  S  S8  1  0.385897  0.384878  0.384460  1
  S  S9  1  0.115122  0.615540  0.885897  1
  S  S10  1  0.884460  0.114103  0.615122  1
  S  S11  1  0.615778  0.884222  0.115778  1
