# generated using pymatgen
data_Nb12Ga7TcN4
_symmetry_space_group_name_H-M   'P 1'
_cell_length_a   7.06208736
_cell_length_b   7.06208723
_cell_length_c   7.06208728
_cell_angle_alpha   89.66412269
_cell_angle_beta   90.33587220
_cell_angle_gamma   90.33588447
_symmetry_Int_Tables_number   1
_chemical_formula_structural   Nb12Ga7TcN4
_chemical_formula_sum   'Nb12 Ga7 Tc1 N4'
_cell_volume   352.18993764
_cell_formula_units_Z   1
loop_
 _symmetry_equiv_pos_site_id
 _symmetry_equiv_pos_as_xyz
  1  'x, y, z'
loop_
 _atom_site_type_symbol
 _atom_site_label
 _atom_site_symmetry_multiplicity
 _atom_site_fract_x
 _atom_site_fract_y
 _atom_site_fract_z
 _atom_site_occupancy
  Nb  Nb0  1  0.796517  0.957528  0.374711  1
  Nb  Nb1  1  0.704289  0.042985  0.874577  1
  Nb  Nb2  1  0.208782  0.458094  0.123595  1
  Nb  Nb3  1  0.291675  0.546576  0.623679  1
  Nb  Nb4  1  0.957015  0.374577  0.795711  1
  Nb  Nb5  1  0.042472  0.874711  0.703483  1
  Nb  Nb6  1  0.453424  0.123679  0.208325  1
  Nb  Nb7  1  0.541906  0.623595  0.291218  1
  Nb  Nb8  1  0.376405  0.791218  0.958094  1
  Nb  Nb9  1  0.876321  0.708325  0.046576  1
  Nb  Nb10  1  0.125289  0.203483  0.457528  1
  Nb  Nb11  1  0.625423  0.295711  0.542985  1
  Ga  Ga12  1  0.319806  0.177310  0.819171  1
  Ga  Ga13  1  0.822690  0.319171  0.180194  1
  Ga  Ga14  1  0.680829  0.680194  0.677310  1
  Ga  Ga15  1  0.569515  0.430485  0.930485  1
  Ga  Ga16  1  0.426937  0.928682  0.565467  1
  Ga  Ga17  1  0.934533  0.573063  0.428682  1
  Ga  Ga18  1  0.071318  0.065467  0.073063  1
  Tc  Tc19  1  0.177909  0.822091  0.322091  1
  N  N20  1  0.875833  0.124167  0.624167  1
  N  N21  1  0.625150  0.876777  0.127261  1
  N  N22  1  0.123223  0.627261  0.874850  1
  N  N23  1  0.372739  0.374850  0.376777  1
