# generated using pymatgen
data_Tb2Sm2Ga3SiRu4
_symmetry_space_group_name_H-M   'P 1'
_cell_length_a   4.50246100
_cell_length_b   7.20521136
_cell_length_c   7.17405688
_cell_angle_alpha   90.21070547
_cell_angle_beta   90.00000000
_cell_angle_gamma   90.00000000
_symmetry_Int_Tables_number   1
_chemical_formula_structural   Tb2Sm2Ga3SiRu4
_chemical_formula_sum   'Tb2 Sm2 Ga3 Si1 Ru4'
_cell_volume   232.73331941
_cell_formula_units_Z   1
loop_
 _symmetry_equiv_pos_site_id
 _symmetry_equiv_pos_as_xyz
  1  'x, y, z'
loop_
 _atom_site_type_symbol
 _atom_site_label
 _atom_site_symmetry_multiplicity
 _atom_site_fract_x
 _atom_site_fract_y
 _atom_site_fract_z
 _atom_site_occupancy
  Tb  Tb0  1  0.250000  0.983814  0.806336  1
  Tb  Tb1  1  0.250000  0.476329  0.694622  1
  Sm  Sm2  1  0.750000  0.017298  0.194572  1
  Sm  Sm3  1  0.750000  0.517929  0.309285  1
  Ga  Ga4  1  0.250000  0.306389  0.105268  1
  Ga  Ga5  1  0.750000  0.690400  0.890338  1
  Ga  Ga6  1  0.250000  0.803241  0.400261  1
  Si  Si7  1  0.750000  0.194802  0.602033  1
  Ru  Ru8  1  0.750000  0.859083  0.567759  1
  Ru  Ru9  1  0.250000  0.161000  0.447569  1
  Ru  Ru10  1  0.750000  0.329573  0.917886  1
  Ru  Ru11  1  0.250000  0.660143  0.064070  1
