# generated using pymatgen
data_Nd8Sc11Si16W
_symmetry_space_group_name_H-M   'P 1'
_cell_length_a   7.22613219
_cell_length_b   7.46548960
_cell_length_c   14.08683106
_cell_angle_alpha   90.20251843
_cell_angle_beta   89.67427134
_cell_angle_gamma   89.55232544
_symmetry_Int_Tables_number   1
_chemical_formula_structural   Nd8Sc11Si16W
_chemical_formula_sum   'Nd8 Sc11 Si16 W1'
_cell_volume   759.89650368
_cell_formula_units_Z   1
loop_
 _symmetry_equiv_pos_site_id
 _symmetry_equiv_pos_as_xyz
  1  'x, y, z'
loop_
 _atom_site_type_symbol
 _atom_site_label
 _atom_site_symmetry_multiplicity
 _atom_site_fract_x
 _atom_site_fract_y
 _atom_site_fract_z
 _atom_site_occupancy
  Nd  Nd0  1  0.011829  0.171329  0.097205  1
  Nd  Nd1  1  0.989207  0.828342  0.898350  1
  Nd  Nd2  1  0.486945  0.673842  0.898361  1
  Nd  Nd3  1  0.992859  0.831527  0.595826  1
  Nd  Nd4  1  0.513431  0.326630  0.096961  1
  Nd  Nd5  1  0.011234  0.172862  0.403429  1
  Nd  Nd6  1  0.507862  0.328112  0.408909  1
  Nd  Nd7  1  0.486833  0.673074  0.597478  1
  Sc  Sc8  1  0.162691  0.488828  0.744244  1
  Sc  Sc9  1  0.839165  0.500600  0.252283  1
  Sc  Sc10  1  0.338856  0.999956  0.251682  1
  Sc  Sc11  1  0.655795  0.004439  0.747289  1
  Sc  Sc12  1  0.665849  0.826701  0.378571  1
  Sc  Sc13  1  0.168783  0.676003  0.377537  1
  Sc  Sc14  1  0.669424  0.824414  0.124907  1
  Sc  Sc15  1  0.832429  0.325099  0.624225  1
  Sc  Sc16  1  0.332879  0.176944  0.874997  1
  Sc  Sc17  1  0.829001  0.323816  0.870610  1
  Sc  Sc18  1  0.170480  0.675748  0.126005  1
  Si  Si19  1  0.044645  0.126618  0.744360  1
  Si  Si20  1  0.963202  0.877298  0.251770  1
  Si  Si21  1  0.466306  0.625182  0.251226  1
  Si  Si22  1  0.529080  0.366480  0.744770  1
  Si  Si23  1  0.289303  0.892046  0.746003  1
  Si  Si24  1  0.710281  0.118533  0.251077  1
  Si  Si25  1  0.213507  0.381048  0.250950  1
  Si  Si26  1  0.786636  0.617476  0.746789  1
  Si  Si27  1  0.170943  0.448187  0.543172  1
  Si  Si28  1  0.847732  0.534671  0.459892  1
  Si  Si29  1  0.339691  0.969759  0.470937  1
  Si  Si30  1  0.849309  0.537120  0.038848  1
  Si  Si31  1  0.640589  0.039161  0.546436  1
  Si  Si32  1  0.148950  0.464648  0.958814  1
  Si  Si33  1  0.655280  0.037426  0.957944  1
  Si  Si34  1  0.347018  0.961582  0.039091  1
  W  W35  1  0.331977  0.174499  0.629049  1
