# generated using pymatgen
data_ZrHg3Te2F6
_symmetry_space_group_name_H-M   'P 1'
_cell_length_a   8.05065559
_cell_length_b   8.05065514
_cell_length_c   5.52758263
_cell_angle_alpha   90.85185416
_cell_angle_beta   90.85184795
_cell_angle_gamma   59.46874400
_symmetry_Int_Tables_number   1
_chemical_formula_structural   ZrHg3Te2F6
_chemical_formula_sum   'Zr1 Hg3 Te2 F6'
_cell_volume   308.54236032
_cell_formula_units_Z   1
loop_
 _symmetry_equiv_pos_site_id
 _symmetry_equiv_pos_as_xyz
  1  'x, y, z'
loop_
 _atom_site_type_symbol
 _atom_site_label
 _atom_site_symmetry_multiplicity
 _atom_site_fract_x
 _atom_site_fract_y
 _atom_site_fract_z
 _atom_site_occupancy
  Zr  Zr0  1  0.000000  0.000000  0.499999  1
  Hg  Hg1  1  0.500000  0.000000  0.000000  1
  Hg  Hg2  1  0.000000  0.500000  0.000000  1
  Hg  Hg3  1  0.500000  0.500000  0.000000  1
  Te  Te4  1  0.667288  0.667288  0.247033  1
  Te  Te5  1  0.332712  0.332712  0.752967  1
  F  F6  1  0.878615  0.878615  0.286091  1
  F  F7  1  0.876789  0.244928  0.294126  1
  F  F8  1  0.244928  0.876789  0.294126  1
  F  F9  1  0.755071  0.123211  0.705874  1
  F  F10  1  0.123211  0.755071  0.705874  1
  F  F11  1  0.121386  0.121386  0.713909  1
