# generated using pymatgen
data_CePr4Ir2Rh
_symmetry_space_group_name_H-M   'P 1'
_cell_length_a   11.27873200
_cell_length_b   11.27873200
_cell_length_c   6.56884500
_cell_angle_alpha   90.00000000
_cell_angle_beta   90.00000000
_cell_angle_gamma   90.00000000
_symmetry_Int_Tables_number   1
_chemical_formula_structural   CePr4Ir2Rh
_chemical_formula_sum   'Ce4 Pr16 Ir8 Rh4'
_cell_volume   835.62142930
_cell_formula_units_Z   4
loop_
 _symmetry_equiv_pos_site_id
 _symmetry_equiv_pos_as_xyz
  1  'x, y, z'
loop_
 _atom_site_type_symbol
 _atom_site_label
 _atom_site_symmetry_multiplicity
 _atom_site_fract_x
 _atom_site_fract_y
 _atom_site_fract_z
 _atom_site_occupancy
  Ce  Ce0  1  0.000000  0.000000  0.500000  1
  Ce  Ce1  1  0.000000  0.000000  0.000000  1
  Ce  Ce2  1  0.500000  0.500000  0.000000  1
  Ce  Ce3  1  0.500000  0.500000  0.500000  1
  Pr  Pr4  1  0.289772  0.089565  0.378729  1
  Pr  Pr5  1  0.289772  0.910435  0.878729  1
  Pr  Pr6  1  0.710228  0.089565  0.878729  1
  Pr  Pr7  1  0.710228  0.910435  0.378729  1
  Pr  Pr8  1  0.589565  0.789772  0.878729  1
  Pr  Pr9  1  0.589565  0.210228  0.378729  1
  Pr  Pr10  1  0.410435  0.789772  0.378729  1
  Pr  Pr11  1  0.410435  0.210228  0.878729  1
  Pr  Pr12  1  0.210228  0.410435  0.621271  1
  Pr  Pr13  1  0.210228  0.589565  0.121271  1
  Pr  Pr14  1  0.789772  0.410435  0.121271  1
  Pr  Pr15  1  0.789772  0.589565  0.621271  1
  Pr  Pr16  1  0.910435  0.710228  0.121271  1
  Pr  Pr17  1  0.910435  0.289772  0.621271  1
  Pr  Pr18  1  0.089565  0.710228  0.621271  1
  Pr  Pr19  1  0.089565  0.289772  0.121271  1
  Ir  Ir20  1  0.853695  0.146305  0.250000  1
  Ir  Ir21  1  0.853695  0.853695  0.750000  1
  Ir  Ir22  1  0.146305  0.146305  0.750000  1
  Ir  Ir23  1  0.146305  0.853695  0.250000  1
  Ir  Ir24  1  0.646305  0.353695  0.750000  1
  Ir  Ir25  1  0.646305  0.646305  0.250000  1
  Ir  Ir26  1  0.353695  0.353695  0.250000  1
  Ir  Ir27  1  0.353695  0.646305  0.750000  1
  Rh  Rh28  1  0.500000  0.000000  0.114022  1
  Rh  Rh29  1  0.500000  0.000000  0.614022  1
  Rh  Rh30  1  0.000000  0.500000  0.885978  1
  Rh  Rh31  1  0.000000  0.500000  0.385978  1
