# generated using pymatgen
data_Yb2Y5Ho3(In2Pt)4
_symmetry_space_group_name_H-M   'P 1'
_cell_length_a   3.60883100
_cell_length_b   8.19033145
_cell_length_c   18.41659574
_cell_angle_alpha   90.10516374
_cell_angle_beta   90.00000000
_cell_angle_gamma   90.00000000
_symmetry_Int_Tables_number   1
_chemical_formula_structural   Yb2Y5Ho3(In2Pt)4
_chemical_formula_sum   'Yb2 Y5 Ho3 In8 Pt4'
_cell_volume   544.34801790
_cell_formula_units_Z   1
loop_
 _symmetry_equiv_pos_site_id
 _symmetry_equiv_pos_as_xyz
  1  'x, y, z'
loop_
 _atom_site_type_symbol
 _atom_site_label
 _atom_site_symmetry_multiplicity
 _atom_site_fract_x
 _atom_site_fract_y
 _atom_site_fract_z
 _atom_site_occupancy
  Yb  Yb0  1  0.000000  0.000025  0.999922  1
  Yb  Yb1  1  0.000000  0.500034  0.500053  1
  Y  Y2  1  0.000000  0.119817  0.414739  1
  Y  Y3  1  0.000000  0.880025  0.585563  1
  Y  Y4  1  0.000000  0.379982  0.914402  1
  Y  Y5  1  0.000000  0.620397  0.085288  1
  Y  Y6  1  0.000000  0.242598  0.220536  1
  Ho  Ho7  1  0.000000  0.756738  0.778982  1
  Ho  Ho8  1  0.000000  0.256789  0.721021  1
  Ho  Ho9  1  0.000000  0.743113  0.279151  1
  In  In10  1  0.500000  0.426217  0.351102  1
  In  In11  1  0.500000  0.573877  0.648932  1
  In  In12  1  0.500000  0.073927  0.851003  1
  In  In13  1  0.500000  0.925138  0.148994  1
  In  In14  1  0.500000  0.292859  0.067417  1
  In  In15  1  0.500000  0.707640  0.932133  1
  In  In16  1  0.500000  0.207580  0.567787  1
  In  In17  1  0.500000  0.792352  0.432324  1
  Pt  Pt18  1  0.500000  0.019744  0.302961  1
  Pt  Pt19  1  0.500000  0.978131  0.697926  1
  Pt  Pt20  1  0.500000  0.478266  0.802051  1
  Pt  Pt21  1  0.500000  0.524749  0.197716  1
