# generated using pymatgen
data_Tb3DyCoSi12Ni19
_symmetry_space_group_name_H-M   'P 1'
_cell_length_a   3.79974500
_cell_length_b   6.59778527
_cell_length_c   18.76869730
_cell_angle_alpha   90.13343991
_cell_angle_beta   90.00000000
_cell_angle_gamma   90.00000000
_symmetry_Int_Tables_number   1
_chemical_formula_structural   Tb3DyCoSi12Ni19
_chemical_formula_sum   'Tb3 Dy1 Co1 Si12 Ni19'
_cell_volume   470.52811796
_cell_formula_units_Z   1
loop_
 _symmetry_equiv_pos_site_id
 _symmetry_equiv_pos_as_xyz
  1  'x, y, z'
loop_
 _atom_site_type_symbol
 _atom_site_label
 _atom_site_symmetry_multiplicity
 _atom_site_fract_x
 _atom_site_fract_y
 _atom_site_fract_z
 _atom_site_occupancy
  Tb  Tb0  1  0.250000  0.874830  0.356429  1
  Tb  Tb1  1  0.750000  0.124272  0.643710  1
  Tb  Tb2  1  0.250000  0.624227  0.856348  1
  Dy  Dy3  1  0.750000  0.376134  0.144067  1
  Co  Co4  1  0.250000  0.064371  0.205358  1
  Si  Si5  1  0.250000  0.081093  0.086342  1
  Si  Si6  1  0.750000  0.922090  0.913917  1
  Si  Si7  1  0.750000  0.577413  0.413893  1
  Si  Si8  1  0.250000  0.421795  0.586368  1
  Si  Si9  1  0.250000  0.657508  0.074770  1
  Si  Si10  1  0.750000  0.344930  0.926220  1
  Si  Si11  1  0.750000  0.156794  0.425683  1
  Si  Si12  1  0.250000  0.843693  0.573809  1
  Si  Si13  1  0.250000  0.373414  0.261130  1
  Si  Si14  1  0.750000  0.620680  0.737225  1
  Si  Si15  1  0.750000  0.880082  0.237550  1
  Si  Si16  1  0.250000  0.120855  0.762791  1
  Ni  Ni17  1  0.750000  0.929428  0.793251  1
  Ni  Ni18  1  0.750000  0.568700  0.293340  1
  Ni  Ni19  1  0.250000  0.429749  0.707242  1
  Ni  Ni20  1  0.250000  0.613803  0.484084  1
  Ni  Ni21  1  0.750000  0.385593  0.515848  1
  Ni  Ni22  1  0.750000  0.115682  0.015658  1
  Ni  Ni23  1  0.250000  0.886460  0.984522  1
  Ni  Ni24  1  0.250000  0.683233  0.199875  1
  Ni  Ni25  1  0.750000  0.314216  0.800846  1
  Ni  Ni26  1  0.750000  0.185229  0.299933  1
  Ni  Ni27  1  0.250000  0.814656  0.699105  1
  Ni  Ni28  1  0.250000  0.355005  0.383332  1
  Ni  Ni29  1  0.750000  0.645413  0.615427  1
  Ni  Ni30  1  0.750000  0.860169  0.116751  1
  Ni  Ni31  1  0.250000  0.145247  0.884538  1
  Ni  Ni32  1  0.250000  0.366631  0.005574  1
  Ni  Ni33  1  0.750000  0.636107  0.995471  1
  Ni  Ni34  1  0.750000  0.865672  0.494607  1
  Ni  Ni35  1  0.250000  0.134823  0.504990  1
