# generated using pymatgen
data_Lu12InFe3Pt
_symmetry_space_group_name_H-M   'P 1'
_cell_length_a   8.06525840
_cell_length_b   8.06525650
_cell_length_c   8.06525841
_cell_angle_alpha   107.16565892
_cell_angle_beta   110.75056340
_cell_angle_gamma   110.52183445
_symmetry_Int_Tables_number   1
_chemical_formula_structural   Lu12InFe3Pt
_chemical_formula_sum   'Lu12 In1 Fe3 Pt1'
_cell_volume   403.37221997
_cell_formula_units_Z   1
loop_
 _symmetry_equiv_pos_site_id
 _symmetry_equiv_pos_as_xyz
  1  'x, y, z'
loop_
 _atom_site_type_symbol
 _atom_site_label
 _atom_site_symmetry_multiplicity
 _atom_site_fract_x
 _atom_site_fract_y
 _atom_site_fract_z
 _atom_site_occupancy
  Lu  Lu0  1  0.310603  0.307837  0.618441  1
  Lu  Lu1  1  0.689397  0.692163  0.381559  1
  Lu  Lu2  1  0.689397  0.307837  0.997233  1
  Lu  Lu3  1  0.310603  0.692163  0.002767  1
  Lu  Lu4  1  0.187948  0.410185  0.222235  1
  Lu  Lu5  1  0.812052  0.589815  0.777765  1
  Lu  Lu6  1  0.187948  0.965712  0.777765  1
  Lu  Lu7  1  0.925557  0.190644  0.734915  1
  Lu  Lu8  1  0.812052  0.034288  0.222235  1
  Lu  Lu9  1  0.074443  0.809356  0.265085  1
  Lu  Lu10  1  0.455729  0.190644  0.265085  1
  Lu  Lu11  1  0.544271  0.809356  0.734915  1
  In  In12  1  0.000000  0.500000  0.500000  1
  Fe  Fe13  1  0.381153  0.381153  0.000000  1
  Fe  Fe14  1  0.618847  0.618847  0.000000  1
  Fe  Fe15  1  0.000000  0.000000  0.000000  1
  Pt  Pt16  1  0.500000  0.000000  0.500000  1
