# generated using pymatgen
data_La2Ho5Tm(WO6)4
_symmetry_space_group_name_H-M   'P 1'
_cell_length_a   5.45322001
_cell_length_b   7.78491723
_cell_length_c   11.55918815
_cell_angle_alpha   75.63581805
_cell_angle_beta   89.99335321
_cell_angle_gamma   89.93122818
_symmetry_Int_Tables_number   1
_chemical_formula_structural   La2Ho5Tm(WO6)4
_chemical_formula_sum   'La2 Ho5 Tm1 W4 O24'
_cell_volume   475.37962558
_cell_formula_units_Z   1
loop_
 _symmetry_equiv_pos_site_id
 _symmetry_equiv_pos_as_xyz
  1  'x, y, z'
loop_
 _atom_site_type_symbol
 _atom_site_label
 _atom_site_symmetry_multiplicity
 _atom_site_fract_x
 _atom_site_fract_y
 _atom_site_fract_z
 _atom_site_occupancy
  La  La0  1  0.685690  0.500496  0.749063  1
  La  La1  1  0.313728  0.500222  0.250425  1
  Ho  Ho2  1  0.742139  0.999640  0.749006  1
  Ho  Ho3  1  0.257705  0.999814  0.250796  1
  Ho  Ho4  1  0.813483  0.798453  0.076246  1
  Ho  Ho5  1  0.185977  0.201632  0.923780  1
  Ho  Ho6  1  0.815014  0.201724  0.423870  1
  Tm  Tm7  1  0.184914  0.797295  0.576818  1
  W  W8  1  0.251829  0.730147  0.882697  1
  W  W9  1  0.747184  0.730001  0.384292  1
  W  W10  1  0.252641  0.270202  0.616607  1
  W  W11  1  0.747656  0.270100  0.116642  1
  O  O12  1  0.040838  0.942458  0.895558  1
  O  O13  1  0.534491  0.844229  0.929333  1
  O  O14  1  0.959031  0.941958  0.397076  1
  O  O15  1  0.450989  0.798293  0.724971  1
  O  O16  1  0.463890  0.843107  0.432430  1
  O  O17  1  0.985206  0.724018  0.767140  1
  O  O18  1  0.546912  0.798351  0.227279  1
  O  O19  1  0.859335  0.644101  0.544543  1
  O  O20  1  0.342929  0.495229  0.886024  1
  O  O21  1  0.014269  0.723447  0.268895  1
  O  O22  1  0.341185  0.505746  0.613493  1
  O  O23  1  0.856868  0.356479  0.955905  1
  O  O24  1  0.142858  0.644324  0.043646  1
  O  O25  1  0.656744  0.495406  0.387396  1
  O  O26  1  0.984297  0.275909  0.730870  1
  O  O27  1  0.656674  0.504949  0.113812  1
  O  O28  1  0.143583  0.356401  0.455901  1
  O  O29  1  0.452767  0.202199  0.773341  1
  O  O30  1  0.015077  0.276564  0.231473  1
  O  O31  1  0.536523  0.157104  0.569488  1
  O  O32  1  0.547582  0.201980  0.273714  1
  O  O33  1  0.044797  0.055791  0.603662  1
  O  O34  1  0.465973  0.154887  0.069672  1
  O  O35  1  0.959223  0.057345  0.104135  1
