# generated using pymatgen
data_Dy10Tl3Bi2Pb
_symmetry_space_group_name_H-M   'P 1'
_cell_length_a   9.04347100
_cell_length_b   9.06215836
_cell_length_c   6.64407700
_cell_angle_alpha   90.00000000
_cell_angle_beta   90.00000000
_cell_angle_gamma   119.96279436
_symmetry_Int_Tables_number   1
_chemical_formula_structural   Dy10Tl3Bi2Pb
_chemical_formula_sum   'Dy10 Tl3 Bi2 Pb1'
_cell_volume   471.73139924
_cell_formula_units_Z   1
loop_
 _symmetry_equiv_pos_site_id
 _symmetry_equiv_pos_as_xyz
  1  'x, y, z'
loop_
 _atom_site_type_symbol
 _atom_site_label
 _atom_site_symmetry_multiplicity
 _atom_site_fract_x
 _atom_site_fract_y
 _atom_site_fract_z
 _atom_site_occupancy
  Dy  Dy0  1  0.243417  0.234249  0.750000  1
  Dy  Dy1  1  0.237956  0.996880  0.250000  1
  Dy  Dy2  1  0.341670  0.676773  0.998522  1
  Dy  Dy3  1  0.662705  0.329612  0.998851  1
  Dy  Dy4  1  0.001181  0.766490  0.750000  1
  Dy  Dy5  1  0.762072  0.768139  0.250000  1
  Dy  Dy6  1  0.991498  0.233289  0.250000  1
  Dy  Dy7  1  0.757289  0.991975  0.750000  1
  Dy  Dy8  1  0.341670  0.676773  0.501478  1
  Dy  Dy9  1  0.662705  0.329612  0.501149  1
  Tl  Tl10  1  0.603086  0.002496  0.250000  1
  Tl  Tl11  1  0.604555  0.601822  0.750000  1
  Tl  Tl12  1  0.397856  0.000751  0.750000  1
  Bi  Bi13  1  0.002706  0.393193  0.750000  1
  Bi  Bi14  1  0.390971  0.394175  0.250000  1
  Pb  Pb15  1  0.998659  0.603771  0.250000  1
