# generated using pymatgen
data_HfZr(SiIr)2
_symmetry_space_group_name_H-M   'P 1'
_cell_length_a   3.97316700
_cell_length_b   6.55574400
_cell_length_c   7.43738300
_cell_angle_alpha   90.00000000
_cell_angle_beta   90.00000000
_cell_angle_gamma   90.00000000
_symmetry_Int_Tables_number   1
_chemical_formula_structural   HfZr(SiIr)2
_chemical_formula_sum   'Hf2 Zr2 Si4 Ir4'
_cell_volume   193.72200380
_cell_formula_units_Z   2
loop_
 _symmetry_equiv_pos_site_id
 _symmetry_equiv_pos_as_xyz
  1  'x, y, z'
loop_
 _atom_site_type_symbol
 _atom_site_label
 _atom_site_symmetry_multiplicity
 _atom_site_fract_x
 _atom_site_fract_y
 _atom_site_fract_z
 _atom_site_occupancy
  Hf  Hf0  1  0.250000  0.019174  0.318499  1
  Hf  Hf1  1  0.250000  0.519174  0.181501  1
  Zr  Zr2  1  0.750000  0.981565  0.680944  1
  Zr  Zr3  1  0.750000  0.481565  0.819056  1
  Si  Si4  1  0.250000  0.277380  0.618582  1
  Si  Si5  1  0.250000  0.777380  0.881418  1
  Si  Si6  1  0.750000  0.722175  0.380504  1
  Si  Si7  1  0.750000  0.222175  0.119496  1
  Ir  Ir8  1  0.250000  0.152562  0.938860  1
  Ir  Ir9  1  0.250000  0.652562  0.561140  1
  Ir  Ir10  1  0.750000  0.847144  0.068372  1
  Ir  Ir11  1  0.750000  0.347144  0.431628  1
