# generated using pymatgen
data_TcHg3(SF3)2
_symmetry_space_group_name_H-M   'P 1'
_cell_length_a   7.69683938
_cell_length_b   7.69684689
_cell_length_c   5.09436016
_cell_angle_alpha   106.57913177
_cell_angle_beta   106.57910503
_cell_angle_gamma   55.27714704
_symmetry_Int_Tables_number   1
_chemical_formula_structural   TcHg3(SF3)2
_chemical_formula_sum   'Tc1 Hg3 S2 F6'
_cell_volume   234.83290967
_cell_formula_units_Z   1
loop_
 _symmetry_equiv_pos_site_id
 _symmetry_equiv_pos_as_xyz
  1  'x, y, z'
loop_
 _atom_site_type_symbol
 _atom_site_label
 _atom_site_symmetry_multiplicity
 _atom_site_fract_x
 _atom_site_fract_y
 _atom_site_fract_z
 _atom_site_occupancy
  Tc  Tc0  1  0.000000  0.000000  0.499999  1
  Hg  Hg1  1  0.500000  0.500000  0.000000  1
  Hg  Hg2  1  0.500000  0.000000  0.499999  1
  Hg  Hg3  1  0.000000  0.500000  0.499999  1
  S  S4  1  0.686763  0.686762  0.169374  1
  S  S5  1  0.313237  0.313238  0.830626  1
  F  F6  1  0.714299  0.116265  0.270831  1
  F  F7  1  0.116265  0.714299  0.270830  1
  F  F8  1  0.095986  0.095989  0.281328  1
  F  F9  1  0.904014  0.904011  0.718672  1
  F  F10  1  0.883735  0.285701  0.729170  1
  F  F11  1  0.285701  0.883735  0.729169  1
