# generated using pymatgen
data_La4Gd2CoBr10
_symmetry_space_group_name_H-M   'P 1'
_cell_length_a   7.73433183
_cell_length_b   9.63291061
_cell_length_c   9.69199900
_cell_angle_alpha   108.65629292
_cell_angle_beta   106.80281035
_cell_angle_gamma   96.36968962
_symmetry_Int_Tables_number   1
_chemical_formula_structural   La4Gd2CoBr10
_chemical_formula_sum   'La4 Gd2 Co1 Br10'
_cell_volume   638.25777287
_cell_formula_units_Z   1
loop_
 _symmetry_equiv_pos_site_id
 _symmetry_equiv_pos_as_xyz
  1  'x, y, z'
loop_
 _atom_site_type_symbol
 _atom_site_label
 _atom_site_symmetry_multiplicity
 _atom_site_fract_x
 _atom_site_fract_y
 _atom_site_fract_z
 _atom_site_occupancy
  La  La0  1  0.123415  0.771412  0.049235  1
  La  La1  1  0.630723  0.811492  0.854989  1
  La  La2  1  0.879338  0.229881  0.955755  1
  La  La3  1  0.979155  0.103319  0.308611  1
  Gd  Gd4  1  0.358736  0.178903  0.131029  1
  Gd  Gd5  1  0.028976  0.905901  0.705930  1
  Co  Co6  1  0.998334  0.998859  0.002023  1
  Br  Br7  1  0.444597  0.079872  0.826647  1
  Br  Br8  1  0.753332  0.545466  0.920661  1
  Br  Br9  1  0.254239  0.447494  0.084073  1
  Br  Br10  1  0.917836  0.162739  0.635769  1
  Br  Br11  1  0.657813  0.732409  0.543001  1
  Br  Br12  1  0.546809  0.925166  0.171734  1
  Br  Br13  1  0.087134  0.834326  0.376068  1
  Br  Br14  1  0.774318  0.340906  0.250485  1
  Br  Br15  1  0.196135  0.656159  0.739094  1
  Br  Br16  1  0.369108  0.275695  0.444893  1
