# generated using pymatgen
data_La7Yb2PrRu4
_symmetry_space_group_name_H-M   'P 1'
_cell_length_a   8.99388204
_cell_length_b   8.95303187
_cell_length_c   7.40382956
_cell_angle_alpha   84.95834478
_cell_angle_beta   85.21774596
_cell_angle_gamma   43.78952545
_symmetry_Int_Tables_number   1
_chemical_formula_structural   La7Yb2PrRu4
_chemical_formula_sum   'La7 Yb2 Pr1 Ru4'
_cell_volume   410.79179669
_cell_formula_units_Z   1
loop_
 _symmetry_equiv_pos_site_id
 _symmetry_equiv_pos_as_xyz
  1  'x, y, z'
loop_
 _atom_site_type_symbol
 _atom_site_label
 _atom_site_symmetry_multiplicity
 _atom_site_fract_x
 _atom_site_fract_y
 _atom_site_fract_z
 _atom_site_occupancy
  La  La0  1  0.017250  0.792513  0.902878  1
  La  La1  1  0.201302  0.984726  0.594671  1
  La  La2  1  0.983348  0.200548  0.092659  1
  La  La3  1  0.796875  0.016421  0.405690  1
  La  La4  1  0.368740  0.210461  0.813396  1
  La  La5  1  0.795413  0.628490  0.678281  1
  La  La6  1  0.636780  0.790551  0.181375  1
  Yb  Yb7  1  0.207573  0.361405  0.315679  1
  Yb  Yb8  1  0.574017  0.427770  0.751811  1
  Pr  Pr9  1  0.423545  0.569940  0.251716  1
  Ru  Ru10  1  0.154382  0.625972  0.594617  1
  Ru  Ru11  1  0.388790  0.845456  0.919825  1
  Ru  Ru12  1  0.833204  0.390168  0.411746  1
  Ru  Ru13  1  0.618782  0.155579  0.085657  1
