# generated using pymatgen
data_Zr10Sn2Bi3Sb2
_symmetry_space_group_name_H-M   'P 1'
_cell_length_a   5.97017351
_cell_length_b   8.76124216
_cell_length_c   8.74970941
_cell_angle_alpha   120.04362178
_cell_angle_beta   89.91569451
_cell_angle_gamma   90.16837559
_symmetry_Int_Tables_number   1
_chemical_formula_structural   Zr10Sn2Bi3Sb2
_chemical_formula_sum   'Zr10 Sn2 Bi3 Sb2'
_cell_volume   396.17216313
_cell_formula_units_Z   1
loop_
 _symmetry_equiv_pos_site_id
 _symmetry_equiv_pos_as_xyz
  1  'x, y, z'
loop_
 _atom_site_type_symbol
 _atom_site_label
 _atom_site_symmetry_multiplicity
 _atom_site_fract_x
 _atom_site_fract_y
 _atom_site_fract_z
 _atom_site_occupancy
  Zr  Zr0  1  0.498630  0.336608  0.667886  1
  Zr  Zr1  1  0.498630  0.668722  0.332114  1
  Zr  Zr2  1  0.002485  0.668100  0.332580  1
  Zr  Zr3  1  0.002485  0.335521  0.667420  1
  Zr  Zr4  1  0.771830  0.268893  0.000000  1
  Zr  Zr5  1  0.774508  0.733597  0.738332  1
  Zr  Zr6  1  0.774508  0.995264  0.261668  1
  Zr  Zr7  1  0.226058  0.733628  0.000000  1
  Zr  Zr8  1  0.226471  0.264570  0.269764  1
  Zr  Zr9  1  0.226471  0.994806  0.730236  1
  Sn  Sn10  1  0.255554  0.613684  0.613074  1
  Sn  Sn11  1  0.255554  0.000610  0.386926  1
  Bi  Bi12  1  0.742142  0.388173  0.388143  1
  Bi  Bi13  1  0.742142  0.000030  0.611857  1
  Bi  Bi14  1  0.257255  0.384677  0.000000  1
  Sb  Sb15  1  0.747071  0.612503  0.000000  1
  Sb  Sb16  1  0.498204  0.000616  0.000000  1
