# generated using pymatgen
data_UNbP3O13
_symmetry_space_group_name_H-M   'P 1'
_cell_length_a   6.68970473
_cell_length_b   7.73181014
_cell_length_c   11.88341300
_cell_angle_alpha   76.15776356
_cell_angle_beta   86.45607144
_cell_angle_gamma   78.61689306
_symmetry_Int_Tables_number   1
_chemical_formula_structural   UNbP3O13
_chemical_formula_sum   'U2 Nb2 P6 O26'
_cell_volume   584.99321365
_cell_formula_units_Z   2
loop_
 _symmetry_equiv_pos_site_id
 _symmetry_equiv_pos_as_xyz
  1  'x, y, z'
loop_
 _atom_site_type_symbol
 _atom_site_label
 _atom_site_symmetry_multiplicity
 _atom_site_fract_x
 _atom_site_fract_y
 _atom_site_fract_z
 _atom_site_occupancy
  U  U0  1  0.201223  0.204931  0.093166  1
  U  U1  1  0.238621  0.212523  0.600403  1
  Nb  Nb2  1  0.748932  0.810186  0.402624  1
  Nb  Nb3  1  0.798838  0.775227  0.908097  1
  P  P4  1  0.116910  0.482489  0.312935  1
  P  P5  1  0.249438  0.803536  0.335507  1
  P  P6  1  0.273469  0.912405  0.889785  1
  P  P7  1  0.732044  0.044205  0.113436  1
  P  P8  1  0.737070  0.212112  0.679294  1
  P  P9  1  0.873031  0.544431  0.679523  1
  O  O10  1  0.141778  0.389736  0.211570  1
  O  O11  1  0.069100  0.809163  0.419524  1
  O  O12  1  0.097283  0.457777  0.651587  1
  O  O13  1  0.238744  0.076776  0.781785  1
  O  O14  1  0.102389  0.803908  0.896697  1
  O  O15  1  0.238422  0.356318  0.418194  1
  O  O16  1  0.241746  0.648868  0.267206  1
  O  O17  1  0.211207  0.372255  0.957728  1
  O  O18  1  0.259985  0.992380  0.998973  1
  O  O19  1  0.228691  0.984008  0.241070  1
  O  O20  1  0.329521  0.992667  0.568122  1
  O  O21  1  0.524404  0.171170  0.117754  1
  O  O22  1  0.459805  0.760416  0.389642  1
  O  O23  1  0.534488  0.283211  0.614056  1
  O  O24  1  0.487437  0.796720  0.885045  1
  O  O25  1  0.688395  0.023958  0.431375  1
  O  O26  1  0.739325  0.045658  0.773110  1
  O  O27  1  0.739892  0.952377  0.012200  1
  O  O28  1  0.825531  0.578276  0.017173  1
  O  O29  1  0.761935  0.378111  0.737701  1
  O  O30  1  0.765146  0.649359  0.567616  1
  O  O31  1  0.892243  0.167317  0.094292  1
  O  O32  1  0.770038  0.899676  0.227880  1
  O  O33  1  0.900998  0.554060  0.345073  1
  O  O34  1  0.917095  0.198005  0.591557  1
  O  O35  1  0.864828  0.655788  0.768297  1
