# generated using pymatgen
data_Tb3Ho7(SnBi)4
_symmetry_space_group_name_H-M   'P 1'
_cell_length_a   8.16658900
_cell_length_b   8.19835731
_cell_length_c   15.61586358
_cell_angle_alpha   90.03127759
_cell_angle_beta   90.00000000
_cell_angle_gamma   90.00000000
_symmetry_Int_Tables_number   1
_chemical_formula_structural   Tb3Ho7(SnBi)4
_chemical_formula_sum   'Tb6 Ho14 Sn8 Bi8'
_cell_volume   1045.52274006
_cell_formula_units_Z   2
loop_
 _symmetry_equiv_pos_site_id
 _symmetry_equiv_pos_as_xyz
  1  'x, y, z'
loop_
 _atom_site_type_symbol
 _atom_site_label
 _atom_site_symmetry_multiplicity
 _atom_site_fract_x
 _atom_site_fract_y
 _atom_site_fract_z
 _atom_site_occupancy
  Tb  Tb0  1  0.446242  0.672508  0.390171  1
  Tb  Tb1  1  0.946242  0.827492  0.109829  1
  Tb  Tb2  1  0.446598  0.672384  0.109929  1
  Tb  Tb3  1  0.946598  0.827616  0.390071  1
  Tb  Tb4  1  0.553327  0.327638  0.609707  1
  Tb  Tb5  1  0.053327  0.172362  0.890293  1
  Ho  Ho6  1  0.385882  0.838579  0.876079  1
  Ho  Ho7  1  0.885882  0.661421  0.623921  1
  Ho  Ho8  1  0.613289  0.161916  0.376081  1
  Ho  Ho9  1  0.113289  0.338084  0.123919  1
  Ho  Ho10  1  0.613071  0.161774  0.123780  1
  Ho  Ho11  1  0.113071  0.338226  0.376220  1
  Ho  Ho12  1  0.386520  0.838398  0.624209  1
  Ho  Ho13  1  0.886520  0.661602  0.875791  1
  Ho  Ho14  1  0.555057  0.328648  0.888827  1
  Ho  Ho15  1  0.055057  0.171352  0.611173  1
  Ho  Ho16  1  0.218538  0.498476  0.749986  1
  Ho  Ho17  1  0.718538  0.001524  0.750014  1
  Ho  Ho18  1  0.781455  0.501452  0.249834  1
  Ho  Ho19  1  0.281455  0.998548  0.250166  1
  Sn  Sn20  1  0.583132  0.627068  0.750172  1
  Sn  Sn21  1  0.083132  0.872932  0.749828  1
  Sn  Sn22  1  0.416115  0.373093  0.250007  1
  Sn  Sn23  1  0.916115  0.126907  0.249993  1
  Sn  Sn24  1  0.358374  0.143942  0.750398  1
  Sn  Sn25  1  0.858374  0.356058  0.749602  1
  Sn  Sn26  1  0.642145  0.856937  0.249985  1
  Sn  Sn27  1  0.142145  0.643063  0.250015  1
  Bi  Bi28  1  0.271568  0.021641  0.044490  1
  Bi  Bi29  1  0.771568  0.478359  0.455510  1
  Bi  Bi30  1  0.729649  0.979145  0.544504  1
  Bi  Bi31  1  0.229649  0.520855  0.955496  1
  Bi  Bi32  1  0.727364  0.978545  0.955489  1
  Bi  Bi33  1  0.227364  0.521455  0.544511  1
  Bi  Bi34  1  0.271675  0.023004  0.456467  1
  Bi  Bi35  1  0.771675  0.476996  0.043533  1
