# generated using pymatgen
data_Y20Cd5Ni2Hg
_symmetry_space_group_name_H-M   'P 1'
_cell_length_a   9.69027817
_cell_length_b   9.69027869
_cell_length_c   9.72483200
_cell_angle_alpha   90.00000000
_cell_angle_beta   90.00000000
_cell_angle_gamma   119.89374164
_symmetry_Int_Tables_number   1
_chemical_formula_structural   Y20Cd5Ni2Hg
_chemical_formula_sum   'Y20 Cd5 Ni2 Hg1'
_cell_volume   791.67925970
_cell_formula_units_Z   1
loop_
 _symmetry_equiv_pos_site_id
 _symmetry_equiv_pos_as_xyz
  1  'x, y, z'
loop_
 _atom_site_type_symbol
 _atom_site_label
 _atom_site_symmetry_multiplicity
 _atom_site_fract_x
 _atom_site_fract_y
 _atom_site_fract_z
 _atom_site_occupancy
  Y  Y0  1  0.998362  0.001638  0.496464  1
  Y  Y1  1  0.998362  0.001638  0.003536  1
  Y  Y2  1  0.544137  0.455863  0.250000  1
  Y  Y3  1  0.546237  0.086479  0.250000  1
  Y  Y4  1  0.913521  0.453763  0.250000  1
  Y  Y5  1  0.456526  0.543474  0.750000  1
  Y  Y6  1  0.456162  0.912590  0.750000  1
  Y  Y7  1  0.087410  0.543838  0.750000  1
  Y  Y8  1  0.210025  0.789975  0.436373  1
  Y  Y9  1  0.211129  0.420982  0.436655  1
  Y  Y10  1  0.579018  0.788871  0.436655  1
  Y  Y11  1  0.789627  0.210373  0.564027  1
  Y  Y12  1  0.789854  0.579364  0.563154  1
  Y  Y13  1  0.420636  0.210146  0.563154  1
  Y  Y14  1  0.789627  0.210373  0.935973  1
  Y  Y15  1  0.789854  0.579364  0.936846  1
  Y  Y16  1  0.420636  0.210146  0.936846  1
  Y  Y17  1  0.210025  0.789975  0.063627  1
  Y  Y18  1  0.211129  0.420982  0.063345  1
  Y  Y19  1  0.579018  0.788871  0.063345  1
  Cd  Cd20  1  0.883568  0.765006  0.250000  1
  Cd  Cd21  1  0.234994  0.116432  0.250000  1
  Cd  Cd22  1  0.114839  0.885161  0.750000  1
  Cd  Cd23  1  0.114983  0.230819  0.750000  1
  Cd  Cd24  1  0.769181  0.885017  0.750000  1
  Ni  Ni25  1  0.333142  0.666858  0.250000  1
  Ni  Ni26  1  0.666627  0.333373  0.750000  1
  Hg  Hg27  1  0.881370  0.118630  0.250000  1
