# generated using pymatgen
data_LaTlP2S7
_symmetry_space_group_name_H-M   'P 1'
_cell_length_a   9.19526300
_cell_length_b   9.76943271
_cell_length_c   12.62974900
_cell_angle_alpha   90.00000000
_cell_angle_beta   90.00000000
_cell_angle_gamma   90.43279125
_symmetry_Int_Tables_number   1
_chemical_formula_structural   LaTlP2S7
_chemical_formula_sum   'La4 Tl4 P8 S28'
_cell_volume   1134.52959890
_cell_formula_units_Z   4
loop_
 _symmetry_equiv_pos_site_id
 _symmetry_equiv_pos_as_xyz
  1  'x, y, z'
loop_
 _atom_site_type_symbol
 _atom_site_label
 _atom_site_symmetry_multiplicity
 _atom_site_fract_x
 _atom_site_fract_y
 _atom_site_fract_z
 _atom_site_occupancy
  La  La0  1  0.888056  0.644863  0.642501  1
  La  La1  1  0.111944  0.355137  0.357499  1
  La  La2  1  0.388056  0.644863  0.857499  1
  La  La3  1  0.611944  0.355137  0.142501  1
  Tl  Tl4  1  0.119293  0.113189  0.687469  1
  Tl  Tl5  1  0.380707  0.886811  0.187469  1
  Tl  Tl6  1  0.880707  0.886811  0.312531  1
  Tl  Tl7  1  0.619293  0.113189  0.812531  1
  P  P8  1  0.480044  0.221150  0.396168  1
  P  P9  1  0.019956  0.778850  0.896168  1
  P  P10  1  0.300465  0.313502  0.965823  1
  P  P11  1  0.199535  0.686498  0.465823  1
  P  P12  1  0.519956  0.778850  0.603832  1
  P  P13  1  0.800465  0.313502  0.534177  1
  P  P14  1  0.699535  0.686498  0.034177  1
  P  P15  1  0.980044  0.221150  0.103832  1
  S  S16  1  0.432735  0.407511  0.331757  1
  S  S17  1  0.347000  0.348891  0.810407  1
  S  S18  1  0.928695  0.162357  0.476588  1
  S  S19  1  0.204833  0.872726  0.943173  1
  S  S20  1  0.428695  0.162357  0.023412  1
  S  S21  1  0.110677  0.120688  0.206756  1
  S  S22  1  0.795167  0.127274  0.056827  1
  S  S23  1  0.071305  0.837643  0.523412  1
  S  S24  1  0.420490  0.751214  0.451422  1
  S  S25  1  0.179727  0.517348  0.558955  1
  S  S26  1  0.079510  0.248786  0.951422  1
  S  S27  1  0.153000  0.651109  0.310407  1
  S  S28  1  0.679727  0.517348  0.941045  1
  S  S29  1  0.847000  0.348891  0.689593  1
  S  S30  1  0.610677  0.120688  0.293244  1
  S  S31  1  0.932735  0.407511  0.168243  1
  S  S32  1  0.389323  0.879312  0.706756  1
  S  S33  1  0.920490  0.751214  0.048578  1
  S  S34  1  0.653000  0.651109  0.189593  1
  S  S35  1  0.889323  0.879312  0.793244  1
  S  S36  1  0.567265  0.592489  0.668243  1
  S  S37  1  0.579510  0.248786  0.548578  1
  S  S38  1  0.571305  0.837643  0.976588  1
  S  S39  1  0.820273  0.482652  0.441045  1
  S  S40  1  0.295167  0.127274  0.443173  1
  S  S41  1  0.704833  0.872726  0.556827  1
  S  S42  1  0.320273  0.482652  0.058955  1
  S  S43  1  0.067265  0.592489  0.831757  1
