# generated using pymatgen
data_Ce2NdIn3Pt2Rh
_symmetry_space_group_name_H-M   'P 1'
_cell_length_a   7.76082700
_cell_length_b   7.74553366
_cell_length_c   3.97092300
_cell_angle_alpha   90.00000000
_cell_angle_beta   90.00000000
_cell_angle_gamma   120.06534082
_symmetry_Int_Tables_number   1
_chemical_formula_structural   Ce2NdIn3Pt2Rh
_chemical_formula_sum   'Ce2 Nd1 In3 Pt2 Rh1'
_cell_volume   206.58325764
_cell_formula_units_Z   1
loop_
 _symmetry_equiv_pos_site_id
 _symmetry_equiv_pos_as_xyz
  1  'x, y, z'
loop_
 _atom_site_type_symbol
 _atom_site_label
 _atom_site_symmetry_multiplicity
 _atom_site_fract_x
 _atom_site_fract_y
 _atom_site_fract_z
 _atom_site_occupancy
  Ce  Ce0  1  0.592066  0.590357  0.500000  1
  Ce  Ce1  1  0.001709  0.409643  0.500000  1
  Nd  Nd2  1  0.408774  0.000000  0.500000  1
  In  In3  1  0.003738  0.752414  0.000000  1
  In  In4  1  0.744350  0.000000  0.000000  1
  In  In5  1  0.251324  0.247586  0.000000  1
  Pt  Pt6  1  0.676077  0.344991  0.000000  1
  Pt  Pt7  1  0.331085  0.655009  0.000000  1
  Rh  Rh8  1  0.990877  0.000000  0.500000  1
