# generated using pymatgen
data_ScTaP7Ru12
_symmetry_space_group_name_H-M   'P 1'
_cell_length_a   9.35475900
_cell_length_b   9.35475830
_cell_length_c   3.87566100
_cell_angle_alpha   90.00000000
_cell_angle_beta   90.00000000
_cell_angle_gamma   119.99999799
_symmetry_Int_Tables_number   1
_chemical_formula_structural   ScTaP7Ru12
_chemical_formula_sum   'Sc1 Ta1 P7 Ru12'
_cell_volume   293.72546362
_cell_formula_units_Z   1
loop_
 _symmetry_equiv_pos_site_id
 _symmetry_equiv_pos_as_xyz
  1  'x, y, z'
loop_
 _atom_site_type_symbol
 _atom_site_label
 _atom_site_symmetry_multiplicity
 _atom_site_fract_x
 _atom_site_fract_y
 _atom_site_fract_z
 _atom_site_occupancy
  Sc  Sc0  1  0.333333  0.666667  0.000000  1
  Ta  Ta1  1  0.666667  0.333333  0.500000  1
  P  P2  1  0.594379  0.719236  0.500000  1
  P  P3  1  0.000000  0.000000  0.000000  1
  P  P4  1  0.280764  0.875144  0.500000  1
  P  P5  1  0.124856  0.405621  0.500000  1
  P  P6  1  0.886017  0.575033  0.000000  1
  P  P7  1  0.424967  0.310985  0.000000  1
  P  P8  1  0.689015  0.113983  0.000000  1
  Ru  Ru9  1  0.555102  0.952630  0.500000  1
  Ru  Ru10  1  0.397529  0.444898  0.500000  1
  Ru  Ru11  1  0.912669  0.125667  0.500000  1
  Ru  Ru12  1  0.212998  0.087331  0.500000  1
  Ru  Ru13  1  0.874333  0.787002  0.500000  1
  Ru  Ru14  1  0.724540  0.887221  0.000000  1
  Ru  Ru15  1  0.112779  0.837319  0.000000  1
  Ru  Ru16  1  0.162681  0.275460  0.000000  1
  Ru  Ru17  1  0.433293  0.078620  0.000000  1
  Ru  Ru18  1  0.921380  0.354674  0.000000  1
  Ru  Ru19  1  0.645326  0.566707  0.000000  1
  Ru  Ru20  1  0.047370  0.602471  0.500000  1
