# generated using pymatgen
data_Tb2MnN3
_symmetry_space_group_name_H-M   'P 1'
_cell_length_a   3.42165346
_cell_length_b   3.66159426
_cell_length_c   6.71327147
_cell_angle_alpha   105.82127352
_cell_angle_beta   104.75830448
_cell_angle_gamma   89.99165415
_symmetry_Int_Tables_number   1
_chemical_formula_structural   Tb2MnN3
_chemical_formula_sum   'Tb2 Mn1 N3'
_cell_volume   78.03518021
_cell_formula_units_Z   1
loop_
 _symmetry_equiv_pos_site_id
 _symmetry_equiv_pos_as_xyz
  1  'x, y, z'
loop_
 _atom_site_type_symbol
 _atom_site_label
 _atom_site_symmetry_multiplicity
 _atom_site_fract_x
 _atom_site_fract_y
 _atom_site_fract_z
 _atom_site_occupancy
  Tb  Tb0  1  0.349685  0.349698  0.699399  1
  Tb  Tb1  1  0.650315  0.650302  0.300601  1
  Mn  Mn2  1  0.000000  0.000000  0.000000  1
  N  N3  1  0.161916  0.161865  0.323871  1
  N  N4  1  0.838083  0.838135  0.676129  1
  N  N5  1  0.000000  0.500000  0.000000  1
