# generated using pymatgen
data_Sc10Tl6Se
_symmetry_space_group_name_H-M   'P 1'
_cell_length_a   6.25096100
_cell_length_b   8.63139112
_cell_length_c   8.63178701
_cell_angle_alpha   119.99847958
_cell_angle_beta   89.99661322
_cell_angle_gamma   89.99874001
_symmetry_Int_Tables_number   1
_chemical_formula_structural   Sc10Tl6Se
_chemical_formula_sum   'Sc10 Tl6 Se1'
_cell_volume   403.33469805
_cell_formula_units_Z   1
loop_
 _symmetry_equiv_pos_site_id
 _symmetry_equiv_pos_as_xyz
  1  'x, y, z'
loop_
 _atom_site_type_symbol
 _atom_site_label
 _atom_site_symmetry_multiplicity
 _atom_site_fract_x
 _atom_site_fract_y
 _atom_site_fract_z
 _atom_site_occupancy
  Sc  Sc0  1  0.499998  0.333326  0.666588  1
  Sc  Sc1  1  0.500006  0.666686  0.333445  1
  Sc  Sc2  1  0.000001  0.666701  0.333373  1
  Sc  Sc3  1  0.000000  0.333321  0.666616  1
  Sc  Sc4  1  0.757138  0.249959  0.999989  1
  Sc  Sc5  1  0.757137  0.750012  0.750026  1
  Sc  Sc6  1  0.757125  0.999998  0.249973  1
  Sc  Sc7  1  0.242884  0.750040  0.999993  1
  Sc  Sc8  1  0.242859  0.249974  0.249990  1
  Sc  Sc9  1  0.242852  0.999997  0.750007  1
  Tl  Tl10  1  0.752985  0.604530  0.999966  1
  Tl  Tl11  1  0.752993  0.395411  0.395443  1
  Tl  Tl12  1  0.752983  0.000057  0.604573  1
  Tl  Tl13  1  0.247018  0.395438  0.999954  1
  Tl  Tl14  1  0.247007  0.604546  0.604602  1
  Tl  Tl15  1  0.247018  0.000019  0.395456  1
  Se  Se16  1  0.499996  0.999985  0.000008  1
