# generated using pymatgen
data_Tb4TiCo17(ReP6)2
_symmetry_space_group_name_H-M   'P 1'
_cell_length_a   3.68095900
_cell_length_b   10.36349465
_cell_length_c   11.80264493
_cell_angle_alpha   90.01444986
_cell_angle_beta   90.00000000
_cell_angle_gamma   90.00000000
_symmetry_Int_Tables_number   1
_chemical_formula_structural   Tb4TiCo17(ReP6)2
_chemical_formula_sum   'Tb4 Ti1 Co17 Re2 P12'
_cell_volume   450.24255033
_cell_formula_units_Z   1
loop_
 _symmetry_equiv_pos_site_id
 _symmetry_equiv_pos_as_xyz
  1  'x, y, z'
loop_
 _atom_site_type_symbol
 _atom_site_label
 _atom_site_symmetry_multiplicity
 _atom_site_fract_x
 _atom_site_fract_y
 _atom_site_fract_z
 _atom_site_occupancy
  Tb  Tb0  1  0.250000  0.581827  0.701298  1
  Tb  Tb1  1  0.250000  0.915668  0.205885  1
  Tb  Tb2  1  0.750000  0.415096  0.296667  1
  Tb  Tb3  1  0.750000  0.083170  0.793740  1
  Ti  Ti4  1  0.250000  0.703675  0.989301  1
  Co  Co5  1  0.750000  0.215427  0.510206  1
  Co  Co6  1  0.250000  0.405034  0.489908  1
  Co  Co7  1  0.250000  0.095366  0.989038  1
  Co  Co8  1  0.750000  0.592891  0.511403  1
  Co  Co9  1  0.750000  0.907095  0.010717  1
  Co  Co10  1  0.250000  0.221268  0.176944  1
  Co  Co11  1  0.250000  0.277854  0.677393  1
  Co  Co12  1  0.750000  0.779129  0.821304  1
  Co  Co13  1  0.750000  0.720896  0.325811  1
  Co  Co14  1  0.250000  0.888443  0.698956  1
  Co  Co15  1  0.250000  0.613980  0.201455  1
  Co  Co16  1  0.750000  0.116379  0.301123  1
  Co  Co17  1  0.750000  0.385834  0.799963  1
  Co  Co18  1  0.250000  0.463846  0.933571  1
  Co  Co19  1  0.250000  0.035073  0.431644  1
  Co  Co20  1  0.750000  0.533637  0.066094  1
  Co  Co21  1  0.750000  0.967446  0.566505  1
  Re  Re22  1  0.250000  0.789900  0.489220  1
  Re  Re23  1  0.750000  0.291630  0.011614  1
  P  P24  1  0.250000  0.419601  0.115476  1
  P  P25  1  0.250000  0.083631  0.610460  1
  P  P26  1  0.750000  0.579638  0.882719  1
  P  P27  1  0.750000  0.921072  0.386166  1
  P  P28  1  0.250000  0.268157  0.865491  1
  P  P29  1  0.250000  0.229697  0.369613  1
  P  P30  1  0.750000  0.729378  0.137747  1
  P  P31  1  0.750000  0.772256  0.633146  1
  P  P32  1  0.250000  0.594242  0.392975  1
  P  P33  1  0.250000  0.906826  0.888785  1
  P  P34  1  0.750000  0.397449  0.607444  1
  P  P35  1  0.750000  0.097488  0.110223  1
