# generated using pymatgen
data_La3Pr5(Mg3Au10)2
_symmetry_space_group_name_H-M   'P 1'
_cell_length_a   8.76316210
_cell_length_b   8.76316211
_cell_length_c   10.40579704
_cell_angle_alpha   89.99384164
_cell_angle_beta   89.99384370
_cell_angle_gamma   108.44035110
_symmetry_Int_Tables_number   1
_chemical_formula_structural   La3Pr5(Mg3Au10)2
_chemical_formula_sum   'La3 Pr5 Mg6 Au20'
_cell_volume   758.06184459
_cell_formula_units_Z   1
loop_
 _symmetry_equiv_pos_site_id
 _symmetry_equiv_pos_as_xyz
  1  'x, y, z'
loop_
 _atom_site_type_symbol
 _atom_site_label
 _atom_site_symmetry_multiplicity
 _atom_site_fract_x
 _atom_site_fract_y
 _atom_site_fract_z
 _atom_site_occupancy
  La  La0  1  0.697887  0.697887  0.796813  1
  La  La1  1  0.198143  0.198143  0.703247  1
  La  La2  1  0.801832  0.801832  0.296565  1
  Pr  Pr3  1  0.700158  0.299252  0.000554  1
  Pr  Pr4  1  0.299252  0.700158  0.000554  1
  Pr  Pr5  1  0.799468  0.200448  0.499766  1
  Pr  Pr6  1  0.200448  0.799468  0.499766  1
  Pr  Pr7  1  0.302412  0.302412  0.203062  1
  Mg  Mg8  1  0.012572  0.511347  0.249825  1
  Mg  Mg9  1  0.988194  0.488172  0.750087  1
  Mg  Mg10  1  0.488172  0.988194  0.750087  1
  Mg  Mg11  1  0.511347  0.012572  0.249825  1
  Mg  Mg12  1  0.000506  0.000506  0.000114  1
  Mg  Mg13  1  0.499927  0.499927  0.499626  1
  Au  Au14  1  0.098028  0.098028  0.403763  1
  Au  Au15  1  0.902221  0.902221  0.595807  1
  Au  Au16  1  0.401750  0.401750  0.904370  1
  Au  Au17  1  0.597513  0.597513  0.096206  1
  Au  Au18  1  0.886295  0.167515  0.205374  1
  Au  Au19  1  0.114454  0.832615  0.794794  1
  Au  Au20  1  0.614149  0.332542  0.705406  1
  Au  Au21  1  0.666903  0.385678  0.294358  1
  Au  Au22  1  0.385678  0.666903  0.294358  1
  Au  Au23  1  0.332542  0.614149  0.705406  1
  Au  Au24  1  0.832615  0.114454  0.794794  1
  Au  Au25  1  0.167515  0.886295  0.205374  1
  Au  Au26  1  0.934772  0.657359  0.023299  1
  Au  Au27  1  0.065571  0.342394  0.977361  1
  Au  Au28  1  0.564856  0.842829  0.522793  1
  Au  Au29  1  0.157612  0.434625  0.476598  1
  Au  Au30  1  0.434625  0.157612  0.476598  1
  Au  Au31  1  0.842829  0.564856  0.522793  1
  Au  Au32  1  0.342394  0.065571  0.977361  1
  Au  Au33  1  0.657359  0.934772  0.023299  1
