# generated using pymatgen
data_ErUTeN2
_symmetry_space_group_name_H-M   'P 1'
_cell_length_a   6.82770702
_cell_length_b   6.82770760
_cell_length_c   6.82770735
_cell_angle_alpha   146.81396259
_cell_angle_beta   146.81396694
_cell_angle_gamma   47.63931787
_symmetry_Int_Tables_number   1
_chemical_formula_structural   ErUTeN2
_chemical_formula_sum   'Er1 U1 Te1 N2'
_cell_volume   94.98408486
_cell_formula_units_Z   1
loop_
 _symmetry_equiv_pos_site_id
 _symmetry_equiv_pos_as_xyz
  1  'x, y, z'
loop_
 _atom_site_type_symbol
 _atom_site_label
 _atom_site_symmetry_multiplicity
 _atom_site_fract_x
 _atom_site_fract_y
 _atom_site_fract_z
 _atom_site_occupancy
  Er  Er0  1  0.339016  0.339016  0.000000  1
  U  U1  1  0.667114  0.667114  0.000000  1
  Te  Te2  1  0.004141  0.004141  0.000000  1
  N  N3  1  0.744865  0.244865  0.500000  1
  N  N4  1  0.244865  0.744865  0.500000  1
