# generated using pymatgen
data_Ho3Co5(P3Ir2)2
_symmetry_space_group_name_H-M   'P 1'
_cell_length_a   3.78446100
_cell_length_b   10.81649100
_cell_length_c   12.51627600
_cell_angle_alpha   90.00000000
_cell_angle_beta   90.00000000
_cell_angle_gamma   90.00000000
_symmetry_Int_Tables_number   1
_chemical_formula_structural   Ho3Co5(P3Ir2)2
_chemical_formula_sum   'Ho6 Co10 P12 Ir8'
_cell_volume   512.34860569
_cell_formula_units_Z   2
loop_
 _symmetry_equiv_pos_site_id
 _symmetry_equiv_pos_as_xyz
  1  'x, y, z'
loop_
 _atom_site_type_symbol
 _atom_site_label
 _atom_site_symmetry_multiplicity
 _atom_site_fract_x
 _atom_site_fract_y
 _atom_site_fract_z
 _atom_site_occupancy
  Ho  Ho0  1  0.000000  0.500000  0.521163  1
  Ho  Ho1  1  0.500000  0.000000  0.478837  1
  Ho  Ho2  1  0.500000  0.815458  0.197197  1
  Ho  Ho3  1  0.500000  0.184542  0.197197  1
  Ho  Ho4  1  0.000000  0.684542  0.802803  1
  Ho  Ho5  1  0.000000  0.315458  0.802803  1
  Co  Co6  1  0.000000  0.500000  0.991821  1
  Co  Co7  1  0.500000  0.000000  0.008179  1
  Co  Co8  1  0.500000  0.879113  0.716453  1
  Co  Co9  1  0.500000  0.120887  0.716453  1
  Co  Co10  1  0.000000  0.620887  0.283547  1
  Co  Co11  1  0.000000  0.379113  0.283547  1
  Co  Co12  1  0.500000  0.332858  0.995491  1
  Co  Co13  1  0.500000  0.667142  0.995491  1
  Co  Co14  1  0.000000  0.167142  0.004509  1
  Co  Co15  1  0.000000  0.832858  0.004509  1
  P  P16  1  0.500000  0.310015  0.625291  1
  P  P17  1  0.500000  0.689985  0.625291  1
  P  P18  1  0.000000  0.189985  0.374709  1
  P  P19  1  0.000000  0.810015  0.374709  1
  P  P20  1  0.500000  0.500000  0.894270  1
  P  P21  1  0.000000  0.000000  0.105730  1
  P  P22  1  0.500000  0.842748  0.897016  1
  P  P23  1  0.500000  0.157252  0.897016  1
  P  P24  1  0.000000  0.657252  0.102984  1
  P  P25  1  0.000000  0.342748  0.102984  1
  P  P26  1  0.500000  0.500000  0.344383  1
  P  P27  1  0.000000  0.000000  0.655617  1
  Ir  Ir28  1  0.500000  0.298787  0.426075  1
  Ir  Ir29  1  0.500000  0.701213  0.426075  1
  Ir  Ir30  1  0.000000  0.201213  0.573925  1
  Ir  Ir31  1  0.000000  0.798787  0.573925  1
  Ir  Ir32  1  0.500000  0.500000  0.159418  1
  Ir  Ir33  1  0.000000  0.000000  0.840582  1
  Ir  Ir34  1  0.500000  0.500000  0.708835  1
  Ir  Ir35  1  0.000000  0.000000  0.291165  1
