# generated using pymatgen
data_Lu4Al18ZnRuRh4
_symmetry_space_group_name_H-M   'P 1'
_cell_length_a   7.53913001
_cell_length_b   7.53912933
_cell_length_c   9.39831969
_cell_angle_alpha   90.11227425
_cell_angle_beta   90.11226036
_cell_angle_gamma   119.24576615
_symmetry_Int_Tables_number   1
_chemical_formula_structural   Lu4Al18ZnRuRh4
_chemical_formula_sum   'Lu4 Al18 Zn1 Ru1 Rh4'
_cell_volume   466.09108773
_cell_formula_units_Z   1
loop_
 _symmetry_equiv_pos_site_id
 _symmetry_equiv_pos_as_xyz
  1  'x, y, z'
loop_
 _atom_site_type_symbol
 _atom_site_label
 _atom_site_symmetry_multiplicity
 _atom_site_fract_x
 _atom_site_fract_y
 _atom_site_fract_z
 _atom_site_occupancy
  Lu  Lu0  1  0.994877  0.677190  0.250130  1
  Lu  Lu1  1  0.005123  0.322810  0.749870  1
  Lu  Lu2  1  0.677190  0.994877  0.250130  1
  Lu  Lu3  1  0.322810  0.005123  0.749870  1
  Al  Al4  1  0.134538  0.134538  0.256657  1
  Al  Al5  1  0.865462  0.865462  0.743343  1
  Al  Al6  1  0.001141  0.344873  0.080955  1
  Al  Al7  1  0.998859  0.655127  0.919045  1
  Al  Al8  1  0.001170  0.664707  0.574057  1
  Al  Al9  1  0.335293  0.998830  0.425943  1
  Al  Al10  1  0.998830  0.335293  0.425943  1
  Al  Al11  1  0.664707  0.001170  0.574057  1
  Al  Al12  1  0.655127  0.998859  0.919045  1
  Al  Al13  1  0.344873  0.001141  0.080955  1
  Al  Al14  1  0.330717  0.330717  0.552163  1
  Al  Al15  1  0.669283  0.669283  0.447837  1
  Al  Al16  1  0.659619  0.659619  0.058350  1
  Al  Al17  1  0.340381  0.340381  0.941650  1
  Al  Al18  1  0.339501  0.553564  0.251256  1
  Al  Al19  1  0.660499  0.446436  0.748744  1
  Al  Al20  1  0.553564  0.339501  0.251256  1
  Al  Al21  1  0.446436  0.660499  0.748744  1
  Zn  Zn22  1  0.000000  0.000000  0.000000  1
  Ru  Ru23  1  0.000000  0.000000  0.500000  1
  Rh  Rh24  1  0.672358  0.327642  0.000000  1
  Rh  Rh25  1  0.327642  0.672358  0.000000  1
  Rh  Rh26  1  0.328110  0.671890  0.500000  1
  Rh  Rh27  1  0.671890  0.328110  0.500000  1
