# generated using pymatgen
data_Hf9Ta3ReP
_symmetry_space_group_name_H-M   'P 1'
_cell_length_a   8.71174700
_cell_length_b   8.71174657
_cell_length_c   8.75340600
_cell_angle_alpha   90.00000000
_cell_angle_beta   90.00000000
_cell_angle_gamma   119.99999785
_symmetry_Int_Tables_number   1
_chemical_formula_structural   Hf9Ta3ReP
_chemical_formula_sum   'Hf18 Ta6 Re2 P2'
_cell_volume   575.33156355
_cell_formula_units_Z   2
loop_
 _symmetry_equiv_pos_site_id
 _symmetry_equiv_pos_as_xyz
  1  'x, y, z'
loop_
 _atom_site_type_symbol
 _atom_site_label
 _atom_site_symmetry_multiplicity
 _atom_site_fract_x
 _atom_site_fract_y
 _atom_site_fract_z
 _atom_site_occupancy
  Hf  Hf0  1  0.198310  0.801690  0.450590  1
  Hf  Hf1  1  0.198310  0.396620  0.450590  1
  Hf  Hf2  1  0.603380  0.801690  0.450590  1
  Hf  Hf3  1  0.801690  0.198310  0.549410  1
  Hf  Hf4  1  0.801690  0.603380  0.549410  1
  Hf  Hf5  1  0.396620  0.198310  0.549410  1
  Hf  Hf6  1  0.801690  0.198310  0.950590  1
  Hf  Hf7  1  0.801690  0.603380  0.950590  1
  Hf  Hf8  1  0.396620  0.198310  0.950590  1
  Hf  Hf9  1  0.198310  0.801690  0.049410  1
  Hf  Hf10  1  0.198310  0.396620  0.049410  1
  Hf  Hf11  1  0.603380  0.801690  0.049410  1
  Hf  Hf12  1  0.538622  0.461378  0.250000  1
  Hf  Hf13  1  0.538622  0.077243  0.250000  1
  Hf  Hf14  1  0.922757  0.461378  0.250000  1
  Hf  Hf15  1  0.461378  0.538622  0.750000  1
  Hf  Hf16  1  0.461378  0.922757  0.750000  1
  Hf  Hf17  1  0.077243  0.538622  0.750000  1
  Ta  Ta18  1  0.889159  0.110841  0.250000  1
  Ta  Ta19  1  0.889159  0.778317  0.250000  1
  Ta  Ta20  1  0.221683  0.110841  0.250000  1
  Ta  Ta21  1  0.110841  0.889159  0.750000  1
  Ta  Ta22  1  0.110841  0.221683  0.750000  1
  Ta  Ta23  1  0.778317  0.889159  0.750000  1
  Re  Re24  1  0.000000  0.000000  0.500000  1
  Re  Re25  1  0.000000  0.000000  0.000000  1
  P  P26  1  0.333333  0.666667  0.250000  1
  P  P27  1  0.666667  0.333333  0.750000  1
