# generated using pymatgen
data_Sm8Be4ZnSi11
_symmetry_space_group_name_H-M   'P 1'
_cell_length_a   7.85857108
_cell_length_b   7.85857142
_cell_length_c   8.47255900
_cell_angle_alpha   90.00815848
_cell_angle_beta   89.99184881
_cell_angle_gamma   119.79339425
_symmetry_Int_Tables_number   1
_chemical_formula_structural   Sm8Be4ZnSi11
_chemical_formula_sum   'Sm8 Be4 Zn1 Si11'
_cell_volume   454.08046093
_cell_formula_units_Z   1
loop_
 _symmetry_equiv_pos_site_id
 _symmetry_equiv_pos_as_xyz
  1  'x, y, z'
loop_
 _atom_site_type_symbol
 _atom_site_label
 _atom_site_symmetry_multiplicity
 _atom_site_fract_x
 _atom_site_fract_y
 _atom_site_fract_z
 _atom_site_occupancy
  Sm  Sm0  1  0.500215  0.499785  0.750905  1
  Sm  Sm1  1  0.500376  0.499624  0.249068  1
  Sm  Sm2  1  0.001764  0.502328  0.748725  1
  Sm  Sm3  1  0.001680  0.502280  0.251328  1
  Sm  Sm4  1  0.497672  0.998236  0.748725  1
  Sm  Sm5  1  0.497720  0.998320  0.251328  1
  Sm  Sm6  1  0.000733  0.999267  0.748659  1
  Sm  Sm7  1  0.000697  0.999303  0.251328  1
  Be  Be8  1  0.665340  0.334660  0.998697  1
  Be  Be9  1  0.335329  0.664671  0.001004  1
  Be  Be10  1  0.333625  0.666375  0.498888  1
  Be  Be11  1  0.666647  0.333353  0.501144  1
  Zn  Zn12  1  0.826525  0.173475  0.000003  1
  Si  Si13  1  0.172492  0.827508  0.999981  1
  Si  Si14  1  0.346247  0.174874  0.000072  1
  Si  Si15  1  0.172415  0.827585  0.500103  1
  Si  Si16  1  0.658098  0.830997  0.000015  1
  Si  Si17  1  0.827970  0.172030  0.499865  1
  Si  Si18  1  0.825126  0.653753  0.000072  1
  Si  Si19  1  0.654886  0.827278  0.500114  1
  Si  Si20  1  0.169003  0.341902  0.000015  1
  Si  Si21  1  0.345579  0.172859  0.499922  1
  Si  Si22  1  0.172722  0.345114  0.500114  1
  Si  Si23  1  0.827141  0.654421  0.499922  1
