# generated using pymatgen
data_PrYAs2Cl2O5
_symmetry_space_group_name_H-M   'P 1'
_cell_length_a   6.82632033
_cell_length_b   7.15192603
_cell_length_c   9.71718754
_cell_angle_alpha   110.77104185
_cell_angle_beta   96.97445309
_cell_angle_gamma   99.61282353
_symmetry_Int_Tables_number   1
_chemical_formula_structural   PrYAs2Cl2O5
_chemical_formula_sum   'Pr2 Y2 As4 Cl4 O10'
_cell_volume   428.86485651
_cell_formula_units_Z   2
loop_
 _symmetry_equiv_pos_site_id
 _symmetry_equiv_pos_as_xyz
  1  'x, y, z'
loop_
 _atom_site_type_symbol
 _atom_site_label
 _atom_site_symmetry_multiplicity
 _atom_site_fract_x
 _atom_site_fract_y
 _atom_site_fract_z
 _atom_site_occupancy
  Pr  Pr0  1  0.382495  0.755700  0.551939  1
  Pr  Pr1  1  0.617505  0.244300  0.448061  1
  Y  Y2  1  0.845225  0.744889  0.346286  1
  Y  Y3  1  0.154775  0.255111  0.653714  1
  As  As4  1  0.895377  0.805733  0.707605  1
  As  As5  1  0.104623  0.194267  0.292395  1
  As  As6  1  0.694487  0.244595  0.795321  1
  As  As7  1  0.305513  0.755405  0.204679  1
  Cl  Cl8  1  0.327132  0.661029  0.806063  1
  Cl  Cl9  1  0.672868  0.338971  0.193937  1
  Cl  Cl10  1  0.854601  0.769313  0.079548  1
  Cl  Cl11  1  0.145399  0.230687  0.920452  1
  O  O12  1  0.846232  0.325998  0.680426  1
  O  O13  1  0.153768  0.674002  0.319574  1
  O  O14  1  0.540244  0.835728  0.351936  1
  O  O15  1  0.459756  0.164272  0.648064  1
  O  O16  1  0.705829  0.967238  0.716955  1
  O  O17  1  0.294171  0.032762  0.283045  1
  O  O18  1  0.719130  0.617195  0.533927  1
  O  O19  1  0.280870  0.382805  0.466073  1
  O  O20  1  0.054555  0.892761  0.592205  1
  O  O21  1  0.945445  0.107239  0.407795  1
