# generated using pymatgen
data_EuTh7H30
_symmetry_space_group_name_H-M   'P 1'
_cell_length_a   7.95106913
_cell_length_b   7.89579796
_cell_length_c   7.89579820
_cell_angle_alpha   109.32897948
_cell_angle_beta   109.61308228
_cell_angle_gamma   109.61308740
_symmetry_Int_Tables_number   1
_chemical_formula_structural   EuTh7H30
_chemical_formula_sum   'Eu1 Th7 H30'
_cell_volume   380.91877263
_cell_formula_units_Z   1
loop_
 _symmetry_equiv_pos_site_id
 _symmetry_equiv_pos_as_xyz
  1  'x, y, z'
loop_
 _atom_site_type_symbol
 _atom_site_label
 _atom_site_symmetry_multiplicity
 _atom_site_fract_x
 _atom_site_fract_y
 _atom_site_fract_z
 _atom_site_occupancy
  Eu  Eu0  1  0.080808  0.000000  0.000000  1
  Th  Th1  1  0.581281  0.000000  0.000000  1
  Th  Th2  1  0.001347  0.501364  0.083374  1
  Th  Th3  1  0.917972  0.916625  0.417990  1
  Th  Th4  1  0.499983  0.582010  0.498636  1
  Th  Th5  1  0.499341  0.084063  0.498658  1
  Th  Th6  1  0.000683  0.501343  0.585406  1
  Th  Th7  1  0.415278  0.414595  0.915938  1
  H  H8  1  0.417011  0.195035  0.035864  1
  H  H9  1  0.782254  0.628290  0.098308  1
  H  H10  1  0.256852  0.390906  0.127644  1
  H  H11  1  0.596596  0.781385  0.129816  1
  H  H12  1  0.381148  0.964137  0.159171  1
  H  H13  1  0.896136  0.035404  0.192277  1
  H  H14  1  0.815210  0.348430  0.218614  1
  H  H15  1  0.129208  0.872356  0.263261  1
  H  H16  1  0.627245  0.597385  0.279881  1
  H  H17  1  0.347365  0.720119  0.317504  1
  H  H18  1  0.322245  0.223518  0.357677  1
  H  H19  1  0.153964  0.470018  0.371710  1
  H  H20  1  0.749064  0.124169  0.377567  1
  H  H21  1  0.029860  0.682496  0.402615  1
  H  H22  1  0.652879  0.369715  0.466887  1
  H  H23  1  0.683946  0.901694  0.529983  1
  H  H24  1  0.130535  0.282815  0.594599  1
  H  H25  1  0.865946  0.736738  0.609094  1
  H  H26  1  0.283162  0.097171  0.630284  1
  H  H27  1  0.466781  0.870185  0.651570  1
  H  H28  1  0.535936  0.405401  0.688215  1
  H  H29  1  0.847719  0.311784  0.717185  1
  H  H30  1  0.371497  0.622432  0.746601  1
  H  H31  1  0.098728  0.134159  0.776482  1
  H  H32  1  0.221976  0.840830  0.804965  1
  H  H33  1  0.703858  0.807723  0.843126  1
  H  H34  1  0.964569  0.642323  0.865842  1
  H  H35  1  0.624896  0.253399  0.875833  1
  H  H36  1  0.185992  0.533114  0.902829  1
  H  H37  1  0.860732  0.156874  0.964597  1
