# generated using pymatgen
data_YbPrEr8(In2Pd)4
_symmetry_space_group_name_H-M   'P 1'
_cell_length_a   3.64881700
_cell_length_b   8.12396593
_cell_length_c   18.22970192
_cell_angle_alpha   90.11303872
_cell_angle_beta   90.00000000
_cell_angle_gamma   90.00000000
_symmetry_Int_Tables_number   1
_chemical_formula_structural   YbPrEr8(In2Pd)4
_chemical_formula_sum   'Yb1 Pr1 Er8 In8 Pd4'
_cell_volume   540.37954122
_cell_formula_units_Z   1
loop_
 _symmetry_equiv_pos_site_id
 _symmetry_equiv_pos_as_xyz
  1  'x, y, z'
loop_
 _atom_site_type_symbol
 _atom_site_label
 _atom_site_symmetry_multiplicity
 _atom_site_fract_x
 _atom_site_fract_y
 _atom_site_fract_z
 _atom_site_occupancy
  Yb  Yb0  1  0.000000  0.000000  0.000000  1
  Pr  Pr1  1  0.000000  0.500000  0.500000  1
  Er  Er2  1  0.000000  0.743455  0.279919  1
  Er  Er3  1  0.000000  0.256545  0.720081  1
  Er  Er4  1  0.000000  0.756669  0.780451  1
  Er  Er5  1  0.000000  0.243331  0.219549  1
  Er  Er6  1  0.000000  0.621225  0.084663  1
  Er  Er7  1  0.000000  0.378775  0.915337  1
  Er  Er8  1  0.000000  0.877967  0.585069  1
  Er  Er9  1  0.000000  0.122033  0.414931  1
  In  In10  1  0.500000  0.704668  0.932439  1
  In  In11  1  0.500000  0.295332  0.067561  1
  In  In12  1  0.500000  0.800800  0.431209  1
  In  In13  1  0.500000  0.199200  0.568791  1
  In  In14  1  0.500000  0.577062  0.652655  1
  In  In15  1  0.500000  0.422938  0.347345  1
  In  In16  1  0.500000  0.925248  0.150237  1
  In  In17  1  0.500000  0.074752  0.849763  1
  Pd  Pd18  1  0.500000  0.524867  0.195723  1
  Pd  Pd19  1  0.500000  0.475133  0.804277  1
  Pd  Pd20  1  0.500000  0.974368  0.695843  1
  Pd  Pd21  1  0.500000  0.025632  0.304157  1
