# generated using pymatgen
data_Tb16TlIn(Rh2Au)2
_symmetry_space_group_name_H-M   'P 1'
_cell_length_a   9.60591685
_cell_length_b   9.62209610
_cell_length_c   9.63222500
_cell_angle_alpha   59.96517525
_cell_angle_beta   59.90936510
_cell_angle_gamma   60.00029206
_symmetry_Int_Tables_number   1
_chemical_formula_structural   Tb16TlIn(Rh2Au)2
_chemical_formula_sum   'Tb16 Tl1 In1 Rh4 Au2'
_cell_volume   628.93889363
_cell_formula_units_Z   1
loop_
 _symmetry_equiv_pos_site_id
 _symmetry_equiv_pos_as_xyz
  1  'x, y, z'
loop_
 _atom_site_type_symbol
 _atom_site_label
 _atom_site_symmetry_multiplicity
 _atom_site_fract_x
 _atom_site_fract_y
 _atom_site_fract_z
 _atom_site_occupancy
  Tb  Tb0  1  0.808161  0.807380  0.192230  1
  Tb  Tb1  1  0.810501  0.191353  0.806896  1
  Tb  Tb2  1  0.191799  0.191651  0.808275  1
  Tb  Tb3  1  0.645481  0.057170  0.648675  1
  Tb  Tb4  1  0.062057  0.063781  0.437081  1
  Tb  Tb5  1  0.439581  0.439626  0.060397  1
  Tb  Tb6  1  0.649188  0.648698  0.649811  1
  Tb  Tb7  1  0.810501  0.191353  0.191249  1
  Tb  Tb8  1  0.191074  0.810223  0.807833  1
  Tb  Tb9  1  0.057850  0.644868  0.648641  1
  Tb  Tb10  1  0.439143  0.069752  0.056154  1
  Tb  Tb11  1  0.439143  0.069752  0.434951  1
  Tb  Tb12  1  0.068437  0.438715  0.057921  1
  Tb  Tb13  1  0.649188  0.648698  0.052303  1
  Tb  Tb14  1  0.191074  0.810223  0.190870  1
  Tb  Tb15  1  0.068437  0.438715  0.434928  1
  Tl  Tl16  1  0.414673  0.747712  0.418807  1
  In  In17  1  0.741006  0.416147  0.421423  1
  Rh  Rh18  1  0.857529  0.426757  0.857858  1
  Rh  Rh19  1  0.857482  0.857450  0.858788  1
  Rh  Rh20  1  0.857482  0.857450  0.426282  1
  Rh  Rh21  1  0.427198  0.857291  0.857756  1
  Au  Au22  1  0.411509  0.407619  0.409931  1
  Au  Au23  1  0.411509  0.407619  0.770939  1
