# generated using pymatgen
data_Nd8Si12NiPt3
_symmetry_space_group_name_H-M   'P 1'
_cell_length_a   8.19031400
_cell_length_b   8.19031488
_cell_length_c   8.56196400
_cell_angle_alpha   90.00000000
_cell_angle_beta   90.00000000
_cell_angle_gamma   119.99999646
_symmetry_Int_Tables_number   1
_chemical_formula_structural   Nd8Si12NiPt3
_chemical_formula_sum   'Nd8 Si12 Ni1 Pt3'
_cell_volume   497.39932909
_cell_formula_units_Z   1
loop_
 _symmetry_equiv_pos_site_id
 _symmetry_equiv_pos_as_xyz
  1  'x, y, z'
loop_
 _atom_site_type_symbol
 _atom_site_label
 _atom_site_symmetry_multiplicity
 _atom_site_fract_x
 _atom_site_fract_y
 _atom_site_fract_z
 _atom_site_occupancy
  Nd  Nd0  1  0.000000  0.000000  0.751244  1
  Nd  Nd1  1  0.000000  0.000000  0.248704  1
  Nd  Nd2  1  0.498776  0.501224  0.751681  1
  Nd  Nd3  1  0.498776  0.997551  0.751681  1
  Nd  Nd4  1  0.002449  0.501224  0.751681  1
  Nd  Nd5  1  0.499432  0.500568  0.248264  1
  Nd  Nd6  1  0.001137  0.500568  0.248264  1
  Nd  Nd7  1  0.499432  0.998863  0.248264  1
  Si  Si8  1  0.835204  0.164796  0.999485  1
  Si  Si9  1  0.835204  0.670407  0.999485  1
  Si  Si10  1  0.329593  0.164796  0.999485  1
  Si  Si11  1  0.833867  0.166133  0.500585  1
  Si  Si12  1  0.833867  0.667735  0.500585  1
  Si  Si13  1  0.332265  0.166133  0.500585  1
  Si  Si14  1  0.165587  0.834413  0.499445  1
  Si  Si15  1  0.668826  0.834413  0.499445  1
  Si  Si16  1  0.165587  0.331174  0.499445  1
  Si  Si17  1  0.172014  0.827986  0.000436  1
  Si  Si18  1  0.655971  0.827986  0.000436  1
  Si  Si19  1  0.172014  0.344029  0.000436  1
  Ni  Ni20  1  0.333333  0.666667  0.001610  1
  Pt  Pt21  1  0.666667  0.333333  0.999048  1
  Pt  Pt22  1  0.666667  0.333333  0.500597  1
  Pt  Pt23  1  0.333333  0.666667  0.499107  1
