# generated using pymatgen
data_Eu2DyGa8Ag3
_symmetry_space_group_name_H-M   'P 1'
_cell_length_a   4.42618189
_cell_length_b   8.48674670
_cell_length_c   8.48672318
_cell_angle_alpha   69.66750552
_cell_angle_beta   74.88417722
_cell_angle_gamma   74.88422574
_symmetry_Int_Tables_number   1
_chemical_formula_structural   Eu2DyGa8Ag3
_chemical_formula_sum   'Eu2 Dy1 Ga8 Ag3'
_cell_volume   283.44382582
_cell_formula_units_Z   1
loop_
 _symmetry_equiv_pos_site_id
 _symmetry_equiv_pos_as_xyz
  1  'x, y, z'
loop_
 _atom_site_type_symbol
 _atom_site_label
 _atom_site_symmetry_multiplicity
 _atom_site_fract_x
 _atom_site_fract_y
 _atom_site_fract_z
 _atom_site_occupancy
  Eu  Eu0  1  0.499168  0.500833  0.500832  1
  Eu  Eu1  1  0.799028  0.200971  0.200973  1
  Dy  Dy2  1  0.201173  0.798827  0.798828  1
  Ga  Ga3  1  0.643945  0.072237  0.639872  1
  Ga  Ga4  1  0.354720  0.924550  0.366011  1
  Ga  Ga5  1  0.643945  0.639872  0.072238  1
  Ga  Ga6  1  0.354720  0.366012  0.924548  1
  Ga  Ga7  1  0.838877  0.792377  0.529870  1
  Ga  Ga8  1  0.160719  0.204889  0.473674  1
  Ga  Ga9  1  0.838877  0.529871  0.792376  1
  Ga  Ga10  1  0.160720  0.473673  0.204886  1
  Ag  Ag11  1  0.502429  0.997570  0.997572  1
  Ag  Ag12  1  0.000840  0.804806  0.193514  1
  Ag  Ag13  1  0.000840  0.193513  0.804807  1
