# generated using pymatgen
data_NpSc6O12
_symmetry_space_group_name_H-M   'P 1'
_cell_length_a   6.21645659
_cell_length_b   6.21645711
_cell_length_c   6.21645673
_cell_angle_alpha   99.21530292
_cell_angle_beta   99.21530644
_cell_angle_gamma   99.21528550
_symmetry_Int_Tables_number   1
_chemical_formula_structural   NpSc6O12
_chemical_formula_sum   'Np1 Sc6 O12'
_cell_volume   229.77508182
_cell_formula_units_Z   1
loop_
 _symmetry_equiv_pos_site_id
 _symmetry_equiv_pos_as_xyz
  1  'x, y, z'
loop_
 _atom_site_type_symbol
 _atom_site_label
 _atom_site_symmetry_multiplicity
 _atom_site_fract_x
 _atom_site_fract_y
 _atom_site_fract_z
 _atom_site_occupancy
  Np  Np0  1  0.000000  0.000000  0.000000  1
  Sc  Sc1  1  0.610253  0.147035  0.335291  1
  Sc  Sc2  1  0.147035  0.335291  0.610253  1
  Sc  Sc3  1  0.335291  0.610253  0.147035  1
  Sc  Sc4  1  0.389747  0.852965  0.664709  1
  Sc  Sc5  1  0.852965  0.664709  0.389747  1
  Sc  Sc6  1  0.664709  0.389747  0.852965  1
  O  O7  1  0.820987  0.415753  0.583942  1
  O  O8  1  0.415753  0.583942  0.820987  1
  O  O9  1  0.583942  0.820987  0.415753  1
  O  O10  1  0.179013  0.584247  0.416058  1
  O  O11  1  0.584247  0.416058  0.179013  1
  O  O12  1  0.416058  0.179013  0.584247  1
  O  O13  1  0.317769  0.948629  0.100575  1
  O  O14  1  0.899425  0.682231  0.051371  1
  O  O15  1  0.051371  0.899425  0.682231  1
  O  O16  1  0.682231  0.051371  0.899425  1
  O  O17  1  0.100575  0.317769  0.948629  1
  O  O18  1  0.948629  0.100575  0.317769  1
