# generated using pymatgen
data_Y16AlCd3Pd4
_symmetry_space_group_name_H-M   'P 1'
_cell_length_a   9.70718479
_cell_length_b   9.70718417
_cell_length_c   9.70718491
_cell_angle_alpha   60.15259269
_cell_angle_beta   60.15259584
_cell_angle_gamma   60.15259051
_symmetry_Int_Tables_number   1
_chemical_formula_structural   Y16AlCd3Pd4
_chemical_formula_sum   'Y16 Al1 Cd3 Pd4'
_cell_volume   649.02786761
_cell_formula_units_Z   1
loop_
 _symmetry_equiv_pos_site_id
 _symmetry_equiv_pos_as_xyz
  1  'x, y, z'
loop_
 _atom_site_type_symbol
 _atom_site_label
 _atom_site_symmetry_multiplicity
 _atom_site_fract_x
 _atom_site_fract_y
 _atom_site_fract_z
 _atom_site_occupancy
  Y  Y0  1  0.351854  0.351854  0.351854  1
  Y  Y1  1  0.357988  0.357988  0.933404  1
  Y  Y2  1  0.357988  0.933404  0.357988  1
  Y  Y3  1  0.933404  0.357988  0.357988  1
  Y  Y4  1  0.810210  0.190050  0.190050  1
  Y  Y5  1  0.192867  0.807931  0.807931  1
  Y  Y6  1  0.190050  0.810210  0.190050  1
  Y  Y7  1  0.807931  0.192867  0.807931  1
  Y  Y8  1  0.190050  0.190050  0.810210  1
  Y  Y9  1  0.807931  0.807931  0.192867  1
  Y  Y10  1  0.931929  0.566800  0.566800  1
  Y  Y11  1  0.563932  0.935688  0.935688  1
  Y  Y12  1  0.566800  0.931929  0.566800  1
  Y  Y13  1  0.935688  0.563932  0.935688  1
  Y  Y14  1  0.566800  0.566800  0.931929  1
  Y  Y15  1  0.935688  0.935688  0.563932  1
  Al  Al16  1  0.581749  0.581749  0.581749  1
  Cd  Cd17  1  0.580951  0.580951  0.255867  1
  Cd  Cd18  1  0.580951  0.255867  0.580951  1
  Cd  Cd19  1  0.255867  0.580951  0.580951  1
  Pd  Pd20  1  0.146171  0.146171  0.146171  1
  Pd  Pd21  1  0.142650  0.142650  0.567897  1
  Pd  Pd22  1  0.142650  0.567897  0.142650  1
  Pd  Pd23  1  0.567897  0.142650  0.142650  1
