# generated using pymatgen
data_TbDyZr2(NiAs)4
_symmetry_space_group_name_H-M   'P 1'
_cell_length_a   4.01159600
_cell_length_b   4.01159596
_cell_length_c   14.85761900
_cell_angle_alpha   90.00000000
_cell_angle_beta   90.00000000
_cell_angle_gamma   120.00000033
_symmetry_Int_Tables_number   1
_chemical_formula_structural   TbDyZr2(NiAs)4
_chemical_formula_sum   'Tb1 Dy1 Zr2 Ni4 As4'
_cell_volume   207.06858823
_cell_formula_units_Z   1
loop_
 _symmetry_equiv_pos_site_id
 _symmetry_equiv_pos_as_xyz
  1  'x, y, z'
loop_
 _atom_site_type_symbol
 _atom_site_label
 _atom_site_symmetry_multiplicity
 _atom_site_fract_x
 _atom_site_fract_y
 _atom_site_fract_z
 _atom_site_occupancy
  Tb  Tb0  1  0.000000  0.000000  0.000000  1
  Dy  Dy1  1  0.000000  0.000000  0.500000  1
  Zr  Zr2  1  0.000000  0.000000  0.250035  1
  Zr  Zr3  1  0.000000  0.000000  0.749965  1
  Ni  Ni4  1  0.333333  0.666667  0.155705  1
  Ni  Ni5  1  0.666667  0.333333  0.844295  1
  Ni  Ni6  1  0.666667  0.333333  0.655585  1
  Ni  Ni7  1  0.333333  0.666667  0.344415  1
  As  As8  1  0.333333  0.666667  0.621870  1
  As  As9  1  0.666667  0.333333  0.378130  1
  As  As10  1  0.666667  0.333333  0.122139  1
  As  As11  1  0.333333  0.666667  0.877861  1
