# generated using pymatgen
data_SmUCN
_symmetry_space_group_name_H-M   'P 1'
_cell_length_a   6.12755209
_cell_length_b   6.12755239
_cell_length_c   6.12755142
_cell_angle_alpha   33.70158450
_cell_angle_beta   33.70158040
_cell_angle_gamma   33.70157374
_symmetry_Int_Tables_number   1
_chemical_formula_structural   SmUCN
_chemical_formula_sum   'Sm1 U1 C1 N1'
_cell_volume   63.10816325
_cell_formula_units_Z   1
loop_
 _symmetry_equiv_pos_site_id
 _symmetry_equiv_pos_as_xyz
  1  'x, y, z'
loop_
 _atom_site_type_symbol
 _atom_site_label
 _atom_site_symmetry_multiplicity
 _atom_site_fract_x
 _atom_site_fract_y
 _atom_site_fract_z
 _atom_site_occupancy
  Sm  Sm0  1  0.249001  0.249001  0.249001  1
  U  U1  1  0.750794  0.750794  0.750794  1
  C  C2  1  0.015055  0.015055  0.015055  1
  N  N3  1  0.485151  0.485151  0.485151  1
