# generated using pymatgen
data_Nb8Fe5Co2Si14Rh
_symmetry_space_group_name_H-M   'P 1'
_cell_length_a   9.27047027
_cell_length_b   9.28386866
_cell_length_c   9.28140213
_cell_angle_alpha   94.33235901
_cell_angle_beta   94.25561944
_cell_angle_gamma   148.23163698
_symmetry_Int_Tables_number   1
_chemical_formula_structural   Nb8Fe5Co2Si14Rh
_chemical_formula_sum   'Nb8 Fe5 Co2 Si14 Rh1'
_cell_volume   404.51985368
_cell_formula_units_Z   1
loop_
 _symmetry_equiv_pos_site_id
 _symmetry_equiv_pos_as_xyz
  1  'x, y, z'
loop_
 _atom_site_type_symbol
 _atom_site_label
 _atom_site_symmetry_multiplicity
 _atom_site_fract_x
 _atom_site_fract_y
 _atom_site_fract_z
 _atom_site_occupancy
  Nb  Nb0  1  0.309427  0.499315  0.808505  1
  Nb  Nb1  1  0.692748  0.501989  0.192735  1
  Nb  Nb2  1  0.499987  0.690746  0.192735  1
  Nb  Nb3  1  0.499078  0.309190  0.808505  1
  Nb  Nb4  1  0.134786  0.134786  0.269571  1
  Nb  Nb5  1  0.865118  0.865118  0.730237  1
  Nb  Nb6  1  0.135994  0.867006  0.001779  1
  Nb  Nb7  1  0.865785  0.134773  0.001779  1
  Fe  Fe8  1  0.104409  0.604409  0.208819  1
  Fe  Fe9  1  0.899215  0.095923  0.497006  1
  Fe  Fe10  1  0.597791  0.401082  0.497006  1
  Fe  Fe11  1  0.598006  0.098006  0.196012  1
  Fe  Fe12  1  0.901295  0.401295  0.802589  1
  Co  Co13  1  0.103753  0.898973  0.501285  1
  Co  Co14  1  0.397533  0.602311  0.501285  1
  Si  Si15  1  0.290670  0.290670  0.581340  1
  Si  Si16  1  0.708898  0.708898  0.417795  1
  Si  Si17  1  0.282949  0.698655  0.004435  1
  Si  Si18  1  0.721486  0.305780  0.004435  1
  Si  Si19  1  0.062479  0.465685  0.589900  1
  Si  Si20  1  0.897390  0.491358  0.405377  1
  Si  Si21  1  0.507988  0.914020  0.405377  1
  Si  Si22  1  0.527422  0.124215  0.589900  1
  Si  Si23  1  0.248956  0.248905  0.000201  1
  Si  Si24  1  0.751245  0.751294  0.000201  1
  Si  Si25  1  0.301919  0.004458  0.297413  1
  Si  Si26  1  0.720370  0.012298  0.702081  1
  Si  Si27  1  0.981711  0.689782  0.702081  1
  Si  Si28  1  0.995495  0.292955  0.297413  1
  Rh  Rh29  1  0.396101  0.896101  0.792200  1
