# generated using pymatgen
data_Yb2Nb5MoS12
_symmetry_space_group_name_H-M   'P 1'
_cell_length_a   5.78916200
_cell_length_b   5.78916356
_cell_length_c   14.24960100
_cell_angle_alpha   90.00000000
_cell_angle_beta   90.00000000
_cell_angle_gamma   120.00001397
_symmetry_Int_Tables_number   1
_chemical_formula_structural   Yb2Nb5MoS12
_chemical_formula_sum   'Yb2 Nb5 Mo1 S12'
_cell_volume   413.58501656
_cell_formula_units_Z   1
loop_
 _symmetry_equiv_pos_site_id
 _symmetry_equiv_pos_as_xyz
  1  'x, y, z'
loop_
 _atom_site_type_symbol
 _atom_site_label
 _atom_site_symmetry_multiplicity
 _atom_site_fract_x
 _atom_site_fract_y
 _atom_site_fract_z
 _atom_site_occupancy
  Yb  Yb0  1  0.000000  0.000000  0.999171  1
  Yb  Yb1  1  0.000000  0.000000  0.500829  1
  Nb  Nb2  1  0.000000  0.000000  0.250000  1
  Nb  Nb3  1  0.000000  0.000000  0.750000  1
  Nb  Nb4  1  0.333333  0.666667  0.750000  1
  Nb  Nb5  1  0.666667  0.333333  0.750000  1
  Nb  Nb6  1  0.666667  0.333333  0.250000  1
  Mo  Mo7  1  0.333333  0.666667  0.250000  1
  S  S8  1  0.000039  0.664035  0.639309  1
  S  S9  1  0.000039  0.664035  0.860691  1
  S  S10  1  0.005629  0.341539  0.140870  1
  S  S11  1  0.005629  0.341539  0.359130  1
  S  S12  1  0.335965  0.336005  0.639309  1
  S  S13  1  0.335965  0.336005  0.860691  1
  S  S14  1  0.658461  0.664091  0.140870  1
  S  S15  1  0.658461  0.664091  0.359130  1
  S  S16  1  0.335909  0.994371  0.140870  1
  S  S17  1  0.335909  0.994371  0.359130  1
  S  S18  1  0.663995  0.999961  0.639309  1
  S  S19  1  0.663995  0.999961  0.860691  1
