# generated using pymatgen
data_Th8In4RuAu7
_symmetry_space_group_name_H-M   'P 1'
_cell_length_a   8.06923534
_cell_length_b   8.06923441
_cell_length_c   7.88612976
_cell_angle_alpha   90.16127134
_cell_angle_beta   90.16126930
_cell_angle_gamma   90.17668886
_symmetry_Int_Tables_number   1
_chemical_formula_structural   Th8In4RuAu7
_chemical_formula_sum   'Th8 In4 Ru1 Au7'
_cell_volume   513.47950807
_cell_formula_units_Z   1
loop_
 _symmetry_equiv_pos_site_id
 _symmetry_equiv_pos_as_xyz
  1  'x, y, z'
loop_
 _atom_site_type_symbol
 _atom_site_label
 _atom_site_symmetry_multiplicity
 _atom_site_fract_x
 _atom_site_fract_y
 _atom_site_fract_z
 _atom_site_occupancy
  Th  Th0  1  0.180159  0.180159  0.011809  1
  Th  Th1  1  0.834399  0.834399  0.998854  1
  Th  Th2  1  0.656373  0.328398  0.491296  1
  Th  Th3  1  0.328398  0.656373  0.491296  1
  Th  Th4  1  0.669506  0.317335  0.006790  1
  Th  Th5  1  0.317335  0.669506  0.006790  1
  Th  Th6  1  0.820458  0.820458  0.499942  1
  Th  Th7  1  0.189259  0.189259  0.491248  1
  In  In8  1  0.498487  0.004654  0.250618  1
  In  In9  1  0.498319  0.993155  0.749799  1
  In  In10  1  0.004654  0.498487  0.250618  1
  In  In11  1  0.993155  0.498319  0.749799  1
  Ru  Ru12  1  0.368573  0.368573  0.242825  1
  Au  Au13  1  0.628304  0.628304  0.761200  1
  Au  Au14  1  0.630126  0.630126  0.235417  1
  Au  Au15  1  0.874437  0.131725  0.737809  1
  Au  Au16  1  0.874806  0.127722  0.262069  1
  Au  Au17  1  0.373807  0.373807  0.761943  1
  Au  Au18  1  0.127722  0.874806  0.262069  1
  Au  Au19  1  0.131725  0.874437  0.737809  1
