# generated using pymatgen
data_TbY13Au20
_symmetry_space_group_name_H-M   'P 1'
_cell_length_a   8.75784262
_cell_length_b   8.75784211
_cell_length_c   10.45246401
_cell_angle_alpha   89.99715126
_cell_angle_beta   89.99714912
_cell_angle_gamma   107.08329983
_symmetry_Int_Tables_number   1
_chemical_formula_structural   TbY13Au20
_chemical_formula_sum   'Tb1 Y13 Au20'
_cell_volume   766.32977758
_cell_formula_units_Z   1
loop_
 _symmetry_equiv_pos_site_id
 _symmetry_equiv_pos_as_xyz
  1  'x, y, z'
loop_
 _atom_site_type_symbol
 _atom_site_label
 _atom_site_symmetry_multiplicity
 _atom_site_fract_x
 _atom_site_fract_y
 _atom_site_fract_z
 _atom_site_occupancy
  Tb  Tb0  1  0.813232  0.813232  0.312161  1
  Y  Y1  1  0.693613  0.306397  0.000032  1
  Y  Y2  1  0.306397  0.693613  0.000032  1
  Y  Y3  1  0.806396  0.193863  0.500078  1
  Y  Y4  1  0.193863  0.806396  0.500078  1
  Y  Y5  1  0.000053  0.000053  0.999986  1
  Y  Y6  1  0.499960  0.499960  0.500014  1
  Y  Y7  1  0.002751  0.502609  0.249995  1
  Y  Y8  1  0.997138  0.497269  0.749918  1
  Y  Y9  1  0.497269  0.997138  0.749918  1
  Y  Y10  1  0.502609  0.002751  0.249995  1
  Y  Y11  1  0.312848  0.312848  0.188176  1
  Y  Y12  1  0.687125  0.687125  0.811765  1
  Y  Y13  1  0.186931  0.186931  0.688001  1
  Au  Au14  1  0.859958  0.149383  0.209305  1
  Au  Au15  1  0.140043  0.850534  0.790709  1
  Au  Au16  1  0.639909  0.350508  0.709453  1
  Au  Au17  1  0.649395  0.359936  0.290640  1
  Au  Au18  1  0.359936  0.649395  0.290640  1
  Au  Au19  1  0.350508  0.639909  0.709453  1
  Au  Au20  1  0.850534  0.140043  0.790709  1
  Au  Au21  1  0.149383  0.859958  0.209305  1
  Au  Au22  1  0.937244  0.645178  0.002465  1
  Au  Au23  1  0.062849  0.354814  0.997375  1
  Au  Au24  1  0.562728  0.854803  0.502473  1
  Au  Au25  1  0.145292  0.437303  0.497531  1
  Au  Au26  1  0.437303  0.145292  0.497531  1
  Au  Au27  1  0.854803  0.562728  0.502473  1
  Au  Au28  1  0.354814  0.062849  0.997375  1
  Au  Au29  1  0.645178  0.937244  0.002465  1
  Au  Au30  1  0.104953  0.104953  0.397038  1
  Au  Au31  1  0.894897  0.894897  0.602924  1
  Au  Au32  1  0.394822  0.394822  0.896855  1
  Au  Au33  1  0.605266  0.605266  0.103129  1
