# generated using pymatgen
data_Ba2NdPaH12
_symmetry_space_group_name_H-M   'P 1'
_cell_length_a   7.02111900
_cell_length_b   7.22156700
_cell_length_c   7.02111900
_cell_angle_alpha   90.00000000
_cell_angle_beta   90.00000000
_cell_angle_gamma   90.00000000
_symmetry_Int_Tables_number   1
_chemical_formula_structural   Ba2NdPaH12
_chemical_formula_sum   'Ba4 Nd2 Pa2 H24'
_cell_volume   355.99517574
_cell_formula_units_Z   2
loop_
 _symmetry_equiv_pos_site_id
 _symmetry_equiv_pos_as_xyz
  1  'x, y, z'
loop_
 _atom_site_type_symbol
 _atom_site_label
 _atom_site_symmetry_multiplicity
 _atom_site_fract_x
 _atom_site_fract_y
 _atom_site_fract_z
 _atom_site_occupancy
  Ba  Ba0  1  0.252585  0.000000  0.500000  1
  Ba  Ba1  1  0.747415  0.000000  0.500000  1
  Ba  Ba2  1  0.000000  0.500000  0.247415  1
  Ba  Ba3  1  0.000000  0.500000  0.752585  1
  Nd  Nd4  1  0.500000  0.750000  0.000000  1
  Nd  Nd5  1  0.500000  0.250000  0.000000  1
  Pa  Pa6  1  0.000000  0.000000  0.000000  1
  Pa  Pa7  1  0.500000  0.500000  0.500000  1
  H  H8  1  0.000000  0.142582  0.268747  1
  H  H9  1  0.500000  0.239364  0.662944  1
  H  H10  1  0.500000  0.760636  0.337056  1
  H  H11  1  0.768747  0.642582  0.500000  1
  H  H12  1  0.231253  0.642582  0.500000  1
  H  H13  1  0.364529  0.500000  0.799751  1
  H  H14  1  0.635471  0.500000  0.799751  1
  H  H15  1  0.299751  0.000000  0.135471  1
  H  H16  1  0.162944  0.260636  0.000000  1
  H  H17  1  0.837056  0.739364  0.000000  1
  H  H18  1  0.299751  0.000000  0.864529  1
  H  H19  1  0.837056  0.260636  0.000000  1
  H  H20  1  0.700249  0.000000  0.135471  1
  H  H21  1  0.700249  0.000000  0.864529  1
  H  H22  1  0.162944  0.739364  0.000000  1
  H  H23  1  0.000000  0.857418  0.731253  1
  H  H24  1  0.000000  0.142582  0.731253  1
  H  H25  1  0.000000  0.857418  0.268747  1
  H  H26  1  0.635471  0.500000  0.200249  1
  H  H27  1  0.364529  0.500000  0.200249  1
  H  H28  1  0.768747  0.357418  0.500000  1
  H  H29  1  0.231253  0.357418  0.500000  1
  H  H30  1  0.500000  0.760636  0.662944  1
  H  H31  1  0.500000  0.239364  0.337056  1
