# generated using pymatgen
data_LaPr2In2SnPt3
_symmetry_space_group_name_H-M   'P 1'
_cell_length_a   7.79018222
_cell_length_b   7.80225765
_cell_length_c   4.09590000
_cell_angle_alpha   90.00000000
_cell_angle_beta   90.00000000
_cell_angle_gamma   119.88480024
_symmetry_Int_Tables_number   1
_chemical_formula_structural   LaPr2In2SnPt3
_chemical_formula_sum   'La1 Pr2 In2 Sn1 Pt3'
_cell_volume   215.84940332
_cell_formula_units_Z   1
loop_
 _symmetry_equiv_pos_site_id
 _symmetry_equiv_pos_as_xyz
  1  'x, y, z'
loop_
 _atom_site_type_symbol
 _atom_site_label
 _atom_site_symmetry_multiplicity
 _atom_site_fract_x
 _atom_site_fract_y
 _atom_site_fract_z
 _atom_site_occupancy
  La  La0  1  0.589275  0.587964  0.000000  1
  Pr  Pr1  1  0.408715  0.000092  0.000000  1
  Pr  Pr2  1  0.001370  0.411356  0.000000  1
  In  In3  1  0.000829  0.747038  0.500000  1
  In  In4  1  0.252445  0.252360  0.500000  1
  Sn  Sn5  1  0.749232  0.000924  0.500000  1
  Pt  Pt6  1  0.666301  0.332809  0.500000  1
  Pt  Pt7  1  0.997645  0.000031  0.000000  1
  Pt  Pt8  1  0.334189  0.667426  0.500000  1
