# generated using pymatgen
data_Tb3AlPRu2
_symmetry_space_group_name_H-M   'P 1'
_cell_length_a   5.58583200
_cell_length_b   7.73944500
_cell_length_c   13.54855300
_cell_angle_alpha   90.00000000
_cell_angle_beta   90.00000000
_cell_angle_gamma   90.00000000
_symmetry_Int_Tables_number   1
_chemical_formula_structural   Tb3AlPRu2
_chemical_formula_sum   'Tb12 Al4 P4 Ru8'
_cell_volume   585.72074021
_cell_formula_units_Z   4
loop_
 _symmetry_equiv_pos_site_id
 _symmetry_equiv_pos_as_xyz
  1  'x, y, z'
loop_
 _atom_site_type_symbol
 _atom_site_label
 _atom_site_symmetry_multiplicity
 _atom_site_fract_x
 _atom_site_fract_y
 _atom_site_fract_z
 _atom_site_occupancy
  Tb  Tb0  1  0.148246  0.401085  0.602307  1
  Tb  Tb1  1  0.851754  0.598915  0.102307  1
  Tb  Tb2  1  0.148246  0.098915  0.397693  1
  Tb  Tb3  1  0.851754  0.901085  0.897693  1
  Tb  Tb4  1  0.851754  0.598915  0.397693  1
  Tb  Tb5  1  0.148246  0.401085  0.897693  1
  Tb  Tb6  1  0.851754  0.901085  0.602307  1
  Tb  Tb7  1  0.148246  0.098915  0.102307  1
  Tb  Tb8  1  0.631414  0.263448  0.750000  1
  Tb  Tb9  1  0.368586  0.736552  0.250000  1
  Tb  Tb10  1  0.631414  0.236552  0.250000  1
  Tb  Tb11  1  0.368586  0.763448  0.750000  1
  Al  Al12  1  0.617776  0.250000  0.500000  1
  Al  Al13  1  0.382224  0.750000  0.000000  1
  Al  Al14  1  0.382224  0.750000  0.500000  1
  Al  Al15  1  0.617776  0.250000  0.000000  1
  P  P16  1  0.131669  0.113275  0.750000  1
  P  P17  1  0.868331  0.886725  0.250000  1
  P  P18  1  0.131669  0.386725  0.250000  1
  P  P19  1  0.868331  0.613275  0.750000  1
  Ru  Ru20  1  0.351497  0.032175  0.595090  1
  Ru  Ru21  1  0.648503  0.967825  0.095090  1
  Ru  Ru22  1  0.351497  0.467825  0.404910  1
  Ru  Ru23  1  0.648503  0.532175  0.904910  1
  Ru  Ru24  1  0.648503  0.967825  0.404910  1
  Ru  Ru25  1  0.351497  0.032175  0.904910  1
  Ru  Ru26  1  0.648503  0.532175  0.595090  1
  Ru  Ru27  1  0.351497  0.467825  0.095090  1
