# generated using pymatgen
data_Ac2Al7Pd
_symmetry_space_group_name_H-M   'P 1'
_cell_length_a   6.34282586
_cell_length_b   6.34292183
_cell_length_c   11.86718084
_cell_angle_alpha   74.39069845
_cell_angle_beta   74.39022210
_cell_angle_gamma   89.98610228
_symmetry_Int_Tables_number   1
_chemical_formula_structural   Ac2Al7Pd
_chemical_formula_sum   'Ac4 Al14 Pd2'
_cell_volume   441.53013730
_cell_formula_units_Z   2
loop_
 _symmetry_equiv_pos_site_id
 _symmetry_equiv_pos_as_xyz
  1  'x, y, z'
loop_
 _atom_site_type_symbol
 _atom_site_label
 _atom_site_symmetry_multiplicity
 _atom_site_fract_x
 _atom_site_fract_y
 _atom_site_fract_z
 _atom_site_occupancy
  Ac  Ac0  1  0.996555  0.996588  0.006186  1
  Ac  Ac1  1  0.499167  0.498995  0.001513  1
  Ac  Ac2  1  0.748989  0.249160  0.501527  1
  Ac  Ac3  1  0.246588  0.746561  0.506180  1
  Al  Al4  1  0.198270  0.198196  0.602101  1
  Al  Al5  1  0.812591  0.812472  0.376072  1
  Al  Al6  1  0.608352  0.128014  0.252435  1
  Al  Al7  1  0.138265  0.618657  0.252297  1
  Al  Al8  1  0.609620  0.619678  0.252362  1
  Al  Al9  1  0.139083  0.129252  0.252646  1
  Al  Al10  1  0.869704  0.359568  0.752364  1
  Al  Al11  1  0.379227  0.889135  0.752644  1
  Al  Al12  1  0.868683  0.888315  0.752298  1
  Al  Al13  1  0.377987  0.358289  0.752429  1
  Al  Al14  1  0.691200  0.691139  0.616523  1
  Al  Al15  1  0.062499  0.562623  0.876028  1
  Al  Al16  1  0.448181  0.948250  0.102133  1
  Al  Al17  1  0.941165  0.441234  0.116465  1
  Pd  Pd18  1  0.314338  0.314379  0.373055  1
  Pd  Pd19  1  0.564369  0.064322  0.873077  1
