# generated using pymatgen
data_Er2Zn(PRh2)6
_symmetry_space_group_name_H-M   'P 1'
_cell_length_a   9.64474700
_cell_length_b   9.64474596
_cell_length_c   3.88447600
_cell_angle_alpha   90.00000000
_cell_angle_beta   90.00000000
_cell_angle_gamma   120.00000015
_symmetry_Int_Tables_number   1
_chemical_formula_structural   Er2Zn(PRh2)6
_chemical_formula_sum   'Er2 Zn1 P6 Rh12'
_cell_volume   312.92820299
_cell_formula_units_Z   1
loop_
 _symmetry_equiv_pos_site_id
 _symmetry_equiv_pos_as_xyz
  1  'x, y, z'
loop_
 _atom_site_type_symbol
 _atom_site_label
 _atom_site_symmetry_multiplicity
 _atom_site_fract_x
 _atom_site_fract_y
 _atom_site_fract_z
 _atom_site_occupancy
  Er  Er0  1  0.333333  0.666667  0.751612  1
  Er  Er1  1  0.666667  0.333333  0.248388  1
  Zn  Zn2  1  0.000000  0.000000  0.500000  1
  P  P3  1  0.402284  0.284705  0.748208  1
  P  P4  1  0.715295  0.117580  0.748208  1
  P  P5  1  0.882420  0.597716  0.748208  1
  P  P6  1  0.597716  0.715295  0.251792  1
  P  P7  1  0.284705  0.882420  0.251792  1
  P  P8  1  0.117580  0.402284  0.251792  1
  Rh  Rh9  1  0.452677  0.066376  0.748667  1
  Rh  Rh10  1  0.933624  0.386300  0.748667  1
  Rh  Rh11  1  0.613700  0.547323  0.748667  1
  Rh  Rh12  1  0.547323  0.933624  0.251333  1
  Rh  Rh13  1  0.066376  0.613700  0.251333  1
  Rh  Rh14  1  0.386300  0.452677  0.251333  1
  Rh  Rh15  1  0.159025  0.284067  0.754307  1
  Rh  Rh16  1  0.715933  0.874958  0.754307  1
  Rh  Rh17  1  0.125042  0.840975  0.754307  1
  Rh  Rh18  1  0.840975  0.715933  0.245693  1
  Rh  Rh19  1  0.284067  0.125042  0.245693  1
  Rh  Rh20  1  0.874958  0.159025  0.245693  1
