# generated using pymatgen
data_SrEuEr2F10
_symmetry_space_group_name_H-M   'P 1'
_cell_length_a   8.17234335
_cell_length_b   8.17234358
_cell_length_c   5.74896305
_cell_angle_alpha   89.05353036
_cell_angle_beta   89.05352717
_cell_angle_gamma   149.38621854
_symmetry_Int_Tables_number   1
_chemical_formula_structural   SrEuEr2F10
_chemical_formula_sum   'Sr1 Eu1 Er2 F10'
_cell_volume   195.14642128
_cell_formula_units_Z   1
loop_
 _symmetry_equiv_pos_site_id
 _symmetry_equiv_pos_as_xyz
  1  'x, y, z'
loop_
 _atom_site_type_symbol
 _atom_site_label
 _atom_site_symmetry_multiplicity
 _atom_site_fract_x
 _atom_site_fract_y
 _atom_site_fract_z
 _atom_site_occupancy
  Sr  Sr0  1  0.676044  0.323956  0.250000  1
  Eu  Eu1  1  0.324154  0.675846  0.750000  1
  Er  Er2  1  0.075238  0.924762  0.750000  1
  Er  Er3  1  0.924876  0.075124  0.250000  1
  F  F4  1  0.731654  0.807782  0.601132  1
  F  F5  1  0.808093  0.731745  0.101194  1
  F  F6  1  0.803000  0.179943  0.005438  1
  F  F7  1  0.620598  0.379402  0.750000  1
  F  F8  1  0.820057  0.197000  0.494562  1
  F  F9  1  0.179591  0.803002  0.504798  1
  F  F10  1  0.379225  0.620775  0.250000  1
  F  F11  1  0.196998  0.820409  0.995202  1
  F  F12  1  0.192218  0.268346  0.898868  1
  F  F13  1  0.268255  0.191907  0.398806  1
