# generated using pymatgen
data_K2BaP2Pd3
_symmetry_space_group_name_H-M   'P 1'
_cell_length_a   7.76577411
_cell_length_b   7.76577501
_cell_length_c   7.76577600
_cell_angle_alpha   42.67087211
_cell_angle_beta   42.67086486
_cell_angle_gamma   42.67087500
_symmetry_Int_Tables_number   1
_chemical_formula_structural   K2BaP2Pd3
_chemical_formula_sum   'K2 Ba1 P2 Pd3'
_cell_volume   194.88087704
_cell_formula_units_Z   1
loop_
 _symmetry_equiv_pos_site_id
 _symmetry_equiv_pos_as_xyz
  1  'x, y, z'
loop_
 _atom_site_type_symbol
 _atom_site_label
 _atom_site_symmetry_multiplicity
 _atom_site_fract_x
 _atom_site_fract_y
 _atom_site_fract_z
 _atom_site_occupancy
  K  K0  1  0.514245  0.514245  0.514245  1
  K  K1  1  0.907806  0.907806  0.907806  1
  Ba  Ba2  1  0.085509  0.085509  0.085509  1
  P  P3  1  0.248849  0.248849  0.248849  1
  P  P4  1  0.749074  0.749074  0.749074  1
  Pd  Pd5  1  0.497800  0.497800  0.998917  1
  Pd  Pd6  1  0.497800  0.998917  0.497801  1
  Pd  Pd7  1  0.998917  0.497800  0.497801  1
