# generated using pymatgen
data_Hf4ReGe3C
_symmetry_space_group_name_H-M   'P 1'
_cell_length_a   7.83537700
_cell_length_b   7.83537629
_cell_length_c   5.51111500
_cell_angle_alpha   90.00000000
_cell_angle_beta   90.00000000
_cell_angle_gamma   119.99999877
_symmetry_Int_Tables_number   1
_chemical_formula_structural   Hf4ReGe3C
_chemical_formula_sum   'Hf8 Re2 Ge6 C2'
_cell_volume   293.01500867
_cell_formula_units_Z   2
loop_
 _symmetry_equiv_pos_site_id
 _symmetry_equiv_pos_as_xyz
  1  'x, y, z'
loop_
 _atom_site_type_symbol
 _atom_site_label
 _atom_site_symmetry_multiplicity
 _atom_site_fract_x
 _atom_site_fract_y
 _atom_site_fract_z
 _atom_site_occupancy
  Hf  Hf0  1  0.333333  0.666667  0.000000  1
  Hf  Hf1  1  0.666667  0.333333  0.000000  1
  Hf  Hf2  1  0.233231  0.000000  0.250478  1
  Hf  Hf3  1  0.766769  0.000000  0.749522  1
  Hf  Hf4  1  0.000000  0.233231  0.250478  1
  Hf  Hf5  1  0.000000  0.766769  0.749522  1
  Hf  Hf6  1  0.766769  0.766769  0.250478  1
  Hf  Hf7  1  0.233231  0.233231  0.749522  1
  Re  Re8  1  0.666667  0.333333  0.500000  1
  Re  Re9  1  0.333333  0.666667  0.500000  1
  Ge  Ge10  1  0.593846  0.000000  0.265855  1
  Ge  Ge11  1  0.406154  0.000000  0.734145  1
  Ge  Ge12  1  0.000000  0.593846  0.265855  1
  Ge  Ge13  1  0.000000  0.406154  0.734145  1
  Ge  Ge14  1  0.406154  0.406154  0.265855  1
  Ge  Ge15  1  0.593846  0.593846  0.734145  1
  C  C16  1  0.000000  0.000000  0.000000  1
  C  C17  1  0.000000  0.000000  0.500000  1
