# generated using pymatgen
data_CsS23
_symmetry_space_group_name_H-M   'P 1'
_cell_length_a   5.70364994
_cell_length_b   9.77815847
_cell_length_c   15.89745729
_cell_angle_alpha   90.71282841
_cell_angle_beta   79.22883178
_cell_angle_gamma   98.13659635
_symmetry_Int_Tables_number   1
_chemical_formula_structural   CsS23
_chemical_formula_sum   'Cs1 S23'
_cell_volume   862.14174225
_cell_formula_units_Z   1
loop_
 _symmetry_equiv_pos_site_id
 _symmetry_equiv_pos_as_xyz
  1  'x, y, z'
loop_
 _atom_site_type_symbol
 _atom_site_label
 _atom_site_symmetry_multiplicity
 _atom_site_fract_x
 _atom_site_fract_y
 _atom_site_fract_z
 _atom_site_occupancy
  Cs  Cs0  1  0.440494  0.169505  0.395342  1
  S  S1  1  0.524616  0.785203  0.392651  1
  S  S2  1  0.017829  0.296818  0.108256  1
  S  S3  1  0.870276  0.272918  0.528806  1
  S  S4  1  0.308298  0.748108  0.512175  1
  S  S5  1  0.207465  0.267178  0.987005  1
  S  S6  1  0.794319  0.732066  0.012370  1
  S  S7  1  0.111115  0.425989  0.352354  1
  S  S8  1  0.663362  0.605375  0.352496  1
  S  S9  1  0.810027  0.111532  0.152169  1
  S  S10  1  0.201562  0.879403  0.124705  1
  S  S11  1  0.703792  0.647353  0.624191  1
  S  S12  1  0.334777  0.349368  0.633909  1
  S  S13  1  0.203028  0.893256  0.852835  1
  S  S14  1  0.802677  0.115521  0.874485  1
  S  S15  1  0.987158  0.697403  0.105962  1
  S  S16  1  0.511110  0.804804  0.605667  1
  S  S17  1  0.567554  0.197509  0.609549  1
  S  S18  1  0.998831  0.705983  0.892989  1
  S  S19  1  0.006736  0.300386  0.895455  1
  S  S20  1  0.429861  0.494822  0.278757  1
  S  S21  1  0.006495  0.995823  0.213979  1
  S  S22  1  0.487998  0.500271  0.707201  1
  S  S23  1  0.010618  0.003404  0.786693  1
