# generated using pymatgen
data_LiTb(Ce3Sb5)2
_symmetry_space_group_name_H-M   'P 1'
_cell_length_a   9.44847900
_cell_length_b   9.44847802
_cell_length_c   6.31166000
_cell_angle_alpha   90.00000000
_cell_angle_beta   90.00000000
_cell_angle_gamma   119.99999992
_symmetry_Int_Tables_number   1
_chemical_formula_structural   LiTb(Ce3Sb5)2
_chemical_formula_sum   'Li1 Tb1 Ce6 Sb10'
_cell_volume   487.97546588
_cell_formula_units_Z   1
loop_
 _symmetry_equiv_pos_site_id
 _symmetry_equiv_pos_as_xyz
  1  'x, y, z'
loop_
 _atom_site_type_symbol
 _atom_site_label
 _atom_site_symmetry_multiplicity
 _atom_site_fract_x
 _atom_site_fract_y
 _atom_site_fract_z
 _atom_site_occupancy
  Li  Li0  1  0.000000  0.000000  0.000000  1
  Tb  Tb1  1  0.000000  0.000000  0.500000  1
  Ce  Ce2  1  0.616471  0.000000  0.247031  1
  Ce  Ce3  1  0.383529  0.000000  0.752969  1
  Ce  Ce4  1  0.000000  0.616471  0.247031  1
  Ce  Ce5  1  0.000000  0.383529  0.752969  1
  Ce  Ce6  1  0.383529  0.383529  0.247031  1
  Ce  Ce7  1  0.616471  0.616471  0.752969  1
  Sb  Sb8  1  0.269971  0.000000  0.241775  1
  Sb  Sb9  1  0.730029  0.000000  0.758225  1
  Sb  Sb10  1  0.000000  0.269971  0.241775  1
  Sb  Sb11  1  0.000000  0.730029  0.758225  1
  Sb  Sb12  1  0.730029  0.730029  0.241775  1
  Sb  Sb13  1  0.269971  0.269971  0.758225  1
  Sb  Sb14  1  0.333333  0.666667  0.000000  1
  Sb  Sb15  1  0.666667  0.333333  0.000000  1
  Sb  Sb16  1  0.666667  0.333333  0.500000  1
  Sb  Sb17  1  0.333333  0.666667  0.500000  1
