# generated using pymatgen
data_Na5Si9As3Ir19
_symmetry_space_group_name_H-M   'P 1'
_cell_length_a   12.88602200
_cell_length_b   12.88602165
_cell_length_c   3.98186300
_cell_angle_alpha   90.00000000
_cell_angle_beta   90.00000000
_cell_angle_gamma   120.00000090
_symmetry_Int_Tables_number   1
_chemical_formula_structural   Na5Si9As3Ir19
_chemical_formula_sum   'Na5 Si9 As3 Ir19'
_cell_volume   572.60438096
_cell_formula_units_Z   1
loop_
 _symmetry_equiv_pos_site_id
 _symmetry_equiv_pos_as_xyz
  1  'x, y, z'
loop_
 _atom_site_type_symbol
 _atom_site_label
 _atom_site_symmetry_multiplicity
 _atom_site_fract_x
 _atom_site_fract_y
 _atom_site_fract_z
 _atom_site_occupancy
  Na  Na0  1  0.666667  0.333333  0.000000  1
  Na  Na1  1  0.333333  0.666667  0.000000  1
  Na  Na2  1  0.814890  0.814890  0.500000  1
  Na  Na3  1  0.185110  0.000000  0.500000  1
  Na  Na4  1  0.000000  0.185110  0.500000  1
  Si  Si5  1  0.686044  0.169961  0.500000  1
  Si  Si6  1  0.830039  0.516083  0.500000  1
  Si  Si7  1  0.483917  0.313956  0.500000  1
  Si  Si8  1  0.169961  0.686044  0.500000  1
  Si  Si9  1  0.516083  0.830039  0.500000  1
  Si  Si10  1  0.313956  0.483917  0.500000  1
  Si  Si11  1  0.629785  0.629785  0.000000  1
  Si  Si12  1  0.370215  0.000000  0.000000  1
  Si  Si13  1  0.000000  0.370215  0.000000  1
  As  As14  1  0.181137  0.181137  0.000000  1
  As  As15  1  0.818863  0.000000  0.000000  1
  As  As16  1  0.000000  0.818863  0.000000  1
  Ir  Ir17  1  0.802891  0.186230  0.000000  1
  Ir  Ir18  1  0.813770  0.616661  0.000000  1
  Ir  Ir19  1  0.383339  0.197109  0.000000  1
  Ir  Ir20  1  0.186230  0.802891  0.000000  1
  Ir  Ir21  1  0.616661  0.813770  0.000000  1
  Ir  Ir22  1  0.197109  0.383339  0.000000  1
  Ir  Ir23  1  0.446998  0.446998  0.000000  1
  Ir  Ir24  1  0.553002  0.000000  0.000000  1
  Ir  Ir25  1  0.000000  0.553002  0.000000  1
  Ir  Ir26  1  0.289349  0.289349  0.500000  1
  Ir  Ir27  1  0.710651  0.000000  0.500000  1
  Ir  Ir28  1  0.000000  0.710651  0.500000  1
  Ir  Ir29  1  0.874796  0.360768  0.500000  1
  Ir  Ir30  1  0.639232  0.514029  0.500000  1
  Ir  Ir31  1  0.485971  0.125204  0.500000  1
  Ir  Ir32  1  0.360768  0.874796  0.500000  1
  Ir  Ir33  1  0.514029  0.639232  0.500000  1
  Ir  Ir34  1  0.125204  0.485971  0.500000  1
  Ir  Ir35  1  0.000000  0.000000  0.000000  1
