# generated using pymatgen
data_Hf8Mn3Fe3(Si7Ni)2
_symmetry_space_group_name_H-M   'P 1'
_cell_length_a   9.53784162
_cell_length_b   9.53766998
_cell_length_c   9.50360171
_cell_angle_alpha   94.08131070
_cell_angle_beta   94.08190824
_cell_angle_gamma   149.11599931
_symmetry_Int_Tables_number   1
_chemical_formula_structural   Hf8Mn3Fe3(Si7Ni)2
_chemical_formula_sum   'Hf8 Mn3 Fe3 Si14 Ni2'
_cell_volume   427.61567163
_cell_formula_units_Z   1
loop_
 _symmetry_equiv_pos_site_id
 _symmetry_equiv_pos_as_xyz
  1  'x, y, z'
loop_
 _atom_site_type_symbol
 _atom_site_label
 _atom_site_symmetry_multiplicity
 _atom_site_fract_x
 _atom_site_fract_y
 _atom_site_fract_z
 _atom_site_occupancy
  Hf  Hf0  1  0.140578  0.140536  0.276972  1
  Hf  Hf1  1  0.859465  0.859422  0.723028  1
  Hf  Hf2  1  0.862149  0.137854  0.000002  1
  Hf  Hf3  1  0.137865  0.862146  0.000004  1
  Hf  Hf4  1  0.504912  0.308457  0.804713  1
  Hf  Hf5  1  0.505260  0.702105  0.196301  1
  Hf  Hf6  1  0.691558  0.495129  0.195304  1
  Hf  Hf7  1  0.297877  0.494744  0.803718  1
  Mn  Mn8  1  0.401070  0.598919  0.499978  1
  Mn  Mn9  1  0.604013  0.395944  0.499997  1
  Mn  Mn10  1  0.895169  0.104867  0.500000  1
  Fe  Fe11  1  0.400593  0.901039  0.801892  1
  Fe  Fe12  1  0.098998  0.599438  0.198178  1
  Fe  Fe13  1  0.100235  0.899740  0.499985  1
  Si  Si14  1  0.474895  0.066841  0.591156  1
  Si  Si15  1  0.472214  0.880819  0.410141  1
  Si  Si16  1  0.933222  0.525137  0.408763  1
  Si  Si17  1  0.119062  0.527638  0.589781  1
  Si  Si18  1  0.749499  0.749528  0.999865  1
  Si  Si19  1  0.250490  0.250488  0.000141  1
  Si  Si20  1  0.286979  0.286593  0.583009  1
  Si  Si21  1  0.713395  0.713010  0.416971  1
  Si  Si22  1  0.709768  0.290563  0.000059  1
  Si  Si23  1  0.290391  0.709399  0.000059  1
  Si  Si24  1  0.011765  0.310639  0.296960  1
  Si  Si25  1  0.012112  0.713075  0.702710  1
  Si  Si26  1  0.689519  0.988334  0.703027  1
  Si  Si27  1  0.286807  0.987723  0.297270  1
  Ni  Ni28  1  0.895566  0.395431  0.790841  1
  Ni  Ni29  1  0.604574  0.104443  0.209175  1
