# generated using pymatgen
data_DyMnNbB6
_symmetry_space_group_name_H-M   'P 1'
_cell_length_a   3.36904000
_cell_length_b   8.92793300
_cell_length_c   11.24440800
_cell_angle_alpha   90.00000000
_cell_angle_beta   90.00000000
_cell_angle_gamma   90.00000000
_symmetry_Int_Tables_number   1
_chemical_formula_structural   DyMnNbB6
_chemical_formula_sum   'Dy4 Mn4 Nb4 B24'
_cell_volume   338.21563886
_cell_formula_units_Z   4
loop_
 _symmetry_equiv_pos_site_id
 _symmetry_equiv_pos_as_xyz
  1  'x, y, z'
loop_
 _atom_site_type_symbol
 _atom_site_label
 _atom_site_symmetry_multiplicity
 _atom_site_fract_x
 _atom_site_fract_y
 _atom_site_fract_z
 _atom_site_occupancy
  Dy  Dy0  1  0.000000  0.823386  0.086081  1
  Dy  Dy1  1  0.000000  0.176614  0.913919  1
  Dy  Dy2  1  0.000000  0.323386  0.413919  1
  Dy  Dy3  1  0.000000  0.676614  0.586081  1
  Mn  Mn4  1  0.000000  0.144816  0.182998  1
  Mn  Mn5  1  0.000000  0.855184  0.817002  1
  Mn  Mn6  1  0.000000  0.644816  0.317002  1
  Mn  Mn7  1  0.000000  0.355184  0.682998  1
  Nb  Nb8  1  0.000000  0.444684  0.128188  1
  Nb  Nb9  1  0.000000  0.555316  0.871812  1
  Nb  Nb10  1  0.000000  0.944684  0.371812  1
  Nb  Nb11  1  0.000000  0.055316  0.628188  1
  B  B12  1  0.500000  0.055066  0.068100  1
  B  B13  1  0.500000  0.944934  0.931900  1
  B  B14  1  0.500000  0.555066  0.431900  1
  B  B15  1  0.500000  0.444934  0.568100  1
  B  B16  1  0.500000  0.251823  0.083664  1
  B  B17  1  0.500000  0.748177  0.916336  1
  B  B18  1  0.500000  0.751823  0.416336  1
  B  B19  1  0.500000  0.248177  0.583664  1
  B  B20  1  0.500000  0.295897  0.236058  1
  B  B21  1  0.500000  0.704103  0.763942  1
  B  B22  1  0.500000  0.795897  0.263942  1
  B  B23  1  0.500000  0.204103  0.736058  1
  B  B24  1  0.500000  0.130465  0.316649  1
  B  B25  1  0.500000  0.869535  0.683351  1
  B  B26  1  0.500000  0.630465  0.183351  1
  B  B27  1  0.500000  0.369535  0.816649  1
  B  B28  1  0.500000  0.483949  0.286896  1
  B  B29  1  0.500000  0.516051  0.713104  1
  B  B30  1  0.500000  0.983949  0.213104  1
  B  B31  1  0.500000  0.016051  0.786896  1
  B  B32  1  0.500000  0.100258  0.473429  1
  B  B33  1  0.500000  0.899742  0.526571  1
  B  B34  1  0.500000  0.600258  0.026571  1
  B  B35  1  0.500000  0.399742  0.973429  1
