# generated using pymatgen
data_Ti10Nb8C15
_symmetry_space_group_name_H-M   'P 1'
_cell_length_a   5.40649426
_cell_length_b   5.40510755
_cell_length_c   15.22987900
_cell_angle_alpha   90.11165307
_cell_angle_beta   90.10013663
_cell_angle_gamma   119.84081798
_symmetry_Int_Tables_number   1
_chemical_formula_structural   Ti10Nb8C15
_chemical_formula_sum   'Ti10 Nb8 C15'
_cell_volume   386.04559506
_cell_formula_units_Z   1
loop_
 _symmetry_equiv_pos_site_id
 _symmetry_equiv_pos_as_xyz
  1  'x, y, z'
loop_
 _atom_site_type_symbol
 _atom_site_label
 _atom_site_symmetry_multiplicity
 _atom_site_fract_x
 _atom_site_fract_y
 _atom_site_fract_z
 _atom_site_occupancy
  Ti  Ti0  1  0.777736  0.535524  0.416049  1
  Ti  Ti1  1  0.758303  0.224370  0.083198  1
  Ti  Ti2  1  0.464862  0.240991  0.747926  1
  Ti  Ti3  1  0.756861  0.534646  0.917800  1
  Ti  Ti4  1  0.775973  0.238675  0.582911  1
  Ti  Ti5  1  0.467019  0.225931  0.252480  1
  Ti  Ti6  1  0.107378  0.530487  0.747972  1
  Ti  Ti7  1  0.468266  0.577060  0.083007  1
  Ti  Ti8  1  0.425466  0.891937  0.415916  1
  Ti  Ti9  1  0.133017  0.244469  0.410729  1
  Nb  Nb10  1  0.464270  0.889532  0.917335  1
  Nb  Nb11  1  0.423477  0.533713  0.582498  1
  Nb  Nb12  1  0.113061  0.577737  0.251862  1
  Nb  Nb13  1  0.125939  0.885795  0.586746  1
  Nb  Nb14  1  0.112279  0.240897  0.921436  1
  Nb  Nb15  1  0.761287  0.874614  0.256190  1
  Nb  Nb16  1  0.112236  0.872393  0.079013  1
  Nb  Nb17  1  0.757254  0.886171  0.744189  1
  C  C18  1  0.453101  0.231432  0.001400  1
  C  C19  1  0.776062  0.544211  0.666456  1
  C  C20  1  0.776066  0.223892  0.335716  1
  C  C21  1  0.108067  0.552462  0.001565  1
  C  C22  1  0.441197  0.889729  0.666736  1
  C  C23  1  0.447418  0.556051  0.335482  1
  C  C24  1  0.772566  0.885678  0.001143  1
  C  C25  1  0.110454  0.224863  0.666233  1
  C  C26  1  0.116213  0.892973  0.335394  1
  C  C27  1  0.445712  0.219389  0.497595  1
  C  C28  1  0.770534  0.550272  0.166875  1
  C  C29  1  0.778405  0.229689  0.832065  1
  C  C30  1  0.104627  0.547827  0.497457  1
  C  C31  1  0.450712  0.897027  0.166785  1
  C  C32  1  0.444187  0.549562  0.831841  1
