# generated using pymatgen
data_La2Tb3Pb4
_symmetry_space_group_name_H-M   'P 1'
_cell_length_a   8.39302800
_cell_length_b   8.44112700
_cell_length_c   16.08627900
_cell_angle_alpha   90.00000000
_cell_angle_beta   90.00000000
_cell_angle_gamma   90.00000000
_symmetry_Int_Tables_number   1
_chemical_formula_structural   La2Tb3Pb4
_chemical_formula_sum   'La8 Tb12 Pb16'
_cell_volume   1139.65841932
_cell_formula_units_Z   4
loop_
 _symmetry_equiv_pos_site_id
 _symmetry_equiv_pos_as_xyz
  1  'x, y, z'
loop_
 _atom_site_type_symbol
 _atom_site_label
 _atom_site_symmetry_multiplicity
 _atom_site_fract_x
 _atom_site_fract_y
 _atom_site_fract_z
 _atom_site_occupancy
  La  La0  1  0.029235  0.179371  0.099760  1
  La  La1  1  0.529235  0.320629  0.400240  1
  La  La2  1  0.470765  0.679371  0.900240  1
  La  La3  1  0.970765  0.820629  0.599760  1
  La  La4  1  0.970765  0.820629  0.900240  1
  La  La5  1  0.470765  0.679371  0.599760  1
  La  La6  1  0.529235  0.320629  0.099760  1
  La  La7  1  0.029235  0.179371  0.400240  1
  Tb  Tb8  1  0.876776  0.659547  0.119648  1
  Tb  Tb9  1  0.376776  0.840453  0.380352  1
  Tb  Tb10  1  0.623224  0.159547  0.880352  1
  Tb  Tb11  1  0.123224  0.340453  0.619648  1
  Tb  Tb12  1  0.123224  0.340453  0.880352  1
  Tb  Tb13  1  0.623224  0.159547  0.619648  1
  Tb  Tb14  1  0.376776  0.840453  0.119648  1
  Tb  Tb15  1  0.876776  0.659547  0.380352  1
  Tb  Tb16  1  0.708427  0.993684  0.250000  1
  Tb  Tb17  1  0.208427  0.506316  0.250000  1
  Tb  Tb18  1  0.791573  0.493684  0.750000  1
  Tb  Tb19  1  0.291573  0.006316  0.750000  1
  Pb  Pb20  1  0.072774  0.870484  0.250000  1
  Pb  Pb21  1  0.572774  0.629516  0.250000  1
  Pb  Pb22  1  0.427226  0.370484  0.750000  1
  Pb  Pb23  1  0.927226  0.129516  0.750000  1
  Pb  Pb24  1  0.839013  0.356033  0.250000  1
  Pb  Pb25  1  0.339013  0.143967  0.250000  1
  Pb  Pb26  1  0.660987  0.856033  0.750000  1
  Pb  Pb27  1  0.160987  0.643967  0.750000  1
  Pb  Pb28  1  0.785148  0.464164  0.955904  1
  Pb  Pb29  1  0.285148  0.035836  0.544096  1
  Pb  Pb30  1  0.714852  0.964164  0.044096  1
  Pb  Pb31  1  0.214852  0.535836  0.455904  1
  Pb  Pb32  1  0.214852  0.535836  0.044096  1
  Pb  Pb33  1  0.714852  0.964164  0.455904  1
  Pb  Pb34  1  0.285148  0.035836  0.955904  1
  Pb  Pb35  1  0.785148  0.464164  0.544096  1
