# generated using pymatgen
data_Tb11Tm(In2Ru)4
_symmetry_space_group_name_H-M   'P 1'
_cell_length_a   3.80893800
_cell_length_b   12.99121730
_cell_length_c   12.99121763
_cell_angle_alpha   112.16219725
_cell_angle_beta   90.00000000
_cell_angle_gamma   90.00000000
_symmetry_Int_Tables_number   1
_chemical_formula_structural   Tb11Tm(In2Ru)4
_chemical_formula_sum   'Tb11 Tm1 In8 Ru4'
_cell_volume   595.34775461
_cell_formula_units_Z   1
loop_
 _symmetry_equiv_pos_site_id
 _symmetry_equiv_pos_as_xyz
  1  'x, y, z'
loop_
 _atom_site_type_symbol
 _atom_site_label
 _atom_site_symmetry_multiplicity
 _atom_site_fract_x
 _atom_site_fract_y
 _atom_site_fract_z
 _atom_site_occupancy
  Tb  Tb0  1  0.000000  0.914169  0.578097  1
  Tb  Tb1  1  0.000000  0.085831  0.421903  1
  Tb  Tb2  1  0.000000  0.578097  0.914169  1
  Tb  Tb3  1  0.000000  0.421903  0.085831  1
  Tb  Tb4  1  0.000000  0.162159  0.837841  1
  Tb  Tb5  1  0.000000  0.837841  0.162159  1
  Tb  Tb6  1  0.000000  0.360235  0.639765  1
  Tb  Tb7  1  0.000000  0.639765  0.360235  1
  Tb  Tb8  1  0.000000  0.705990  0.705990  1
  Tb  Tb9  1  0.000000  0.294010  0.294010  1
  Tb  Tb10  1  0.000000  0.000000  0.000000  1
  Tm  Tm11  1  0.500000  0.500000  0.500000  1
  In  In12  1  0.500000  0.149200  0.632963  1
  In  In13  1  0.500000  0.850800  0.367037  1
  In  In14  1  0.500000  0.632963  0.149200  1
  In  In15  1  0.500000  0.367037  0.850800  1
  In  In16  1  0.500000  0.933857  0.783721  1
  In  In17  1  0.500000  0.066143  0.216279  1
  In  In18  1  0.500000  0.783721  0.933857  1
  In  In19  1  0.500000  0.216279  0.066143  1
  Ru  Ru20  1  0.500000  0.735959  0.547645  1
  Ru  Ru21  1  0.500000  0.264041  0.452355  1
  Ru  Ru22  1  0.500000  0.547645  0.735959  1
  Ru  Ru23  1  0.500000  0.452355  0.264041  1
