# generated using pymatgen
data_Hf6Al16Pd6Rh
_symmetry_space_group_name_H-M   'P 1'
_cell_length_a   8.74485338
_cell_length_b   8.74485371
_cell_length_c   8.74485400
_cell_angle_alpha   59.99999889
_cell_angle_beta   59.99999765
_cell_angle_gamma   59.99999749
_symmetry_Int_Tables_number   1
_chemical_formula_structural   Hf6Al16Pd6Rh
_chemical_formula_sum   'Hf6 Al16 Pd6 Rh1'
_cell_volume   472.87094111
_cell_formula_units_Z   1
loop_
 _symmetry_equiv_pos_site_id
 _symmetry_equiv_pos_as_xyz
  1  'x, y, z'
loop_
 _atom_site_type_symbol
 _atom_site_label
 _atom_site_symmetry_multiplicity
 _atom_site_fract_x
 _atom_site_fract_y
 _atom_site_fract_z
 _atom_site_occupancy
  Hf  Hf0  1  0.682856  0.317143  0.317143  1
  Hf  Hf1  1  0.317143  0.682856  0.682856  1
  Hf  Hf2  1  0.317143  0.682856  0.317143  1
  Hf  Hf3  1  0.317143  0.317143  0.682856  1
  Hf  Hf4  1  0.682856  0.317143  0.682856  1
  Hf  Hf5  1  0.682856  0.682856  0.317143  1
  Al  Al6  1  0.334698  0.334698  0.334698  1
  Al  Al7  1  0.334698  0.334698  0.995905  1
  Al  Al8  1  0.995905  0.334698  0.334698  1
  Al  Al9  1  0.334698  0.995905  0.334698  1
  Al  Al10  1  0.665302  0.665302  0.665302  1
  Al  Al11  1  0.665302  0.665302  0.004095  1
  Al  Al12  1  0.665302  0.004095  0.665302  1
  Al  Al13  1  0.004095  0.665302  0.665302  1
  Al  Al14  1  0.118797  0.118797  0.118797  1
  Al  Al15  1  0.118797  0.118797  0.643610  1
  Al  Al16  1  0.643610  0.118797  0.118797  1
  Al  Al17  1  0.118797  0.643610  0.118797  1
  Al  Al18  1  0.881202  0.881202  0.881202  1
  Al  Al19  1  0.881202  0.881202  0.356393  1
  Al  Al20  1  0.881202  0.356393  0.881202  1
  Al  Al21  1  0.356393  0.881202  0.881202  1
  Pd  Pd22  1  0.500000  0.000000  0.000000  1
  Pd  Pd23  1  0.000000  0.500000  0.500000  1
  Pd  Pd24  1  0.000000  0.500000  0.000000  1
  Pd  Pd25  1  0.000000  0.000000  0.500000  1
  Pd  Pd26  1  0.500000  0.000000  0.500000  1
  Pd  Pd27  1  0.500000  0.500000  0.000000  1
  Rh  Rh28  1  0.000000  0.000000  0.000000  1
