# generated using pymatgen
data_Tb16Ho4Bi3Pb13
_symmetry_space_group_name_H-M   'P 1'
_cell_length_a   8.27963717
_cell_length_b   15.66799713
_cell_length_c   8.31099682
_cell_angle_alpha   90.09768592
_cell_angle_beta   89.93501899
_cell_angle_gamma   89.71920662
_symmetry_Int_Tables_number   1
_chemical_formula_structural   Tb16Ho4Bi3Pb13
_chemical_formula_sum   'Tb16 Ho4 Bi3 Pb13'
_cell_volume   1078.13159879
_cell_formula_units_Z   1
loop_
 _symmetry_equiv_pos_site_id
 _symmetry_equiv_pos_as_xyz
  1  'x, y, z'
loop_
 _atom_site_type_symbol
 _atom_site_label
 _atom_site_symmetry_multiplicity
 _atom_site_fract_x
 _atom_site_fract_y
 _atom_site_fract_z
 _atom_site_occupancy
  Tb  Tb0  1  0.618227  0.621266  0.160642  1
  Tb  Tb1  1  0.115206  0.878467  0.341628  1
  Tb  Tb2  1  0.383716  0.121865  0.842427  1
  Tb  Tb3  1  0.880989  0.378987  0.657171  1
  Tb  Tb4  1  0.377187  0.379197  0.841572  1
  Tb  Tb5  1  0.879246  0.120661  0.660147  1
  Tb  Tb6  1  0.620679  0.879523  0.159243  1
  Tb  Tb7  1  0.120874  0.621263  0.341394  1
  Tb  Tb8  1  0.452577  0.604317  0.667035  1
  Tb  Tb9  1  0.944568  0.892959  0.830670  1
  Tb  Tb10  1  0.554898  0.106804  0.331114  1
  Tb  Tb11  1  0.048520  0.396282  0.174553  1
  Tb  Tb12  1  0.541810  0.397658  0.331319  1
  Tb  Tb13  1  0.040873  0.104308  0.169585  1
  Tb  Tb14  1  0.459645  0.895838  0.670405  1
  Tb  Tb15  1  0.960993  0.602985  0.823623  1
  Ho  Ho16  1  0.787173  0.749385  0.497953  1
  Ho  Ho17  1  0.287036  0.746825  0.000814  1
  Ho  Ho18  1  0.213472  0.252521  0.501765  1
  Ho  Ho19  1  0.713043  0.248576  0.999125  1
  Bi  Bi20  1  0.724694  0.454421  0.974288  1
  Bi  Bi21  1  0.227917  0.045965  0.523279  1
  Bi  Bi22  1  0.271827  0.953950  0.022918  1
  Pb  Pb23  1  0.777241  0.544166  0.471612  1
  Pb  Pb24  1  0.277653  0.543845  0.029654  1
  Pb  Pb25  1  0.777756  0.955588  0.471832  1
  Pb  Pb26  1  0.721543  0.044266  0.971873  1
  Pb  Pb27  1  0.219884  0.456222  0.531157  1
  Pb  Pb28  1  0.424561  0.752358  0.370978  1
  Pb  Pb29  1  0.924344  0.748863  0.127825  1
  Pb  Pb30  1  0.575063  0.250902  0.629338  1
  Pb  Pb31  1  0.074803  0.249261  0.871872  1
  Pb  Pb32  1  0.644101  0.748627  0.847635  1
  Pb  Pb33  1  0.145933  0.751411  0.651896  1
  Pb  Pb34  1  0.355610  0.249773  0.153312  1
  Pb  Pb35  1  0.856335  0.250693  0.348346  1
