# generated using pymatgen
data_Nd2Ga(SiRh2)3
_symmetry_space_group_name_H-M   'P 1'
_cell_length_a   6.71002839
_cell_length_b   6.73233933
_cell_length_c   6.71002824
_cell_angle_alpha   130.12131044
_cell_angle_beta   114.30595587
_cell_angle_gamma   86.67685523
_symmetry_Int_Tables_number   1
_chemical_formula_structural   Nd2Ga(SiRh2)3
_chemical_formula_sum   'Nd2 Ga1 Si3 Rh6'
_cell_volume   201.68466192
_cell_formula_units_Z   1
loop_
 _symmetry_equiv_pos_site_id
 _symmetry_equiv_pos_as_xyz
  1  'x, y, z'
loop_
 _atom_site_type_symbol
 _atom_site_label
 _atom_site_symmetry_multiplicity
 _atom_site_fract_x
 _atom_site_fract_y
 _atom_site_fract_z
 _atom_site_occupancy
  Nd  Nd0  1  0.750101  0.044884  0.294783  1
  Nd  Nd1  1  0.251221  0.970747  0.719526  1
  Ga  Ga2  1  0.591684  0.387854  0.796171  1
  Si  Si3  1  0.434287  0.634606  0.200319  1
  Si  Si4  1  0.070627  0.271651  0.201024  1
  Si  Si5  1  0.904063  0.695510  0.791447  1
  Rh  Rh6  1  0.213607  0.505500  0.717794  1
  Rh  Rh7  1  0.726166  0.995472  0.728623  1
  Rh  Rh8  1  0.787707  0.505500  0.291894  1
  Rh  Rh9  1  0.266850  0.995472  0.269307  1
  Rh  Rh10  1  0.474221  0.496402  0.466934  1
  Rh  Rh11  1  0.029468  0.496402  0.022180  1
