# generated using pymatgen
data_Y5Sc(Be2Rh5)2
_symmetry_space_group_name_H-M   'P 1'
_cell_length_a   9.82006800
_cell_length_b   9.82006800
_cell_length_c   3.33429400
_cell_angle_alpha   90.00000000
_cell_angle_beta   90.00000000
_cell_angle_gamma   90.00000000
_symmetry_Int_Tables_number   1
_chemical_formula_structural   Y5Sc(Be2Rh5)2
_chemical_formula_sum   'Y5 Sc1 Be4 Rh10'
_cell_volume   321.53842576
_cell_formula_units_Z   1
loop_
 _symmetry_equiv_pos_site_id
 _symmetry_equiv_pos_as_xyz
  1  'x, y, z'
loop_
 _atom_site_type_symbol
 _atom_site_label
 _atom_site_symmetry_multiplicity
 _atom_site_fract_x
 _atom_site_fract_y
 _atom_site_fract_z
 _atom_site_occupancy
  Y  Y0  1  0.821711  0.326002  0.000000  1
  Y  Y1  1  0.326002  0.178289  0.000000  1
  Y  Y2  1  0.673998  0.821711  0.000000  1
  Y  Y3  1  0.178289  0.673998  0.000000  1
  Y  Y4  1  0.000000  0.000000  0.000000  1
  Sc  Sc5  1  0.500000  0.500000  0.000000  1
  Be  Be6  1  0.618059  0.121814  0.000000  1
  Be  Be7  1  0.121814  0.381941  0.000000  1
  Be  Be8  1  0.878186  0.618059  0.000000  1
  Be  Be9  1  0.381941  0.878186  0.000000  1
  Rh  Rh10  1  0.072280  0.224350  0.500000  1
  Rh  Rh11  1  0.224350  0.927720  0.500000  1
  Rh  Rh12  1  0.775650  0.072280  0.500000  1
  Rh  Rh13  1  0.927720  0.775650  0.500000  1
  Rh  Rh14  1  0.434040  0.716460  0.500000  1
  Rh  Rh15  1  0.565960  0.283540  0.500000  1
  Rh  Rh16  1  0.716460  0.565960  0.500000  1
  Rh  Rh17  1  0.283540  0.434040  0.500000  1
  Rh  Rh18  1  0.500000  0.000000  0.500000  1
  Rh  Rh19  1  0.000000  0.500000  0.500000  1
