# generated using pymatgen
data_Pr3Er5CdHgIr2
_symmetry_space_group_name_H-M   'P 1'
_cell_length_a   9.70488036
_cell_length_b   9.70487971
_cell_length_c   9.71639500
_cell_angle_alpha   59.96075183
_cell_angle_beta   59.96075404
_cell_angle_gamma   60.00551059
_symmetry_Int_Tables_number   1
_chemical_formula_structural   Pr3Er5CdHgIr2
_chemical_formula_sum   'Pr6 Er10 Cd2 Hg2 Ir4'
_cell_volume   646.74142906
_cell_formula_units_Z   2
loop_
 _symmetry_equiv_pos_site_id
 _symmetry_equiv_pos_as_xyz
  1  'x, y, z'
loop_
 _atom_site_type_symbol
 _atom_site_label
 _atom_site_symmetry_multiplicity
 _atom_site_fract_x
 _atom_site_fract_y
 _atom_site_fract_z
 _atom_site_occupancy
  Pr  Pr0  1  0.941408  0.557728  0.559033  1
  Pr  Pr1  1  0.557728  0.941408  0.941831  1
  Pr  Pr2  1  0.557728  0.941408  0.559033  1
  Pr  Pr3  1  0.941408  0.557728  0.941831  1
  Pr  Pr4  1  0.558285  0.558285  0.941715  1
  Pr  Pr5  1  0.941447  0.941447  0.558553  1
  Er  Er6  1  0.347520  0.347520  0.346438  1
  Er  Er7  1  0.347520  0.347520  0.958520  1
  Er  Er8  1  0.348547  0.956224  0.347614  1
  Er  Er9  1  0.956224  0.348547  0.347614  1
  Er  Er10  1  0.811820  0.186418  0.188985  1
  Er  Er11  1  0.186418  0.811820  0.812776  1
  Er  Er12  1  0.186418  0.811820  0.188985  1
  Er  Er13  1  0.811820  0.186418  0.812776  1
  Er  Er14  1  0.186894  0.186894  0.813106  1
  Er  Er15  1  0.811366  0.811366  0.188634  1
  Cd  Cd16  1  0.578884  0.263226  0.578945  1
  Cd  Cd17  1  0.263226  0.578884  0.578945  1
  Hg  Hg18  1  0.582069  0.582069  0.583145  1
  Hg  Hg19  1  0.582069  0.582069  0.252716  1
  Ir  Ir20  1  0.141546  0.141546  0.140827  1
  Ir  Ir21  1  0.141546  0.141546  0.576079  1
  Ir  Ir22  1  0.141535  0.576571  0.140948  1
  Ir  Ir23  1  0.576571  0.141535  0.140948  1
