# generated using pymatgen
data_Nd12InCo4Cu
_symmetry_space_group_name_H-M   'P 1'
_cell_length_a   8.60637242
_cell_length_b   8.60637317
_cell_length_c   8.60637259
_cell_angle_alpha   111.73292556
_cell_angle_beta   109.28762504
_cell_angle_gamma   107.42209678
_symmetry_Int_Tables_number   1
_chemical_formula_structural   Nd12InCo4Cu
_chemical_formula_sum   'Nd12 In1 Co4 Cu1'
_cell_volume   490.02479073
_cell_formula_units_Z   1
loop_
 _symmetry_equiv_pos_site_id
 _symmetry_equiv_pos_as_xyz
  1  'x, y, z'
loop_
 _atom_site_type_symbol
 _atom_site_label
 _atom_site_symmetry_multiplicity
 _atom_site_fract_x
 _atom_site_fract_y
 _atom_site_fract_z
 _atom_site_occupancy
  Nd  Nd0  1  0.412253  0.217136  0.195118  1
  Nd  Nd1  1  0.587747  0.782864  0.804882  1
  Nd  Nd2  1  0.022019  0.217136  0.804882  1
  Nd  Nd3  1  0.977981  0.782864  0.195118  1
  Nd  Nd4  1  0.181058  0.291598  0.472657  1
  Nd  Nd5  1  0.818942  0.708402  0.527343  1
  Nd  Nd6  1  0.181058  0.708402  0.889460  1
  Nd  Nd7  1  0.818942  0.291598  0.110540  1
  Nd  Nd8  1  0.323833  0.635582  0.311748  1
  Nd  Nd9  1  0.676167  0.364418  0.688252  1
  Nd  Nd10  1  0.323833  0.012085  0.688252  1
  Nd  Nd11  1  0.676167  0.987915  0.311748  1
  In  In12  1  0.500000  0.500000  0.000000  1
  Co  Co13  1  0.354028  0.000000  0.354028  1
  Co  Co14  1  0.645972  0.000000  0.645972  1
  Co  Co15  1  0.112642  0.612642  0.500000  1
  Co  Co16  1  0.887358  0.387358  0.500000  1
  Cu  Cu17  1  0.000000  0.000000  0.000000  1
