# generated using pymatgen
data_Li2Lu4MgZnPt4
_symmetry_space_group_name_H-M   'P 1'
_cell_length_a   4.05333700
_cell_length_b   6.87906757
_cell_length_c   8.33292661
_cell_angle_alpha   90.07397852
_cell_angle_beta   90.00000000
_cell_angle_gamma   90.00000000
_symmetry_Int_Tables_number   1
_chemical_formula_structural   Li2Lu4MgZnPt4
_chemical_formula_sum   'Li2 Lu4 Mg1 Zn1 Pt4'
_cell_volume   232.34829128
_cell_formula_units_Z   1
loop_
 _symmetry_equiv_pos_site_id
 _symmetry_equiv_pos_as_xyz
  1  'x, y, z'
loop_
 _atom_site_type_symbol
 _atom_site_label
 _atom_site_symmetry_multiplicity
 _atom_site_fract_x
 _atom_site_fract_y
 _atom_site_fract_z
 _atom_site_occupancy
  Li  Li0  1  0.750000  0.364645  0.439925  1
  Li  Li1  1  0.750000  0.873344  0.054902  1
  Lu  Lu2  1  0.250000  0.543465  0.175054  1
  Lu  Lu3  1  0.750000  0.450178  0.829889  1
  Lu  Lu4  1  0.750000  0.961878  0.680390  1
  Lu  Lu5  1  0.250000  0.048469  0.319115  1
  Mg  Mg6  1  0.250000  0.627633  0.556675  1
  Zn  Zn7  1  0.250000  0.128443  0.943327  1
  Pt  Pt8  1  0.250000  0.746058  0.872382  1
  Pt  Pt9  1  0.750000  0.252948  0.128042  1
  Pt  Pt10  1  0.750000  0.758293  0.370818  1
  Pt  Pt11  1  0.250000  0.244645  0.629481  1
