# generated using pymatgen
data_Tb9Nd7Cd4Os3Pt
_symmetry_space_group_name_H-M   'P 1'
_cell_length_a   9.81031355
_cell_length_b   9.86765976
_cell_length_c   9.86066707
_cell_angle_alpha   59.67203144
_cell_angle_beta   59.53399112
_cell_angle_gamma   59.68471436
_symmetry_Int_Tables_number   1
_chemical_formula_structural   Tb9Nd7Cd4Os3Pt
_chemical_formula_sum   'Tb9 Nd7 Cd4 Os3 Pt1'
_cell_volume   669.30164693
_cell_formula_units_Z   1
loop_
 _symmetry_equiv_pos_site_id
 _symmetry_equiv_pos_as_xyz
  1  'x, y, z'
loop_
 _atom_site_type_symbol
 _atom_site_label
 _atom_site_symmetry_multiplicity
 _atom_site_fract_x
 _atom_site_fract_y
 _atom_site_fract_z
 _atom_site_occupancy
  Tb  Tb0  1  0.342578  0.348525  0.349250  1
  Tb  Tb1  1  0.344251  0.349552  0.959110  1
  Tb  Tb2  1  0.343296  0.961012  0.349413  1
  Tb  Tb3  1  0.969147  0.342259  0.345422  1
  Tb  Tb4  1  0.814642  0.190684  0.188335  1
  Tb  Tb5  1  0.188278  0.811875  0.810085  1
  Tb  Tb6  1  0.189527  0.810716  0.188354  1
  Tb  Tb7  1  0.815457  0.190430  0.804783  1
  Tb  Tb8  1  0.187073  0.188219  0.811458  1
  Nd  Nd9  1  0.816385  0.804962  0.188693  1
  Nd  Nd10  1  0.938693  0.558487  0.560490  1
  Nd  Nd11  1  0.553345  0.942580  0.940941  1
  Nd  Nd12  1  0.554182  0.940254  0.565041  1
  Nd  Nd13  1  0.941433  0.557269  0.942084  1
  Nd  Nd14  1  0.554699  0.564075  0.939769  1
  Nd  Nd15  1  0.940297  0.942858  0.558763  1
  Cd  Cd16  1  0.578608  0.577663  0.579502  1
  Cd  Cd17  1  0.578440  0.578000  0.262315  1
  Cd  Cd18  1  0.578809  0.262016  0.578951  1
  Cd  Cd19  1  0.260387  0.579421  0.579166  1
  Os  Os20  1  0.144075  0.137309  0.138973  1
  Os  Os21  1  0.144374  0.137125  0.580673  1
  Os  Os22  1  0.146478  0.578985  0.137989  1
  Pt  Pt23  1  0.575549  0.145725  0.140441  1
