# generated using pymatgen
data_Dy4YTm2P12Ir17
_symmetry_space_group_name_H-M   'P 1'
_cell_length_a   12.71156801
_cell_length_b   12.99848167
_cell_length_c   3.98292600
_cell_angle_alpha   90.00000000
_cell_angle_beta   90.00000000
_cell_angle_gamma   119.27785748
_symmetry_Int_Tables_number   1
_chemical_formula_structural   Dy4YTm2P12Ir17
_chemical_formula_sum   'Dy4 Y1 Tm2 P12 Ir17'
_cell_volume   574.03598302
_cell_formula_units_Z   1
loop_
 _symmetry_equiv_pos_site_id
 _symmetry_equiv_pos_as_xyz
  1  'x, y, z'
loop_
 _atom_site_type_symbol
 _atom_site_label
 _atom_site_symmetry_multiplicity
 _atom_site_fract_x
 _atom_site_fract_y
 _atom_site_fract_z
 _atom_site_occupancy
  Dy  Dy0  1  0.329844  0.662006  0.500000  1
  Dy  Dy1  1  0.667835  0.337995  0.500000  1
  Dy  Dy2  1  0.186030  0.183451  0.000000  1
  Dy  Dy3  1  0.810835  0.000013  0.000000  1
  Y  Y4  1  0.002600  0.816542  0.000000  1
  Tm  Tm5  1  0.996018  0.443787  0.500000  1
  Tm  Tm6  1  0.552199  0.556195  0.500000  1
  P  P7  1  0.009646  0.657699  0.500000  1
  P  P8  1  0.351801  0.342122  0.500000  1
  P  P9  1  0.644119  0.000013  0.500000  1
  P  P10  1  0.516390  0.690544  0.000000  1
  P  P11  1  0.309142  0.824403  0.000000  1
  P  P12  1  0.166684  0.480471  0.000000  1
  P  P13  1  0.484714  0.175576  0.000000  1
  P  P14  1  0.686240  0.519521  0.000000  1
  P  P15  1  0.825850  0.309460  0.000000  1
  P  P16  1  0.999397  0.174722  0.500000  1
  P  P17  1  0.824598  0.825342  0.500000  1
  P  P18  1  0.181680  0.000153  0.500000  1
  Ir  Ir19  1  0.504332  0.866012  0.000000  1
  Ir  Ir20  1  0.121908  0.645208  0.000000  1
  Ir  Ir21  1  0.357774  0.501427  0.000000  1
  Ir  Ir22  1  0.476625  0.354748  0.000000  1
  Ir  Ir23  1  0.856338  0.498534  0.000000  1
  Ir  Ir24  1  0.638319  0.133994  0.000000  1
  Ir  Ir25  1  0.465005  0.000021  0.500000  1
  Ir  Ir26  1  0.996468  0.272313  0.000000  1
  Ir  Ir27  1  0.724047  0.727643  0.000000  1
  Ir  Ir28  1  0.287310  0.000059  0.000000  1
  Ir  Ir29  1  0.623963  0.810624  0.500000  1
  Ir  Ir30  1  0.208769  0.828551  0.500000  1
  Ir  Ir31  1  0.180581  0.364427  0.500000  1
  Ir  Ir32  1  0.380164  0.171456  0.500000  1
  Ir  Ir33  1  0.815983  0.635434  0.500000  1
  Ir  Ir34  1  0.813347  0.189392  0.500000  1
  Ir  Ir35  1  0.003442  0.000143  0.500000  1
