# generated using pymatgen
data_DyTcF7
_symmetry_space_group_name_H-M   'P 1'
_cell_length_a   5.59132900
_cell_length_b   8.91834189
_cell_length_c   12.05237365
_cell_angle_alpha   62.55143687
_cell_angle_beta   90.00000000
_cell_angle_gamma   90.00000000
_symmetry_Int_Tables_number   1
_chemical_formula_structural   DyTcF7
_chemical_formula_sum   'Dy4 Tc4 F28'
_cell_volume   533.33908888
_cell_formula_units_Z   4
loop_
 _symmetry_equiv_pos_site_id
 _symmetry_equiv_pos_as_xyz
  1  'x, y, z'
loop_
 _atom_site_type_symbol
 _atom_site_label
 _atom_site_symmetry_multiplicity
 _atom_site_fract_x
 _atom_site_fract_y
 _atom_site_fract_z
 _atom_site_occupancy
  Dy  Dy0  1  0.758100  0.813497  0.764929  1
  Dy  Dy1  1  0.258100  0.186503  0.735071  1
  Dy  Dy2  1  0.241900  0.186503  0.235071  1
  Dy  Dy3  1  0.741900  0.813497  0.264929  1
  Tc  Tc4  1  0.757577  0.272592  0.957273  1
  Tc  Tc5  1  0.257577  0.727408  0.542727  1
  Tc  Tc6  1  0.242423  0.727408  0.042727  1
  Tc  Tc7  1  0.742423  0.272592  0.457273  1
  F  F8  1  0.446727  0.706953  0.918128  1
  F  F9  1  0.946727  0.293047  0.581872  1
  F  F10  1  0.553273  0.293047  0.081872  1
  F  F11  1  0.053273  0.706953  0.418128  1
  F  F12  1  0.448609  0.277062  0.546319  1
  F  F13  1  0.948609  0.722938  0.953681  1
  F  F14  1  0.551391  0.722938  0.453681  1
  F  F15  1  0.051391  0.277062  0.046319  1
  F  F16  1  0.773869  0.519790  0.860124  1
  F  F17  1  0.273869  0.480210  0.639876  1
  F  F18  1  0.226131  0.480210  0.139876  1
  F  F19  1  0.726131  0.519790  0.360124  1
  F  F20  1  0.756815  0.026231  0.053685  1
  F  F21  1  0.256815  0.973769  0.446315  1
  F  F22  1  0.243185  0.973769  0.946315  1
  F  F23  1  0.743185  0.026231  0.553685  1
  F  F24  1  0.975790  0.729262  0.639429  1
  F  F25  1  0.475790  0.270738  0.860571  1
  F  F26  1  0.024210  0.270738  0.360571  1
  F  F27  1  0.524210  0.729262  0.139429  1
  F  F28  1  0.044609  0.746655  0.171179  1
  F  F29  1  0.544609  0.253345  0.328821  1
  F  F30  1  0.955391  0.253345  0.828821  1
  F  F31  1  0.455391  0.746655  0.671179  1
  F  F32  1  0.418766  0.970894  0.231768  1
  F  F33  1  0.918766  0.029106  0.268232  1
  F  F34  1  0.581234  0.029106  0.768232  1
  F  F35  1  0.081234  0.970894  0.731768  1
