# generated using pymatgen
data_TbY2CI3
_symmetry_space_group_name_H-M   'P 1'
_cell_length_a   3.92274100
_cell_length_b   8.73704404
_cell_length_c   11.92190347
_cell_angle_alpha   92.26246875
_cell_angle_beta   90.00000000
_cell_angle_gamma   90.00000000
_symmetry_Int_Tables_number   1
_chemical_formula_structural   TbY2CI3
_chemical_formula_sum   'Tb2 Y4 C2 I6'
_cell_volume   408.28279820
_cell_formula_units_Z   2
loop_
 _symmetry_equiv_pos_site_id
 _symmetry_equiv_pos_as_xyz
  1  'x, y, z'
loop_
 _atom_site_type_symbol
 _atom_site_label
 _atom_site_symmetry_multiplicity
 _atom_site_fract_x
 _atom_site_fract_y
 _atom_site_fract_z
 _atom_site_occupancy
  Tb  Tb0  1  0.250000  0.918519  0.599427  1
  Tb  Tb1  1  0.750000  0.081481  0.400573  1
  Y  Y2  1  0.250000  0.886817  0.187009  1
  Y  Y3  1  0.750000  0.113183  0.812991  1
  Y  Y4  1  0.250000  0.291977  0.615476  1
  Y  Y5  1  0.750000  0.708023  0.384524  1
  C  C6  1  0.250000  0.882690  0.386879  1
  C  C7  1  0.750000  0.117310  0.613121  1
  I  I8  1  0.250000  0.859512  0.873107  1
  I  I9  1  0.750000  0.140488  0.126893  1
  I  I10  1  0.250000  0.375112  0.871549  1
  I  I11  1  0.750000  0.624888  0.128451  1
  I  I12  1  0.250000  0.382834  0.367788  1
  I  I13  1  0.750000  0.617166  0.632212  1
