# generated using pymatgen
data_Ba3TbScSe6
_symmetry_space_group_name_H-M   'P 1'
_cell_length_a   8.76802014
_cell_length_b   8.76801904
_cell_length_c   8.76802015
_cell_angle_alpha   92.71768750
_cell_angle_beta   92.71768411
_cell_angle_gamma   92.71767935
_symmetry_Int_Tables_number   1
_chemical_formula_structural   Ba3TbScSe6
_chemical_formula_sum   'Ba6 Tb2 Sc2 Se12'
_cell_volume   671.72025387
_cell_formula_units_Z   2
loop_
 _symmetry_equiv_pos_site_id
 _symmetry_equiv_pos_as_xyz
  1  'x, y, z'
loop_
 _atom_site_type_symbol
 _atom_site_label
 _atom_site_symmetry_multiplicity
 _atom_site_fract_x
 _atom_site_fract_y
 _atom_site_fract_z
 _atom_site_occupancy
  Ba  Ba0  1  0.367770  0.750000  0.132230  1
  Ba  Ba1  1  0.132230  0.367770  0.750000  1
  Ba  Ba2  1  0.750000  0.132230  0.367770  1
  Ba  Ba3  1  0.632230  0.250000  0.867770  1
  Ba  Ba4  1  0.867770  0.632230  0.250000  1
  Ba  Ba5  1  0.250000  0.867770  0.632230  1
  Tb  Tb6  1  0.250000  0.250000  0.250000  1
  Tb  Tb7  1  0.750000  0.750000  0.750000  1
  Sc  Sc8  1  0.500000  0.500000  0.500000  1
  Sc  Sc9  1  0.000000  0.000000  0.000000  1
  Se  Se10  1  0.539349  0.411931  0.201070  1
  Se  Se11  1  0.201070  0.539349  0.411931  1
  Se  Se12  1  0.411931  0.201070  0.539349  1
  Se  Se13  1  0.960651  0.298930  0.088069  1
  Se  Se14  1  0.088069  0.960651  0.298930  1
  Se  Se15  1  0.298930  0.088069  0.960651  1
  Se  Se16  1  0.460651  0.588069  0.798930  1
  Se  Se17  1  0.798930  0.460651  0.588069  1
  Se  Se18  1  0.588069  0.798930  0.460651  1
  Se  Se19  1  0.039349  0.701070  0.911931  1
  Se  Se20  1  0.701070  0.911931  0.039349  1
  Se  Se21  1  0.911931  0.039349  0.701070  1
