# generated using pymatgen
data_Cs6Tm3IrBr18
_symmetry_space_group_name_H-M   'P 1'
_cell_length_a   7.98622100
_cell_length_b   7.98622139
_cell_length_c   20.14163500
_cell_angle_alpha   90.00000000
_cell_angle_beta   90.00000000
_cell_angle_gamma   119.99999426
_symmetry_Int_Tables_number   1
_chemical_formula_structural   Cs6Tm3IrBr18
_chemical_formula_sum   'Cs6 Tm3 Ir1 Br18'
_cell_volume   1112.52056467
_cell_formula_units_Z   1
loop_
 _symmetry_equiv_pos_site_id
 _symmetry_equiv_pos_as_xyz
  1  'x, y, z'
loop_
 _atom_site_type_symbol
 _atom_site_label
 _atom_site_symmetry_multiplicity
 _atom_site_fract_x
 _atom_site_fract_y
 _atom_site_fract_z
 _atom_site_occupancy
  Cs  Cs0  1  0.333333  0.666667  0.068223  1
  Cs  Cs1  1  0.666667  0.333333  0.932295  1
  Cs  Cs2  1  0.666667  0.333333  0.573716  1
  Cs  Cs3  1  0.333333  0.666667  0.436232  1
  Cs  Cs4  1  0.000000  0.000000  0.250395  1
  Cs  Cs5  1  0.000000  0.000000  0.745674  1
  Tm  Tm6  1  0.666667  0.333333  0.345379  1
  Tm  Tm7  1  0.666667  0.333333  0.155808  1
  Tm  Tm8  1  0.333333  0.666667  0.836310  1
  Ir  Ir9  1  0.333333  0.666667  0.668542  1
  Br  Br10  1  0.185409  0.370818  0.597252  1
  Br  Br11  1  0.832851  0.665701  0.413140  1
  Br  Br12  1  0.629182  0.814591  0.597252  1
  Br  Br13  1  0.832590  0.665181  0.087479  1
  Br  Br14  1  0.334299  0.167149  0.413140  1
  Br  Br15  1  0.168773  0.337546  0.906998  1
  Br  Br16  1  0.185409  0.814591  0.597252  1
  Br  Br17  1  0.334819  0.167410  0.087479  1
  Br  Br18  1  0.832851  0.167149  0.413140  1
  Br  Br19  1  0.662454  0.831227  0.906998  1
  Br  Br20  1  0.832590  0.167410  0.087479  1
  Br  Br21  1  0.168773  0.831227  0.906998  1
  Br  Br22  1  0.510665  0.021332  0.250253  1
  Br  Br23  1  0.486070  0.972139  0.740686  1
  Br  Br24  1  0.978668  0.489335  0.250253  1
  Br  Br25  1  0.027861  0.513930  0.740686  1
  Br  Br26  1  0.510665  0.489335  0.250253  1
  Br  Br27  1  0.486070  0.513930  0.740686  1
