# generated using pymatgen
data_Zr3NpF15
_symmetry_space_group_name_H-M   'P 1'
_cell_length_a   7.52445367
_cell_length_b   7.52445361
_cell_length_c   7.52445391
_cell_angle_alpha   112.67662469
_cell_angle_beta   112.67662559
_cell_angle_gamma   112.67662144
_symmetry_Int_Tables_number   1
_chemical_formula_structural   Zr3NpF15
_chemical_formula_sum   'Zr3 Np1 F15'
_cell_volume   282.42445265
_cell_formula_units_Z   1
loop_
 _symmetry_equiv_pos_site_id
 _symmetry_equiv_pos_as_xyz
  1  'x, y, z'
loop_
 _atom_site_type_symbol
 _atom_site_label
 _atom_site_symmetry_multiplicity
 _atom_site_fract_x
 _atom_site_fract_y
 _atom_site_fract_z
 _atom_site_occupancy
  Zr  Zr0  1  0.360915  0.792010  0.360915  1
  Zr  Zr1  1  0.360915  0.360915  0.792010  1
  Zr  Zr2  1  0.792010  0.360915  0.360915  1
  Np  Np3  1  0.998899  0.998899  0.998899  1
  F  F4  1  0.647007  0.433271  0.103654  1
  F  F5  1  0.103654  0.647007  0.433271  1
  F  F6  1  0.103654  0.433271  0.647007  1
  F  F7  1  0.433271  0.103654  0.647007  1
  F  F8  1  0.433271  0.647007  0.103654  1
  F  F9  1  0.647007  0.103654  0.433271  1
  F  F10  1  0.101478  0.761688  0.101478  1
  F  F11  1  0.101478  0.101478  0.761687  1
  F  F12  1  0.761687  0.101478  0.101478  1
  F  F13  1  0.642626  0.864303  0.642626  1
  F  F14  1  0.642626  0.642626  0.864303  1
  F  F15  1  0.864303  0.642626  0.642626  1
  F  F16  1  0.184057  0.420010  0.184057  1
  F  F17  1  0.184057  0.184057  0.420010  1
  F  F18  1  0.420010  0.184057  0.184057  1
