# generated using pymatgen
data_Pr9ThAl2(GaRu3)2
_symmetry_space_group_name_H-M   'P 1'
_cell_length_a   8.63204162
_cell_length_b   8.58370043
_cell_length_c   8.56185161
_cell_angle_alpha   108.96998261
_cell_angle_beta   109.88827286
_cell_angle_gamma   109.46967515
_symmetry_Int_Tables_number   1
_chemical_formula_structural   Pr9ThAl2(GaRu3)2
_chemical_formula_sum   'Pr9 Th1 Al2 Ga2 Ru6'
_cell_volume   488.84543361
_cell_formula_units_Z   1
loop_
 _symmetry_equiv_pos_site_id
 _symmetry_equiv_pos_as_xyz
  1  'x, y, z'
loop_
 _atom_site_type_symbol
 _atom_site_label
 _atom_site_symmetry_multiplicity
 _atom_site_fract_x
 _atom_site_fract_y
 _atom_site_fract_z
 _atom_site_occupancy
  Pr  Pr0  1  0.748941  0.813568  0.061572  1
  Pr  Pr1  1  0.438133  0.251223  0.687628  1
  Pr  Pr2  1  0.684409  0.436553  0.249638  1
  Pr  Pr3  1  0.062514  0.749951  0.813086  1
  Pr  Pr4  1  0.813259  0.062851  0.751738  1
  Pr  Pr5  1  0.218688  0.217323  0.219274  1
  Pr  Pr6  1  0.503425  0.999890  0.284425  1
  Pr  Pr7  1  0.281852  0.499224  0.996913  1
  Pr  Pr8  1  0.997462  0.283163  0.498097  1
  Th  Th9  1  0.250615  0.690872  0.441973  1
  Al  Al10  1  0.907837  0.497672  0.999899  1
  Al  Al11  1  0.997894  0.909092  0.501708  1
  Ga  Ga12  1  0.593161  0.591276  0.590132  1
  Ga  Ga13  1  0.501484  0.005337  0.912358  1
  Ru  Ru14  1  0.247677  0.120387  0.870057  1
  Ru  Ru15  1  0.750804  0.379607  0.632215  1
  Ru  Ru16  1  0.875577  0.253729  0.124302  1
  Ru  Ru17  1  0.126530  0.854798  0.260980  1
  Ru  Ru18  1  0.628033  0.750847  0.376290  1
  Ru  Ru19  1  0.371705  0.632636  0.727714  1
