# generated using pymatgen
data_Sm8GaCuPt23
_symmetry_space_group_name_H-M   'P 1'
_cell_length_a   8.44492900
_cell_length_b   8.44492900
_cell_length_c   8.46347500
_cell_angle_alpha   90.00000000
_cell_angle_beta   90.00000000
_cell_angle_gamma   90.00000000
_symmetry_Int_Tables_number   1
_chemical_formula_structural   Sm8GaCuPt23
_chemical_formula_sum   'Sm8 Ga1 Cu1 Pt23'
_cell_volume   603.58817236
_cell_formula_units_Z   1
loop_
 _symmetry_equiv_pos_site_id
 _symmetry_equiv_pos_as_xyz
  1  'x, y, z'
loop_
 _atom_site_type_symbol
 _atom_site_label
 _atom_site_symmetry_multiplicity
 _atom_site_fract_x
 _atom_site_fract_y
 _atom_site_fract_z
 _atom_site_occupancy
  Sm  Sm0  1  0.251963  0.251963  0.253977  1
  Sm  Sm1  1  0.749050  0.749050  0.751212  1
  Sm  Sm2  1  0.748037  0.748037  0.253977  1
  Sm  Sm3  1  0.749050  0.250950  0.751212  1
  Sm  Sm4  1  0.250950  0.250950  0.751212  1
  Sm  Sm5  1  0.251963  0.748037  0.253977  1
  Sm  Sm6  1  0.250950  0.749050  0.751212  1
  Sm  Sm7  1  0.748037  0.251963  0.253977  1
  Ga  Ga8  1  0.000000  0.000000  0.975970  1
  Cu  Cu9  1  0.000000  0.000000  0.660810  1
  Pt  Pt10  1  0.260168  0.500000  0.001611  1
  Pt  Pt11  1  0.739832  0.500000  0.001611  1
  Pt  Pt12  1  0.000000  0.261108  0.502028  1
  Pt  Pt13  1  0.500000  0.260168  0.001611  1
  Pt  Pt14  1  0.000000  0.738892  0.502028  1
  Pt  Pt15  1  0.500000  0.739832  0.001611  1
  Pt  Pt16  1  0.500000  0.000000  0.263349  1
  Pt  Pt17  1  0.261108  0.000000  0.502028  1
  Pt  Pt18  1  0.500000  0.000000  0.742886  1
  Pt  Pt19  1  0.738892  0.000000  0.502028  1
  Pt  Pt20  1  0.000000  0.500000  0.263349  1
  Pt  Pt21  1  0.000000  0.500000  0.742886  1
  Pt  Pt22  1  0.252607  0.500000  0.503553  1
  Pt  Pt23  1  0.747393  0.500000  0.503553  1
  Pt  Pt24  1  0.500000  0.252607  0.503553  1
  Pt  Pt25  1  0.500000  0.747393  0.503553  1
  Pt  Pt26  1  0.500000  0.500000  0.255805  1
  Pt  Pt27  1  0.500000  0.500000  0.749508  1
  Pt  Pt28  1  0.291737  0.000000  0.003230  1
  Pt  Pt29  1  0.708263  0.000000  0.003230  1
  Pt  Pt30  1  0.000000  0.291737  0.003230  1
  Pt  Pt31  1  0.000000  0.708263  0.003230  1
  Pt  Pt32  1  0.000000  0.000000  0.282988  1
