# generated using pymatgen
data_Er3Lu9Co5Bi
_symmetry_space_group_name_H-M   'P 1'
_cell_length_a   8.14769997
_cell_length_b   8.14262237
_cell_length_c   8.14769927
_cell_angle_alpha   110.89381923
_cell_angle_beta   111.15546737
_cell_angle_gamma   106.43105932
_symmetry_Int_Tables_number   1
_chemical_formula_structural   Er3Lu9Co5Bi
_chemical_formula_sum   'Er3 Lu9 Co5 Bi1'
_cell_volume   415.11002691
_cell_formula_units_Z   1
loop_
 _symmetry_equiv_pos_site_id
 _symmetry_equiv_pos_as_xyz
  1  'x, y, z'
loop_
 _atom_site_type_symbol
 _atom_site_label
 _atom_site_symmetry_multiplicity
 _atom_site_fract_x
 _atom_site_fract_y
 _atom_site_fract_z
 _atom_site_occupancy
  Er  Er0  1  0.788825  0.593089  0.804263  1
  Er  Er1  1  0.211124  0.015762  0.804638  1
  Er  Er2  1  0.788463  0.984925  0.196463  1
  Lu  Lu3  1  0.285012  0.182622  0.466690  1
  Lu  Lu4  1  0.713363  0.816785  0.530842  1
  Lu  Lu5  1  0.285943  0.816785  0.103421  1
  Lu  Lu6  1  0.715932  0.182622  0.897610  1
  Lu  Lu7  1  0.620899  0.312576  0.309541  1
  Lu  Lu8  1  0.377945  0.686994  0.689871  1
  Lu  Lu9  1  0.003036  0.312576  0.691677  1
  Lu  Lu10  1  0.997122  0.686994  0.309049  1
  Lu  Lu11  1  0.211831  0.408557  0.196726  1
  Co  Co12  1  0.000471  0.373733  0.373261  1
  Co  Co13  1  0.999452  0.624377  0.624925  1
  Co  Co14  1  0.387659  0.886059  0.498400  1
  Co  Co15  1  0.611907  0.112084  0.500177  1
  Co  Co16  1  0.001341  0.003568  0.002227  1
  Bi  Bi17  1  0.499674  0.499894  0.000219  1
