# generated using pymatgen
data_SrY6FeBr12
_symmetry_space_group_name_H-M   'P 1'
_cell_length_a   9.21192383
_cell_length_b   9.21192312
_cell_length_c   9.21192271
_cell_angle_alpha   106.02919721
_cell_angle_beta   106.02919762
_cell_angle_gamma   106.02917616
_symmetry_Int_Tables_number   1
_chemical_formula_structural   SrY6FeBr12
_chemical_formula_sum   'Sr1 Y6 Fe1 Br12'
_cell_volume   667.51441874
_cell_formula_units_Z   1
loop_
 _symmetry_equiv_pos_site_id
 _symmetry_equiv_pos_as_xyz
  1  'x, y, z'
loop_
 _atom_site_type_symbol
 _atom_site_label
 _atom_site_symmetry_multiplicity
 _atom_site_fract_x
 _atom_site_fract_y
 _atom_site_fract_z
 _atom_site_occupancy
  Sr  Sr0  1  0.500000  0.500000  0.500000  1
  Y  Y1  1  0.095092  0.301257  0.017372  1
  Y  Y2  1  0.017372  0.095092  0.301257  1
  Y  Y3  1  0.301257  0.017372  0.095092  1
  Y  Y4  1  0.904908  0.698743  0.982628  1
  Y  Y5  1  0.982628  0.904908  0.698743  1
  Y  Y6  1  0.698743  0.982628  0.904908  1
  Fe  Fe7  1  0.000000  0.000000  0.000000  1
  Br  Br8  1  0.442976  0.363575  0.138383  1
  Br  Br9  1  0.138383  0.442976  0.363575  1
  Br  Br10  1  0.363575  0.138383  0.442976  1
  Br  Br11  1  0.557024  0.636425  0.861617  1
  Br  Br12  1  0.861617  0.557024  0.636425  1
  Br  Br13  1  0.636425  0.861617  0.557024  1
  Br  Br14  1  0.778287  0.323199  0.926056  1
  Br  Br15  1  0.926056  0.778287  0.323199  1
  Br  Br16  1  0.323199  0.926056  0.778287  1
  Br  Br17  1  0.221713  0.676801  0.073944  1
  Br  Br18  1  0.073944  0.221713  0.676801  1
  Br  Br19  1  0.676801  0.073944  0.221713  1
