# generated using pymatgen
data_Ba2AuBrO2
_symmetry_space_group_name_H-M   'P 1'
_cell_length_a   10.43787673
_cell_length_b   10.43787703
_cell_length_c   10.43787739
_cell_angle_alpha   24.34766753
_cell_angle_beta   24.34766326
_cell_angle_gamma   24.34766846
_symmetry_Int_Tables_number   1
_chemical_formula_structural   Ba2AuBrO2
_chemical_formula_sum   'Ba2 Au1 Br1 O2'
_cell_volume   169.90983573
_cell_formula_units_Z   1
loop_
 _symmetry_equiv_pos_site_id
 _symmetry_equiv_pos_as_xyz
  1  'x, y, z'
loop_
 _atom_site_type_symbol
 _atom_site_label
 _atom_site_symmetry_multiplicity
 _atom_site_fract_x
 _atom_site_fract_y
 _atom_site_fract_z
 _atom_site_occupancy
  Ba  Ba0  1  0.253651  0.253651  0.253651  1
  Ba  Ba1  1  0.746349  0.746349  0.746349  1
  Au  Au2  1  0.500000  0.500000  0.500000  1
  Br  Br3  1  0.000000  0.000000  0.000000  1
  O  O4  1  0.433069  0.433069  0.433069  1
  O  O5  1  0.566931  0.566931  0.566931  1
