# generated using pymatgen
data_Sc6Al6SnAu5
_symmetry_space_group_name_H-M   'P 1'
_cell_length_a   7.02363800
_cell_length_b   7.02363842
_cell_length_c   8.09327000
_cell_angle_alpha   90.00000000
_cell_angle_beta   90.00000000
_cell_angle_gamma   119.99998859
_symmetry_Int_Tables_number   1
_chemical_formula_structural   Sc6Al6SnAu5
_chemical_formula_sum   'Sc6 Al6 Sn1 Au5'
_cell_volume   345.76336532
_cell_formula_units_Z   1
loop_
 _symmetry_equiv_pos_site_id
 _symmetry_equiv_pos_as_xyz
  1  'x, y, z'
loop_
 _atom_site_type_symbol
 _atom_site_label
 _atom_site_symmetry_multiplicity
 _atom_site_fract_x
 _atom_site_fract_y
 _atom_site_fract_z
 _atom_site_occupancy
  Sc  Sc0  1  0.582143  0.995394  0.739906  1
  Sc  Sc1  1  0.004606  0.586749  0.739906  1
  Sc  Sc2  1  0.413251  0.417857  0.739906  1
  Sc  Sc3  1  0.002955  0.586175  0.260015  1
  Sc  Sc4  1  0.583220  0.997045  0.260015  1
  Sc  Sc5  1  0.413825  0.416780  0.260015  1
  Al  Al6  1  0.746697  0.768428  0.000065  1
  Al  Al7  1  0.231572  0.978269  0.000065  1
  Al  Al8  1  0.021731  0.253303  0.000065  1
  Al  Al9  1  0.754915  0.752368  0.500027  1
  Al  Al10  1  0.247632  0.002547  0.500027  1
  Al  Al11  1  0.997453  0.245085  0.500027  1
  Sn  Sn12  1  0.666667  0.333333  0.999297  1
  Au  Au13  1  0.000000  0.000000  0.751159  1
  Au  Au14  1  0.000000  0.000000  0.248906  1
  Au  Au15  1  0.666667  0.333333  0.500813  1
  Au  Au16  1  0.333333  0.666667  0.498725  1
  Au  Au17  1  0.333333  0.666667  0.001060  1
