# generated using pymatgen
data_Cs4NbBiBr12
_symmetry_space_group_name_H-M   'P 1'
_cell_length_a   13.89909218
_cell_length_b   13.89909349
_cell_length_c   13.89895367
_cell_angle_alpha   131.65377336
_cell_angle_beta   131.65378050
_cell_angle_gamma   70.77565106
_symmetry_Int_Tables_number   1
_chemical_formula_structural   Cs4NbBiBr12
_chemical_formula_sum   'Cs8 Nb2 Bi2 Br24'
_cell_volume   1468.26130390
_cell_formula_units_Z   2
loop_
 _symmetry_equiv_pos_site_id
 _symmetry_equiv_pos_as_xyz
  1  'x, y, z'
loop_
 _atom_site_type_symbol
 _atom_site_label
 _atom_site_symmetry_multiplicity
 _atom_site_fract_x
 _atom_site_fract_y
 _atom_site_fract_z
 _atom_site_occupancy
  Cs  Cs0  1  0.374999  0.842285  0.967283  1
  Cs  Cs1  1  0.592285  0.624999  0.467283  1
  Cs  Cs2  1  0.874998  0.842284  0.467283  1
  Cs  Cs3  1  0.592284  0.124998  0.967283  1
  Cs  Cs4  1  0.875002  0.407716  0.032717  1
  Cs  Cs5  1  0.157716  0.125002  0.532717  1
  Cs  Cs6  1  0.375001  0.407715  0.532717  1
  Cs  Cs7  1  0.157715  0.625001  0.032717  1
  Nb  Nb8  1  0.999996  0.000004  0.000000  1
  Nb  Nb9  1  0.750004  0.249996  0.500000  1
  Bi  Bi10  1  0.499996  0.500004  0.000000  1
  Bi  Bi11  1  0.250004  0.749996  0.500000  1
  Br  Br12  1  0.749115  0.495418  0.253697  1
  Br  Br13  1  0.504582  0.250885  0.746303  1
  Br  Br14  1  0.372707  0.372706  0.999998  1
  Br  Br15  1  0.122706  0.622707  0.499998  1
  Br  Br16  1  0.377293  0.877294  0.500002  1
  Br  Br17  1  0.627294  0.627293  0.000002  1
  Br  Br18  1  0.112325  0.112324  0.000001  1
  Br  Br19  1  0.862324  0.362325  0.500001  1
  Br  Br20  1  0.637675  0.137676  0.499999  1
  Br  Br21  1  0.887676  0.887675  0.999999  1
  Br  Br22  1  0.225854  0.001425  0.224427  1
  Br  Br23  1  0.751426  0.027013  0.275586  1
  Br  Br24  1  0.504571  0.758274  0.253701  1
  Br  Br25  1  0.524146  0.248575  0.275573  1
  Br  Br26  1  0.972987  0.248574  0.724414  1
  Br  Br27  1  0.998574  0.222987  0.224414  1
  Br  Br28  1  0.998575  0.774146  0.775573  1
  Br  Br29  1  0.777013  0.001426  0.775586  1
  Br  Br30  1  0.751425  0.475854  0.724427  1
  Br  Br31  1  0.245429  0.491726  0.246299  1
  Br  Br32  1  0.245418  0.999115  0.753697  1
  Br  Br33  1  0.000885  0.754582  0.246303  1
  Br  Br34  1  0.508274  0.754571  0.753701  1
  Br  Br35  1  0.241726  0.495429  0.746299  1
