# generated using pymatgen
data_Nd2EuTh(ZnRh)4
_symmetry_space_group_name_H-M   'P 1'
_cell_length_a   4.00022400
_cell_length_b   7.43299600
_cell_length_c   16.72489700
_cell_angle_alpha   90.00000000
_cell_angle_beta   90.00000000
_cell_angle_gamma   90.00000000
_symmetry_Int_Tables_number   1
_chemical_formula_structural   Nd2EuTh(ZnRh)4
_chemical_formula_sum   'Nd4 Eu2 Th2 Zn8 Rh8'
_cell_volume   497.29221681
_cell_formula_units_Z   2
loop_
 _symmetry_equiv_pos_site_id
 _symmetry_equiv_pos_as_xyz
  1  'x, y, z'
loop_
 _atom_site_type_symbol
 _atom_site_label
 _atom_site_symmetry_multiplicity
 _atom_site_fract_x
 _atom_site_fract_y
 _atom_site_fract_z
 _atom_site_occupancy
  Nd  Nd0  1  0.750000  0.330170  0.437973  1
  Nd  Nd1  1  0.750000  0.947409  0.284545  1
  Nd  Nd2  1  0.750000  0.830170  0.062027  1
  Nd  Nd3  1  0.750000  0.447409  0.215455  1
  Eu  Eu4  1  0.250000  0.050114  0.715339  1
  Eu  Eu5  1  0.250000  0.550114  0.784661  1
  Th  Th6  1  0.250000  0.168738  0.939510  1
  Th  Th7  1  0.250000  0.668738  0.560490  1
  Zn  Zn8  1  0.750000  0.012907  0.560065  1
  Zn  Zn9  1  0.250000  0.621964  0.348486  1
  Zn  Zn10  1  0.750000  0.377391  0.653695  1
  Zn  Zn11  1  0.250000  0.502506  0.059721  1
  Zn  Zn12  1  0.750000  0.512907  0.939935  1
  Zn  Zn13  1  0.250000  0.002506  0.440279  1
  Zn  Zn14  1  0.250000  0.121964  0.151514  1
  Zn  Zn15  1  0.750000  0.877391  0.846305  1
  Rh  Rh16  1  0.750000  0.747700  0.441708  1
  Rh  Rh17  1  0.250000  0.236875  0.310850  1
  Rh  Rh18  1  0.750000  0.246650  0.825905  1
  Rh  Rh19  1  0.750000  0.746650  0.674095  1
  Rh  Rh20  1  0.250000  0.257577  0.564930  1
  Rh  Rh21  1  0.250000  0.736875  0.189150  1
  Rh  Rh22  1  0.750000  0.247700  0.058292  1
  Rh  Rh23  1  0.250000  0.757577  0.935070  1
