# generated using pymatgen
data_GdY2Er(NiPt)2
_symmetry_space_group_name_H-M   'P 1'
_cell_length_a   4.36964400
_cell_length_b   5.54326726
_cell_length_c   7.12865134
_cell_angle_alpha   89.96477735
_cell_angle_beta   90.00000000
_cell_angle_gamma   90.00000000
_symmetry_Int_Tables_number   1
_chemical_formula_structural   GdY2Er(NiPt)2
_chemical_formula_sum   'Gd1 Y2 Er1 Ni2 Pt2'
_cell_volume   172.67090522
_cell_formula_units_Z   1
loop_
 _symmetry_equiv_pos_site_id
 _symmetry_equiv_pos_as_xyz
  1  'x, y, z'
loop_
 _atom_site_type_symbol
 _atom_site_label
 _atom_site_symmetry_multiplicity
 _atom_site_fract_x
 _atom_site_fract_y
 _atom_site_fract_z
 _atom_site_occupancy
  Gd  Gd0  1  0.000000  0.118078  0.679419  1
  Y  Y1  1  0.500000  0.385454  0.319036  1
  Y  Y2  1  0.500000  0.614772  0.819564  1
  Er  Er3  1  0.000000  0.882062  0.179712  1
  Ni  Ni4  1  0.000000  0.612909  0.541246  1
  Ni  Ni5  1  0.000000  0.387316  0.041566  1
  Pt  Pt6  1  0.500000  0.886910  0.459027  1
  Pt  Pt7  1  0.500000  0.112499  0.960431  1
