# generated using pymatgen
data_Tb5Ho5(SnSb)3
_symmetry_space_group_name_H-M   'P 1'
_cell_length_a   9.00191900
_cell_length_b   8.99352015
_cell_length_c   6.40538900
_cell_angle_alpha   90.00000000
_cell_angle_beta   90.00000000
_cell_angle_gamma   120.03090829
_symmetry_Int_Tables_number   1
_chemical_formula_structural   Tb5Ho5(SnSb)3
_chemical_formula_sum   'Tb5 Ho5 Sn3 Sb3'
_cell_volume   448.95788939
_cell_formula_units_Z   1
loop_
 _symmetry_equiv_pos_site_id
 _symmetry_equiv_pos_as_xyz
  1  'x, y, z'
loop_
 _atom_site_type_symbol
 _atom_site_label
 _atom_site_symmetry_multiplicity
 _atom_site_fract_x
 _atom_site_fract_y
 _atom_site_fract_z
 _atom_site_occupancy
  Tb  Tb0  1  0.758280  0.000000  0.000000  1
  Tb  Tb1  1  0.000109  0.758476  0.000000  1
  Tb  Tb2  1  0.241633  0.241524  0.000000  1
  Tb  Tb3  1  0.000025  0.242068  0.500000  1
  Tb  Tb4  1  0.757957  0.757932  0.500000  1
  Ho  Ho5  1  0.242277  0.000000  0.500000  1
  Ho  Ho6  1  0.333264  0.666641  0.251037  1
  Ho  Ho7  1  0.666624  0.333359  0.251037  1
  Ho  Ho8  1  0.666624  0.333359  0.748963  1
  Ho  Ho9  1  0.333264  0.666641  0.748963  1
  Sn  Sn10  1  0.606699  0.000000  0.500000  1
  Sn  Sn11  1  0.000342  0.607490  0.500000  1
  Sn  Sn12  1  0.392852  0.392510  0.500000  1
  Sb  Sb13  1  0.392758  0.000000  0.000000  1
  Sb  Sb14  1  0.000030  0.392770  0.000000  1
  Sb  Sb15  1  0.607260  0.607230  0.000000  1
