# generated using pymatgen
data_LiFe(CoO2)4
_symmetry_space_group_name_H-M   'P 1'
_cell_length_a   5.73776143
_cell_length_b   5.73776189
_cell_length_c   5.73776100
_cell_angle_alpha   59.99999938
_cell_angle_beta   59.99999674
_cell_angle_gamma   60.00000046
_symmetry_Int_Tables_number   1
_chemical_formula_structural   LiFe(CoO2)4
_chemical_formula_sum   'Li1 Fe1 Co4 O8'
_cell_volume   133.57108510
_cell_formula_units_Z   1
loop_
 _symmetry_equiv_pos_site_id
 _symmetry_equiv_pos_as_xyz
  1  'x, y, z'
loop_
 _atom_site_type_symbol
 _atom_site_label
 _atom_site_symmetry_multiplicity
 _atom_site_fract_x
 _atom_site_fract_y
 _atom_site_fract_z
 _atom_site_occupancy
  Li  Li0  1  0.875000  0.874999  0.875001  1
  Fe  Fe1  1  0.125002  0.124999  0.125000  1
  Co  Co2  1  0.502601  0.502604  0.502603  1
  Co  Co3  1  0.502604  0.992190  0.502603  1
  Co  Co4  1  0.992191  0.502604  0.502603  1
  Co  Co5  1  0.502601  0.502604  0.992191  1
  O  O6  1  0.261151  0.261148  0.716553  1
  O  O7  1  0.735780  0.735781  0.735779  1
  O  O8  1  0.735780  0.735781  0.292660  1
  O  O9  1  0.261149  0.716553  0.261149  1
  O  O10  1  0.261151  0.261148  0.261148  1
  O  O11  1  0.292662  0.735781  0.735781  1
  O  O12  1  0.735780  0.292661  0.735782  1
  O  O13  1  0.716555  0.261148  0.261149  1
