# generated using pymatgen
data_Fe3Ni16(B3Rh2)2
_symmetry_space_group_name_H-M   'P 1'
_cell_length_a   7.54047784
_cell_length_b   7.54102282
_cell_length_c   7.54231306
_cell_angle_alpha   59.99874535
_cell_angle_beta   59.98047976
_cell_angle_gamma   59.98150234
_symmetry_Int_Tables_number   1
_chemical_formula_structural   Fe3Ni16(B3Rh2)2
_chemical_formula_sum   'Fe3 Ni16 B6 Rh4'
_cell_volume   303.17244261
_cell_formula_units_Z   1
loop_
 _symmetry_equiv_pos_site_id
 _symmetry_equiv_pos_as_xyz
  1  'x, y, z'
loop_
 _atom_site_type_symbol
 _atom_site_label
 _atom_site_symmetry_multiplicity
 _atom_site_fract_x
 _atom_site_fract_y
 _atom_site_fract_z
 _atom_site_occupancy
  Fe  Fe0  1  0.000026  0.999984  0.000004  1
  Fe  Fe1  1  0.749981  0.750006  0.750007  1
  Fe  Fe2  1  0.249922  0.250021  0.250015  1
  Ni  Ni3  1  0.376316  0.376383  0.870924  1
  Ni  Ni4  1  0.376297  0.870934  0.376406  1
  Ni  Ni5  1  0.870944  0.376341  0.376360  1
  Ni  Ni6  1  0.376321  0.376376  0.376380  1
  Ni  Ni7  1  0.003248  0.003205  0.331173  1
  Ni  Ni8  1  0.662452  0.003211  0.331111  1
  Ni  Ni9  1  0.003247  0.662338  0.331189  1
  Ni  Ni10  1  0.662430  0.331104  0.003209  1
  Ni  Ni11  1  0.003251  0.331163  0.003198  1
  Ni  Ni12  1  0.003234  0.331170  0.662360  1
  Ni  Ni13  1  0.331122  0.662409  0.003236  1
  Ni  Ni14  1  0.331126  0.003235  0.662420  1
  Ni  Ni15  1  0.331159  0.003226  0.003215  1
  Ni  Ni16  1  0.003197  0.003207  0.662440  1
  Ni  Ni17  1  0.003221  0.662434  0.003206  1
  Ni  Ni18  1  0.662493  0.003216  0.003189  1
  B  B19  1  0.731647  0.731524  0.268430  1
  B  B20  1  0.268377  0.731613  0.268374  1
  B  B21  1  0.731663  0.268395  0.268371  1
  B  B22  1  0.268362  0.268383  0.731626  1
  B  B23  1  0.731630  0.268447  0.731514  1
  B  B24  1  0.268368  0.731633  0.731642  1
  Rh  Rh25  1  0.618168  0.618206  0.145402  1
  Rh  Rh26  1  0.618169  0.145431  0.618197  1
  Rh  Rh27  1  0.145476  0.618187  0.618177  1
  Rh  Rh28  1  0.618153  0.618217  0.618223  1
