# generated using pymatgen
data_Tb4(Pd3Au)3
_symmetry_space_group_name_H-M   'P 1'
_cell_length_a   7.22176940
_cell_length_b   7.22177053
_cell_length_c   7.22177062
_cell_angle_alpha   108.39730218
_cell_angle_beta   108.39731084
_cell_angle_gamma   111.64108222
_symmetry_Int_Tables_number   1
_chemical_formula_structural   Tb4(Pd3Au)3
_chemical_formula_sum   'Tb4 Pd9 Au3'
_cell_volume   289.62745435
_cell_formula_units_Z   1
loop_
 _symmetry_equiv_pos_site_id
 _symmetry_equiv_pos_as_xyz
  1  'x, y, z'
loop_
 _atom_site_type_symbol
 _atom_site_label
 _atom_site_symmetry_multiplicity
 _atom_site_fract_x
 _atom_site_fract_y
 _atom_site_fract_z
 _atom_site_occupancy
  Tb  Tb0  1  0.246158  0.246158  0.492316  1
  Tb  Tb1  1  0.753842  0.753842  0.507684  1
  Tb  Tb2  1  0.246158  0.753842  0.000000  1
  Tb  Tb3  1  0.753842  0.246158  0.000000  1
  Pd  Pd4  1  0.499856  0.250854  0.249001  1
  Pd  Pd5  1  0.500144  0.749146  0.750999  1
  Pd  Pd6  1  0.001853  0.250854  0.750999  1
  Pd  Pd7  1  0.250854  0.001853  0.750999  1
  Pd  Pd8  1  0.998147  0.749146  0.249001  1
  Pd  Pd9  1  0.749146  0.998147  0.249001  1
  Pd  Pd10  1  0.250854  0.499856  0.249001  1
  Pd  Pd11  1  0.749146  0.500144  0.750999  1
  Pd  Pd12  1  0.000000  0.000000  0.000000  1
  Au  Au13  1  0.500000  0.000000  0.500000  1
  Au  Au14  1  0.000000  0.500000  0.500000  1
  Au  Au15  1  0.500000  0.500000  0.000000  1
