# generated using pymatgen
data_Nb5SiNi4P3
_symmetry_space_group_name_H-M   'P 1'
_cell_length_a   7.30031260
_cell_length_b   7.30031247
_cell_length_c   7.32310672
_cell_angle_alpha   93.45662317
_cell_angle_beta   93.27645449
_cell_angle_gamma   151.90729824
_symmetry_Int_Tables_number   1
_chemical_formula_structural   Nb5SiNi4P3
_chemical_formula_sum   'Nb5 Si1 Ni4 P3'
_cell_volume   178.32272863
_cell_formula_units_Z   1
loop_
 _symmetry_equiv_pos_site_id
 _symmetry_equiv_pos_as_xyz
  1  'x, y, z'
loop_
 _atom_site_type_symbol
 _atom_site_label
 _atom_site_symmetry_multiplicity
 _atom_site_fract_x
 _atom_site_fract_y
 _atom_site_fract_z
 _atom_site_occupancy
  Nb  Nb0  1  0.806726  0.130962  0.937688  1
  Nb  Nb1  1  0.130442  0.196794  0.327236  1
  Nb  Nb2  1  0.868077  0.805289  0.673367  1
  Nb  Nb3  1  0.195691  0.871383  0.067074  1
  Nb  Nb4  1  0.499852  0.501274  0.001125  1
  Si  Si5  1  0.555810  0.238608  0.794418  1
  Ni  Ni6  1  0.915455  0.390047  0.305502  1
  Ni  Ni7  1  0.084391  0.604985  0.689377  1
  Ni  Ni8  1  0.610003  0.916635  0.526637  1
  Ni  Ni9  1  0.387811  0.082128  0.469941  1
  P  P10  1  0.241518  0.444586  0.686103  1
  P  P11  1  0.759052  0.556098  0.315150  1
  P  P12  1  0.445172  0.761209  0.206382  1
