# generated using pymatgen
data_Y4ThSn3N
_symmetry_space_group_name_H-M   'P 1'
_cell_length_a   9.00959814
_cell_length_b   9.05252285
_cell_length_c   6.47818100
_cell_angle_alpha   90.00000000
_cell_angle_beta   90.00000000
_cell_angle_gamma   120.15772333
_symmetry_Int_Tables_number   1
_chemical_formula_structural   Y4ThSn3N
_chemical_formula_sum   'Y8 Th2 Sn6 N2'
_cell_volume   456.84231987
_cell_formula_units_Z   2
loop_
 _symmetry_equiv_pos_site_id
 _symmetry_equiv_pos_as_xyz
  1  'x, y, z'
loop_
 _atom_site_type_symbol
 _atom_site_label
 _atom_site_symmetry_multiplicity
 _atom_site_fract_x
 _atom_site_fract_y
 _atom_site_fract_z
 _atom_site_occupancy
  Y  Y0  1  0.665962  0.333176  0.000239  1
  Y  Y1  1  0.334038  0.667215  0.000239  1
  Y  Y2  1  0.334038  0.667215  0.499761  1
  Y  Y3  1  0.665962  0.333176  0.499761  1
  Y  Y4  1  0.000000  0.223385  0.750000  1
  Y  Y5  1  0.215660  0.216905  0.250000  1
  Y  Y6  1  0.784340  0.001245  0.250000  1
  Y  Y7  1  0.000000  0.781686  0.250000  1
  Th  Th8  1  0.781038  0.782513  0.750000  1
  Th  Th9  1  0.218962  0.001475  0.750000  1
  Sn  Sn10  1  0.402987  0.406362  0.750000  1
  Sn  Sn11  1  0.597013  0.003374  0.750000  1
  Sn  Sn12  1  0.000000  0.589951  0.750000  1
  Sn  Sn13  1  0.598084  0.598152  0.250000  1
  Sn  Sn14  1  0.401916  0.000068  0.250000  1
  Sn  Sn15  1  0.000000  0.400762  0.250000  1
  N  N16  1  0.000000  0.996670  0.995657  1
  N  N17  1  0.000000  0.996670  0.504343  1
