# generated using pymatgen
data_LaPr9Nd2(IrBr3)4
_symmetry_space_group_name_H-M   'P 1'
_cell_length_a   10.57246653
_cell_length_b   10.56646696
_cell_length_c   10.61666237
_cell_angle_alpha   109.40990275
_cell_angle_beta   109.64459423
_cell_angle_gamma   109.46185623
_symmetry_Int_Tables_number   1
_chemical_formula_structural   LaPr9Nd2(IrBr3)4
_chemical_formula_sum   'La1 Pr9 Nd2 Ir4 Br12'
_cell_volume   911.84096721
_cell_formula_units_Z   1
loop_
 _symmetry_equiv_pos_site_id
 _symmetry_equiv_pos_as_xyz
  1  'x, y, z'
loop_
 _atom_site_type_symbol
 _atom_site_label
 _atom_site_symmetry_multiplicity
 _atom_site_fract_x
 _atom_site_fract_y
 _atom_site_fract_z
 _atom_site_occupancy
  La  La0  1  0.035405  0.267696  0.017646  1
  Pr  Pr1  1  0.266689  0.752550  0.235518  1
  Pr  Pr2  1  0.481531  0.746350  0.015827  1
  Pr  Pr3  1  0.235021  0.469282  0.485752  1
  Pr  Pr4  1  0.013618  0.031009  0.266964  1
  Pr  Pr5  1  0.234723  0.265493  0.748953  1
  Pr  Pr6  1  0.013611  0.482484  0.746790  1
  Pr  Pr7  1  0.481517  0.235052  0.465813  1
  Pr  Pr8  1  0.266335  0.014125  0.031056  1
  Pr  Pr9  1  0.748964  0.233298  0.265654  1
  Nd  Nd10  1  0.748931  0.016046  0.482949  1
  Nd  Nd11  1  0.469800  0.484956  0.234894  1
  Ir  Ir12  1  0.499916  0.999696  0.250196  1
  Ir  Ir13  1  0.248929  0.498320  0.000933  1
  Ir  Ir14  1  0.999551  0.249532  0.500063  1
  Ir  Ir15  1  0.248956  0.250611  0.248013  1
  Br  Br16  1  0.249907  0.996086  0.504201  1
  Br  Br17  1  0.509402  0.504702  0.754686  1
  Br  Br18  1  0.249916  0.753771  0.745718  1
  Br  Br19  1  0.991385  0.745717  0.995706  1
  Br  Br20  1  0.999603  0.508800  0.255348  1
  Br  Br21  1  0.744473  0.994160  0.993515  1
  Br  Br22  1  0.754013  0.745620  0.251341  1
  Br  Br23  1  0.505442  0.754353  0.507454  1
  Br  Br24  1  0.504840  0.251020  0.997424  1
  Br  Br25  1  0.754008  0.509007  0.503448  1
  Br  Br26  1  0.744453  0.249526  0.750325  1
  Br  Br27  1  0.999058  0.990739  0.743811  1
