# generated using pymatgen
data_Dy12InGaSi4
_symmetry_space_group_name_H-M   'P 1'
_cell_length_a   8.49565401
_cell_length_b   8.49565568
_cell_length_c   8.49565499
_cell_angle_alpha   105.20026460
_cell_angle_beta   111.34117495
_cell_angle_gamma   111.95544892
_symmetry_Int_Tables_number   1
_chemical_formula_structural   Dy12InGaSi4
_chemical_formula_sum   'Dy12 In1 Ga1 Si4'
_cell_volume   470.06648480
_cell_formula_units_Z   1
loop_
 _symmetry_equiv_pos_site_id
 _symmetry_equiv_pos_as_xyz
  1  'x, y, z'
loop_
 _atom_site_type_symbol
 _atom_site_label
 _atom_site_symmetry_multiplicity
 _atom_site_fract_x
 _atom_site_fract_y
 _atom_site_fract_z
 _atom_site_occupancy
  Dy  Dy0  1  0.302042  0.263934  0.565974  1
  Dy  Dy1  1  0.697958  0.736066  0.434026  1
  Dy  Dy2  1  0.302042  0.736066  0.038108  1
  Dy  Dy3  1  0.697958  0.263934  0.961892  1
  Dy  Dy4  1  0.201368  0.521334  0.319967  1
  Dy  Dy5  1  0.201368  0.881401  0.680033  1
  Dy  Dy6  1  0.798632  0.478666  0.680033  1
  Dy  Dy7  1  0.798632  0.118599  0.319967  1
  Dy  Dy8  1  0.409839  0.228940  0.180899  1
  Dy  Dy9  1  0.048040  0.228940  0.819101  1
  Dy  Dy10  1  0.951960  0.771060  0.180899  1
  Dy  Dy11  1  0.590161  0.771060  0.819101  1
  In  In12  1  0.500000  0.000000  0.500000  1
  Ga  Ga13  1  0.500000  0.500000  0.000000  1
  Si  Si14  1  0.131098  0.500000  0.631098  1
  Si  Si15  1  0.868902  0.500000  0.368902  1
  Si  Si16  1  0.000000  0.115571  0.115571  1
  Si  Si17  1  0.000000  0.884429  0.884429  1
