# generated using pymatgen
data_HfZr7(TiGa3)4
_symmetry_space_group_name_H-M   'P 1'
_cell_length_a   5.59318100
_cell_length_b   8.55448804
_cell_length_c   9.14127904
_cell_angle_alpha   89.98882277
_cell_angle_beta   90.00000000
_cell_angle_gamma   90.00000000
_symmetry_Int_Tables_number   1
_chemical_formula_structural   HfZr7(TiGa3)4
_chemical_formula_sum   'Hf1 Zr7 Ti4 Ga12'
_cell_volume   437.38094158
_cell_formula_units_Z   1
loop_
 _symmetry_equiv_pos_site_id
 _symmetry_equiv_pos_as_xyz
  1  'x, y, z'
loop_
 _atom_site_type_symbol
 _atom_site_label
 _atom_site_symmetry_multiplicity
 _atom_site_fract_x
 _atom_site_fract_y
 _atom_site_fract_z
 _atom_site_occupancy
  Hf  Hf0  1  0.250000  0.138451  0.187089  1
  Zr  Zr1  1  0.750000  0.472383  0.616469  1
  Zr  Zr2  1  0.250000  0.527851  0.383399  1
  Zr  Zr3  1  0.750000  0.972696  0.382984  1
  Zr  Zr4  1  0.250000  0.027653  0.617092  1
  Zr  Zr5  1  0.750000  0.361266  0.188823  1
  Zr  Zr6  1  0.250000  0.637623  0.811751  1
  Zr  Zr7  1  0.750000  0.862328  0.811458  1
  Ti  Ti8  1  0.000437  0.750024  0.109636  1
  Ti  Ti9  1  0.499329  0.249594  0.891331  1
  Ti  Ti10  1  0.000671  0.249594  0.891331  1
  Ti  Ti11  1  0.499563  0.750024  0.109636  1
  Ga  Ga12  1  0.000087  0.750087  0.565775  1
  Ga  Ga13  1  0.499184  0.249610  0.433634  1
  Ga  Ga14  1  0.000816  0.249610  0.433634  1
  Ga  Ga15  1  0.499913  0.750087  0.565775  1
  Ga  Ga16  1  0.750000  0.045175  0.080467  1
  Ga  Ga17  1  0.250000  0.955337  0.920138  1
  Ga  Ga18  1  0.750000  0.545071  0.919418  1
  Ga  Ga19  1  0.250000  0.454238  0.080866  1
  Ga  Ga20  1  0.750000  0.136127  0.661210  1
  Ga  Ga21  1  0.250000  0.865376  0.338197  1
  Ga  Ga22  1  0.750000  0.635829  0.338691  1
  Ga  Ga23  1  0.250000  0.363966  0.661199  1
