# generated using pymatgen
data_Dy2Be2Fe(SiO5)2
_symmetry_space_group_name_H-M   'P 1'
_cell_length_a   10.02128582
_cell_length_b   7.55230000
_cell_length_c   4.78538612
_cell_angle_alpha   90.00000000
_cell_angle_beta   89.47277516
_cell_angle_gamma   90.00000000
_symmetry_Int_Tables_number   1
_chemical_formula_structural   Dy2Be2Fe(SiO5)2
_chemical_formula_sum   'Dy4 Be4 Fe2 Si4 O20'
_cell_volume   362.16066670
_cell_formula_units_Z   2
loop_
 _symmetry_equiv_pos_site_id
 _symmetry_equiv_pos_as_xyz
  1  'x, y, z'
loop_
 _atom_site_type_symbol
 _atom_site_label
 _atom_site_symmetry_multiplicity
 _atom_site_fract_x
 _atom_site_fract_y
 _atom_site_fract_z
 _atom_site_occupancy
  Dy  Dy0  1  0.328838  0.106232  0.001289  1
  Dy  Dy1  1  0.828838  0.393769  0.001289  1
  Dy  Dy2  1  0.171162  0.606231  0.998711  1
  Dy  Dy3  1  0.671162  0.893768  0.998711  1
  Be  Be4  1  0.165192  0.913311  0.465010  1
  Be  Be5  1  0.665192  0.586690  0.465010  1
  Be  Be6  1  0.834808  0.086689  0.534990  1
  Be  Be7  1  0.334807  0.413310  0.534992  1
  Fe  Fe8  1  0.000000  0.000000  0.000000  1
  Fe  Fe9  1  0.500000  0.499999  0.000000  1
  Si  Si10  1  0.078014  0.280131  0.481489  1
  Si  Si11  1  0.578013  0.219868  0.481489  1
  Si  Si12  1  0.421986  0.780132  0.518510  1
  Si  Si13  1  0.921986  0.719869  0.518511  1
  O  O14  1  0.831255  0.087599  0.202420  1
  O  O15  1  0.331255  0.412400  0.202422  1
  O  O16  1  0.028618  0.415524  0.238967  1
  O  O17  1  0.528618  0.084477  0.238968  1
  O  O18  1  0.304068  0.848152  0.307061  1
  O  O19  1  0.804068  0.651849  0.307061  1
  O  O20  1  0.142205  0.107369  0.312893  1
  O  O21  1  0.642205  0.392632  0.312893  1
  O  O22  1  0.049041  0.786964  0.322435  1
  O  O23  1  0.549041  0.713037  0.322436  1
  O  O24  1  0.450959  0.286963  0.677564  1
  O  O25  1  0.950959  0.213036  0.677564  1
  O  O26  1  0.357795  0.607368  0.687106  1
  O  O27  1  0.857795  0.892631  0.687106  1
  O  O28  1  0.195932  0.348151  0.692938  1
  O  O29  1  0.695932  0.151849  0.692938  1
  O  O30  1  0.471383  0.915523  0.761032  1
  O  O31  1  0.971383  0.584476  0.761032  1
  O  O32  1  0.168744  0.912401  0.797579  1
  O  O33  1  0.668744  0.587600  0.797580  1
