# generated using pymatgen
data_NaTb6AuBr12
_symmetry_space_group_name_H-M   'P 1'
_cell_length_a   9.33734008
_cell_length_b   9.33433400
_cell_length_c   9.33324591
_cell_angle_alpha   106.79985143
_cell_angle_beta   106.86090871
_cell_angle_gamma   106.85258714
_symmetry_Int_Tables_number   1
_chemical_formula_structural   NaTb6AuBr12
_chemical_formula_sum   'Na1 Tb6 Au1 Br12'
_cell_volume   680.43739587
_cell_formula_units_Z   1
loop_
 _symmetry_equiv_pos_site_id
 _symmetry_equiv_pos_as_xyz
  1  'x, y, z'
loop_
 _atom_site_type_symbol
 _atom_site_label
 _atom_site_symmetry_multiplicity
 _atom_site_fract_x
 _atom_site_fract_y
 _atom_site_fract_z
 _atom_site_occupancy
  Na  Na0  1  0.500000  0.500000  0.500000  1
  Tb  Tb1  1  0.112019  0.323971  0.031220  1
  Tb  Tb2  1  0.323710  0.030853  0.111769  1
  Tb  Tb3  1  0.031257  0.111468  0.323842  1
  Tb  Tb4  1  0.968744  0.888532  0.676159  1
  Tb  Tb5  1  0.676290  0.969148  0.888231  1
  Tb  Tb6  1  0.887981  0.676029  0.968780  1
  Au  Au7  1  0.000000  0.000000  0.000000  1
  Br  Br8  1  0.216546  0.680932  0.073373  1
  Br  Br9  1  0.449298  0.368343  0.147633  1
  Br  Br10  1  0.681343  0.073234  0.216709  1
  Br  Br11  1  0.926845  0.782963  0.319015  1
  Br  Br12  1  0.147735  0.449068  0.368674  1
  Br  Br13  1  0.368858  0.147870  0.449548  1
  Br  Br14  1  0.631142  0.852130  0.550453  1
  Br  Br15  1  0.852266  0.550932  0.631326  1
  Br  Br16  1  0.073156  0.217037  0.680986  1
  Br  Br17  1  0.318658  0.926767  0.783291  1
  Br  Br18  1  0.550702  0.631657  0.852368  1
  Br  Br19  1  0.783454  0.319068  0.926627  1
