# generated using pymatgen
data_Co3Sb12Os
_symmetry_space_group_name_H-M   'P 1'
_cell_length_a   7.97403523
_cell_length_b   7.97403571
_cell_length_c   7.97403571
_cell_angle_alpha   109.58940114
_cell_angle_beta   109.58939881
_cell_angle_gamma   109.58941211
_symmetry_Int_Tables_number   1
_chemical_formula_structural   Co3Sb12Os
_chemical_formula_sum   'Co3 Sb12 Os1'
_cell_volume   388.59539339
_cell_formula_units_Z   1
loop_
 _symmetry_equiv_pos_site_id
 _symmetry_equiv_pos_as_xyz
  1  'x, y, z'
loop_
 _atom_site_type_symbol
 _atom_site_label
 _atom_site_symmetry_multiplicity
 _atom_site_fract_x
 _atom_site_fract_y
 _atom_site_fract_z
 _atom_site_occupancy
  Co  Co0  1  0.500000  0.000000  0.000000  1
  Co  Co1  1  0.000000  0.500000  0.000000  1
  Co  Co2  1  0.000000  0.000000  0.500000  1
  Sb  Sb3  1  0.332551  0.840258  0.172677  1
  Sb  Sb4  1  0.667449  0.159742  0.827323  1
  Sb  Sb5  1  0.329212  0.150911  0.493100  1
  Sb  Sb6  1  0.670788  0.849089  0.506900  1
  Sb  Sb7  1  0.840258  0.172677  0.332551  1
  Sb  Sb8  1  0.159742  0.827323  0.667449  1
  Sb  Sb9  1  0.150911  0.493100  0.329212  1
  Sb  Sb10  1  0.849089  0.506900  0.670788  1
  Sb  Sb11  1  0.172677  0.332551  0.840258  1
  Sb  Sb12  1  0.827323  0.667449  0.159742  1
  Sb  Sb13  1  0.493100  0.329212  0.150911  1
  Sb  Sb14  1  0.506900  0.670788  0.849089  1
  Os  Os15  1  0.500000  0.500000  0.500000  1
