# generated using pymatgen
data_Y2PaTc2
_symmetry_space_group_name_H-M   'P 1'
_cell_length_a   4.27258986
_cell_length_b   5.74050096
_cell_length_c   5.94559616
_cell_angle_alpha   118.86529543
_cell_angle_beta   111.05765876
_cell_angle_gamma   90.00000142
_symmetry_Int_Tables_number   1
_chemical_formula_structural   Y2PaTc2
_chemical_formula_sum   'Y2 Pa1 Tc2'
_cell_volume   116.46495648
_cell_formula_units_Z   1
loop_
 _symmetry_equiv_pos_site_id
 _symmetry_equiv_pos_as_xyz
  1  'x, y, z'
loop_
 _atom_site_type_symbol
 _atom_site_label
 _atom_site_symmetry_multiplicity
 _atom_site_fract_x
 _atom_site_fract_y
 _atom_site_fract_z
 _atom_site_occupancy
  Y  Y0  1  0.803242  0.303242  0.606484  1
  Y  Y1  1  0.196758  0.696758  0.393516  1
  Pa  Pa2  1  0.000000  0.000000  0.000000  1
  Tc  Tc3  1  0.500000  0.254170  0.000000  1
  Tc  Tc4  1  0.500000  0.745830  0.000000  1
