# generated using pymatgen
data_Nd3Er(MoO4)6
_symmetry_space_group_name_H-M   'P 1'
_cell_length_a   7.59338101
_cell_length_b   7.59338053
_cell_length_c   10.89318005
_cell_angle_alpha   89.81449441
_cell_angle_beta   90.18550963
_cell_angle_gamma   89.79797892
_symmetry_Int_Tables_number   1
_chemical_formula_structural   Nd3Er(MoO4)6
_chemical_formula_sum   'Nd3 Er1 Mo6 O24'
_cell_volume   628.08405763
_cell_formula_units_Z   1
loop_
 _symmetry_equiv_pos_site_id
 _symmetry_equiv_pos_as_xyz
  1  'x, y, z'
loop_
 _atom_site_type_symbol
 _atom_site_label
 _atom_site_symmetry_multiplicity
 _atom_site_fract_x
 _atom_site_fract_y
 _atom_site_fract_z
 _atom_site_occupancy
  Nd  Nd0  1  0.189603  0.688888  0.738554  1
  Nd  Nd1  1  0.811112  0.310397  0.738554  1
  Nd  Nd2  1  0.685241  0.814759  0.259396  1
  Er  Er3  1  0.308113  0.191887  0.265494  1
  Mo  Mo4  1  0.209026  0.707182  0.353154  1
  Mo  Mo5  1  0.792818  0.290974  0.353154  1
  Mo  Mo6  1  0.708218  0.791782  0.645404  1
  Mo  Mo7  1  0.291049  0.208951  0.637394  1
  Mo  Mo8  1  0.007830  0.006283  0.004473  1
  Mo  Mo9  1  0.493717  0.492170  0.004473  1
  O  O10  1  0.004177  0.221964  0.298081  1
  O  O11  1  0.998513  0.768229  0.294193  1
  O  O12  1  0.225729  0.000380  0.696769  1
  O  O13  1  0.500766  0.725032  0.705420  1
  O  O14  1  0.774968  0.999234  0.705420  1
  O  O15  1  0.499620  0.274271  0.696769  1
  O  O16  1  0.278036  0.495823  0.298081  1
  O  O17  1  0.731771  0.501487  0.294193  1
  O  O18  1  0.188602  0.053325  0.105442  1
  O  O19  1  0.814569  0.961535  0.093224  1
  O  O20  1  0.058047  0.819309  0.910651  1
  O  O21  1  0.308882  0.532583  0.905717  1
  O  O22  1  0.967417  0.191118  0.905717  1
  O  O23  1  0.680691  0.441953  0.910651  1
  O  O24  1  0.446675  0.311398  0.105442  1
  O  O25  1  0.538465  0.685431  0.093224  1
  O  O26  1  0.621540  0.133026  0.307317  1
  O  O27  1  0.366974  0.878460  0.307317  1
  O  O28  1  0.127272  0.372728  0.684354  1
  O  O29  1  0.872589  0.627411  0.693075  1
  O  O30  1  0.197560  0.697809  0.516404  1
  O  O31  1  0.802191  0.302440  0.516404  1
  O  O32  1  0.695570  0.804430  0.482307  1
  O  O33  1  0.302645  0.197355  0.473777  1
