# generated using pymatgen
data_Y2(ZrPb)3
_symmetry_space_group_name_H-M   'P 1'
_cell_length_a   8.79892100
_cell_length_b   8.87162826
_cell_length_c   6.11148700
_cell_angle_alpha   90.00000000
_cell_angle_beta   90.00000000
_cell_angle_gamma   119.72927513
_symmetry_Int_Tables_number   1
_chemical_formula_structural   Y2(ZrPb)3
_chemical_formula_sum   'Y4 Zr6 Pb6'
_cell_volume   414.27486303
_cell_formula_units_Z   2
loop_
 _symmetry_equiv_pos_site_id
 _symmetry_equiv_pos_as_xyz
  1  'x, y, z'
loop_
 _atom_site_type_symbol
 _atom_site_label
 _atom_site_symmetry_multiplicity
 _atom_site_fract_x
 _atom_site_fract_y
 _atom_site_fract_z
 _atom_site_occupancy
  Y  Y0  1  0.756564  0.755229  0.250000  1
  Y  Y1  1  0.001335  0.244771  0.250000  1
  Y  Y2  1  0.764657  0.000000  0.750000  1
  Y  Y3  1  0.238290  0.000000  0.250000  1
  Zr  Zr4  1  0.331022  0.666327  0.501879  1
  Zr  Zr5  1  0.664696  0.333673  0.501879  1
  Zr  Zr6  1  0.001764  0.750693  0.750000  1
  Zr  Zr7  1  0.331022  0.666327  0.998121  1
  Zr  Zr8  1  0.251071  0.249307  0.750000  1
  Zr  Zr9  1  0.664696  0.333673  0.998121  1
  Pb  Pb10  1  0.606833  0.604681  0.750000  1
  Pb  Pb11  1  0.389475  0.000000  0.750000  1
  Pb  Pb12  1  0.600827  0.000000  0.250000  1
  Pb  Pb13  1  0.002153  0.395319  0.750000  1
  Pb  Pb14  1  0.396428  0.397261  0.250000  1
  Pb  Pb15  1  0.999167  0.602739  0.250000  1
