# generated using pymatgen
data_AcPrZn4CdGe
_symmetry_space_group_name_H-M   'P 1'
_cell_length_a   8.73341931
_cell_length_b   8.73342138
_cell_length_c   9.21099200
_cell_angle_alpha   90.00000000
_cell_angle_beta   90.00000000
_cell_angle_gamma   149.76762364
_symmetry_Int_Tables_number   1
_chemical_formula_structural   AcPrZn4CdGe
_chemical_formula_sum   'Ac2 Pr2 Zn8 Cd2 Ge2'
_cell_volume   353.73800270
_cell_formula_units_Z   2
loop_
 _symmetry_equiv_pos_site_id
 _symmetry_equiv_pos_as_xyz
  1  'x, y, z'
loop_
 _atom_site_type_symbol
 _atom_site_label
 _atom_site_symmetry_multiplicity
 _atom_site_fract_x
 _atom_site_fract_y
 _atom_site_fract_z
 _atom_site_occupancy
  Ac  Ac0  1  0.000000  0.000000  0.500000  1
  Ac  Ac1  1  0.000000  0.000000  0.000000  1
  Pr  Pr2  1  0.203662  0.796338  0.250000  1
  Pr  Pr3  1  0.796338  0.203662  0.750000  1
  Zn  Zn4  1  0.811892  0.188108  0.391847  1
  Zn  Zn5  1  0.188108  0.811892  0.608153  1
  Zn  Zn6  1  0.811892  0.188108  0.108153  1
  Zn  Zn7  1  0.188108  0.811892  0.891847  1
  Zn  Zn8  1  0.659641  0.340359  0.475543  1
  Zn  Zn9  1  0.340359  0.659641  0.524457  1
  Zn  Zn10  1  0.659641  0.340359  0.024457  1
  Zn  Zn11  1  0.340359  0.659641  0.975543  1
  Cd  Cd12  1  0.403227  0.596773  0.250000  1
  Cd  Cd13  1  0.596773  0.403227  0.750000  1
  Ge  Ge14  1  0.567810  0.432190  0.250000  1
  Ge  Ge15  1  0.432190  0.567810  0.750000  1
