# generated using pymatgen
data_Tm2Lu2Co2C5
_symmetry_space_group_name_H-M   'P 1'
_cell_length_a   3.52744400
_cell_length_b   3.63453400
_cell_length_c   11.47969300
_cell_angle_alpha   90.00000000
_cell_angle_beta   90.00000000
_cell_angle_gamma   90.00000000
_symmetry_Int_Tables_number   1
_chemical_formula_structural   Tm2Lu2Co2C5
_chemical_formula_sum   'Tm2 Lu2 Co2 C5'
_cell_volume   147.17672601
_cell_formula_units_Z   1
loop_
 _symmetry_equiv_pos_site_id
 _symmetry_equiv_pos_as_xyz
  1  'x, y, z'
loop_
 _atom_site_type_symbol
 _atom_site_label
 _atom_site_symmetry_multiplicity
 _atom_site_fract_x
 _atom_site_fract_y
 _atom_site_fract_z
 _atom_site_occupancy
  Tm  Tm0  1  0.500000  0.216074  0.500000  1
  Tm  Tm1  1  0.000000  0.001913  0.000000  1
  Lu  Lu2  1  0.500000  0.501088  0.204552  1
  Lu  Lu3  1  0.500000  0.501088  0.795448  1
  Co  Co4  1  0.000000  0.696949  0.383936  1
  Co  Co5  1  0.000000  0.696949  0.616064  1
  C  C6  1  0.000000  0.993542  0.228131  1
  C  C7  1  0.000000  0.993542  0.771869  1
  C  C8  1  0.000000  0.198865  0.331940  1
  C  C9  1  0.000000  0.198865  0.668060  1
  C  C10  1  0.500000  0.502621  0.000000  1
