# generated using pymatgen
data_RbMg2H8Ir
_symmetry_space_group_name_H-M   'P 1'
_cell_length_a   5.03927400
_cell_length_b   5.03927400
_cell_length_c   11.05853100
_cell_angle_alpha   90.00000000
_cell_angle_beta   90.00000000
_cell_angle_gamma   90.00000000
_symmetry_Int_Tables_number   1
_chemical_formula_structural   RbMg2H8Ir
_chemical_formula_sum   'Rb2 Mg4 H16 Ir2'
_cell_volume   280.82345966
_cell_formula_units_Z   2
loop_
 _symmetry_equiv_pos_site_id
 _symmetry_equiv_pos_as_xyz
  1  'x, y, z'
loop_
 _atom_site_type_symbol
 _atom_site_label
 _atom_site_symmetry_multiplicity
 _atom_site_fract_x
 _atom_site_fract_y
 _atom_site_fract_z
 _atom_site_occupancy
  Rb  Rb0  1  0.500000  0.000000  0.000000  1
  Rb  Rb1  1  0.000000  0.500000  0.500000  1
  Mg  Mg2  1  0.500000  0.000000  0.631916  1
  Mg  Mg3  1  0.000000  0.500000  0.131916  1
  Mg  Mg4  1  0.500000  0.000000  0.368084  1
  Mg  Mg5  1  0.000000  0.500000  0.868084  1
  H  H6  1  0.236673  0.236673  0.750000  1
  H  H7  1  0.763327  0.763327  0.750000  1
  H  H8  1  0.763327  0.236673  0.250000  1
  H  H9  1  0.236673  0.763327  0.250000  1
  H  H10  1  0.763327  0.763327  0.250000  1
  H  H11  1  0.236673  0.236673  0.250000  1
  H  H12  1  0.236673  0.763327  0.750000  1
  H  H13  1  0.763327  0.236673  0.750000  1
  H  H14  1  0.500000  0.246450  0.500000  1
  H  H15  1  0.500000  0.753550  0.500000  1
  H  H16  1  0.753550  0.500000  0.000000  1
  H  H17  1  0.246450  0.500000  0.000000  1
  H  H18  1  0.000000  0.000000  0.599006  1
  H  H19  1  0.000000  0.000000  0.099006  1
  H  H20  1  0.000000  0.000000  0.400994  1
  H  H21  1  0.000000  0.000000  0.900994  1
  Ir  Ir22  1  0.000000  0.000000  0.750000  1
  Ir  Ir23  1  0.000000  0.000000  0.250000  1
