# generated using pymatgen
data_Y20Cd6TcPt
_symmetry_space_group_name_H-M   'P 1'
_cell_length_a   9.66100500
_cell_length_b   9.66100546
_cell_length_c   9.89971600
_cell_angle_alpha   90.00000000
_cell_angle_beta   90.00000000
_cell_angle_gamma   120.00000184
_symmetry_Int_Tables_number   1
_chemical_formula_structural   Y20Cd6TcPt
_chemical_formula_sum   'Y20 Cd6 Tc1 Pt1'
_cell_volume   800.19898097
_cell_formula_units_Z   1
loop_
 _symmetry_equiv_pos_site_id
 _symmetry_equiv_pos_as_xyz
  1  'x, y, z'
loop_
 _atom_site_type_symbol
 _atom_site_label
 _atom_site_symmetry_multiplicity
 _atom_site_fract_x
 _atom_site_fract_y
 _atom_site_fract_z
 _atom_site_occupancy
  Y  Y0  1  0.000000  0.000000  0.498815  1
  Y  Y1  1  0.000000  0.000000  0.001185  1
  Y  Y2  1  0.208515  0.791485  0.441938  1
  Y  Y3  1  0.208515  0.417032  0.441938  1
  Y  Y4  1  0.582968  0.791485  0.441938  1
  Y  Y5  1  0.790424  0.209576  0.560024  1
  Y  Y6  1  0.790424  0.580847  0.560024  1
  Y  Y7  1  0.419153  0.209576  0.560024  1
  Y  Y8  1  0.790424  0.209576  0.939976  1
  Y  Y9  1  0.790424  0.580847  0.939976  1
  Y  Y10  1  0.419153  0.209576  0.939976  1
  Y  Y11  1  0.208515  0.791485  0.058062  1
  Y  Y12  1  0.208515  0.417032  0.058062  1
  Y  Y13  1  0.582968  0.791485  0.058062  1
  Y  Y14  1  0.542319  0.457681  0.250000  1
  Y  Y15  1  0.542319  0.084638  0.250000  1
  Y  Y16  1  0.915362  0.457681  0.250000  1
  Y  Y17  1  0.459592  0.540408  0.750000  1
  Y  Y18  1  0.459592  0.919186  0.750000  1
  Y  Y19  1  0.080814  0.540408  0.750000  1
  Cd  Cd20  1  0.885140  0.114860  0.250000  1
  Cd  Cd21  1  0.885140  0.770281  0.250000  1
  Cd  Cd22  1  0.229719  0.114860  0.250000  1
  Cd  Cd23  1  0.114923  0.885077  0.750000  1
  Cd  Cd24  1  0.114923  0.229845  0.750000  1
  Cd  Cd25  1  0.770155  0.885077  0.750000  1
  Tc  Tc26  1  0.666667  0.333333  0.750000  1
  Pt  Pt27  1  0.333333  0.666667  0.250000  1
