# generated using pymatgen
data_Ho2Co3P4Ru3
_symmetry_space_group_name_H-M   'P 1'
_cell_length_a   3.84023700
_cell_length_b   10.64199863
_cell_length_c   12.48801618
_cell_angle_alpha   89.76452279
_cell_angle_beta   90.00000000
_cell_angle_gamma   90.00000000
_symmetry_Int_Tables_number   1
_chemical_formula_structural   Ho2Co3P4Ru3
_chemical_formula_sum   'Ho6 Co9 P12 Ru9'
_cell_volume   510.35339859
_cell_formula_units_Z   3
loop_
 _symmetry_equiv_pos_site_id
 _symmetry_equiv_pos_as_xyz
  1  'x, y, z'
loop_
 _atom_site_type_symbol
 _atom_site_label
 _atom_site_symmetry_multiplicity
 _atom_site_fract_x
 _atom_site_fract_y
 _atom_site_fract_z
 _atom_site_occupancy
  Ho  Ho0  1  0.000000  0.500068  0.525990  1
  Ho  Ho1  1  0.500000  0.000498  0.471177  1
  Ho  Ho2  1  0.500000  0.820620  0.200753  1
  Ho  Ho3  1  0.500000  0.180833  0.201324  1
  Ho  Ho4  1  0.000000  0.678376  0.799835  1
  Ho  Ho5  1  0.000000  0.321749  0.798998  1
  Co  Co6  1  0.000000  0.498881  0.986406  1
  Co  Co7  1  0.500000  0.000325  0.016229  1
  Co  Co8  1  0.000000  0.374842  0.280302  1
  Co  Co9  1  0.500000  0.331606  0.989979  1
  Co  Co10  1  0.500000  0.666166  0.991402  1
  Co  Co11  1  0.000000  0.168516  0.012451  1
  Co  Co12  1  0.000000  0.832483  0.011201  1
  Co  Co13  1  0.500000  0.500103  0.703695  1
  Co  Co14  1  0.000000  0.001211  0.296501  1
  P  P15  1  0.500000  0.316203  0.616787  1
  P  P16  1  0.500000  0.685265  0.618596  1
  P  P17  1  0.000000  0.188889  0.377647  1
  P  P18  1  0.000000  0.813963  0.379973  1
  P  P19  1  0.500000  0.499524  0.882598  1
  P  P20  1  0.000000  0.000183  0.118992  1
  P  P21  1  0.500000  0.845303  0.901332  1
  P  P22  1  0.500000  0.154667  0.900239  1
  P  P23  1  0.000000  0.653756  0.100543  1
  P  P24  1  0.000000  0.345676  0.104220  1
  P  P25  1  0.500000  0.499612  0.339216  1
  P  P26  1  0.000000  0.000750  0.661109  1
  Ru  Ru27  1  0.500000  0.300956  0.422706  1
  Ru  Ru28  1  0.500000  0.702354  0.427562  1
  Ru  Ru29  1  0.000000  0.204272  0.568719  1
  Ru  Ru30  1  0.000000  0.798530  0.571619  1
  Ru  Ru31  1  0.500000  0.875143  0.719010  1
  Ru  Ru32  1  0.500000  0.126115  0.717384  1
  Ru  Ru33  1  0.000000  0.619203  0.282070  1
  Ru  Ru34  1  0.500000  0.492285  0.150156  1
  Ru  Ru35  1  0.000000  0.001072  0.853277  1
