# generated using pymatgen
data_Zr4Ta2Nb2GeP3
_symmetry_space_group_name_H-M   'P 1'
_cell_length_a   3.58470600
_cell_length_b   6.98063309
_cell_length_c   8.43890259
_cell_angle_alpha   89.67698893
_cell_angle_beta   90.00000000
_cell_angle_gamma   90.00000000
_symmetry_Int_Tables_number   1
_chemical_formula_structural   Zr4Ta2Nb2GeP3
_chemical_formula_sum   'Zr4 Ta2 Nb2 Ge1 P3'
_cell_volume   211.16766935
_cell_formula_units_Z   1
loop_
 _symmetry_equiv_pos_site_id
 _symmetry_equiv_pos_as_xyz
  1  'x, y, z'
loop_
 _atom_site_type_symbol
 _atom_site_label
 _atom_site_symmetry_multiplicity
 _atom_site_fract_x
 _atom_site_fract_y
 _atom_site_fract_z
 _atom_site_occupancy
  Zr  Zr0  1  0.250000  0.530817  0.836952  1
  Zr  Zr1  1  0.750000  0.964438  0.329847  1
  Zr  Zr2  1  0.250000  0.043822  0.669623  1
  Zr  Zr3  1  0.750000  0.465643  0.169640  1
  Ta  Ta4  1  0.750000  0.864986  0.944539  1
  Ta  Ta5  1  0.750000  0.358945  0.558172  1
  Nb  Nb6  1  0.250000  0.140022  0.060699  1
  Nb  Nb7  1  0.250000  0.631673  0.433185  1
  Ge  Ge8  1  0.750000  0.741300  0.641495  1
  P  P9  1  0.250000  0.761978  0.141002  1
  P  P10  1  0.750000  0.238368  0.857087  1
  P  P11  1  0.250000  0.258010  0.357758  1
