# generated using pymatgen
data_DyHo4Co19Si11P
_symmetry_space_group_name_H-M   'P 1'
_cell_length_a   12.09230901
_cell_length_b   12.12486645
_cell_length_c   3.71201900
_cell_angle_alpha   90.00000000
_cell_angle_beta   90.00000000
_cell_angle_gamma   120.08467545
_symmetry_Int_Tables_number   1
_chemical_formula_structural   DyHo4Co19Si11P
_chemical_formula_sum   'Dy1 Ho4 Co19 Si11 P1'
_cell_volume   470.92942815
_cell_formula_units_Z   1
loop_
 _symmetry_equiv_pos_site_id
 _symmetry_equiv_pos_as_xyz
  1  'x, y, z'
loop_
 _atom_site_type_symbol
 _atom_site_label
 _atom_site_symmetry_multiplicity
 _atom_site_fract_x
 _atom_site_fract_y
 _atom_site_fract_z
 _atom_site_occupancy
  Dy  Dy0  1  0.332735  0.666179  0.000000  1
  Ho  Ho1  1  0.667235  0.333424  0.000000  1
  Ho  Ho2  1  0.184944  0.185959  0.500000  1
  Ho  Ho3  1  0.815019  0.000947  0.500000  1
  Ho  Ho4  1  0.000033  0.813906  0.500000  1
  Co  Co5  1  0.558718  0.559136  0.000000  1
  Co  Co6  1  0.441281  0.000424  0.000000  1
  Co  Co7  1  0.999989  0.441218  0.000000  1
  Co  Co8  1  0.823364  0.197403  0.000000  1
  Co  Co9  1  0.802563  0.622244  0.000000  1
  Co  Co10  1  0.377749  0.180373  0.000000  1
  Co  Co11  1  0.197334  0.819887  0.000000  1
  Co  Co12  1  0.622595  0.802799  0.000000  1
  Co  Co13  1  0.176416  0.373708  0.000000  1
  Co  Co14  1  0.644745  0.123709  0.500000  1
  Co  Co15  1  0.876957  0.520032  0.500000  1
  Co  Co16  1  0.479309  0.356625  0.500000  1
  Co  Co17  1  0.122792  0.643091  0.500000  1
  Co  Co18  1  0.520902  0.877584  0.500000  1
  Co  Co19  1  0.355241  0.478703  0.500000  1
  Co  Co20  1  0.718574  0.718351  0.500000  1
  Co  Co21  1  0.281662  0.000208  0.500000  1
  Co  Co22  1  0.999824  0.278085  0.500000  1
  Co  Co23  1  0.000011  0.004690  0.000000  1
  Si  Si24  1  0.370956  0.371255  0.000000  1
  Si  Si25  1  0.629057  0.000386  0.000000  1
  Si  Si26  1  0.999967  0.628709  0.000000  1
  Si  Si27  1  0.839958  0.318019  0.500000  1
  Si  Si28  1  0.682535  0.521656  0.500000  1
  Si  Si29  1  0.478857  0.161298  0.500000  1
  Si  Si30  1  0.317476  0.839541  0.500000  1
  Si  Si31  1  0.521551  0.682439  0.500000  1
  Si  Si32  1  0.159631  0.477649  0.500000  1
  Si  Si33  1  0.817072  0.816774  0.000000  1
  Si  Si34  1  0.183056  0.999926  0.000000  1
  P  P35  1  0.999891  0.183667  0.000000  1
