# generated using pymatgen
data_Y3Ta(Co4P3)2
_symmetry_space_group_name_H-M   'P 1'
_cell_length_a   3.71520200
_cell_length_b   10.65989500
_cell_length_c   12.35624200
_cell_angle_alpha   90.00000000
_cell_angle_beta   90.00000000
_cell_angle_gamma   90.00000000
_symmetry_Int_Tables_number   1
_chemical_formula_structural   Y3Ta(Co4P3)2
_chemical_formula_sum   'Y6 Ta2 Co16 P12'
_cell_volume   489.35244688
_cell_formula_units_Z   2
loop_
 _symmetry_equiv_pos_site_id
 _symmetry_equiv_pos_as_xyz
  1  'x, y, z'
loop_
 _atom_site_type_symbol
 _atom_site_label
 _atom_site_symmetry_multiplicity
 _atom_site_fract_x
 _atom_site_fract_y
 _atom_site_fract_z
 _atom_site_occupancy
  Y  Y0  1  0.000000  0.500000  0.526137  1
  Y  Y1  1  0.500000  0.000000  0.473863  1
  Y  Y2  1  0.500000  0.820446  0.205072  1
  Y  Y3  1  0.500000  0.179554  0.205072  1
  Y  Y4  1  0.000000  0.679554  0.794928  1
  Y  Y5  1  0.000000  0.320446  0.794928  1
  Ta  Ta6  1  0.500000  0.500000  0.156176  1
  Ta  Ta7  1  0.000000  0.000000  0.843824  1
  Co  Co8  1  0.500000  0.500000  0.701766  1
  Co  Co9  1  0.000000  0.000000  0.298234  1
  Co  Co10  1  0.000000  0.500000  0.986868  1
  Co  Co11  1  0.500000  0.000000  0.013132  1
  Co  Co12  1  0.500000  0.332859  0.992150  1
  Co  Co13  1  0.500000  0.667141  0.992150  1
  Co  Co14  1  0.000000  0.167141  0.007850  1
  Co  Co15  1  0.000000  0.832859  0.007850  1
  Co  Co16  1  0.500000  0.295355  0.432236  1
  Co  Co17  1  0.500000  0.704645  0.432236  1
  Co  Co18  1  0.000000  0.204645  0.567764  1
  Co  Co19  1  0.000000  0.795355  0.567764  1
  Co  Co20  1  0.500000  0.877910  0.705685  1
  Co  Co21  1  0.500000  0.122090  0.705685  1
  Co  Co22  1  0.000000  0.622090  0.294315  1
  Co  Co23  1  0.000000  0.377910  0.294315  1
  P  P24  1  0.500000  0.500000  0.881786  1
  P  P25  1  0.000000  0.000000  0.118214  1
  P  P26  1  0.500000  0.500000  0.355868  1
  P  P27  1  0.000000  0.000000  0.644132  1
  P  P28  1  0.500000  0.310730  0.615427  1
  P  P29  1  0.500000  0.689270  0.615427  1
  P  P30  1  0.000000  0.189270  0.384573  1
  P  P31  1  0.000000  0.810730  0.384573  1
  P  P32  1  0.500000  0.841367  0.893395  1
  P  P33  1  0.500000  0.158633  0.893395  1
  P  P34  1  0.000000  0.658633  0.106605  1
  P  P35  1  0.000000  0.341367  0.106605  1
