# generated using pymatgen
data_Tb4Al18(PtRh)3
_symmetry_space_group_name_H-M   'P 1'
_cell_length_a   7.59989759
_cell_length_b   7.59989764
_cell_length_c   9.44493400
_cell_angle_alpha   89.99911327
_cell_angle_beta   89.99911188
_cell_angle_gamma   119.55896975
_symmetry_Int_Tables_number   1
_chemical_formula_structural   Tb4Al18(PtRh)3
_chemical_formula_sum   'Tb4 Al18 Pt3 Rh3'
_cell_volume   474.52379146
_cell_formula_units_Z   1
loop_
 _symmetry_equiv_pos_site_id
 _symmetry_equiv_pos_as_xyz
  1  'x, y, z'
loop_
 _atom_site_type_symbol
 _atom_site_label
 _atom_site_symmetry_multiplicity
 _atom_site_fract_x
 _atom_site_fract_y
 _atom_site_fract_z
 _atom_site_occupancy
  Tb  Tb0  1  0.995289  0.670527  0.250248  1
  Tb  Tb1  1  0.005681  0.330521  0.749931  1
  Tb  Tb2  1  0.669479  0.994319  0.250069  1
  Tb  Tb3  1  0.329473  0.004711  0.749752  1
  Al  Al4  1  0.126041  0.126851  0.250611  1
  Al  Al5  1  0.873149  0.873959  0.749389  1
  Al  Al6  1  0.999880  0.331193  0.076309  1
  Al  Al7  1  0.999480  0.669141  0.923418  1
  Al  Al8  1  0.996387  0.664797  0.575074  1
  Al  Al9  1  0.335203  0.003613  0.424926  1
  Al  Al10  1  0.996488  0.331344  0.425000  1
  Al  Al11  1  0.668656  0.003512  0.575000  1
  Al  Al12  1  0.668807  0.000120  0.923691  1
  Al  Al13  1  0.330859  0.000520  0.076582  1
  Al  Al14  1  0.332451  0.329004  0.551514  1
  Al  Al15  1  0.670996  0.667549  0.448486  1
  Al  Al16  1  0.670266  0.670232  0.053479  1
  Al  Al17  1  0.329768  0.329734  0.946521  1
  Al  Al18  1  0.340516  0.545383  0.250457  1
  Al  Al19  1  0.659011  0.451496  0.746617  1
  Al  Al20  1  0.548504  0.340989  0.253383  1
  Al  Al21  1  0.454617  0.659484  0.749543  1
  Pt  Pt22  1  0.671782  0.328218  0.000000  1
  Pt  Pt23  1  0.327678  0.672322  0.000000  1
  Pt  Pt24  1  0.327673  0.672327  0.500000  1
  Rh  Rh25  1  0.672013  0.327987  0.500000  1
  Rh  Rh26  1  0.999722  0.000278  0.000000  1
  Rh  Rh27  1  0.000135  0.999865  0.500000  1
