# generated using pymatgen
data_Nd6YScO12
_symmetry_space_group_name_H-M   'P 1'
_cell_length_a   6.90540564
_cell_length_b   6.90540607
_cell_length_c   6.90540641
_cell_angle_alpha   93.09136255
_cell_angle_beta   93.09136339
_cell_angle_gamma   93.09137092
_symmetry_Int_Tables_number   1
_chemical_formula_structural   Nd6YScO12
_chemical_formula_sum   'Nd6 Y1 Sc1 O12'
_cell_volume   327.79027002
_cell_formula_units_Z   1
loop_
 _symmetry_equiv_pos_site_id
 _symmetry_equiv_pos_as_xyz
  1  'x, y, z'
loop_
 _atom_site_type_symbol
 _atom_site_label
 _atom_site_symmetry_multiplicity
 _atom_site_fract_x
 _atom_site_fract_y
 _atom_site_fract_z
 _atom_site_occupancy
  Nd  Nd0  1  0.740882  0.927525  0.436887  1
  Nd  Nd1  1  0.436887  0.740882  0.927525  1
  Nd  Nd2  1  0.072475  0.563113  0.259118  1
  Nd  Nd3  1  0.927525  0.436887  0.740882  1
  Nd  Nd4  1  0.563113  0.259118  0.072475  1
  Nd  Nd5  1  0.259118  0.072475  0.563113  1
  Y  Y6  1  0.000000  0.000000  0.000000  1
  Sc  Sc7  1  0.500000  0.500000  0.500000  1
  O  O8  1  0.065000  0.911020  0.311950  1
  O  O9  1  0.688050  0.935000  0.088980  1
  O  O10  1  0.461692  0.798331  0.587993  1
  O  O11  1  0.088980  0.688050  0.935000  1
  O  O12  1  0.798331  0.587993  0.461692  1
  O  O13  1  0.412007  0.538308  0.201669  1
  O  O14  1  0.587993  0.461692  0.798331  1
  O  O15  1  0.201669  0.412007  0.538308  1
  O  O16  1  0.911020  0.311950  0.065000  1
  O  O17  1  0.538308  0.201669  0.412007  1
  O  O18  1  0.311950  0.065000  0.911020  1
  O  O19  1  0.935000  0.088980  0.688050  1
