# generated using pymatgen
data_Fe2Te3O8
_symmetry_space_group_name_H-M   'P 1'
_cell_length_a   6.94094526
_cell_length_b   6.94094480
_cell_length_c   11.97543267
_cell_angle_alpha   83.31146441
_cell_angle_beta   83.31146584
_cell_angle_gamma   46.17868294
_symmetry_Int_Tables_number   1
_chemical_formula_structural   Fe2Te3O8
_chemical_formula_sum   'Fe4 Te6 O16'
_cell_volume   412.91153754
_cell_formula_units_Z   2
loop_
 _symmetry_equiv_pos_site_id
 _symmetry_equiv_pos_as_xyz
  1  'x, y, z'
loop_
 _atom_site_type_symbol
 _atom_site_label
 _atom_site_symmetry_multiplicity
 _atom_site_fract_x
 _atom_site_fract_y
 _atom_site_fract_z
 _atom_site_occupancy
  Fe  Fe0  1  0.580545  0.957620  0.852214  1
  Fe  Fe1  1  0.042380  0.419455  0.647786  1
  Fe  Fe2  1  0.419455  0.042380  0.147786  1
  Fe  Fe3  1  0.957620  0.580545  0.352214  1
  Te  Te4  1  0.152289  0.847711  0.750000  1
  Te  Te5  1  0.847711  0.152289  0.250000  1
  Te  Te6  1  0.953814  0.322347  0.941721  1
  Te  Te7  1  0.677653  0.046186  0.558279  1
  Te  Te8  1  0.046186  0.677653  0.058279  1
  Te  Te9  1  0.322347  0.953814  0.441721  1
  O  O10  1  0.251498  0.279925  0.973454  1
  O  O11  1  0.720075  0.748502  0.526546  1
  O  O12  1  0.748502  0.720075  0.026546  1
  O  O13  1  0.279925  0.251498  0.473454  1
  O  O14  1  0.246483  0.987468  0.861702  1
  O  O15  1  0.012532  0.753517  0.638298  1
  O  O16  1  0.753517  0.012532  0.138298  1
  O  O17  1  0.987468  0.246483  0.361702  1
  O  O18  1  0.011636  0.144211  0.647611  1
  O  O19  1  0.855789  0.988364  0.852389  1
  O  O20  1  0.988364  0.855789  0.352389  1
  O  O21  1  0.144211  0.011636  0.147611  1
  O  O22  1  0.839034  0.547869  0.808878  1
  O  O23  1  0.452131  0.160966  0.691122  1
  O  O24  1  0.160966  0.452131  0.191122  1
  O  O25  1  0.547869  0.839034  0.308878  1
