# generated using pymatgen
data_Sm8Si16(Mo3W)3
_symmetry_space_group_name_H-M   'P 1'
_cell_length_a   6.87329800
_cell_length_b   7.02868525
_cell_length_c   13.04699400
_cell_angle_alpha   90.00000000
_cell_angle_beta   90.00000000
_cell_angle_gamma   89.98324768
_symmetry_Int_Tables_number   1
_chemical_formula_structural   Sm8Si16(Mo3W)3
_chemical_formula_sum   'Sm8 Si16 Mo9 W3'
_cell_volume   630.30349252
_cell_formula_units_Z   1
loop_
 _symmetry_equiv_pos_site_id
 _symmetry_equiv_pos_as_xyz
  1  'x, y, z'
loop_
 _atom_site_type_symbol
 _atom_site_label
 _atom_site_symmetry_multiplicity
 _atom_site_fract_x
 _atom_site_fract_y
 _atom_site_fract_z
 _atom_site_occupancy
  Sm  Sm0  1  0.497385  0.334220  0.093874  1
  Sm  Sm1  1  0.997299  0.165609  0.405906  1
  Sm  Sm2  1  0.502564  0.665636  0.594015  1
  Sm  Sm3  1  0.003012  0.834278  0.905860  1
  Sm  Sm4  1  0.502564  0.665636  0.905985  1
  Sm  Sm5  1  0.003012  0.834278  0.594140  1
  Sm  Sm6  1  0.497385  0.334220  0.406126  1
  Sm  Sm7  1  0.997299  0.165609  0.094094  1
  Si  Si8  1  0.656856  0.045075  0.548951  1
  Si  Si9  1  0.156693  0.454704  0.951090  1
  Si  Si10  1  0.343147  0.955187  0.048654  1
  Si  Si11  1  0.843840  0.545736  0.450993  1
  Si  Si12  1  0.343147  0.955187  0.451346  1
  Si  Si13  1  0.843840  0.545736  0.049007  1
  Si  Si14  1  0.656856  0.045075  0.951049  1
  Si  Si15  1  0.156693  0.454704  0.548910  1
  Si  Si16  1  0.535271  0.363146  0.750000  1
  Si  Si17  1  0.034757  0.136577  0.750000  1
  Si  Si18  1  0.465007  0.636990  0.250000  1
  Si  Si19  1  0.964357  0.861649  0.250000  1
  Si  Si20  1  0.804610  0.625763  0.750000  1
  Si  Si21  1  0.305024  0.874368  0.750000  1
  Si  Si22  1  0.195145  0.375460  0.250000  1
  Si  Si23  1  0.694903  0.124429  0.250000  1
  Mo  Mo24  1  0.831303  0.336463  0.626669  1
  Mo  Mo25  1  0.331180  0.163604  0.873140  1
  Mo  Mo26  1  0.169468  0.664377  0.126617  1
  Mo  Mo27  1  0.667985  0.836409  0.373341  1
  Mo  Mo28  1  0.169468  0.664377  0.373383  1
  Mo  Mo29  1  0.667985  0.836409  0.126659  1
  Mo  Mo30  1  0.831303  0.336463  0.873331  1
  Mo  Mo31  1  0.331180  0.163604  0.626860  1
  Mo  Mo32  1  0.835222  0.502909  0.250000  1
  W  W33  1  0.664565  0.003726  0.750000  1
  W  W34  1  0.164478  0.496189  0.750000  1
  W  W35  1  0.335199  0.996197  0.250000  1
