# generated using pymatgen
data_La11Tl9Pd4
_symmetry_space_group_name_H-M   'P 1'
_cell_length_a   13.88858911
_cell_length_b   13.88585372
_cell_length_c   3.85972700
_cell_angle_alpha   90.00000000
_cell_angle_beta   90.00000000
_cell_angle_gamma   111.67421226
_symmetry_Int_Tables_number   1
_chemical_formula_structural   La11Tl9Pd4
_chemical_formula_sum   'La11 Tl9 Pd4'
_cell_volume   691.73973564
_cell_formula_units_Z   1
loop_
 _symmetry_equiv_pos_site_id
 _symmetry_equiv_pos_as_xyz
  1  'x, y, z'
loop_
 _atom_site_type_symbol
 _atom_site_label
 _atom_site_symmetry_multiplicity
 _atom_site_fract_x
 _atom_site_fract_y
 _atom_site_fract_z
 _atom_site_occupancy
  La  La0  1  0.419451  0.071187  0.000000  1
  La  La1  1  0.580549  0.928813  0.000000  1
  La  La2  1  0.071311  0.419320  0.000000  1
  La  La3  1  0.928689  0.580680  0.000000  1
  La  La4  1  0.160110  0.840446  0.000000  1
  La  La5  1  0.839890  0.159554  0.000000  1
  La  La6  1  0.371938  0.628379  0.000000  1
  La  La7  1  0.628062  0.371621  0.000000  1
  La  La8  1  0.308898  0.308804  0.000000  1
  La  La9  1  0.691102  0.691196  0.000000  1
  La  La10  1  0.000000  0.000000  0.000000  1
  Tl  Tl11  1  0.367153  0.840750  0.500000  1
  Tl  Tl12  1  0.632847  0.159250  0.500000  1
  Tl  Tl13  1  0.840396  0.366823  0.500000  1
  Tl  Tl14  1  0.159604  0.633177  0.500000  1
  Tl  Tl15  1  0.220414  0.075187  0.500000  1
  Tl  Tl16  1  0.779586  0.924813  0.500000  1
  Tl  Tl17  1  0.075256  0.220115  0.500000  1
  Tl  Tl18  1  0.924744  0.779885  0.500000  1
  Tl  Tl19  1  0.500000  0.500000  0.500000  1
  Pd  Pd20  1  0.449996  0.247578  0.500000  1
  Pd  Pd21  1  0.550004  0.752422  0.500000  1
  Pd  Pd22  1  0.247543  0.449982  0.500000  1
  Pd  Pd23  1  0.752457  0.550018  0.500000  1
