# generated using pymatgen
data_Tb7Dy3BiPb5
_symmetry_space_group_name_H-M   'P 1'
_cell_length_a   9.11013724
_cell_length_b   9.11390621
_cell_length_c   6.61341301
_cell_angle_alpha   90.00383204
_cell_angle_beta   90.00196184
_cell_angle_gamma   120.01281506
_symmetry_Int_Tables_number   1
_chemical_formula_structural   Tb7Dy3BiPb5
_chemical_formula_sum   'Tb7 Dy3 Bi1 Pb5'
_cell_volume   475.47715243
_cell_formula_units_Z   1
loop_
 _symmetry_equiv_pos_site_id
 _symmetry_equiv_pos_as_xyz
  1  'x, y, z'
loop_
 _atom_site_type_symbol
 _atom_site_label
 _atom_site_symmetry_multiplicity
 _atom_site_fract_x
 _atom_site_fract_y
 _atom_site_fract_z
 _atom_site_occupancy
  Tb  Tb0  1  0.240547  0.237203  0.749894  1
  Tb  Tb1  1  0.238891  0.000671  0.250123  1
  Tb  Tb2  1  0.335319  0.668264  0.000755  1
  Tb  Tb3  1  0.000018  0.762988  0.749898  1
  Tb  Tb4  1  0.761129  0.761765  0.250110  1
  Tb  Tb5  1  0.000007  0.238364  0.250087  1
  Tb  Tb6  1  0.759457  0.996635  0.749913  1
  Dy  Dy7  1  0.664618  0.332950  0.000813  1
  Dy  Dy8  1  0.335354  0.668283  0.499227  1
  Dy  Dy9  1  0.664643  0.332953  0.499211  1
  Bi  Bi10  1  0.999699  0.393701  0.749691  1
  Pb  Pb11  1  0.394126  0.394542  0.250224  1
  Pb  Pb12  1  0.606132  0.000889  0.250238  1
  Pb  Pb13  1  0.605416  0.605076  0.749804  1
  Pb  Pb14  1  0.394840  0.000119  0.749796  1
  Pb  Pb15  1  0.999803  0.605597  0.250215  1
