# generated using pymatgen
data_Y2Nb3Co9SiP6
_symmetry_space_group_name_H-M   'P 1'
_cell_length_a   3.68382700
_cell_length_b   9.26887593
_cell_length_c   9.26887500
_cell_angle_alpha   120.00000025
_cell_angle_beta   90.00000000
_cell_angle_gamma   90.00000000
_symmetry_Int_Tables_number   1
_chemical_formula_structural   Y2Nb3Co9SiP6
_chemical_formula_sum   'Y2 Nb3 Co9 Si1 P6'
_cell_volume   274.08416893
_cell_formula_units_Z   1
loop_
 _symmetry_equiv_pos_site_id
 _symmetry_equiv_pos_as_xyz
  1  'x, y, z'
loop_
 _atom_site_type_symbol
 _atom_site_label
 _atom_site_symmetry_multiplicity
 _atom_site_fract_x
 _atom_site_fract_y
 _atom_site_fract_z
 _atom_site_occupancy
  Y  Y0  1  0.000000  0.666667  0.333333  1
  Y  Y1  1  0.500000  0.333333  0.666667  1
  Nb  Nb2  1  0.500000  0.771618  0.895110  1
  Nb  Nb3  1  0.500000  0.123491  0.228382  1
  Nb  Nb4  1  0.500000  0.104890  0.876509  1
  Co  Co5  1  0.000000  0.567531  0.937544  1
  Co  Co6  1  0.000000  0.370011  0.432469  1
  Co  Co7  1  0.000000  0.062456  0.629989  1
  Co  Co8  1  0.000000  0.875487  0.164471  1
  Co  Co9  1  0.000000  0.288983  0.124513  1
  Co  Co10  1  0.000000  0.835529  0.711017  1
  Co  Co11  1  0.500000  0.947519  0.390190  1
  Co  Co12  1  0.500000  0.442670  0.052481  1
  Co  Co13  1  0.500000  0.609810  0.557330  1
  Si  Si14  1  0.000000  0.000000  0.000000  1
  P  P15  1  0.500000  0.711463  0.126117  1
  P  P16  1  0.500000  0.414655  0.288537  1
  P  P17  1  0.500000  0.873883  0.585345  1
  P  P18  1  0.000000  0.581810  0.689292  1
  P  P19  1  0.000000  0.107483  0.418190  1
  P  P20  1  0.000000  0.310708  0.892517  1
