# generated using pymatgen
data_Tb4Al18Re2PdAu3
_symmetry_space_group_name_H-M   'P 1'
_cell_length_a   7.69751576
_cell_length_b   7.69754390
_cell_length_c   9.57689295
_cell_angle_alpha   90.00138253
_cell_angle_beta   90.00135451
_cell_angle_gamma   119.27967351
_symmetry_Int_Tables_number   1
_chemical_formula_structural   Tb4Al18Re2PdAu3
_chemical_formula_sum   'Tb4 Al18 Re2 Pd1 Au3'
_cell_volume   494.95395973
_cell_formula_units_Z   1
loop_
 _symmetry_equiv_pos_site_id
 _symmetry_equiv_pos_as_xyz
  1  'x, y, z'
loop_
 _atom_site_type_symbol
 _atom_site_label
 _atom_site_symmetry_multiplicity
 _atom_site_fract_x
 _atom_site_fract_y
 _atom_site_fract_z
 _atom_site_occupancy
  Tb  Tb0  1  0.995677  0.673276  0.250333  1
  Tb  Tb1  1  0.008474  0.329821  0.750004  1
  Tb  Tb2  1  0.670186  0.991526  0.249995  1
  Tb  Tb3  1  0.326732  0.004330  0.749662  1
  Al  Al4  1  0.123938  0.125153  0.250655  1
  Al  Al5  1  0.874845  0.876061  0.749360  1
  Al  Al6  1  0.001413  0.326595  0.079126  1
  Al  Al7  1  0.996632  0.673287  0.920686  1
  Al  Al8  1  0.993263  0.668354  0.577150  1
  Al  Al9  1  0.331640  0.006739  0.422846  1
  Al  Al10  1  0.994268  0.325501  0.422905  1
  Al  Al11  1  0.674497  0.005735  0.577091  1
  Al  Al12  1  0.673413  0.998594  0.920872  1
  Al  Al13  1  0.326723  0.003375  0.079311  1
  Al  Al14  1  0.327911  0.323783  0.551815  1
  Al  Al15  1  0.676200  0.672070  0.448176  1
  Al  Al16  1  0.675429  0.675206  0.056400  1
  Al  Al17  1  0.324800  0.324577  0.943599  1
  Al  Al18  1  0.344140  0.541981  0.250648  1
  Al  Al19  1  0.655712  0.450372  0.744791  1
  Al  Al20  1  0.549636  0.344296  0.255206  1
  Al  Al21  1  0.458026  0.655866  0.749351  1
  Re  Re22  1  0.999613  0.000421  0.000023  1
  Re  Re23  1  0.999986  0.999881  0.500001  1
  Pd  Pd24  1  0.672210  0.327804  0.499997  1
  Au  Au25  1  0.672885  0.327127  0.999997  1
  Au  Au26  1  0.325956  0.674054  0.999997  1
  Au  Au27  1  0.325798  0.674213  0.500000  1
