# generated using pymatgen
data_Dy3Si3Pt
_symmetry_space_group_name_H-M   'P 1'
_cell_length_a   4.25739200
_cell_length_b   10.67515300
_cell_length_c   12.36384300
_cell_angle_alpha   90.00000000
_cell_angle_beta   90.00000000
_cell_angle_gamma   90.00000000
_symmetry_Int_Tables_number   1
_chemical_formula_structural   Dy3Si3Pt
_chemical_formula_sum   'Dy12 Si12 Pt4'
_cell_volume   561.91578158
_cell_formula_units_Z   4
loop_
 _symmetry_equiv_pos_site_id
 _symmetry_equiv_pos_as_xyz
  1  'x, y, z'
loop_
 _atom_site_type_symbol
 _atom_site_label
 _atom_site_symmetry_multiplicity
 _atom_site_fract_x
 _atom_site_fract_y
 _atom_site_fract_z
 _atom_site_occupancy
  Dy  Dy0  1  0.250000  0.878566  0.020489  1
  Dy  Dy1  1  0.250000  0.621434  0.520489  1
  Dy  Dy2  1  0.750000  0.121434  0.979511  1
  Dy  Dy3  1  0.750000  0.378566  0.479511  1
  Dy  Dy4  1  0.250000  0.919092  0.602213  1
  Dy  Dy5  1  0.250000  0.580908  0.102213  1
  Dy  Dy6  1  0.750000  0.080908  0.397787  1
  Dy  Dy7  1  0.750000  0.419092  0.897787  1
  Dy  Dy8  1  0.250000  0.660240  0.801414  1
  Dy  Dy9  1  0.250000  0.839760  0.301414  1
  Dy  Dy10  1  0.750000  0.339760  0.198586  1
  Dy  Dy11  1  0.750000  0.160240  0.698586  1
  Si  Si12  1  0.250000  0.015500  0.822930  1
  Si  Si13  1  0.250000  0.484500  0.322930  1
  Si  Si14  1  0.750000  0.984500  0.177070  1
  Si  Si15  1  0.750000  0.515500  0.677070  1
  Si  Si16  1  0.250000  0.245681  0.843049  1
  Si  Si17  1  0.250000  0.254319  0.343049  1
  Si  Si18  1  0.750000  0.754319  0.156951  1
  Si  Si19  1  0.750000  0.745681  0.656951  1
  Si  Si20  1  0.250000  0.194240  0.540712  1
  Si  Si21  1  0.250000  0.305760  0.040712  1
  Si  Si22  1  0.750000  0.805760  0.459288  1
  Si  Si23  1  0.750000  0.694240  0.959288  1
  Pt  Pt24  1  0.250000  0.389507  0.681080  1
  Pt  Pt25  1  0.250000  0.110493  0.181080  1
  Pt  Pt26  1  0.750000  0.610493  0.318920  1
  Pt  Pt27  1  0.750000  0.889507  0.818920  1
