# generated using pymatgen
data_Y4Sc3Cr4B24W
_symmetry_space_group_name_H-M   'P 1'
_cell_length_a   3.43993900
_cell_length_b   8.96741907
_cell_length_c   11.34340009
_cell_angle_alpha   89.98534880
_cell_angle_beta   90.00000000
_cell_angle_gamma   90.00000000
_symmetry_Int_Tables_number   1
_chemical_formula_structural   Y4Sc3Cr4B24W
_chemical_formula_sum   'Y4 Sc3 Cr4 B24 W1'
_cell_volume   349.91410045
_cell_formula_units_Z   1
loop_
 _symmetry_equiv_pos_site_id
 _symmetry_equiv_pos_as_xyz
  1  'x, y, z'
loop_
 _atom_site_type_symbol
 _atom_site_label
 _atom_site_symmetry_multiplicity
 _atom_site_fract_x
 _atom_site_fract_y
 _atom_site_fract_z
 _atom_site_occupancy
  Y  Y0  1  0.000000  0.822139  0.084997  1
  Y  Y1  1  0.000000  0.178264  0.914652  1
  Y  Y2  1  0.000000  0.321900  0.414646  1
  Y  Y3  1  0.000000  0.677470  0.585232  1
  Sc  Sc4  1  0.000000  0.555418  0.872364  1
  Sc  Sc5  1  0.000000  0.943989  0.369162  1
  Sc  Sc6  1  0.000000  0.055807  0.629868  1
  Cr  Cr7  1  0.000000  0.148326  0.181175  1
  Cr  Cr8  1  0.000000  0.857113  0.819340  1
  Cr  Cr9  1  0.000000  0.636886  0.312397  1
  Cr  Cr10  1  0.000000  0.358552  0.683620  1
  B  B11  1  0.500000  0.056491  0.067771  1
  B  B12  1  0.500000  0.945861  0.932421  1
  B  B13  1  0.500000  0.554463  0.431543  1
  B  B14  1  0.500000  0.445329  0.568475  1
  B  B15  1  0.500000  0.256442  0.082243  1
  B  B16  1  0.500000  0.746692  0.917502  1
  B  B17  1  0.500000  0.751760  0.415835  1
  B  B18  1  0.500000  0.246889  0.583516  1
  B  B19  1  0.500000  0.296613  0.235918  1
  B  B20  1  0.500000  0.705147  0.765086  1
  B  B21  1  0.500000  0.794554  0.263724  1
  B  B22  1  0.500000  0.204902  0.735704  1
  B  B23  1  0.500000  0.130100  0.316545  1
  B  B24  1  0.500000  0.870067  0.683813  1
  B  B25  1  0.500000  0.627242  0.181661  1
  B  B26  1  0.500000  0.370853  0.816711  1
  B  B27  1  0.500000  0.480502  0.286166  1
  B  B28  1  0.500000  0.518010  0.714253  1
  B  B29  1  0.500000  0.984081  0.212981  1
  B  B30  1  0.500000  0.017111  0.786271  1
  B  B31  1  0.500000  0.096668  0.473733  1
  B  B32  1  0.500000  0.902340  0.525334  1
  B  B33  1  0.500000  0.595121  0.028647  1
  B  B34  1  0.500000  0.402225  0.977049  1
  W  W35  1  0.000000  0.444674  0.129645  1
