# generated using pymatgen
data_Pr20Ga3Si8Tc
_symmetry_space_group_name_H-M   'P 1'
_cell_length_a   7.87770393
_cell_length_b   7.87423793
_cell_length_c   14.41004953
_cell_angle_alpha   89.61193255
_cell_angle_beta   89.76472788
_cell_angle_gamma   90.53036552
_symmetry_Int_Tables_number   1
_chemical_formula_structural   Pr20Ga3Si8Tc
_chemical_formula_sum   'Pr20 Ga3 Si8 Tc1'
_cell_volume   893.80199407
_cell_formula_units_Z   1
loop_
 _symmetry_equiv_pos_site_id
 _symmetry_equiv_pos_as_xyz
  1  'x, y, z'
loop_
 _atom_site_type_symbol
 _atom_site_label
 _atom_site_symmetry_multiplicity
 _atom_site_fract_x
 _atom_site_fract_y
 _atom_site_fract_z
 _atom_site_occupancy
  Pr  Pr0  1  0.818051  0.830209  0.604362  1
  Pr  Pr1  1  0.180687  0.831461  0.105112  1
  Pr  Pr2  1  0.166270  0.814208  0.396967  1
  Pr  Pr3  1  0.999138  0.499522  0.728435  1
  Pr  Pr4  1  0.831188  0.195024  0.390038  1
  Pr  Pr5  1  0.680519  0.660281  0.390543  1
  Pr  Pr6  1  0.676381  0.317171  0.608084  1
  Pr  Pr7  1  0.326586  0.682053  0.606215  1
  Pr  Pr8  1  0.997192  0.495745  0.227909  1
  Pr  Pr9  1  0.664924  0.675523  0.111630  1
  Pr  Pr10  1  0.685830  0.328797  0.889784  1
  Pr  Pr11  1  0.829849  0.813027  0.893234  1
  Pr  Pr12  1  0.320074  0.336080  0.391149  1
  Pr  Pr13  1  0.183027  0.174383  0.604507  1
  Pr  Pr14  1  0.810232  0.169297  0.110384  1
  Pr  Pr15  1  0.316000  0.668299  0.891609  1
  Pr  Pr16  1  0.338611  0.321553  0.111361  1
  Pr  Pr17  1  0.504271  0.004436  0.272761  1
  Pr  Pr18  1  0.166404  0.186049  0.893138  1
  Pr  Pr19  1  0.499885  0.000517  0.771834  1
  Ga  Ga20  1  0.499223  0.998924  0.496215  1
  Ga  Ga21  1  0.496986  0.999974  0.994031  1
  Ga  Ga22  1  0.002011  0.501299  0.003885  1
  Si  Si23  1  0.113606  0.887390  0.748696  1
  Si  Si24  1  0.387136  0.385813  0.748410  1
  Si  Si25  1  0.381275  0.618586  0.251785  1
  Si  Si26  1  0.890151  0.883954  0.252685  1
  Si  Si27  1  0.613300  0.614265  0.747931  1
  Si  Si28  1  0.999668  0.503258  0.507481  1
  Si  Si29  1  0.886669  0.112076  0.748688  1
  Si  Si30  1  0.116269  0.109127  0.250450  1
  Tc  Tc31  1  0.618587  0.381700  0.250689  1
