# generated using pymatgen
data_Dy4Y12CdNi4Ag3
_symmetry_space_group_name_H-M   'P 1'
_cell_length_a   9.50414200
_cell_length_b   9.53452040
_cell_length_c   9.53452100
_cell_angle_alpha   59.99999446
_cell_angle_beta   59.89420415
_cell_angle_gamma   59.89420109
_symmetry_Int_Tables_number   1
_chemical_formula_structural   Dy4Y12CdNi4Ag3
_chemical_formula_sum   'Dy4 Y12 Cd1 Ni4 Ag3'
_cell_volume   609.95709375
_cell_formula_units_Z   1
loop_
 _symmetry_equiv_pos_site_id
 _symmetry_equiv_pos_as_xyz
  1  'x, y, z'
loop_
 _atom_site_type_symbol
 _atom_site_label
 _atom_site_symmetry_multiplicity
 _atom_site_fract_x
 _atom_site_fract_y
 _atom_site_fract_z
 _atom_site_occupancy
  Dy  Dy0  1  0.600559  0.599192  0.599192  1
  Dy  Dy1  1  0.600559  0.599192  0.201057  1
  Dy  Dy2  1  0.600559  0.201057  0.599192  1
  Dy  Dy3  1  0.196324  0.601225  0.601225  1
  Y  Y4  1  0.060359  0.439219  0.439219  1
  Y  Y5  1  0.438399  0.061203  0.061203  1
  Y  Y6  1  0.438399  0.061203  0.439195  1
  Y  Y7  1  0.060359  0.439219  0.061202  1
  Y  Y8  1  0.438399  0.439195  0.061203  1
  Y  Y9  1  0.060359  0.061202  0.439219  1
  Y  Y10  1  0.184219  0.813936  0.813936  1
  Y  Y11  1  0.814218  0.185981  0.185981  1
  Y  Y12  1  0.814218  0.185981  0.813820  1
  Y  Y13  1  0.184219  0.813936  0.187911  1
  Y  Y14  1  0.814218  0.813820  0.185981  1
  Y  Y15  1  0.184219  0.187911  0.813936  1
  Cd  Cd16  1  0.515427  0.828191  0.828191  1
  Ni  Ni17  1  0.392694  0.394151  0.394151  1
  Ni  Ni18  1  0.392694  0.394151  0.819006  1
  Ni  Ni19  1  0.392694  0.819006  0.394151  1
  Ni  Ni20  1  0.819815  0.393395  0.393395  1
  Ag  Ag21  1  0.832363  0.832406  0.832406  1
  Ag  Ag22  1  0.832363  0.832406  0.502825  1
  Ag  Ag23  1  0.832363  0.502825  0.832406  1
