# generated using pymatgen
data_Y4Al5Tc3
_symmetry_space_group_name_H-M   'P 1'
_cell_length_a   5.53476750
_cell_length_b   5.59604873
_cell_length_c   8.78023200
_cell_angle_alpha   90.00000000
_cell_angle_beta   90.00000000
_cell_angle_gamma   120.36693577
_symmetry_Int_Tables_number   1
_chemical_formula_structural   Y4Al5Tc3
_chemical_formula_sum   'Y4 Al5 Tc3'
_cell_volume   234.63877901
_cell_formula_units_Z   1
loop_
 _symmetry_equiv_pos_site_id
 _symmetry_equiv_pos_as_xyz
  1  'x, y, z'
loop_
 _atom_site_type_symbol
 _atom_site_label
 _atom_site_symmetry_multiplicity
 _atom_site_fract_x
 _atom_site_fract_y
 _atom_site_fract_z
 _atom_site_occupancy
  Y  Y0  1  0.337295  0.668648  0.443675  1
  Y  Y1  1  0.664059  0.332029  0.554858  1
  Y  Y2  1  0.664059  0.332029  0.945142  1
  Y  Y3  1  0.337295  0.668648  0.056325  1
  Al  Al4  1  0.837843  0.161135  0.250000  1
  Al  Al5  1  0.837843  0.676709  0.250000  1
  Al  Al6  1  0.322821  0.161410  0.250000  1
  Al  Al7  1  0.183598  0.841241  0.750000  1
  Al  Al8  1  0.183598  0.342357  0.750000  1
  Tc  Tc9  1  0.976222  0.988111  0.511231  1
  Tc  Tc10  1  0.976222  0.988111  0.988769  1
  Tc  Tc11  1  0.679143  0.839572  0.750000  1
