# generated using pymatgen
data_Tb4HoPt9
_symmetry_space_group_name_H-M   'P 1'
_cell_length_a   9.79920000
_cell_length_b   9.79920000
_cell_length_c   5.78755700
_cell_angle_alpha   90.00000000
_cell_angle_beta   90.00000000
_cell_angle_gamma   90.00000000
_symmetry_Int_Tables_number   1
_chemical_formula_structural   Tb4HoPt9
_chemical_formula_sum   'Tb8 Ho2 Pt18'
_cell_volume   555.74622909
_cell_formula_units_Z   2
loop_
 _symmetry_equiv_pos_site_id
 _symmetry_equiv_pos_as_xyz
  1  'x, y, z'
loop_
 _atom_site_type_symbol
 _atom_site_label
 _atom_site_symmetry_multiplicity
 _atom_site_fract_x
 _atom_site_fract_y
 _atom_site_fract_z
 _atom_site_occupancy
  Tb  Tb0  1  0.452247  0.809285  0.000000  1
  Tb  Tb1  1  0.547753  0.190715  0.000000  1
  Tb  Tb2  1  0.190715  0.547753  0.000000  1
  Tb  Tb3  1  0.809285  0.452247  0.000000  1
  Tb  Tb4  1  0.309285  0.047753  0.500000  1
  Tb  Tb5  1  0.690715  0.952247  0.500000  1
  Tb  Tb6  1  0.952247  0.690715  0.500000  1
  Tb  Tb7  1  0.047753  0.309285  0.500000  1
  Ho  Ho8  1  0.500000  0.500000  0.500000  1
  Ho  Ho9  1  0.000000  0.000000  0.000000  1
  Pt  Pt10  1  0.191288  0.808712  0.250693  1
  Pt  Pt11  1  0.808712  0.191288  0.749307  1
  Pt  Pt12  1  0.808712  0.191288  0.250693  1
  Pt  Pt13  1  0.191288  0.808712  0.749307  1
  Pt  Pt14  1  0.439949  0.780911  0.500000  1
  Pt  Pt15  1  0.560051  0.219089  0.500000  1
  Pt  Pt16  1  0.219089  0.560051  0.500000  1
  Pt  Pt17  1  0.780911  0.439949  0.500000  1
  Pt  Pt18  1  0.308712  0.308712  0.249307  1
  Pt  Pt19  1  0.691288  0.691288  0.750693  1
  Pt  Pt20  1  0.691288  0.691288  0.249307  1
  Pt  Pt21  1  0.308712  0.308712  0.750693  1
  Pt  Pt22  1  0.280911  0.060051  0.000000  1
  Pt  Pt23  1  0.719089  0.939949  0.000000  1
  Pt  Pt24  1  0.939949  0.719089  0.000000  1
  Pt  Pt25  1  0.060051  0.280911  0.000000  1
  Pt  Pt26  1  0.000000  0.000000  0.500000  1
  Pt  Pt27  1  0.500000  0.500000  0.000000  1
