# generated using pymatgen
data_Zr3Zn3Ir2Pt
_symmetry_space_group_name_H-M   'P 1'
_cell_length_a   7.31639800
_cell_length_b   7.31639754
_cell_length_c   3.39716300
_cell_angle_alpha   90.00000000
_cell_angle_beta   90.00000000
_cell_angle_gamma   120.00000208
_symmetry_Int_Tables_number   1
_chemical_formula_structural   Zr3Zn3Ir2Pt
_chemical_formula_sum   'Zr3 Zn3 Ir2 Pt1'
_cell_volume   157.48588135
_cell_formula_units_Z   1
loop_
 _symmetry_equiv_pos_site_id
 _symmetry_equiv_pos_as_xyz
  1  'x, y, z'
loop_
 _atom_site_type_symbol
 _atom_site_label
 _atom_site_symmetry_multiplicity
 _atom_site_fract_x
 _atom_site_fract_y
 _atom_site_fract_z
 _atom_site_occupancy
  Zr  Zr0  1  0.399361  0.000000  0.500000  1
  Zr  Zr1  1  0.000000  0.399360  0.500000  1
  Zr  Zr2  1  0.600639  0.600639  0.500000  1
  Zn  Zn3  1  0.730720  0.000000  0.000000  1
  Zn  Zn4  1  0.269280  0.269280  0.000000  1
  Zn  Zn5  1  0.000000  0.730721  0.000000  1
  Ir  Ir6  1  0.666667  0.333333  0.000000  1
  Ir  Ir7  1  0.333333  0.666666  0.000000  1
  Pt  Pt8  1  0.000000  0.000000  0.500000  1
