# generated using pymatgen
data_CaLu(Al5Os)4
_symmetry_space_group_name_H-M   'P 1'
_cell_length_a   6.86970770
_cell_length_b   6.86970809
_cell_length_c   9.14946100
_cell_angle_alpha   90.00000000
_cell_angle_beta   90.00000000
_cell_angle_gamma   96.36889122
_symmetry_Int_Tables_number   1
_chemical_formula_structural   CaLu(Al5Os)4
_chemical_formula_sum   'Ca1 Lu1 Al20 Os4'
_cell_volume   429.12459776
_cell_formula_units_Z   1
loop_
 _symmetry_equiv_pos_site_id
 _symmetry_equiv_pos_as_xyz
  1  'x, y, z'
loop_
 _atom_site_type_symbol
 _atom_site_label
 _atom_site_symmetry_multiplicity
 _atom_site_fract_x
 _atom_site_fract_y
 _atom_site_fract_z
 _atom_site_occupancy
  Ca  Ca0  1  0.872937  0.127063  0.750000  1
  Lu  Lu1  1  0.129357  0.870643  0.250000  1
  Al  Al2  1  0.521477  0.782936  0.750000  1
  Al  Al3  1  0.782444  0.519906  0.250000  1
  Al  Al4  1  0.480094  0.217556  0.250000  1
  Al  Al5  1  0.217064  0.478523  0.750000  1
  Al  Al6  1  0.623719  0.376281  0.959596  1
  Al  Al7  1  0.376009  0.623991  0.049118  1
  Al  Al8  1  0.623719  0.376281  0.540404  1
  Al  Al9  1  0.376009  0.623991  0.450882  1
  Al  Al10  1  0.413626  0.144734  0.750000  1
  Al  Al11  1  0.146954  0.419735  0.250000  1
  Al  Al12  1  0.580265  0.853046  0.250000  1
  Al  Al13  1  0.855266  0.586374  0.750000  1
  Al  Al14  1  0.846805  0.153195  0.398906  1
  Al  Al15  1  0.157698  0.842302  0.600505  1
  Al  Al16  1  0.846805  0.153195  0.101094  1
  Al  Al17  1  0.157698  0.842302  0.899495  1
  Al  Al18  1  0.775345  0.776705  0.001781  1
  Al  Al19  1  0.775345  0.776705  0.498219  1
  Al  Al20  1  0.223295  0.224655  0.001781  1
  Al  Al21  1  0.223295  0.224655  0.498219  1
  Os  Os22  1  0.497530  0.000144  0.000972  1
  Os  Os23  1  0.999856  0.502470  0.000972  1
  Os  Os24  1  0.497530  0.000144  0.499028  1
  Os  Os25  1  0.999856  0.502470  0.499028  1
