# generated using pymatgen
data_Ho2LuPaPt4
_symmetry_space_group_name_H-M   'P 1'
_cell_length_a   4.53511500
_cell_length_b   5.56646542
_cell_length_c   6.94104106
_cell_angle_alpha   89.41925971
_cell_angle_beta   90.00000000
_cell_angle_gamma   90.00000000
_symmetry_Int_Tables_number   1
_chemical_formula_structural   Ho2LuPaPt4
_chemical_formula_sum   'Ho2 Lu1 Pa1 Pt4'
_cell_volume   175.21453250
_cell_formula_units_Z   1
loop_
 _symmetry_equiv_pos_site_id
 _symmetry_equiv_pos_as_xyz
  1  'x, y, z'
loop_
 _atom_site_type_symbol
 _atom_site_label
 _atom_site_symmetry_multiplicity
 _atom_site_fract_x
 _atom_site_fract_y
 _atom_site_fract_z
 _atom_site_occupancy
  Ho  Ho0  1  0.750000  0.353806  0.814710  1
  Ho  Ho1  1  0.250000  0.857924  0.683250  1
  Lu  Lu2  1  0.750000  0.145217  0.320595  1
  Pa  Pa3  1  0.250000  0.645075  0.182689  1
  Pt  Pt4  1  0.250000  0.161231  0.054302  1
  Pt  Pt5  1  0.750000  0.833882  0.962705  1
  Pt  Pt6  1  0.750000  0.659094  0.446573  1
  Pt  Pt7  1  0.250000  0.343770  0.535176  1
