# generated using pymatgen
data_DySc2Mn(Co4P3)2
_symmetry_space_group_name_H-M   'P 1'
_cell_length_a   3.63299300
_cell_length_b   10.42796300
_cell_length_c   12.04994900
_cell_angle_alpha   90.00000000
_cell_angle_beta   90.00000000
_cell_angle_gamma   90.00000000
_symmetry_Int_Tables_number   1
_chemical_formula_structural   DySc2Mn(Co4P3)2
_chemical_formula_sum   'Dy2 Sc4 Mn2 Co16 P12'
_cell_volume   456.50890271
_cell_formula_units_Z   2
loop_
 _symmetry_equiv_pos_site_id
 _symmetry_equiv_pos_as_xyz
  1  'x, y, z'
loop_
 _atom_site_type_symbol
 _atom_site_label
 _atom_site_symmetry_multiplicity
 _atom_site_fract_x
 _atom_site_fract_y
 _atom_site_fract_z
 _atom_site_occupancy
  Dy  Dy0  1  0.000000  0.500000  0.524702  1
  Dy  Dy1  1  0.500000  0.000000  0.475298  1
  Sc  Sc2  1  0.500000  0.818969  0.203942  1
  Sc  Sc3  1  0.500000  0.181031  0.203942  1
  Sc  Sc4  1  0.000000  0.681031  0.796058  1
  Sc  Sc5  1  0.000000  0.318969  0.796058  1
  Mn  Mn6  1  0.500000  0.500000  0.158070  1
  Mn  Mn7  1  0.000000  0.000000  0.841930  1
  Co  Co8  1  0.500000  0.500000  0.705696  1
  Co  Co9  1  0.000000  0.000000  0.294304  1
  Co  Co10  1  0.000000  0.500000  0.986301  1
  Co  Co11  1  0.500000  0.000000  0.013699  1
  Co  Co12  1  0.500000  0.332638  0.992963  1
  Co  Co13  1  0.500000  0.667362  0.992963  1
  Co  Co14  1  0.000000  0.167362  0.007037  1
  Co  Co15  1  0.000000  0.832638  0.007037  1
  Co  Co16  1  0.500000  0.296164  0.429805  1
  Co  Co17  1  0.500000  0.703836  0.429805  1
  Co  Co18  1  0.000000  0.203836  0.570195  1
  Co  Co19  1  0.000000  0.796164  0.570195  1
  Co  Co20  1  0.500000  0.877383  0.710473  1
  Co  Co21  1  0.500000  0.122617  0.710473  1
  Co  Co22  1  0.000000  0.622617  0.289527  1
  Co  Co23  1  0.000000  0.377383  0.289527  1
  P  P24  1  0.500000  0.500000  0.881422  1
  P  P25  1  0.000000  0.000000  0.118578  1
  P  P26  1  0.500000  0.500000  0.345190  1
  P  P27  1  0.000000  0.000000  0.654810  1
  P  P28  1  0.500000  0.312248  0.620129  1
  P  P29  1  0.500000  0.687752  0.620129  1
  P  P30  1  0.000000  0.187752  0.379871  1
  P  P31  1  0.000000  0.812248  0.379871  1
  P  P32  1  0.500000  0.844782  0.890963  1
  P  P33  1  0.500000  0.155218  0.890963  1
  P  P34  1  0.000000  0.655218  0.109037  1
  P  P35  1  0.000000  0.344782  0.109037  1
