# generated using pymatgen
data_Pr8Zn3Si12Hg
_symmetry_space_group_name_H-M   'P 1'
_cell_length_a   8.28298500
_cell_length_b   8.28298574
_cell_length_c   8.65181300
_cell_angle_alpha   90.00000000
_cell_angle_beta   90.00000000
_cell_angle_gamma   120.00000102
_symmetry_Int_Tables_number   1
_chemical_formula_structural   Pr8Zn3Si12Hg
_chemical_formula_sum   'Pr8 Zn3 Si12 Hg1'
_cell_volume   514.05731091
_cell_formula_units_Z   1
loop_
 _symmetry_equiv_pos_site_id
 _symmetry_equiv_pos_as_xyz
  1  'x, y, z'
loop_
 _atom_site_type_symbol
 _atom_site_label
 _atom_site_symmetry_multiplicity
 _atom_site_fract_x
 _atom_site_fract_y
 _atom_site_fract_z
 _atom_site_occupancy
  Pr  Pr0  1  0.497908  0.502092  0.746773  1
  Pr  Pr1  1  0.498842  0.501158  0.252851  1
  Pr  Pr2  1  0.004185  0.502092  0.746773  1
  Pr  Pr3  1  0.002317  0.501158  0.252851  1
  Pr  Pr4  1  0.497908  0.995815  0.746773  1
  Pr  Pr5  1  0.498842  0.997683  0.252851  1
  Pr  Pr6  1  0.000000  0.000000  0.748501  1
  Pr  Pr7  1  0.000000  0.000000  0.252456  1
  Zn  Zn8  1  0.333333  0.666667  0.001703  1
  Zn  Zn9  1  0.333333  0.666667  0.498643  1
  Zn  Zn10  1  0.666667  0.333333  0.500637  1
  Si  Si11  1  0.840925  0.159075  0.001982  1
  Si  Si12  1  0.167023  0.832977  0.998944  1
  Si  Si13  1  0.318150  0.159075  0.001982  1
  Si  Si14  1  0.166009  0.833991  0.499633  1
  Si  Si15  1  0.665956  0.832977  0.998944  1
  Si  Si16  1  0.834040  0.165960  0.500584  1
  Si  Si17  1  0.840925  0.681850  0.001982  1
  Si  Si18  1  0.667983  0.833991  0.499633  1
  Si  Si19  1  0.167023  0.334044  0.998944  1
  Si  Si20  1  0.331918  0.165960  0.500584  1
  Si  Si21  1  0.166009  0.332017  0.499633  1
  Si  Si22  1  0.834040  0.668082  0.500584  1
  Hg  Hg23  1  0.666667  0.333333  0.995755  1
