# generated using pymatgen
data_Ho5Tm5(InBi2)2
_symmetry_space_group_name_H-M   'P 1'
_cell_length_a   6.48314600
_cell_length_b   9.02987269
_cell_length_c   9.01129337
_cell_angle_alpha   119.95176326
_cell_angle_beta   90.00112049
_cell_angle_gamma   90.00063062
_symmetry_Int_Tables_number   1
_chemical_formula_structural   Ho5Tm5(InBi2)2
_chemical_formula_sum   'Ho5 Tm5 In2 Bi4'
_cell_volume   457.08406407
_cell_formula_units_Z   1
loop_
 _symmetry_equiv_pos_site_id
 _symmetry_equiv_pos_as_xyz
  1  'x, y, z'
loop_
 _atom_site_type_symbol
 _atom_site_label
 _atom_site_symmetry_multiplicity
 _atom_site_fract_x
 _atom_site_fract_y
 _atom_site_fract_z
 _atom_site_occupancy
  Ho  Ho0  1  0.750002  0.237433  0.999920  1
  Ho  Ho1  1  0.750001  0.761987  0.759693  1
  Ho  Ho2  1  0.750011  0.001876  0.237416  1
  Ho  Ho3  1  0.250003  0.765102  0.999523  1
  Ho  Ho4  1  0.250012  0.234197  0.243831  1
  Tm  Tm5  1  0.496890  0.332459  0.661107  1
  Tm  Tm6  1  0.496987  0.672991  0.340305  1
  Tm  Tm7  1  0.003027  0.672984  0.340309  1
  Tm  Tm8  1  0.003121  0.332469  0.661111  1
  Tm  Tm9  1  0.250002  0.990000  0.757131  1
  In  In10  1  0.249983  0.604397  0.605153  1
  In  In11  1  0.249965  0.998453  0.395955  1
  Bi  Bi12  1  0.749999  0.606656  0.000754  1
  Bi  Bi13  1  0.749994  0.395261  0.391955  1
  Bi  Bi14  1  0.750004  0.004625  0.606537  1
  Bi  Bi15  1  0.249997  0.389112  0.999300  1
