# generated using pymatgen
data_GaCoNi2(Mo3N)2
_symmetry_space_group_name_H-M   'P 1'
_cell_length_a   6.71188300
_cell_length_b   6.70545870
_cell_length_c   6.70220604
_cell_angle_alpha   90.41231659
_cell_angle_beta   90.00000000
_cell_angle_gamma   90.00000000
_symmetry_Int_Tables_number   1
_chemical_formula_structural   GaCoNi2(Mo3N)2
_chemical_formula_sum   'Ga2 Co2 Ni4 Mo12 N4'
_cell_volume   301.63337865
_cell_formula_units_Z   2
loop_
 _symmetry_equiv_pos_site_id
 _symmetry_equiv_pos_as_xyz
  1  'x, y, z'
loop_
 _atom_site_type_symbol
 _atom_site_label
 _atom_site_symmetry_multiplicity
 _atom_site_fract_x
 _atom_site_fract_y
 _atom_site_fract_z
 _atom_site_occupancy
  Ga  Ga0  1  0.319124  0.823845  0.931071  1
  Ga  Ga1  1  0.819124  0.176155  0.068929  1
  Co  Co2  1  0.183455  0.319340  0.569026  1
  Co  Co3  1  0.683455  0.680660  0.430974  1
  Ni  Ni4  1  0.934672  0.432537  0.313566  1
  Ni  Ni5  1  0.568087  0.931056  0.182338  1
  Ni  Ni6  1  0.434672  0.567463  0.686434  1
  Ni  Ni7  1  0.068087  0.068944  0.817662  1
  Mo  Mo8  1  0.379525  0.951920  0.541134  1
  Mo  Mo9  1  0.879525  0.048080  0.458866  1
  Mo  Mo10  1  0.128806  0.455294  0.944629  1
  Mo  Mo11  1  0.628806  0.544706  0.055371  1
  Mo  Mo12  1  0.798182  0.378215  0.694503  1
  Mo  Mo13  1  0.702125  0.871185  0.786451  1
  Mo  Mo14  1  0.202125  0.128815  0.213549  1
  Mo  Mo15  1  0.298182  0.621785  0.305497  1
  Mo  Mo16  1  0.948035  0.789732  0.132835  1
  Mo  Mo17  1  0.040877  0.695780  0.619453  1
  Mo  Mo18  1  0.448035  0.210268  0.867165  1
  Mo  Mo19  1  0.540877  0.304220  0.380547  1
  N  N20  1  0.624967  0.126810  0.621895  1
  N  N21  1  0.124967  0.873190  0.378105  1
  N  N22  1  0.872144  0.624453  0.875494  1
  N  N23  1  0.372144  0.375547  0.124506  1
