# generated using pymatgen
data_Ce3Hg3Pd2Au
_symmetry_space_group_name_H-M   'P 1'
_cell_length_a   7.95094900
_cell_length_b   7.95094891
_cell_length_c   3.87178600
_cell_angle_alpha   90.00000000
_cell_angle_beta   90.00000000
_cell_angle_gamma   119.99999622
_symmetry_Int_Tables_number   1
_chemical_formula_structural   Ce3Hg3Pd2Au
_chemical_formula_sum   'Ce3 Hg3 Pd2 Au1'
_cell_volume   211.97269616
_cell_formula_units_Z   1
loop_
 _symmetry_equiv_pos_site_id
 _symmetry_equiv_pos_as_xyz
  1  'x, y, z'
loop_
 _atom_site_type_symbol
 _atom_site_label
 _atom_site_symmetry_multiplicity
 _atom_site_fract_x
 _atom_site_fract_y
 _atom_site_fract_z
 _atom_site_occupancy
  Ce  Ce0  1  0.393327  0.401375  0.500000  1
  Ce  Ce1  1  0.598625  0.991952  0.500000  1
  Ce  Ce2  1  0.008048  0.606673  0.500000  1
  Hg  Hg3  1  0.733823  0.737597  0.000000  1
  Hg  Hg4  1  0.262403  0.996226  0.000000  1
  Hg  Hg5  1  0.003774  0.266177  0.000000  1
  Pd  Pd6  1  0.333333  0.666667  0.000000  1
  Pd  Pd7  1  0.000000  0.000000  0.500000  1
  Au  Au8  1  0.666667  0.333333  0.000000  1
