# generated using pymatgen
data_Ho9Er(SiB4)4
_symmetry_space_group_name_H-M   'P 1'
_cell_length_a   7.20289300
_cell_length_b   7.20289300
_cell_length_c   8.03976800
_cell_angle_alpha   90.00000000
_cell_angle_beta   90.00000000
_cell_angle_gamma   90.00000000
_symmetry_Int_Tables_number   1
_chemical_formula_structural   Ho9Er(SiB4)4
_chemical_formula_sum   'Ho9 Er1 Si4 B16'
_cell_volume   417.11657071
_cell_formula_units_Z   1
loop_
 _symmetry_equiv_pos_site_id
 _symmetry_equiv_pos_as_xyz
  1  'x, y, z'
loop_
 _atom_site_type_symbol
 _atom_site_label
 _atom_site_symmetry_multiplicity
 _atom_site_fract_x
 _atom_site_fract_y
 _atom_site_fract_z
 _atom_site_occupancy
  Ho  Ho0  1  0.680350  0.180232  0.224240  1
  Ho  Ho1  1  0.319650  0.819768  0.775760  1
  Ho  Ho2  1  0.319650  0.819768  0.224240  1
  Ho  Ho3  1  0.819768  0.680350  0.224240  1
  Ho  Ho4  1  0.819768  0.680350  0.775760  1
  Ho  Ho5  1  0.680350  0.180232  0.775760  1
  Ho  Ho6  1  0.180232  0.319650  0.775760  1
  Ho  Ho7  1  0.180232  0.319650  0.224240  1
  Ho  Ho8  1  0.500000  0.500000  0.500000  1
  Er  Er9  1  0.000000  0.000000  0.500000  1
  Si  Si10  1  0.115170  0.615750  0.500000  1
  Si  Si11  1  0.884830  0.384250  0.500000  1
  Si  Si12  1  0.384250  0.115170  0.500000  1
  Si  Si13  1  0.615750  0.884830  0.500000  1
  B  B14  1  0.172671  0.039068  0.000000  1
  B  B15  1  0.827329  0.960932  0.000000  1
  B  B16  1  0.960932  0.172671  0.000000  1
  B  B17  1  0.327322  0.539092  0.000000  1
  B  B18  1  0.039068  0.827329  0.000000  1
  B  B19  1  0.672678  0.460908  0.000000  1
  B  B20  1  0.539092  0.672678  0.000000  1
  B  B21  1  0.460908  0.327322  0.000000  1
  B  B22  1  0.089765  0.589733  0.000000  1
  B  B23  1  0.910235  0.410267  0.000000  1
  B  B24  1  0.410267  0.089765  0.000000  1
  B  B25  1  0.589733  0.910235  0.000000  1
  B  B26  1  0.000000  0.000000  0.163834  1
  B  B27  1  0.000000  0.000000  0.836166  1
  B  B28  1  0.500000  0.500000  0.836378  1
  B  B29  1  0.500000  0.500000  0.163622  1
