# generated using pymatgen
data_Tb6PrNd(WO6)4
_symmetry_space_group_name_H-M   'P 1'
_cell_length_a   5.47148300
_cell_length_b   7.80414255
_cell_length_c   11.60695868
_cell_angle_alpha   75.64142070
_cell_angle_beta   90.00000000
_cell_angle_gamma   90.00000000
_symmetry_Int_Tables_number   1
_chemical_formula_structural   Tb6PrNd(WO6)4
_chemical_formula_sum   'Tb6 Pr1 Nd1 W4 O24'
_cell_volume   480.13801420
_cell_formula_units_Z   1
loop_
 _symmetry_equiv_pos_site_id
 _symmetry_equiv_pos_as_xyz
  1  'x, y, z'
loop_
 _atom_site_type_symbol
 _atom_site_label
 _atom_site_symmetry_multiplicity
 _atom_site_fract_x
 _atom_site_fract_y
 _atom_site_fract_z
 _atom_site_occupancy
  Tb  Tb0  1  0.740303  0.000000  0.750000  1
  Tb  Tb1  1  0.259734  0.000000  0.250000  1
  Tb  Tb2  1  0.186876  0.797075  0.576363  1
  Tb  Tb3  1  0.813312  0.796640  0.076626  1
  Tb  Tb4  1  0.186876  0.202925  0.923637  1
  Tb  Tb5  1  0.813312  0.203360  0.423374  1
  Pr  Pr6  1  0.684683  0.500000  0.750000  1
  Nd  Nd7  1  0.315846  0.500000  0.250000  1
  W  W8  1  0.252972  0.727654  0.884478  1
  W  W9  1  0.747023  0.727385  0.384032  1
  W  W10  1  0.252972  0.272346  0.615522  1
  W  W11  1  0.747023  0.272615  0.115968  1
  O  O12  1  0.042348  0.940254  0.895907  1
  O  O13  1  0.530102  0.847088  0.930255  1
  O  O14  1  0.957475  0.940355  0.395587  1
  O  O15  1  0.454045  0.793666  0.728240  1
  O  O16  1  0.470316  0.847102  0.430159  1
  O  O17  1  0.986073  0.718469  0.770834  1
  O  O18  1  0.545352  0.792892  0.228196  1
  O  O19  1  0.852382  0.641431  0.544647  1
  O  O20  1  0.348521  0.494358  0.887380  1
  O  O21  1  0.015095  0.717181  0.270940  1
  O  O22  1  0.348521  0.505642  0.612620  1
  O  O23  1  0.852382  0.358569  0.955353  1
  O  O24  1  0.148206  0.641277  0.045438  1
  O  O25  1  0.649620  0.494386  0.386774  1
  O  O26  1  0.986073  0.281531  0.729166  1
  O  O27  1  0.649620  0.505614  0.113226  1
  O  O28  1  0.148206  0.358723  0.454562  1
  O  O29  1  0.454045  0.206334  0.771760  1
  O  O30  1  0.015095  0.282819  0.229060  1
  O  O31  1  0.530102  0.152912  0.569745  1
  O  O32  1  0.545352  0.207108  0.271804  1
  O  O33  1  0.042348  0.059746  0.604093  1
  O  O34  1  0.470316  0.152898  0.069841  1
  O  O35  1  0.957475  0.059645  0.104413  1
