# generated using pymatgen
data_Sr8Mn4Fe(MoO8)3
_symmetry_space_group_name_H-M   'P 1'
_cell_length_a   8.00048875
_cell_length_b   7.99661909
_cell_length_c   8.01325274
_cell_angle_alpha   90.24351702
_cell_angle_beta   90.22989823
_cell_angle_gamma   90.24301560
_symmetry_Int_Tables_number   1
_chemical_formula_structural   Sr8Mn4Fe(MoO8)3
_chemical_formula_sum   'Sr8 Mn4 Fe1 Mo3 O24'
_cell_volume   512.64935118
_cell_formula_units_Z   1
loop_
 _symmetry_equiv_pos_site_id
 _symmetry_equiv_pos_as_xyz
  1  'x, y, z'
loop_
 _atom_site_type_symbol
 _atom_site_label
 _atom_site_symmetry_multiplicity
 _atom_site_fract_x
 _atom_site_fract_y
 _atom_site_fract_z
 _atom_site_occupancy
  Sr  Sr0  1  0.261159  0.757008  0.236167  1
  Sr  Sr1  1  0.263403  0.240054  0.242184  1
  Sr  Sr2  1  0.742220  0.764021  0.237799  1
  Sr  Sr3  1  0.748031  0.246472  0.246963  1
  Sr  Sr4  1  0.251970  0.753529  0.753037  1
  Sr  Sr5  1  0.257781  0.235980  0.762201  1
  Sr  Sr6  1  0.736598  0.759947  0.757816  1
  Sr  Sr7  1  0.738842  0.242993  0.763833  1
  Mn  Mn8  1  0.000000  0.000000  0.000000  1
  Mn  Mn9  1  0.500000  0.500000  0.000000  1
  Mn  Mn10  1  0.500000  0.000000  0.500000  1
  Mn  Mn11  1  0.000000  0.500000  0.500000  1
  Fe  Fe12  1  0.500000  0.000000  0.000000  1
  Mo  Mo13  1  0.000000  0.500000  0.000000  1
  Mo  Mo14  1  0.000000  0.000000  0.500000  1
  Mo  Mo15  1  0.500000  0.500000  0.500000  1
  O  O16  1  0.755922  0.006362  0.993252  1
  O  O17  1  0.758596  0.488267  0.035263  1
  O  O18  1  0.993854  0.741275  0.037571  1
  O  O19  1  0.508587  0.744071  0.996633  1
  O  O20  1  0.505335  0.994383  0.256189  1
  O  O21  1  0.035231  0.463491  0.235108  1
  O  O22  1  0.989695  0.032325  0.258824  1
  O  O23  1  0.462068  0.502928  0.259178  1
  O  O24  1  0.734522  0.542902  0.463671  1
  O  O25  1  0.759977  0.951927  0.504444  1
  O  O26  1  0.456752  0.740928  0.508632  1
  O  O27  1  0.047612  0.765433  0.468907  1
  O  O28  1  0.952388  0.234568  0.531094  1
  O  O29  1  0.543247  0.259073  0.491369  1
  O  O30  1  0.240024  0.048073  0.495557  1
  O  O31  1  0.265478  0.457099  0.536330  1
  O  O32  1  0.537931  0.497073  0.740822  1
  O  O33  1  0.010305  0.967674  0.741176  1
  O  O34  1  0.964768  0.536508  0.764892  1
  O  O35  1  0.494666  0.005617  0.743811  1
  O  O36  1  0.491414  0.255930  0.003367  1
  O  O37  1  0.006146  0.258725  0.962429  1
  O  O38  1  0.241405  0.511732  0.964738  1
  O  O39  1  0.244079  0.993638  0.006749  1
