# generated using pymatgen
data_La3YPa2(SnRh)6
_symmetry_space_group_name_H-M   'P 1'
_cell_length_a   7.57151579
_cell_length_b   7.50677438
_cell_length_c   8.22121000
_cell_angle_alpha   90.00000000
_cell_angle_beta   90.00000000
_cell_angle_gamma   119.71642240
_symmetry_Int_Tables_number   1
_chemical_formula_structural   La3YPa2(SnRh)6
_chemical_formula_sum   'La3 Y1 Pa2 Sn6 Rh6'
_cell_volume   405.82284715
_cell_formula_units_Z   1
loop_
 _symmetry_equiv_pos_site_id
 _symmetry_equiv_pos_as_xyz
  1  'x, y, z'
loop_
 _atom_site_type_symbol
 _atom_site_label
 _atom_site_symmetry_multiplicity
 _atom_site_fract_x
 _atom_site_fract_y
 _atom_site_fract_z
 _atom_site_occupancy
  La  La0  1  0.582725  0.994600  0.750000  1
  La  La1  1  0.417052  0.411745  0.750000  1
  La  La2  1  0.999794  0.585629  0.750000  1
  Y  Y3  1  0.999696  0.596142  0.250000  1
  Pa  Pa4  1  0.588587  0.004019  0.250000  1
  Pa  Pa5  1  0.411825  0.415367  0.250000  1
  Sn  Sn6  1  0.245195  0.994335  0.005705  1
  Sn  Sn7  1  0.754778  0.749315  0.494409  1
  Sn  Sn8  1  0.000102  0.258821  0.496114  1
  Sn  Sn9  1  0.000102  0.258821  0.003886  1
  Sn  Sn10  1  0.754778  0.749315  0.005591  1
  Sn  Sn11  1  0.245195  0.994335  0.494295  1
  Rh  Rh12  1  0.648175  0.316918  0.036174  1
  Rh  Rh13  1  0.648175  0.316918  0.463826  1
  Rh  Rh14  1  0.351901  0.668675  0.036831  1
  Rh  Rh15  1  0.351901  0.668675  0.463169  1
  Rh  Rh16  1  0.000082  0.001729  0.750000  1
  Rh  Rh17  1  0.999934  0.014640  0.250000  1
