# generated using pymatgen
data_ThZr(AsPt)2
_symmetry_space_group_name_H-M   'P 1'
_cell_length_a   4.25851300
_cell_length_b   4.25851423
_cell_length_c   15.43881900
_cell_angle_alpha   90.00000000
_cell_angle_beta   90.00000000
_cell_angle_gamma   120.00001371
_symmetry_Int_Tables_number   1
_chemical_formula_structural   ThZr(AsPt)2
_chemical_formula_sum   'Th2 Zr2 As4 Pt4'
_cell_volume   242.47151612
_cell_formula_units_Z   2
loop_
 _symmetry_equiv_pos_site_id
 _symmetry_equiv_pos_as_xyz
  1  'x, y, z'
loop_
 _atom_site_type_symbol
 _atom_site_label
 _atom_site_symmetry_multiplicity
 _atom_site_fract_x
 _atom_site_fract_y
 _atom_site_fract_z
 _atom_site_occupancy
  Th  Th0  1  0.000000  0.000000  0.500000  1
  Th  Th1  1  0.000000  0.000000  0.000000  1
  Zr  Zr2  1  0.000000  0.000000  0.250000  1
  Zr  Zr3  1  0.000000  0.000000  0.750000  1
  As  As4  1  0.333333  0.666667  0.883320  1
  As  As5  1  0.666667  0.333333  0.116680  1
  As  As6  1  0.666667  0.333333  0.383320  1
  As  As7  1  0.333333  0.666667  0.616680  1
  Pt  Pt8  1  0.333333  0.666667  0.342798  1
  Pt  Pt9  1  0.666667  0.333333  0.657202  1
  Pt  Pt10  1  0.666667  0.333333  0.842798  1
  Pt  Pt11  1  0.333333  0.666667  0.157202  1
