# generated using pymatgen
data_LiTb16In3Ir3Rh
_symmetry_space_group_name_H-M   'P 1'
_cell_length_a   9.69224309
_cell_length_b   9.71203993
_cell_length_c   9.71203998
_cell_angle_alpha   59.96495491
_cell_angle_beta   59.84935738
_cell_angle_gamma   59.84935105
_symmetry_Int_Tables_number   1
_chemical_formula_structural   LiTb16In3Ir3Rh
_chemical_formula_sum   'Li1 Tb16 In3 Ir3 Rh1'
_cell_volume   644.79689288
_cell_formula_units_Z   1
loop_
 _symmetry_equiv_pos_site_id
 _symmetry_equiv_pos_as_xyz
  1  'x, y, z'
loop_
 _atom_site_type_symbol
 _atom_site_label
 _atom_site_symmetry_multiplicity
 _atom_site_fract_x
 _atom_site_fract_y
 _atom_site_fract_z
 _atom_site_occupancy
  Li  Li0  1  0.428312  0.428316  0.428316  1
  Tb  Tb1  1  0.808415  0.807750  0.191618  1
  Tb  Tb2  1  0.808415  0.191618  0.807750  1
  Tb  Tb3  1  0.187820  0.187945  0.813377  1
  Tb  Tb4  1  0.650899  0.046273  0.650502  1
  Tb  Tb5  1  0.059984  0.059853  0.439896  1
  Tb  Tb6  1  0.438645  0.436625  0.061547  1
  Tb  Tb7  1  0.650966  0.650696  0.650696  1
  Tb  Tb8  1  0.813385  0.188174  0.188174  1
  Tb  Tb9  1  0.191569  0.808090  0.808090  1
  Tb  Tb10  1  0.045644  0.650926  0.650926  1
  Tb  Tb11  1  0.439916  0.060630  0.060630  1
  Tb  Tb12  1  0.438645  0.061547  0.436625  1
  Tb  Tb13  1  0.059984  0.439896  0.059853  1
  Tb  Tb14  1  0.650899  0.650502  0.046273  1
  Tb  Tb15  1  0.187820  0.813377  0.187945  1
  Tb  Tb16  1  0.061083  0.438518  0.438518  1
  In  In17  1  0.417841  0.417921  0.745420  1
  In  In18  1  0.417841  0.745420  0.417921  1
  In  In19  1  0.745489  0.417924  0.417924  1
  Ir  Ir20  1  0.857542  0.424641  0.857825  1
  Ir  Ir21  1  0.857157  0.857493  0.857493  1
  Ir  Ir22  1  0.857542  0.857825  0.424641  1
  Rh  Rh23  1  0.424191  0.858038  0.858038  1
