# generated using pymatgen
data_Tb5EuYFeI12
_symmetry_space_group_name_H-M   'P 1'
_cell_length_a   9.77604272
_cell_length_b   9.85914766
_cell_length_c   9.85495162
_cell_angle_alpha   106.65202002
_cell_angle_beta   106.49979970
_cell_angle_gamma   106.28122117
_symmetry_Int_Tables_number   1
_chemical_formula_structural   Tb5EuYFeI12
_chemical_formula_sum   'Tb5 Eu1 Y1 Fe1 I12'
_cell_volume   802.04530111
_cell_formula_units_Z   1
loop_
 _symmetry_equiv_pos_site_id
 _symmetry_equiv_pos_as_xyz
  1  'x, y, z'
loop_
 _atom_site_type_symbol
 _atom_site_label
 _atom_site_symmetry_multiplicity
 _atom_site_fract_x
 _atom_site_fract_y
 _atom_site_fract_z
 _atom_site_occupancy
  Tb  Tb0  1  0.734559  0.980040  0.915735  1
  Tb  Tb1  1  0.979366  0.903661  0.699756  1
  Tb  Tb2  1  0.094754  0.299570  0.022517  1
  Tb  Tb3  1  0.265553  0.020081  0.084382  1
  Tb  Tb4  1  0.905324  0.700517  0.977682  1
  Eu  Eu5  1  0.499702  0.500056  0.500078  1
  Y  Y6  1  0.020834  0.096198  0.300507  1
  Fe  Fe7  1  0.000141  0.999986  0.999669  1
  I  I8  1  0.074742  0.224070  0.678227  1
  I  I9  1  0.368711  0.139375  0.444167  1
  I  I10  1  0.630546  0.860514  0.555736  1
  I  I11  1  0.226683  0.686290  0.076857  1
  I  I12  1  0.773455  0.313721  0.922996  1
  I  I13  1  0.684559  0.073553  0.220349  1
  I  I14  1  0.553161  0.634113  0.860960  1
  I  I15  1  0.860219  0.548523  0.628228  1
  I  I16  1  0.925082  0.776014  0.320665  1
  I  I17  1  0.316818  0.926995  0.780500  1
  I  I18  1  0.446886  0.366068  0.139318  1
  I  I19  1  0.138904  0.450654  0.371670  1
