# generated using pymatgen
data_Dy2TmTh11Os6
_symmetry_space_group_name_H-M   'P 1'
_cell_length_a   9.88760827
_cell_length_b   9.97747941
_cell_length_c   6.37149850
_cell_angle_alpha   90.07162994
_cell_angle_beta   90.01953866
_cell_angle_gamma   120.19922511
_symmetry_Int_Tables_number   1
_chemical_formula_structural   Dy2TmTh11Os6
_chemical_formula_sum   'Dy2 Tm1 Th11 Os6'
_cell_volume   543.26075735
_cell_formula_units_Z   1
loop_
 _symmetry_equiv_pos_site_id
 _symmetry_equiv_pos_as_xyz
  1  'x, y, z'
loop_
 _atom_site_type_symbol
 _atom_site_label
 _atom_site_symmetry_multiplicity
 _atom_site_fract_x
 _atom_site_fract_y
 _atom_site_fract_z
 _atom_site_occupancy
  Dy  Dy0  1  0.073410  0.535452  0.300785  1
  Dy  Dy1  1  0.928228  0.463687  0.799682  1
  Tm  Tm2  1  0.460143  0.536631  0.300362  1
  Th  Th3  1  0.252767  0.128574  0.510356  1
  Th  Th4  1  0.540488  0.079815  0.795866  1
  Th  Th5  1  0.745109  0.871882  0.014576  1
  Th  Th6  1  0.667112  0.333994  0.273312  1
  Th  Th7  1  0.126837  0.870197  0.010327  1
  Th  Th8  1  0.460891  0.917986  0.294958  1
  Th  Th9  1  0.537195  0.466710  0.801296  1
  Th  Th10  1  0.874346  0.129753  0.512295  1
  Th  Th11  1  0.125244  0.255502  0.015360  1
  Th  Th12  1  0.873342  0.745261  0.509889  1
  Th  Th13  1  0.332378  0.665202  0.769767  1
  Os  Os14  1  0.812335  0.628938  0.046992  1
  Os  Os15  1  0.813178  0.182669  0.045816  1
  Os  Os16  1  0.629873  0.812372  0.545146  1
  Os  Os17  1  0.371594  0.187770  0.042069  1
  Os  Os18  1  0.187259  0.369767  0.552081  1
  Os  Os19  1  0.188271  0.817837  0.543060  1
