# generated using pymatgen
data_Ti12Mo6OsPt5
_symmetry_space_group_name_H-M   'P 1'
_cell_length_a   4.44736400
_cell_length_b   6.27826100
_cell_length_c   13.34825300
_cell_angle_alpha   90.00000000
_cell_angle_beta   90.00100036
_cell_angle_gamma   90.00000000
_symmetry_Int_Tables_number   1
_chemical_formula_structural   Ti12Mo6OsPt5
_chemical_formula_sum   'Ti12 Mo6 Os1 Pt5'
_cell_volume   372.70607533
_cell_formula_units_Z   1
loop_
 _symmetry_equiv_pos_site_id
 _symmetry_equiv_pos_as_xyz
  1  'x, y, z'
loop_
 _atom_site_type_symbol
 _atom_site_label
 _atom_site_symmetry_multiplicity
 _atom_site_fract_x
 _atom_site_fract_y
 _atom_site_fract_z
 _atom_site_occupancy
  Ti  Ti0  1  0.500000  0.258368  0.000000  1
  Ti  Ti1  1  0.500000  0.741631  0.000000  1
  Ti  Ti2  1  0.000133  0.252771  0.162674  1
  Ti  Ti3  1  0.000133  0.747227  0.162674  1
  Ti  Ti4  1  0.500141  0.249706  0.332948  1
  Ti  Ti5  1  0.500141  0.750294  0.332948  1
  Ti  Ti6  1  0.000000  0.249277  0.500000  1
  Ti  Ti7  1  0.000000  0.750724  0.500000  1
  Ti  Ti8  1  0.499860  0.249706  0.667052  1
  Ti  Ti9  1  0.499860  0.750294  0.667052  1
  Ti  Ti10  1  0.999868  0.252771  0.837326  1
  Ti  Ti11  1  0.999868  0.747227  0.837326  1
  Mo  Mo12  1  0.000000  0.000000  0.000000  1
  Mo  Mo13  1  0.500126  0.499999  0.168691  1
  Mo  Mo14  1  0.000133  0.000000  0.333643  1
  Mo  Mo15  1  0.500000  0.499999  0.500000  1
  Mo  Mo16  1  0.999867  0.000000  0.666357  1
  Mo  Mo17  1  0.499873  0.499999  0.831310  1
  Os  Os18  1  0.000000  0.499999  0.000000  1
  Pt  Pt19  1  0.500161  0.000000  0.166454  1
  Pt  Pt20  1  0.000153  0.499999  0.333600  1
  Pt  Pt21  1  0.500000  0.000000  0.500000  1
  Pt  Pt22  1  0.999847  0.499999  0.666400  1
  Pt  Pt23  1  0.499837  0.000000  0.833545  1
