# generated using pymatgen
data_Sm3CI5
_symmetry_space_group_name_H-M   'P 1'
_cell_length_a   7.82780865
_cell_length_b   9.64247120
_cell_length_c   9.72282892
_cell_angle_alpha   107.11187058
_cell_angle_beta   96.67670571
_cell_angle_gamma   104.47170413
_symmetry_Int_Tables_number   1
_chemical_formula_structural   Sm3CI5
_chemical_formula_sum   'Sm6 C2 I10'
_cell_volume   664.69513882
_cell_formula_units_Z   2
loop_
 _symmetry_equiv_pos_site_id
 _symmetry_equiv_pos_as_xyz
  1  'x, y, z'
loop_
 _atom_site_type_symbol
 _atom_site_label
 _atom_site_symmetry_multiplicity
 _atom_site_fract_x
 _atom_site_fract_y
 _atom_site_fract_z
 _atom_site_occupancy
  Sm  Sm0  1  0.105312  0.039254  0.778837  1
  Sm  Sm1  1  0.375579  0.133336  0.179317  1
  Sm  Sm2  1  0.894688  0.960746  0.221163  1
  Sm  Sm3  1  0.030003  0.738349  0.924380  1
  Sm  Sm4  1  0.969997  0.261651  0.075620  1
  Sm  Sm5  1  0.624421  0.866664  0.820683  1
  C  C6  1  0.910939  0.969945  0.958841  1
  C  C7  1  0.089061  0.030055  0.041159  1
  I  I8  1  0.190105  0.734201  0.645563  1
  I  I9  1  0.087896  0.367746  0.820951  1
  I  I10  1  0.456575  0.809216  0.092991  1
  I  I11  1  0.254906  0.084708  0.459929  1
  I  I12  1  0.543425  0.190784  0.907009  1
  I  I13  1  0.809895  0.265799  0.354437  1
  I  I14  1  0.345582  0.455194  0.273267  1
  I  I15  1  0.912104  0.632254  0.179049  1
  I  I16  1  0.654418  0.544806  0.726733  1
  I  I17  1  0.745094  0.915292  0.540071  1
