# generated using pymatgen
data_Tm6IrRh17
_symmetry_space_group_name_H-M   'P 1'
_cell_length_a   5.23997500
_cell_length_b   5.24016676
_cell_length_c   17.53169500
_cell_angle_alpha   90.00028428
_cell_angle_beta   89.99948609
_cell_angle_gamma   120.00158605
_symmetry_Int_Tables_number   1
_chemical_formula_structural   Tm6IrRh17
_chemical_formula_sum   'Tm6 Ir1 Rh17'
_cell_volume   416.89042419
_cell_formula_units_Z   1
loop_
 _symmetry_equiv_pos_site_id
 _symmetry_equiv_pos_as_xyz
  1  'x, y, z'
loop_
 _atom_site_type_symbol
 _atom_site_label
 _atom_site_symmetry_multiplicity
 _atom_site_fract_x
 _atom_site_fract_y
 _atom_site_fract_z
 _atom_site_occupancy
  Tm  Tm0  1  0.333337  0.666670  0.541615  1
  Tm  Tm1  1  0.666661  0.333329  0.041668  1
  Tm  Tm2  1  0.666663  0.333330  0.458385  1
  Tm  Tm3  1  0.333339  0.666671  0.958332  1
  Tm  Tm4  1  0.333327  0.666662  0.749544  1
  Tm  Tm5  1  0.666673  0.333338  0.250456  1
  Ir  Ir6  1  0.000000  0.000000  0.000000  1
  Rh  Rh7  1  0.167438  0.334891  0.125103  1
  Rh  Rh8  1  0.832525  0.665063  0.624806  1
  Rh  Rh9  1  0.665070  0.832516  0.125091  1
  Rh  Rh10  1  0.167443  0.832527  0.125091  1
  Rh  Rh11  1  0.832535  0.167487  0.624798  1
  Rh  Rh12  1  0.334950  0.167476  0.624794  1
  Rh  Rh13  1  0.832562  0.665109  0.874897  1
  Rh  Rh14  1  0.832557  0.167473  0.874909  1
  Rh  Rh15  1  0.334930  0.167484  0.874909  1
  Rh  Rh16  1  0.665050  0.832524  0.375206  1
  Rh  Rh17  1  0.167465  0.832513  0.375202  1
  Rh  Rh18  1  0.167475  0.334937  0.375194  1
  Rh  Rh19  1  0.000019  0.000013  0.250366  1
  Rh  Rh20  1  0.999981  0.999987  0.749634  1
  Rh  Rh21  1  0.333316  0.666672  0.250578  1
  Rh  Rh22  1  0.666684  0.333328  0.749422  1
  Rh  Rh23  1  0.000000  0.000000  0.500000  1
