# generated using pymatgen
data_EuLu3(SeO4)6
_symmetry_space_group_name_H-M   'P 1'
_cell_length_a   9.80934556
_cell_length_b   9.80934584
_cell_length_c   9.80934600
_cell_angle_alpha   58.07710995
_cell_angle_beta   58.07710894
_cell_angle_gamma   58.07711512
_symmetry_Int_Tables_number   1
_chemical_formula_structural   EuLu3(SeO4)6
_chemical_formula_sum   'Eu1 Lu3 Se6 O24'
_cell_volume   638.00182415
_cell_formula_units_Z   1
loop_
 _symmetry_equiv_pos_site_id
 _symmetry_equiv_pos_as_xyz
  1  'x, y, z'
loop_
 _atom_site_type_symbol
 _atom_site_label
 _atom_site_symmetry_multiplicity
 _atom_site_fract_x
 _atom_site_fract_y
 _atom_site_fract_z
 _atom_site_occupancy
  Eu  Eu0  1  0.642104  0.642104  0.642104  1
  Lu  Lu1  1  0.356326  0.356326  0.356326  1
  Lu  Lu2  1  0.143256  0.143256  0.143256  1
  Lu  Lu3  1  0.855240  0.855240  0.855240  1
  Se  Se4  1  0.748731  0.043153  0.461273  1
  Se  Se5  1  0.970566  0.537634  0.239923  1
  Se  Se6  1  0.537634  0.239923  0.970567  1
  Se  Se7  1  0.461272  0.748731  0.043154  1
  Se  Se8  1  0.043154  0.461272  0.748731  1
  Se  Se9  1  0.239923  0.970566  0.537634  1
  O  O10  1  0.916105  0.075962  0.286891  1
  O  O11  1  0.773277  0.010204  0.632886  1
  O  O12  1  0.000173  0.369734  0.212987  1
  O  O13  1  0.711797  0.069592  0.946330  1
  O  O14  1  0.575710  0.214686  0.439256  1
  O  O15  1  0.873170  0.481943  0.731855  1
  O  O16  1  0.509050  0.270575  0.136446  1
  O  O17  1  0.794102  0.560396  0.408669  1
  O  O18  1  0.946330  0.711797  0.069592  1
  O  O19  1  0.560396  0.408669  0.794102  1
  O  O20  1  0.369734  0.212987  0.000173  1
  O  O21  1  0.270575  0.136446  0.509050  1
  O  O22  1  0.731855  0.873170  0.481943  1
  O  O23  1  0.632886  0.773277  0.010204  1
  O  O24  1  0.439256  0.575710  0.214686  1
  O  O25  1  0.075962  0.286891  0.916105  1
  O  O26  1  0.214686  0.439256  0.575710  1
  O  O27  1  0.481943  0.731855  0.873170  1
  O  O28  1  0.136446  0.509050  0.270575  1
  O  O29  1  0.408669  0.794102  0.560396  1
  O  O30  1  0.286891  0.916105  0.075962  1
  O  O31  1  0.010204  0.632886  0.773277  1
  O  O32  1  0.212987  0.000173  0.369734  1
  O  O33  1  0.069592  0.946330  0.711797  1
