# generated using pymatgen
data_Lu10Pb6CS
_symmetry_space_group_name_H-M   'P 1'
_cell_length_a   8.85917500
_cell_length_b   8.85917472
_cell_length_c   6.69765200
_cell_angle_alpha   90.00000000
_cell_angle_beta   90.00000000
_cell_angle_gamma   120.00000476
_symmetry_Int_Tables_number   1
_chemical_formula_structural   Lu10Pb6CS
_chemical_formula_sum   'Lu10 Pb6 C1 S1'
_cell_volume   455.23928975
_cell_formula_units_Z   1
loop_
 _symmetry_equiv_pos_site_id
 _symmetry_equiv_pos_as_xyz
  1  'x, y, z'
loop_
 _atom_site_type_symbol
 _atom_site_label
 _atom_site_symmetry_multiplicity
 _atom_site_fract_x
 _atom_site_fract_y
 _atom_site_fract_z
 _atom_site_occupancy
  Lu  Lu0  1  0.222188  0.000000  0.717650  1
  Lu  Lu1  1  0.777812  0.000000  0.282350  1
  Lu  Lu2  1  0.000000  0.222188  0.717650  1
  Lu  Lu3  1  0.000000  0.777812  0.282350  1
  Lu  Lu4  1  0.777812  0.777812  0.717650  1
  Lu  Lu5  1  0.222188  0.222188  0.282350  1
  Lu  Lu6  1  0.333333  0.666667  0.500000  1
  Lu  Lu7  1  0.666667  0.333333  0.500000  1
  Lu  Lu8  1  0.666667  0.333333  0.000000  1
  Lu  Lu9  1  0.333333  0.666667  0.000000  1
  Pb  Pb10  1  0.598587  0.000000  0.751558  1
  Pb  Pb11  1  0.401413  0.000000  0.248442  1
  Pb  Pb12  1  0.000000  0.598587  0.751558  1
  Pb  Pb13  1  0.000000  0.401413  0.248442  1
  Pb  Pb14  1  0.401413  0.401413  0.751558  1
  Pb  Pb15  1  0.598587  0.598587  0.248442  1
  C  C16  1  0.000000  0.000000  0.500000  1
  S  S17  1  0.000000  0.000000  0.000000  1
