# generated using pymatgen
data_TmLu5(Al3Ru)8
_symmetry_space_group_name_H-M   'P 1'
_cell_length_a   8.73696800
_cell_length_b   8.73487953
_cell_length_c   9.54759400
_cell_angle_alpha   90.00302090
_cell_angle_beta   90.00000000
_cell_angle_gamma   120.00791712
_symmetry_Int_Tables_number   1
_chemical_formula_structural   TmLu5(Al3Ru)8
_chemical_formula_sum   'Tm1 Lu5 Al24 Ru8'
_cell_volume   630.96836532
_cell_formula_units_Z   1
loop_
 _symmetry_equiv_pos_site_id
 _symmetry_equiv_pos_as_xyz
  1  'x, y, z'
loop_
 _atom_site_type_symbol
 _atom_site_label
 _atom_site_symmetry_multiplicity
 _atom_site_fract_x
 _atom_site_fract_y
 _atom_site_fract_z
 _atom_site_occupancy
  Tm  Tm0  1  0.194378  0.388757  0.250349  1
  Lu  Lu1  1  0.805222  0.194828  0.749817  1
  Lu  Lu2  1  0.194900  0.805012  0.250152  1
  Lu  Lu3  1  0.389606  0.194828  0.749817  1
  Lu  Lu4  1  0.610112  0.805012  0.250152  1
  Lu  Lu5  1  0.805289  0.610578  0.749807  1
  Al  Al6  1  0.666758  0.333515  0.980475  1
  Al  Al7  1  0.333401  0.666803  0.018974  1
  Al  Al8  1  0.333419  0.666839  0.481039  1
  Al  Al9  1  0.666737  0.333472  0.519487  1
  Al  Al10  1  0.837095  0.162709  0.421786  1
  Al  Al11  1  0.162630  0.837310  0.578634  1
  Al  Al12  1  0.325615  0.162709  0.421786  1
  Al  Al13  1  0.162595  0.837329  0.921365  1
  Al  Al14  1  0.674680  0.837310  0.578634  1
  Al  Al15  1  0.837141  0.162682  0.078206  1
  Al  Al16  1  0.837307  0.674613  0.421843  1
  Al  Al17  1  0.674735  0.837329  0.921365  1
  Al  Al18  1  0.162712  0.325423  0.578950  1
  Al  Al19  1  0.325542  0.162682  0.078206  1
  Al  Al20  1  0.162698  0.325395  0.921060  1
  Al  Al21  1  0.837323  0.674646  0.078143  1
  Al  Al22  1  0.439013  0.561101  0.749975  1
  Al  Al23  1  0.561653  0.439092  0.250012  1
  Al  Al24  1  0.122087  0.561101  0.749975  1
  Al  Al25  1  0.877440  0.439092  0.250012  1
  Al  Al26  1  0.438970  0.877942  0.749960  1
  Al  Al27  1  0.561024  0.122048  0.250031  1
  Al  Al28  1  0.000060  0.000121  0.750014  1
  Al  Al29  1  0.999585  0.999170  0.249980  1
  Ru  Ru30  1  0.500115  0.500104  0.999988  1
  Ru  Ru31  1  0.999989  0.500104  0.999988  1
  Ru  Ru32  1  0.500122  0.500095  0.500015  1
  Ru  Ru33  1  0.500012  0.000024  0.000074  1
  Ru  Ru34  1  0.999972  0.500095  0.500015  1
  Ru  Ru35  1  0.500021  0.000042  0.499933  1
  Ru  Ru36  1  0.000017  0.000034  0.000265  1
  Ru  Ru37  1  0.000026  0.000052  0.499716  1
