# generated using pymatgen
data_HfZr2TaAs2
_symmetry_space_group_name_H-M   'P 1'
_cell_length_a   7.11582100
_cell_length_b   3.66750000
_cell_length_c   8.75557600
_cell_angle_alpha   90.00000000
_cell_angle_beta   90.00000000
_cell_angle_gamma   90.00000000
_symmetry_Int_Tables_number   1
_chemical_formula_structural   HfZr2TaAs2
_chemical_formula_sum   'Hf2 Zr4 Ta2 As4'
_cell_volume   228.49666168
_cell_formula_units_Z   2
loop_
 _symmetry_equiv_pos_site_id
 _symmetry_equiv_pos_as_xyz
  1  'x, y, z'
loop_
 _atom_site_type_symbol
 _atom_site_label
 _atom_site_symmetry_multiplicity
 _atom_site_fract_x
 _atom_site_fract_y
 _atom_site_fract_z
 _atom_site_occupancy
  Hf  Hf0  1  0.134615  0.750000  0.060364  1
  Hf  Hf1  1  0.634614  0.750000  0.439636  1
  Zr  Zr2  1  0.465091  0.250001  0.168413  1
  Zr  Zr3  1  0.965090  0.250001  0.331587  1
  Zr  Zr4  1  0.041411  0.750000  0.667447  1
  Zr  Zr5  1  0.541410  0.750000  0.832553  1
  Ta  Ta6  1  0.359866  0.250001  0.561966  1
  Ta  Ta7  1  0.859865  0.250001  0.938034  1
  As  As8  1  0.756052  0.750000  0.139596  1
  As  As9  1  0.256052  0.750000  0.360404  1
  As  As10  1  0.742967  0.250001  0.645187  1
  As  As11  1  0.242967  0.250001  0.854812  1
