# generated using pymatgen
data_Y3Mg2ZnCdSn2
_symmetry_space_group_name_H-M   'P 1'
_cell_length_a   7.48250177
_cell_length_b   7.48250186
_cell_length_c   4.51873000
_cell_angle_alpha   90.00000000
_cell_angle_beta   90.00000000
_cell_angle_gamma   119.72356095
_symmetry_Int_Tables_number   1
_chemical_formula_structural   Y3Mg2ZnCdSn2
_chemical_formula_sum   'Y3 Mg2 Zn1 Cd1 Sn2'
_cell_volume   219.70691292
_cell_formula_units_Z   1
loop_
 _symmetry_equiv_pos_site_id
 _symmetry_equiv_pos_as_xyz
  1  'x, y, z'
loop_
 _atom_site_type_symbol
 _atom_site_label
 _atom_site_symmetry_multiplicity
 _atom_site_fract_x
 _atom_site_fract_y
 _atom_site_fract_z
 _atom_site_occupancy
  Y  Y0  1  0.999070  0.589205  0.000000  1
  Y  Y1  1  0.409105  0.409105  0.000000  1
  Y  Y2  1  0.589205  0.999070  0.000000  1
  Mg  Mg3  1  0.233902  0.000510  0.500000  1
  Mg  Mg4  1  0.000510  0.233902  0.500000  1
  Zn  Zn5  1  0.003159  0.003159  0.000000  1
  Cd  Cd6  1  0.766929  0.766929  0.500000  1
  Sn  Sn7  1  0.667066  0.331055  0.500000  1
  Sn  Sn8  1  0.331055  0.667066  0.500000  1
