# generated using pymatgen
data_LuMnBr
_symmetry_space_group_name_H-M   'P 1'
_cell_length_a   3.76718900
_cell_length_b   3.76718893
_cell_length_c   11.67475600
_cell_angle_alpha   90.00000000
_cell_angle_beta   90.00000000
_cell_angle_gamma   120.00000944
_symmetry_Int_Tables_number   1
_chemical_formula_structural   LuMnBr
_chemical_formula_sum   'Lu2 Mn2 Br2'
_cell_volume   143.48721725
_cell_formula_units_Z   2
loop_
 _symmetry_equiv_pos_site_id
 _symmetry_equiv_pos_as_xyz
  1  'x, y, z'
loop_
 _atom_site_type_symbol
 _atom_site_label
 _atom_site_symmetry_multiplicity
 _atom_site_fract_x
 _atom_site_fract_y
 _atom_site_fract_z
 _atom_site_occupancy
  Lu  Lu0  1  0.000000  0.000000  0.174983  1
  Lu  Lu1  1  0.000000  0.000000  0.825017  1
  Mn  Mn2  1  0.666668  0.333335  0.006330  1
  Mn  Mn3  1  0.333333  0.666666  0.993670  1
  Br  Br4  1  0.333333  0.666666  0.337756  1
  Br  Br5  1  0.666668  0.333335  0.662244  1
