# generated using pymatgen
data_Dy4CuNi3Hg2
_symmetry_space_group_name_H-M   'P 1'
_cell_length_a   7.39516321
_cell_length_b   7.39516294
_cell_length_c   3.65028400
_cell_angle_alpha   90.00000000
_cell_angle_beta   90.00000000
_cell_angle_gamma   90.33741616
_symmetry_Int_Tables_number   1
_chemical_formula_structural   Dy4CuNi3Hg2
_chemical_formula_sum   'Dy4 Cu1 Ni3 Hg2'
_cell_volume   199.62486482
_cell_formula_units_Z   1
loop_
 _symmetry_equiv_pos_site_id
 _symmetry_equiv_pos_as_xyz
  1  'x, y, z'
loop_
 _atom_site_type_symbol
 _atom_site_label
 _atom_site_symmetry_multiplicity
 _atom_site_fract_x
 _atom_site_fract_y
 _atom_site_fract_z
 _atom_site_occupancy
  Dy  Dy0  1  0.688295  0.172680  0.500000  1
  Dy  Dy1  1  0.327320  0.811705  0.500000  1
  Dy  Dy2  1  0.165804  0.334196  0.500000  1
  Dy  Dy3  1  0.821733  0.678267  0.500000  1
  Cu  Cu4  1  0.382050  0.117950  0.000000  1
  Ni  Ni5  1  0.115049  0.622305  0.000000  1
  Ni  Ni6  1  0.877695  0.384951  0.000000  1
  Ni  Ni7  1  0.616390  0.883610  0.000000  1
  Hg  Hg8  1  0.005028  0.999365  0.000000  1
  Hg  Hg9  1  0.500635  0.494972  0.000000  1
