# generated using pymatgen
data_U2SbC2
_symmetry_space_group_name_H-M   'P 1'
_cell_length_a   6.65789460
_cell_length_b   6.65789465
_cell_length_c   6.65789453
_cell_angle_alpha   145.94024831
_cell_angle_beta   145.94024208
_cell_angle_gamma   48.93552423
_symmetry_Int_Tables_number   1
_chemical_formula_structural   U2SbC2
_chemical_formula_sum   'U2 Sb1 C2'
_cell_volume   92.16280890
_cell_formula_units_Z   1
loop_
 _symmetry_equiv_pos_site_id
 _symmetry_equiv_pos_as_xyz
  1  'x, y, z'
loop_
 _atom_site_type_symbol
 _atom_site_label
 _atom_site_symmetry_multiplicity
 _atom_site_fract_x
 _atom_site_fract_y
 _atom_site_fract_z
 _atom_site_occupancy
  U  U0  1  0.345283  0.345283  0.000000  1
  U  U1  1  0.654717  0.654717  0.000000  1
  Sb  Sb2  1  0.000000  0.000000  0.000000  1
  C  C3  1  0.750000  0.250000  0.500000  1
  C  C4  1  0.250000  0.750000  0.500000  1
