# generated using pymatgen
data_Tb6YbCo2Sn23Ir4
_symmetry_space_group_name_H-M   'P 1'
_cell_length_a   9.82663469
_cell_length_b   9.83238240
_cell_length_c   10.07668597
_cell_angle_alpha   89.99999702
_cell_angle_beta   89.85184456
_cell_angle_gamma   120.01935180
_symmetry_Int_Tables_number   1
_chemical_formula_structural   Tb6YbCo2Sn23Ir4
_chemical_formula_sum   'Tb6 Yb1 Co2 Sn23 Ir4'
_cell_volume   842.99552749
_cell_formula_units_Z   1
loop_
 _symmetry_equiv_pos_site_id
 _symmetry_equiv_pos_as_xyz
  1  'x, y, z'
loop_
 _atom_site_type_symbol
 _atom_site_label
 _atom_site_symmetry_multiplicity
 _atom_site_fract_x
 _atom_site_fract_y
 _atom_site_fract_z
 _atom_site_occupancy
  Tb  Tb0  1  0.479780  0.521443  0.307190  1
  Tb  Tb1  1  0.520220  0.478557  0.692810  1
  Tb  Tb2  1  0.479780  0.958337  0.307190  1
  Tb  Tb3  1  0.520220  0.041663  0.692810  1
  Tb  Tb4  1  0.041149  0.520575  0.306306  1
  Tb  Tb5  1  0.958851  0.479425  0.693694  1
  Yb  Yb6  1  0.000000  0.000000  0.000000  1
  Co  Co7  1  0.339620  0.169810  0.200136  1
  Co  Co8  1  0.660380  0.830190  0.799864  1
  Sn  Sn9  1  0.350592  0.005061  0.004842  1
  Sn  Sn10  1  0.649408  0.994939  0.995158  1
  Sn  Sn11  1  0.000000  0.351068  0.000000  1
  Sn  Sn12  1  0.000000  0.648932  0.000000  1
  Sn  Sn13  1  0.649408  0.654468  0.995158  1
  Sn  Sn14  1  0.350592  0.345532  0.004842  1
  Sn  Sn15  1  0.339036  0.669518  0.818970  1
  Sn  Sn16  1  0.660964  0.330482  0.181030  1
  Sn  Sn17  1  0.000000  0.000000  0.500000  1
  Sn  Sn18  1  0.779300  0.221137  0.457723  1
  Sn  Sn19  1  0.220700  0.778863  0.542277  1
  Sn  Sn20  1  0.779300  0.558163  0.457723  1
  Sn  Sn21  1  0.220700  0.441837  0.542277  1
  Sn  Sn22  1  0.438372  0.219186  0.450894  1
  Sn  Sn23  1  0.561628  0.780814  0.549106  1
  Sn  Sn24  1  0.333426  0.666714  0.116947  1
  Sn  Sn25  1  0.666574  0.333286  0.883053  1
  Sn  Sn26  1  0.122372  0.888042  0.276556  1
  Sn  Sn27  1  0.877628  0.111958  0.723444  1
  Sn  Sn28  1  0.122372  0.234331  0.276556  1
  Sn  Sn29  1  0.877628  0.765669  0.723444  1
  Sn  Sn30  1  0.762183  0.881092  0.283017  1
  Sn  Sn31  1  0.237817  0.118908  0.716983  1
  Ir  Ir32  1  0.829300  0.168589  0.199520  1
  Ir  Ir33  1  0.170700  0.831411  0.800480  1
  Ir  Ir34  1  0.829300  0.660711  0.199520  1
  Ir  Ir35  1  0.170700  0.339289  0.800480  1
