# generated using pymatgen
data_Hf4Ti3TcAs4
_symmetry_space_group_name_H-M   'P 1'
_cell_length_a   6.86956629
_cell_length_b   3.62388300
_cell_length_c   8.30279436
_cell_angle_alpha   90.00000000
_cell_angle_beta   89.96634159
_cell_angle_gamma   90.00000000
_symmetry_Int_Tables_number   1
_chemical_formula_structural   Hf4Ti3TcAs4
_chemical_formula_sum   'Hf4 Ti3 Tc1 As4'
_cell_volume   206.69391600
_cell_formula_units_Z   1
loop_
 _symmetry_equiv_pos_site_id
 _symmetry_equiv_pos_as_xyz
  1  'x, y, z'
loop_
 _atom_site_type_symbol
 _atom_site_label
 _atom_site_symmetry_multiplicity
 _atom_site_fract_x
 _atom_site_fract_y
 _atom_site_fract_z
 _atom_site_occupancy
  Hf  Hf0  1  0.952674  0.750001  0.165763  1
  Hf  Hf1  1  0.460349  0.750001  0.330425  1
  Hf  Hf2  1  0.542408  0.250000  0.670845  1
  Hf  Hf3  1  0.039339  0.250000  0.834737  1
  Ti  Ti4  1  0.133554  0.250000  0.438180  1
  Ti  Ti5  1  0.864202  0.750001  0.559185  1
  Ti  Ti6  1  0.372336  0.750001  0.942999  1
  Tc  Tc7  1  0.635557  0.250000  0.059406  1
  As  As8  1  0.256166  0.250000  0.140888  1
  As  As9  1  0.757363  0.250000  0.360662  1
  As  As10  1  0.241867  0.750001  0.640249  1
  As  As11  1  0.744186  0.750001  0.856657  1
