# generated using pymatgen
data_Dy8Mg2BiRu4Pb
_symmetry_space_group_name_H-M   'P 1'
_cell_length_a   9.18263525
_cell_length_b   9.18263468
_cell_length_c   9.18263386
_cell_angle_alpha   133.05699582
_cell_angle_beta   133.05699083
_cell_angle_gamma   68.56465314
_symmetry_Int_Tables_number   1
_chemical_formula_structural   Dy8Mg2BiRu4Pb
_chemical_formula_sum   'Dy8 Mg2 Bi1 Ru4 Pb1'
_cell_volume   405.96643659
_cell_formula_units_Z   1
loop_
 _symmetry_equiv_pos_site_id
 _symmetry_equiv_pos_as_xyz
  1  'x, y, z'
loop_
 _atom_site_type_symbol
 _atom_site_label
 _atom_site_symmetry_multiplicity
 _atom_site_fract_x
 _atom_site_fract_y
 _atom_site_fract_z
 _atom_site_occupancy
  Dy  Dy0  1  0.798902  0.296693  0.846616  1
  Dy  Dy1  1  0.203307  0.701098  0.153385  1
  Dy  Dy2  1  0.450080  0.952289  0.153385  1
  Dy  Dy3  1  0.296693  0.450080  0.497792  1
  Dy  Dy4  1  0.049920  0.203307  0.502208  1
  Dy  Dy5  1  0.547711  0.049920  0.846615  1
  Dy  Dy6  1  0.701098  0.547711  0.497792  1
  Dy  Dy7  1  0.952289  0.798902  0.502208  1
  Mg  Mg8  1  0.000147  0.000147  0.000000  1
  Mg  Mg9  1  0.499853  0.499853  0.000000  1
  Bi  Bi10  1  0.750000  0.750000  0.000000  1
  Ru  Ru11  1  0.131349  0.631349  0.762698  1
  Ru  Ru12  1  0.868651  0.368651  0.237302  1
  Ru  Ru13  1  0.631349  0.868651  0.500000  1
  Ru  Ru14  1  0.368651  0.131349  0.500000  1
  Pb  Pb15  1  0.250000  0.250000  0.000000  1
