# generated using pymatgen
data_Dy4Tm8TlNi5
_symmetry_space_group_name_H-M   'P 1'
_cell_length_a   8.26715264
_cell_length_b   8.26715187
_cell_length_c   8.26715200
_cell_angle_alpha   109.37062999
_cell_angle_beta   111.66059962
_cell_angle_gamma   107.41044194
_symmetry_Int_Tables_number   1
_chemical_formula_structural   Dy4Tm8TlNi5
_chemical_formula_sum   'Dy4 Tm8 Tl1 Ni5'
_cell_volume   434.35607391
_cell_formula_units_Z   1
loop_
 _symmetry_equiv_pos_site_id
 _symmetry_equiv_pos_as_xyz
  1  'x, y, z'
loop_
 _atom_site_type_symbol
 _atom_site_label
 _atom_site_symmetry_multiplicity
 _atom_site_fract_x
 _atom_site_fract_y
 _atom_site_fract_z
 _atom_site_occupancy
  Dy  Dy0  1  0.294278  0.182653  0.476931  1
  Dy  Dy1  1  0.705722  0.817347  0.523069  1
  Dy  Dy2  1  0.294278  0.817347  0.111624  1
  Dy  Dy3  1  0.705722  0.182653  0.888376  1
  Tm  Tm4  1  0.627249  0.322152  0.305099  1
  Tm  Tm5  1  0.372751  0.677848  0.694901  1
  Tm  Tm6  1  0.017052  0.322152  0.694901  1
  Tm  Tm7  1  0.982948  0.677848  0.305099  1
  Tm  Tm8  1  0.211014  0.401795  0.190782  1
  Tm  Tm9  1  0.788986  0.598205  0.809218  1
  Tm  Tm10  1  0.211014  0.020232  0.809218  1
  Tm  Tm11  1  0.788986  0.979768  0.190782  1
  Tl  Tl12  1  0.500000  0.500000  0.000000  1
  Ni  Ni13  1  0.000000  0.367334  0.367334  1
  Ni  Ni14  1  0.000000  0.632666  0.632666  1
  Ni  Ni15  1  0.374567  0.874567  0.500000  1
  Ni  Ni16  1  0.625433  0.125433  0.500000  1
  Ni  Ni17  1  0.000000  0.000000  0.000000  1
