# generated using pymatgen
data_Tb3Er2InSb2
_symmetry_space_group_name_H-M   'P 1'
_cell_length_a   8.97938001
_cell_length_b   8.95995885
_cell_length_c   6.45765600
_cell_angle_alpha   90.00000000
_cell_angle_beta   90.00000000
_cell_angle_gamma   119.92847332
_symmetry_Int_Tables_number   1
_chemical_formula_structural   Tb3Er2InSb2
_chemical_formula_sum   'Tb6 Er4 In2 Sb4'
_cell_volume   450.26736579
_cell_formula_units_Z   2
loop_
 _symmetry_equiv_pos_site_id
 _symmetry_equiv_pos_as_xyz
  1  'x, y, z'
loop_
 _atom_site_type_symbol
 _atom_site_label
 _atom_site_symmetry_multiplicity
 _atom_site_fract_x
 _atom_site_fract_y
 _atom_site_fract_z
 _atom_site_occupancy
  Tb  Tb0  1  0.002294  0.759977  0.750000  1
  Tb  Tb1  1  0.002294  0.242318  0.250000  1
  Tb  Tb2  1  0.757606  0.759052  0.250000  1
  Tb  Tb3  1  0.757606  0.998554  0.750000  1
  Tb  Tb4  1  0.241531  0.238020  0.750000  1
  Tb  Tb5  1  0.241531  0.003511  0.250000  1
  Er  Er6  1  0.334096  0.667049  0.500000  1
  Er  Er7  1  0.663377  0.331688  0.000000  1
  Er  Er8  1  0.663377  0.331688  0.500000  1
  Er  Er9  1  0.334096  0.667049  0.000000  1
  In  In10  1  0.394780  0.998571  0.750000  1
  In  In11  1  0.394780  0.396209  0.250000  1
  Sb  Sb12  1  0.999171  0.607234  0.250000  1
  Sb  Sb13  1  0.999171  0.391937  0.750000  1
  Sb  Sb14  1  0.607144  0.606598  0.750000  1
  Sb  Sb15  1  0.607144  0.000546  0.250000  1
