# generated using pymatgen
data_Cs2LuBr5
_symmetry_space_group_name_H-M   'P 1'
_cell_length_a   7.89651700
_cell_length_b   10.24171800
_cell_length_c   16.22252900
_cell_angle_alpha   90.00000000
_cell_angle_beta   90.00000000
_cell_angle_gamma   90.00000000
_symmetry_Int_Tables_number   1
_chemical_formula_structural   Cs2LuBr5
_chemical_formula_sum   'Cs8 Lu4 Br20'
_cell_volume   1311.97919290
_cell_formula_units_Z   4
loop_
 _symmetry_equiv_pos_site_id
 _symmetry_equiv_pos_as_xyz
  1  'x, y, z'
loop_
 _atom_site_type_symbol
 _atom_site_label
 _atom_site_symmetry_multiplicity
 _atom_site_fract_x
 _atom_site_fract_y
 _atom_site_fract_z
 _atom_site_occupancy
  Cs  Cs0  1  0.250000  0.664440  0.916969  1
  Cs  Cs1  1  0.750000  0.335560  0.083031  1
  Cs  Cs2  1  0.750000  0.835560  0.416969  1
  Cs  Cs3  1  0.250000  0.164440  0.583031  1
  Cs  Cs4  1  0.250000  0.975095  0.211494  1
  Cs  Cs5  1  0.750000  0.024905  0.788506  1
  Cs  Cs6  1  0.750000  0.524905  0.711494  1
  Cs  Cs7  1  0.250000  0.475095  0.288506  1
  Lu  Lu8  1  0.250000  0.674982  0.563890  1
  Lu  Lu9  1  0.750000  0.325018  0.436110  1
  Lu  Lu10  1  0.750000  0.825018  0.063890  1
  Lu  Lu11  1  0.250000  0.174982  0.936110  1
  Br  Br12  1  0.250000  0.521020  0.699673  1
  Br  Br13  1  0.750000  0.478980  0.300327  1
  Br  Br14  1  0.750000  0.978980  0.199673  1
  Br  Br15  1  0.250000  0.021020  0.800327  1
  Br  Br16  1  0.500492  0.829756  0.617104  1
  Br  Br17  1  0.499508  0.170244  0.382896  1
  Br  Br18  1  0.499508  0.670244  0.117104  1
  Br  Br19  1  0.000492  0.170244  0.382896  1
  Br  Br20  1  0.500492  0.329756  0.882896  1
  Br  Br21  1  0.999508  0.829756  0.617104  1
  Br  Br22  1  0.999508  0.329756  0.882896  1
  Br  Br23  1  0.000492  0.670244  0.117104  1
  Br  Br24  1  0.250000  0.785382  0.408143  1
  Br  Br25  1  0.750000  0.214618  0.591857  1
  Br  Br26  1  0.750000  0.714618  0.908143  1
  Br  Br27  1  0.250000  0.285382  0.091857  1
  Br  Br28  1  0.000000  0.500000  0.500000  1
  Br  Br29  1  0.000000  0.000000  0.000000  1
  Br  Br30  1  0.500000  0.500000  0.500000  1
  Br  Br31  1  0.500000  0.000000  0.000000  1
