# generated using pymatgen
data_ErCu2Ni2Ag
_symmetry_space_group_name_H-M   'P 1'
_cell_length_a   4.96321923
_cell_length_b   4.96321967
_cell_length_c   4.96322004
_cell_angle_alpha   120.34161568
_cell_angle_beta   119.26956306
_cell_angle_gamma   90.33955368
_symmetry_Int_Tables_number   1
_chemical_formula_structural   ErCu2Ni2Ag
_chemical_formula_sum   'Er1 Cu2 Ni2 Ag1'
_cell_volume   86.69506232
_cell_formula_units_Z   1
loop_
 _symmetry_equiv_pos_site_id
 _symmetry_equiv_pos_as_xyz
  1  'x, y, z'
loop_
 _atom_site_type_symbol
 _atom_site_label
 _atom_site_symmetry_multiplicity
 _atom_site_fract_x
 _atom_site_fract_y
 _atom_site_fract_z
 _atom_site_occupancy
  Er  Er0  1  0.621908  0.871908  0.750000  1
  Cu  Cu1  1  0.001310  0.500078  0.998768  1
  Cu  Cu2  1  0.001310  0.002542  0.501232  1
  Ni  Ni3  1  0.498965  0.500051  0.998914  1
  Ni  Ni4  1  0.001137  0.500051  0.501086  1
  Ag  Ag5  1  0.375370  0.125370  0.250000  1
