# generated using pymatgen
data_Dy3Ho16TmPb16
_symmetry_space_group_name_H-M   'P 1'
_cell_length_a   8.18985113
_cell_length_b   8.25813120
_cell_length_c   15.59131403
_cell_angle_alpha   90.01627342
_cell_angle_beta   90.04600649
_cell_angle_gamma   89.96821948
_symmetry_Int_Tables_number   1
_chemical_formula_structural   Dy3Ho16TmPb16
_chemical_formula_sum   'Dy3 Ho16 Tm1 Pb16'
_cell_volume   1054.48469477
_cell_formula_units_Z   1
loop_
 _symmetry_equiv_pos_site_id
 _symmetry_equiv_pos_as_xyz
  1  'x, y, z'
loop_
 _atom_site_type_symbol
 _atom_site_label
 _atom_site_symmetry_multiplicity
 _atom_site_fract_x
 _atom_site_fract_y
 _atom_site_fract_z
 _atom_site_occupancy
  Dy  Dy0  1  0.964138  0.823993  0.400259  1
  Dy  Dy1  1  0.535918  0.323777  0.599490  1
  Dy  Dy2  1  0.036216  0.176174  0.900532  1
  Ho  Ho3  1  0.377047  0.841685  0.879118  1
  Ho  Ho4  1  0.876629  0.658227  0.621014  1
  Ho  Ho5  1  0.623048  0.157792  0.378571  1
  Ho  Ho6  1  0.123241  0.341645  0.121176  1
  Ho  Ho7  1  0.622726  0.157922  0.121255  1
  Ho  Ho8  1  0.123328  0.341822  0.378677  1
  Ho  Ho9  1  0.376892  0.841797  0.621026  1
  Ho  Ho10  1  0.877270  0.658108  0.878974  1
  Ho  Ho11  1  0.537128  0.324114  0.900035  1
  Ho  Ho12  1  0.036834  0.176074  0.599828  1
  Ho  Ho13  1  0.463038  0.676141  0.399960  1
  Ho  Ho14  1  0.963035  0.824244  0.100130  1
  Ho  Ho15  1  0.463036  0.676015  0.099908  1
  Ho  Ho16  1  0.208837  0.504440  0.750048  1
  Ho  Ho17  1  0.708787  0.995583  0.750109  1
  Ho  Ho18  1  0.791228  0.495744  0.249778  1
  Tm  Tm19  1  0.291133  0.004456  0.250013  1
  Pb  Pb20  1  0.281361  0.032655  0.043682  1
  Pb  Pb21  1  0.780972  0.466605  0.456556  1
  Pb  Pb22  1  0.718994  0.966943  0.542897  1
  Pb  Pb23  1  0.219477  0.533497  0.957443  1
  Pb  Pb24  1  0.718458  0.965758  0.957548  1
  Pb  Pb25  1  0.217857  0.534180  0.542547  1
  Pb  Pb26  1  0.282137  0.034238  0.456971  1
  Pb  Pb27  1  0.781099  0.466544  0.042944  1
  Pb  Pb28  1  0.571892  0.625795  0.749874  1
  Pb  Pb29  1  0.071782  0.873994  0.750093  1
  Pb  Pb30  1  0.428216  0.373895  0.249992  1
  Pb  Pb31  1  0.928956  0.125721  0.249986  1
  Pb  Pb32  1  0.348086  0.154056  0.750290  1
  Pb  Pb33  1  0.848177  0.345915  0.749701  1
  Pb  Pb34  1  0.651022  0.845410  0.249906  1
  Pb  Pb35  1  0.152006  0.655044  0.249668  1
