# generated using pymatgen
data_Li3Pr6MgPd13
_symmetry_space_group_name_H-M   'P 1'
_cell_length_a   8.46383016
_cell_length_b   8.46382930
_cell_length_c   8.46383031
_cell_angle_alpha   109.54109961
_cell_angle_beta   109.54109897
_cell_angle_gamma   109.54109697
_symmetry_Int_Tables_number   1
_chemical_formula_structural   Li3Pr6MgPd13
_chemical_formula_sum   'Li3 Pr6 Mg1 Pd13'
_cell_volume   465.53270315
_cell_formula_units_Z   1
loop_
 _symmetry_equiv_pos_site_id
 _symmetry_equiv_pos_as_xyz
  1  'x, y, z'
loop_
 _atom_site_type_symbol
 _atom_site_label
 _atom_site_symmetry_multiplicity
 _atom_site_fract_x
 _atom_site_fract_y
 _atom_site_fract_z
 _atom_site_occupancy
  Li  Li0  1  0.000000  0.000000  0.500000  1
  Li  Li1  1  0.500000  0.000000  0.000000  1
  Li  Li2  1  0.000000  0.500000  0.000000  1
  Pr  Pr3  1  0.998212  0.305049  0.305049  1
  Pr  Pr4  1  0.001788  0.694951  0.694951  1
  Pr  Pr5  1  0.305049  0.998212  0.305049  1
  Pr  Pr6  1  0.694951  0.694951  0.001788  1
  Pr  Pr7  1  0.694951  0.001788  0.694951  1
  Pr  Pr8  1  0.305049  0.305049  0.998212  1
  Mg  Mg9  1  0.500000  0.500000  0.500000  1
  Pd  Pd10  1  0.334257  0.665743  0.000000  1
  Pd  Pd11  1  0.000000  0.334257  0.665743  1
  Pd  Pd12  1  0.665743  0.000000  0.334257  1
  Pd  Pd13  1  0.332645  0.667520  0.667520  1
  Pd  Pd14  1  0.667520  0.332645  0.667520  1
  Pd  Pd15  1  0.667355  0.332480  0.332480  1
  Pd  Pd16  1  0.332480  0.667355  0.332480  1
  Pd  Pd17  1  0.332480  0.332480  0.667355  1
  Pd  Pd18  1  0.000000  0.665743  0.334257  1
  Pd  Pd19  1  0.667520  0.667520  0.332645  1
  Pd  Pd20  1  0.334257  0.000000  0.665743  1
  Pd  Pd21  1  0.000000  0.000000  0.000000  1
  Pd  Pd22  1  0.665743  0.334257  0.000000  1
