# generated using pymatgen
data_Er4TmBiAu2
_symmetry_space_group_name_H-M   'P 1'
_cell_length_a   8.64910570
_cell_length_b   8.64910585
_cell_length_c   8.64910504
_cell_angle_alpha   124.28499674
_cell_angle_beta   124.28499429
_cell_angle_gamma   82.72571535
_symmetry_Int_Tables_number   1
_chemical_formula_structural   Er4TmBiAu2
_chemical_formula_sum   'Er8 Tm2 Bi2 Au4'
_cell_volume   424.12195400
_cell_formula_units_Z   2
loop_
 _symmetry_equiv_pos_site_id
 _symmetry_equiv_pos_as_xyz
  1  'x, y, z'
loop_
 _atom_site_type_symbol
 _atom_site_label
 _atom_site_symmetry_multiplicity
 _atom_site_fract_x
 _atom_site_fract_y
 _atom_site_fract_z
 _atom_site_occupancy
  Er  Er0  1  0.513943  0.013943  0.808585  1
  Er  Er1  1  0.205356  0.705356  0.191415  1
  Er  Er2  1  0.013943  0.205356  0.500000  1
  Er  Er3  1  0.705356  0.513943  0.500000  1
  Er  Er4  1  0.486057  0.986057  0.191415  1
  Er  Er5  1  0.794644  0.294644  0.808585  1
  Er  Er6  1  0.986057  0.794644  0.500000  1
  Er  Er7  1  0.294644  0.486057  0.500000  1
  Tm  Tm8  1  0.500000  0.500000  0.000000  1
  Tm  Tm9  1  0.000000  0.000000  0.000000  1
  Bi  Bi10  1  0.250000  0.250000  0.000000  1
  Bi  Bi11  1  0.750000  0.750000  0.000000  1
  Au  Au12  1  0.139203  0.639203  0.778407  1
  Au  Au13  1  0.860797  0.360797  0.221593  1
  Au  Au14  1  0.639203  0.860797  0.500000  1
  Au  Au15  1  0.360797  0.139203  0.500000  1
