# generated using pymatgen
data_CeTm(ZnSi)2
_symmetry_space_group_name_H-M   'P 1'
_cell_length_a   4.19499000
_cell_length_b   4.19499008
_cell_length_c   15.92909800
_cell_angle_alpha   90.00000000
_cell_angle_beta   90.00000000
_cell_angle_gamma   119.99999938
_symmetry_Int_Tables_number   1
_chemical_formula_structural   CeTm(ZnSi)2
_chemical_formula_sum   'Ce2 Tm2 Zn4 Si4'
_cell_volume   242.76366566
_cell_formula_units_Z   2
loop_
 _symmetry_equiv_pos_site_id
 _symmetry_equiv_pos_as_xyz
  1  'x, y, z'
loop_
 _atom_site_type_symbol
 _atom_site_label
 _atom_site_symmetry_multiplicity
 _atom_site_fract_x
 _atom_site_fract_y
 _atom_site_fract_z
 _atom_site_occupancy
  Ce  Ce0  1  0.000000  0.000000  0.000000  1
  Ce  Ce1  1  0.000000  0.000000  0.500000  1
  Tm  Tm2  1  0.000000  0.000000  0.250000  1
  Tm  Tm3  1  0.000000  0.000000  0.750000  1
  Zn  Zn4  1  0.333333  0.666667  0.146304  1
  Zn  Zn5  1  0.666667  0.333333  0.853696  1
  Zn  Zn6  1  0.666667  0.333333  0.646304  1
  Zn  Zn7  1  0.333333  0.666667  0.353696  1
  Si  Si8  1  0.333333  0.666667  0.621120  1
  Si  Si9  1  0.666667  0.333333  0.378880  1
  Si  Si10  1  0.666667  0.333333  0.121120  1
  Si  Si11  1  0.333333  0.666667  0.878880  1
