# generated using pymatgen
data_Li3Er4Si8Ir
_symmetry_space_group_name_H-M   'P 1'
_cell_length_a   3.79328300
_cell_length_b   7.44960064
_cell_length_c   10.02329900
_cell_angle_alpha   90.23308775
_cell_angle_beta   90.00000000
_cell_angle_gamma   90.00000000
_symmetry_Int_Tables_number   1
_chemical_formula_structural   Li3Er4Si8Ir
_chemical_formula_sum   'Li3 Er4 Si8 Ir1'
_cell_volume   283.24048449
_cell_formula_units_Z   1
loop_
 _symmetry_equiv_pos_site_id
 _symmetry_equiv_pos_as_xyz
  1  'x, y, z'
loop_
 _atom_site_type_symbol
 _atom_site_label
 _atom_site_symmetry_multiplicity
 _atom_site_fract_x
 _atom_site_fract_y
 _atom_site_fract_z
 _atom_site_occupancy
  Li  Li0  1  0.250000  0.489364  0.107571  1
  Li  Li1  1  0.750000  0.010121  0.603960  1
  Li  Li2  1  0.750000  0.506971  0.892341  1
  Er  Er3  1  0.250000  0.138531  0.864970  1
  Er  Er4  1  0.250000  0.642442  0.629469  1
  Er  Er5  1  0.750000  0.861992  0.137623  1
  Er  Er6  1  0.750000  0.369331  0.366857  1
  Si  Si7  1  0.250000  0.218525  0.562879  1
  Si  Si8  1  0.250000  0.735314  0.931728  1
  Si  Si9  1  0.750000  0.783055  0.434626  1
  Si  Si10  1  0.750000  0.259746  0.071722  1
  Si  Si11  1  0.250000  0.659280  0.319704  1
  Si  Si12  1  0.250000  0.154790  0.191985  1
  Si  Si13  1  0.750000  0.340414  0.675282  1
  Si  Si14  1  0.750000  0.845161  0.816245  1
  Ir  Ir15  1  0.250000  0.984962  0.393037  1
