# generated using pymatgen
data_NaZrCrS4
_symmetry_space_group_name_H-M   'P 1'
_cell_length_a   7.18678714
_cell_length_b   14.09384119
_cell_length_c   6.16164065
_cell_angle_alpha   90.10663552
_cell_angle_beta   89.96993636
_cell_angle_gamma   89.73172538
_symmetry_Int_Tables_number   1
_chemical_formula_structural   NaZrCrS4
_chemical_formula_sum   'Na4 Zr4 Cr4 S16'
_cell_volume   624.10109851
_cell_formula_units_Z   4
loop_
 _symmetry_equiv_pos_site_id
 _symmetry_equiv_pos_as_xyz
  1  'x, y, z'
loop_
 _atom_site_type_symbol
 _atom_site_label
 _atom_site_symmetry_multiplicity
 _atom_site_fract_x
 _atom_site_fract_y
 _atom_site_fract_z
 _atom_site_occupancy
  Na  Na0  1  0.001641  0.001497  0.342619  1
  Na  Na1  1  0.499996  0.497835  0.667031  1
  Na  Na2  1  0.995436  0.499947  0.012497  1
  Na  Na3  1  0.504935  0.999287  0.987178  1
  Zr  Zr4  1  0.518710  0.745663  0.001817  1
  Zr  Zr5  1  0.250396  0.249769  0.499857  1
  Zr  Zr6  1  0.750220  0.249652  0.499709  1
  Zr  Zr7  1  0.231195  0.752286  0.501756  1
  Cr  Cr8  1  0.000194  0.248416  0.999592  1
  Cr  Cr9  1  0.000147  0.752605  0.998726  1
  Cr  Cr10  1  0.499872  0.251128  0.001242  1
  Cr  Cr11  1  0.749892  0.750437  0.497272  1
  S  S12  1  0.249943  0.348566  0.851912  1
  S  S13  1  0.768826  0.649911  0.816793  1
  S  S14  1  0.751506  0.150798  0.148449  1
  S  S15  1  0.241759  0.852956  0.153384  1
  S  S16  1  0.250378  0.150843  0.148518  1
  S  S17  1  0.763137  0.850613  0.176682  1
  S  S18  1  0.748401  0.348520  0.851888  1
  S  S19  1  0.240891  0.647645  0.843956  1
  S  S20  1  0.001000  0.146557  0.678655  1
  S  S21  1  0.979949  0.850681  0.676373  1
  S  S22  1  0.499288  0.353290  0.322066  1
  S  S23  1  0.509060  0.648054  0.345299  1
  S  S24  1  0.999261  0.352020  0.320441  1
  S  S25  1  0.984928  0.653222  0.317897  1
  S  S26  1  0.500921  0.147694  0.680080  1
  S  S27  1  0.508118  0.850106  0.658314  1
