# generated using pymatgen
data_Ho3TlCd3AgAu
_symmetry_space_group_name_H-M   'P 1'
_cell_length_a   7.91045700
_cell_length_b   7.91045699
_cell_length_c   3.96016700
_cell_angle_alpha   90.00000000
_cell_angle_beta   90.00000000
_cell_angle_gamma   119.99999584
_symmetry_Int_Tables_number   1
_chemical_formula_structural   Ho3TlCd3AgAu
_chemical_formula_sum   'Ho3 Tl1 Cd3 Ag1 Au1'
_cell_volume   214.60868741
_cell_formula_units_Z   1
loop_
 _symmetry_equiv_pos_site_id
 _symmetry_equiv_pos_as_xyz
  1  'x, y, z'
loop_
 _atom_site_type_symbol
 _atom_site_label
 _atom_site_symmetry_multiplicity
 _atom_site_fract_x
 _atom_site_fract_y
 _atom_site_fract_z
 _atom_site_occupancy
  Ho  Ho0  1  0.603065  0.019750  0.000000  1
  Ho  Ho1  1  0.980250  0.583316  0.000000  1
  Ho  Ho2  1  0.416684  0.396935  0.000000  1
  Tl  Tl3  1  0.333333  0.666667  0.500000  1
  Cd  Cd4  1  0.260447  0.003514  0.500000  1
  Cd  Cd5  1  0.996486  0.256933  0.500000  1
  Cd  Cd6  1  0.743067  0.739553  0.500000  1
  Ag  Ag7  1  0.000000  0.000000  0.000000  1
  Au  Au8  1  0.666667  0.333333  0.500000  1
