# generated using pymatgen
data_GdPRu2C
_symmetry_space_group_name_H-M   'P 1'
_cell_length_a   3.85698100
_cell_length_b   5.71656111
_cell_length_c   7.02488900
_cell_angle_alpha   90.00000000
_cell_angle_beta   90.00000000
_cell_angle_gamma   70.28439925
_symmetry_Int_Tables_number   1
_chemical_formula_structural   GdPRu2C
_chemical_formula_sum   'Gd2 P2 Ru4 C2'
_cell_volume   145.80962555
_cell_formula_units_Z   2
loop_
 _symmetry_equiv_pos_site_id
 _symmetry_equiv_pos_as_xyz
  1  'x, y, z'
loop_
 _atom_site_type_symbol
 _atom_site_label
 _atom_site_symmetry_multiplicity
 _atom_site_fract_x
 _atom_site_fract_y
 _atom_site_fract_z
 _atom_site_occupancy
  Gd  Gd0  1  0.954035  0.091932  0.250000  1
  Gd  Gd1  1  0.045965  0.908069  0.750000  1
  P  P2  1  0.229625  0.540751  0.250000  1
  P  P3  1  0.770377  0.459248  0.750000  1
  Ru  Ru4  1  0.668055  0.663891  0.054409  1
  Ru  Ru5  1  0.668055  0.663891  0.445592  1
  Ru  Ru6  1  0.331945  0.336110  0.554409  1
  Ru  Ru7  1  0.331945  0.336110  0.945591  1
  C  C8  1  0.500000  0.000000  0.000000  1
  C  C9  1  0.500000  0.000000  0.500000  1
