# generated using pymatgen
data_Er6Tm3Th3Ru4
_symmetry_space_group_name_H-M   'P 1'
_cell_length_a   6.29346879
_cell_length_b   7.19063321
_cell_length_c   9.40293015
_cell_angle_alpha   90.03738874
_cell_angle_beta   90.04308941
_cell_angle_gamma   89.50443391
_symmetry_Int_Tables_number   1
_chemical_formula_structural   Er6Tm3Th3Ru4
_chemical_formula_sum   'Er6 Tm3 Th3 Ru4'
_cell_volume   425.50431676
_cell_formula_units_Z   1
loop_
 _symmetry_equiv_pos_site_id
 _symmetry_equiv_pos_as_xyz
  1  'x, y, z'
loop_
 _atom_site_type_symbol
 _atom_site_label
 _atom_site_symmetry_multiplicity
 _atom_site_fract_x
 _atom_site_fract_y
 _atom_site_fract_z
 _atom_site_occupancy
  Er  Er0  1  0.862275  0.534792  0.250731  1
  Er  Er1  1  0.167139  0.176085  0.067106  1
  Er  Er2  1  0.835293  0.822775  0.936139  1
  Er  Er3  1  0.664872  0.324796  0.935182  1
  Er  Er4  1  0.835248  0.822746  0.563521  1
  Er  Er5  1  0.329456  0.675628  0.068995  1
  Tm  Tm6  1  0.166805  0.176273  0.432699  1
  Tm  Tm7  1  0.329938  0.675775  0.431464  1
  Tm  Tm8  1  0.664426  0.325335  0.564134  1
  Th  Th9  1  0.650369  0.046660  0.250700  1
  Th  Th10  1  0.350967  0.953828  0.749367  1
  Th  Th11  1  0.145790  0.456121  0.749302  1
  Ru  Ru12  1  0.461340  0.368686  0.251534  1
  Ru  Ru13  1  0.536227  0.628723  0.749127  1
  Ru  Ru14  1  0.965517  0.130855  0.748974  1
  Ru  Ru15  1  0.034337  0.880921  0.251025  1
