# generated using pymatgen
data_Nd2ErPa(InNi2)2
_symmetry_space_group_name_H-M   'P 1'
_cell_length_a   7.55417301
_cell_length_b   7.55417376
_cell_length_c   3.62652200
_cell_angle_alpha   90.00000000
_cell_angle_beta   90.00000000
_cell_angle_gamma   91.52618501
_symmetry_Int_Tables_number   1
_chemical_formula_structural   Nd2ErPa(InNi2)2
_chemical_formula_sum   'Nd2 Er1 Pa1 In2 Ni4'
_cell_volume   206.87600630
_cell_formula_units_Z   1
loop_
 _symmetry_equiv_pos_site_id
 _symmetry_equiv_pos_as_xyz
  1  'x, y, z'
loop_
 _atom_site_type_symbol
 _atom_site_label
 _atom_site_symmetry_multiplicity
 _atom_site_fract_x
 _atom_site_fract_y
 _atom_site_fract_z
 _atom_site_occupancy
  Nd  Nd0  1  0.174624  0.331010  0.500000  1
  Nd  Nd1  1  0.831010  0.674624  0.500000  1
  Er  Er2  1  0.327219  0.827219  0.500000  1
  Pa  Pa3  1  0.666474  0.166474  0.500000  1
  In  In4  1  0.499741  0.504745  0.000000  1
  In  In5  1  0.004745  0.999741  0.000000  1
  Ni  Ni6  1  0.121681  0.621681  0.000000  1
  Ni  Ni7  1  0.850943  0.350943  0.000000  1
  Ni  Ni8  1  0.626995  0.896568  0.000000  1
  Ni  Ni9  1  0.396568  0.126995  0.000000  1
