# generated using pymatgen
data_Sr7ThSb6
_symmetry_space_group_name_H-M   'P 1'
_cell_length_a   8.51881424
_cell_length_b   8.65678634
_cell_length_c   8.65678617
_cell_angle_alpha   109.79182356
_cell_angle_beta   109.14868326
_cell_angle_gamma   109.14868399
_symmetry_Int_Tables_number   1
_chemical_formula_structural   Sr7ThSb6
_chemical_formula_sum   'Sr7 Th1 Sb6'
_cell_volume   493.38268748
_cell_formula_units_Z   1
loop_
 _symmetry_equiv_pos_site_id
 _symmetry_equiv_pos_as_xyz
  1  'x, y, z'
loop_
 _atom_site_type_symbol
 _atom_site_label
 _atom_site_symmetry_multiplicity
 _atom_site_fract_x
 _atom_site_fract_y
 _atom_site_fract_z
 _atom_site_occupancy
  Sr  Sr0  1  0.858528  0.500000  0.000000  1
  Sr  Sr1  1  0.135322  0.133086  0.140334  1
  Sr  Sr2  1  0.502235  0.007248  0.366913  1
  Sr  Sr3  1  0.994988  0.359665  0.492752  1
  Sr  Sr4  1  0.000022  0.855173  0.498955  1
  Sr  Sr5  1  0.644848  0.643781  0.644826  1
  Sr  Sr6  1  0.501067  0.001045  0.856218  1
  Th  Th7  1  0.357083  0.500000  0.000000  1
  Sb  Sb8  1  0.733568  0.861497  0.121073  1
  Sb  Sb9  1  0.612495  0.378927  0.240424  1
  Sb  Sb10  1  0.256271  0.619722  0.361320  1
  Sb  Sb11  1  0.372071  0.259576  0.638503  1
  Sb  Sb12  1  0.894951  0.138680  0.758402  1
  Sb  Sb13  1  0.136549  0.741598  0.880278  1
