# generated using pymatgen
data_Dy3TmAl3ZnPt4
_symmetry_space_group_name_H-M   'P 1'
_cell_length_a   4.42923600
_cell_length_b   6.81738755
_cell_length_c   7.80630102
_cell_angle_alpha   89.51041480
_cell_angle_beta   90.00000000
_cell_angle_gamma   90.00000000
_symmetry_Int_Tables_number   1
_chemical_formula_structural   Dy3TmAl3ZnPt4
_chemical_formula_sum   'Dy3 Tm1 Al3 Zn1 Pt4'
_cell_volume   235.70904219
_cell_formula_units_Z   1
loop_
 _symmetry_equiv_pos_site_id
 _symmetry_equiv_pos_as_xyz
  1  'x, y, z'
loop_
 _atom_site_type_symbol
 _atom_site_label
 _atom_site_symmetry_multiplicity
 _atom_site_fract_x
 _atom_site_fract_y
 _atom_site_fract_z
 _atom_site_occupancy
  Dy  Dy0  1  0.250000  0.027670  0.686747  1
  Dy  Dy1  1  0.750000  0.972015  0.316233  1
  Dy  Dy2  1  0.750000  0.468601  0.178835  1
  Tm  Tm3  1  0.250000  0.527007  0.817598  1
  Al  Al4  1  0.250000  0.648762  0.438300  1
  Al  Al5  1  0.750000  0.853232  0.936366  1
  Al  Al6  1  0.750000  0.356064  0.561107  1
  Zn  Zn7  1  0.250000  0.151299  0.066121  1
  Pt  Pt8  1  0.250000  0.273747  0.391765  1
  Pt  Pt9  1  0.250000  0.761747  0.114107  1
  Pt  Pt10  1  0.750000  0.727709  0.617844  1
  Pt  Pt11  1  0.750000  0.232148  0.874978  1
