# generated using pymatgen
data_La4DyIn2Sn
_symmetry_space_group_name_H-M   'P 1'
_cell_length_a   9.45326365
_cell_length_b   9.45405891
_cell_length_c   9.45326500
_cell_angle_alpha   96.50594200
_cell_angle_beta   96.58165843
_cell_angle_gamma   140.53383260
_symmetry_Int_Tables_number   1
_chemical_formula_structural   La4DyIn2Sn
_chemical_formula_sum   'La8 Dy2 In4 Sn2'
_cell_volume   505.49418811
_cell_formula_units_Z   2
loop_
 _symmetry_equiv_pos_site_id
 _symmetry_equiv_pos_as_xyz
  1  'x, y, z'
loop_
 _atom_site_type_symbol
 _atom_site_label
 _atom_site_symmetry_multiplicity
 _atom_site_fract_x
 _atom_site_fract_y
 _atom_site_fract_z
 _atom_site_occupancy
  La  La0  1  0.911093  0.223115  0.134271  1
  La  La1  1  0.223400  0.089034  0.312445  1
  La  La2  1  0.777359  0.910148  0.687509  1
  La  La3  1  0.089701  0.776773  0.866470  1
  La  La4  1  0.722639  0.410148  0.132788  1
  La  La5  1  0.276589  0.589034  0.865635  1
  La  La6  1  0.588844  0.723115  0.312022  1
  La  La7  1  0.410303  0.276773  0.687072  1
  Dy  Dy8  1  0.750019  0.250592  0.500594  1
  Dy  Dy9  1  0.249999  0.750592  0.500573  1
  In  In10  1  0.749993  0.750339  0.000351  1
  In  In11  1  0.249988  0.250339  0.000346  1
  In  In12  1  0.844718  0.654544  0.499282  1
  In  In13  1  0.655263  0.154544  0.809827  1
  Sn  Sn14  1  0.346184  0.845454  0.191547  1
  Sn  Sn15  1  0.153908  0.345454  0.499270  1
