# generated using pymatgen
data_Dy2Y2ReOsC4
_symmetry_space_group_name_H-M   'P 1'
_cell_length_a   5.11738700
_cell_length_b   6.54688755
_cell_length_c   9.84071847
_cell_angle_alpha   89.75712665
_cell_angle_beta   90.00000000
_cell_angle_gamma   90.00000000
_symmetry_Int_Tables_number   1
_chemical_formula_structural   Dy2Y2ReOsC4
_chemical_formula_sum   'Dy4 Y4 Re2 Os2 C8'
_cell_volume   329.69020784
_cell_formula_units_Z   2
loop_
 _symmetry_equiv_pos_site_id
 _symmetry_equiv_pos_as_xyz
  1  'x, y, z'
loop_
 _atom_site_type_symbol
 _atom_site_label
 _atom_site_symmetry_multiplicity
 _atom_site_fract_x
 _atom_site_fract_y
 _atom_site_fract_z
 _atom_site_occupancy
  Dy  Dy0  1  0.250000  0.678850  0.554905  1
  Dy  Dy1  1  0.750000  0.321150  0.445095  1
  Dy  Dy2  1  0.750000  0.819880  0.055436  1
  Dy  Dy3  1  0.250000  0.180120  0.944564  1
  Y  Y4  1  0.250000  0.531724  0.215548  1
  Y  Y5  1  0.750000  0.468276  0.784452  1
  Y  Y6  1  0.750000  0.969961  0.714215  1
  Y  Y7  1  0.250000  0.030039  0.285785  1
  Re  Re8  1  0.250000  0.722964  0.864780  1
  Re  Re9  1  0.750000  0.277036  0.135220  1
  Os  Os10  1  0.750000  0.775639  0.364302  1
  Os  Os11  1  0.250000  0.224361  0.635698  1
  C  C12  1  0.250000  0.457312  0.759706  1
  C  C13  1  0.750000  0.542688  0.240294  1
  C  C14  1  0.750000  0.042109  0.258490  1
  C  C15  1  0.250000  0.957891  0.741510  1
  C  C16  1  0.250000  0.822516  0.050036  1
  C  C17  1  0.750000  0.177484  0.949964  1
  C  C18  1  0.750000  0.676471  0.549147  1
  C  C19  1  0.250000  0.323529  0.450853  1
