# generated using pymatgen
data_RbY3CI6
_symmetry_space_group_name_H-M   'P 1'
_cell_length_a   9.34492700
_cell_length_b   9.42465213
_cell_length_c   9.93654219
_cell_angle_alpha   71.58855364
_cell_angle_beta   84.50518216
_cell_angle_gamma   89.22330139
_symmetry_Int_Tables_number   1
_chemical_formula_structural   RbY3CI6
_chemical_formula_sum   'Rb2 Y6 C2 I12'
_cell_volume   826.39764782
_cell_formula_units_Z   2
loop_
 _symmetry_equiv_pos_site_id
 _symmetry_equiv_pos_as_xyz
  1  'x, y, z'
loop_
 _atom_site_type_symbol
 _atom_site_label
 _atom_site_symmetry_multiplicity
 _atom_site_fract_x
 _atom_site_fract_y
 _atom_site_fract_z
 _atom_site_occupancy
  Rb  Rb0  1  0.464509  0.364205  0.328043  1
  Rb  Rb1  1  0.535492  0.635795  0.671957  1
  Y  Y2  1  0.920178  0.757125  0.003519  1
  Y  Y3  1  0.079822  0.242875  0.996480  1
  Y  Y4  1  0.754215  0.081906  0.001246  1
  Y  Y5  1  0.245784  0.918094  0.998755  1
  Y  Y6  1  0.972994  0.895945  0.311198  1
  Y  Y7  1  0.027005  0.104055  0.688803  1
  C  C8  1  0.006529  0.024541  0.924530  1
  C  C9  1  0.993470  0.975459  0.075470  1
  I  I10  1  0.076729  0.201390  0.329647  1
  I  I11  1  0.923271  0.798610  0.670353  1
  I  I12  1  0.205711  0.592661  0.999935  1
  I  I13  1  0.794290  0.407339  0.000065  1
  I  I14  1  0.404393  0.201128  0.002255  1
  I  I15  1  0.595606  0.798873  0.997744  1
  I  I16  1  0.662080  0.004935  0.328702  1
  I  I17  1  0.337920  0.995065  0.671298  1
  I  I18  1  0.280750  0.776133  0.324692  1
  I  I19  1  0.719250  0.223867  0.675308  1
  I  I20  1  0.850336  0.590254  0.328425  1
  I  I21  1  0.149663  0.409746  0.671575  1
