# generated using pymatgen
data_LuIrO4
_symmetry_space_group_name_H-M   'P 1'
_cell_length_a   5.26768900
_cell_length_b   7.31557443
_cell_length_c   7.58706094
_cell_angle_alpha   81.17564543
_cell_angle_beta   90.00000000
_cell_angle_gamma   90.00000000
_symmetry_Int_Tables_number   1
_chemical_formula_structural   LuIrO4
_chemical_formula_sum   'Lu4 Ir4 O16'
_cell_volume   288.91549645
_cell_formula_units_Z   4
loop_
 _symmetry_equiv_pos_site_id
 _symmetry_equiv_pos_as_xyz
  1  'x, y, z'
loop_
 _atom_site_type_symbol
 _atom_site_label
 _atom_site_symmetry_multiplicity
 _atom_site_fract_x
 _atom_site_fract_y
 _atom_site_fract_z
 _atom_site_occupancy
  Lu  Lu0  1  0.721844  0.879174  0.347795  1
  Lu  Lu1  1  0.278156  0.120826  0.652205  1
  Lu  Lu2  1  0.778156  0.379174  0.347795  1
  Lu  Lu3  1  0.221844  0.620826  0.652205  1
  Ir  Ir4  1  0.768209  0.301320  0.838649  1
  Ir  Ir5  1  0.231791  0.698680  0.161351  1
  Ir  Ir6  1  0.268209  0.198680  0.161351  1
  Ir  Ir7  1  0.731791  0.801320  0.838649  1
  O  O8  1  0.903353  0.807645  0.066335  1
  O  O9  1  0.096647  0.192355  0.933665  1
  O  O10  1  0.384783  0.943636  0.170182  1
  O  O11  1  0.615217  0.056364  0.829818  1
  O  O12  1  0.115217  0.443636  0.170182  1
  O  O13  1  0.884783  0.556364  0.829818  1
  O  O14  1  0.596647  0.307645  0.066335  1
  O  O15  1  0.403353  0.692355  0.933665  1
  O  O16  1  0.965736  0.320327  0.605221  1
  O  O17  1  0.034264  0.679673  0.394779  1
  O  O18  1  0.465736  0.179673  0.394779  1
  O  O19  1  0.534264  0.820327  0.605221  1
  O  O20  1  0.532072  0.614539  0.302573  1
  O  O21  1  0.467928  0.385461  0.697427  1
  O  O22  1  0.967928  0.114539  0.302573  1
  O  O23  1  0.032072  0.885461  0.697427  1
