# generated using pymatgen
data_Nd8Lu11ThSb12
_symmetry_space_group_name_H-M   'P 1'
_cell_length_a   8.21190614
_cell_length_b   9.22831430
_cell_length_c   12.02375000
_cell_angle_alpha   89.99182315
_cell_angle_beta   90.01063319
_cell_angle_gamma   90.01205880
_symmetry_Int_Tables_number   1
_chemical_formula_structural   Nd8Lu11ThSb12
_chemical_formula_sum   'Nd8 Lu11 Th1 Sb12'
_cell_volume   911.18438890
_cell_formula_units_Z   1
loop_
 _symmetry_equiv_pos_site_id
 _symmetry_equiv_pos_as_xyz
  1  'x, y, z'
loop_
 _atom_site_type_symbol
 _atom_site_label
 _atom_site_symmetry_multiplicity
 _atom_site_fract_x
 _atom_site_fract_y
 _atom_site_fract_z
 _atom_site_occupancy
  Nd  Nd0  1  0.313304  0.443520  0.433842  1
  Nd  Nd1  1  0.176601  0.750235  0.227405  1
  Nd  Nd2  1  0.677247  0.248824  0.271842  1
  Nd  Nd3  1  0.822654  0.249353  0.773258  1
  Nd  Nd4  1  0.320567  0.749451  0.728766  1
  Nd  Nd5  1  0.661126  0.748402  0.290837  1
  Nd  Nd6  1  0.162775  0.249303  0.206804  1
  Nd  Nd7  1  0.337639  0.248426  0.709872  1
  Lu  Lu8  1  0.815254  0.935439  0.063719  1
  Lu  Lu9  1  0.313688  0.065191  0.433132  1
  Lu  Lu10  1  0.182908  0.436417  0.933635  1
  Lu  Lu11  1  0.684982  0.563758  0.567472  1
  Lu  Lu12  1  0.183053  0.062068  0.933698  1
  Lu  Lu13  1  0.690296  0.938448  0.568804  1
  Lu  Lu14  1  0.814981  0.562938  0.063055  1
  Lu  Lu15  1  0.522713  0.248962  0.995954  1
  Lu  Lu16  1  0.025802  0.749248  0.502921  1
  Lu  Lu17  1  0.477975  0.749773  0.002721  1
  Lu  Lu18  1  0.974291  0.249062  0.496965  1
  Th  Th19  1  0.836635  0.748757  0.793314  1
  Sb  Sb20  1  0.941472  0.991640  0.331646  1
  Sb  Sb21  1  0.442669  0.006580  0.166856  1
  Sb  Sb22  1  0.057299  0.491439  0.669601  1
  Sb  Sb23  1  0.557542  0.506116  0.831038  1
  Sb  Sb24  1  0.057051  0.006510  0.669613  1
  Sb  Sb25  1  0.557519  0.992133  0.831166  1
  Sb  Sb26  1  0.938533  0.507644  0.330670  1
  Sb  Sb27  1  0.444010  0.492259  0.165158  1
  Sb  Sb28  1  0.894945  0.249031  0.028125  1
  Sb  Sb29  1  0.402014  0.761834  0.475742  1
  Sb  Sb30  1  0.107294  0.749377  0.973768  1
  Sb  Sb31  1  0.605163  0.247864  0.528604  1
