# generated using pymatgen
data_Tb8Ti7Si16W5
_symmetry_space_group_name_H-M   'P 1'
_cell_length_a   6.97496140
_cell_length_b   6.96558875
_cell_length_c   12.88712786
_cell_angle_alpha   89.92496043
_cell_angle_beta   90.06586876
_cell_angle_gamma   89.96967342
_symmetry_Int_Tables_number   1
_chemical_formula_structural   Tb8Ti7Si16W5
_chemical_formula_sum   'Tb8 Ti7 Si16 W5'
_cell_volume   626.11636546
_cell_formula_units_Z   1
loop_
 _symmetry_equiv_pos_site_id
 _symmetry_equiv_pos_as_xyz
  1  'x, y, z'
loop_
 _atom_site_type_symbol
 _atom_site_label
 _atom_site_symmetry_multiplicity
 _atom_site_fract_x
 _atom_site_fract_y
 _atom_site_fract_z
 _atom_site_occupancy
  Tb  Tb0  1  0.340919  0.000721  0.467777  1
  Tb  Tb1  1  0.498784  0.840265  0.719456  1
  Tb  Tb2  1  0.500755  0.160053  0.217732  1
  Tb  Tb3  1  0.840153  0.498703  0.281914  1
  Tb  Tb4  1  0.159791  0.500546  0.781776  1
  Tb  Tb5  1  0.659179  0.998911  0.968441  1
  Tb  Tb6  1  0.001184  0.339904  0.532374  1
  Tb  Tb7  1  0.998448  0.660252  0.030487  1
  Ti  Ti8  1  0.490587  0.655131  0.124969  1
  Ti  Ti9  1  0.507585  0.346056  0.627193  1
  Ti  Ti10  1  0.653748  0.489763  0.873667  1
  Ti  Ti11  1  0.346148  0.509232  0.374124  1
  Ti  Ti12  1  0.845781  0.991253  0.375808  1
  Ti  Ti13  1  0.007056  0.153472  0.124518  1
  Ti  Ti14  1  0.991584  0.845664  0.624668  1
  Si  Si15  1  0.200846  0.128916  0.685023  1
  Si  Si16  1  0.371240  0.702591  0.933093  1
  Si  Si17  1  0.629440  0.300198  0.435129  1
  Si  Si18  1  0.699660  0.370529  0.065703  1
  Si  Si19  1  0.301151  0.630060  0.565557  1
  Si  Si20  1  0.799713  0.870023  0.184711  1
  Si  Si21  1  0.129697  0.200712  0.315428  1
  Si  Si22  1  0.871134  0.800288  0.817095  1
  Si  Si23  1  0.292357  0.954824  0.064789  1
  Si  Si24  1  0.545757  0.791570  0.314995  1
  Si  Si25  1  0.452824  0.208895  0.815405  1
  Si  Si26  1  0.791602  0.546773  0.684166  1
  Si  Si27  1  0.208213  0.454293  0.184653  1
  Si  Si28  1  0.709287  0.045566  0.565359  1
  Si  Si29  1  0.954839  0.290578  0.934612  1
  Si  Si30  1  0.046036  0.708263  0.434575  1
  W  W31  1  0.326079  0.326985  0.999434  1
  W  W32  1  0.171709  0.827839  0.249351  1
  W  W33  1  0.829170  0.170982  0.750408  1
  W  W34  1  0.673705  0.672678  0.499678  1
  W  W35  1  0.153842  0.007513  0.875931  1
