# generated using pymatgen
data_ScAl3V2Ga
_symmetry_space_group_name_H-M   'P 1'
_cell_length_a   5.32946621
_cell_length_b   5.32946600
_cell_length_c   5.31220044
_cell_angle_alpha   103.55145244
_cell_angle_beta   103.55145687
_cell_angle_gamma   122.20033072
_symmetry_Int_Tables_number   1
_chemical_formula_structural   ScAl3V2Ga
_chemical_formula_sum   'Sc1 Al3 V2 Ga1'
_cell_volume   111.66518430
_cell_formula_units_Z   1
loop_
 _symmetry_equiv_pos_site_id
 _symmetry_equiv_pos_as_xyz
  1  'x, y, z'
loop_
 _atom_site_type_symbol
 _atom_site_label
 _atom_site_symmetry_multiplicity
 _atom_site_fract_x
 _atom_site_fract_y
 _atom_site_fract_z
 _atom_site_occupancy
  Sc  Sc0  1  0.001486  0.998514  0.000000  1
  Al  Al1  1  0.301613  0.301894  0.603507  1
  Al  Al2  1  0.698106  0.698387  0.396493  1
  Al  Al3  1  0.699719  0.300281  0.000000  1
  V  V4  1  0.249526  0.750474  0.500000  1
  V  V5  1  0.749526  0.250474  0.500000  1
  Ga  Ga6  1  0.300023  0.699977  0.000000  1
