# generated using pymatgen
data_Ce4Zn3Ge4Pd
_symmetry_space_group_name_H-M   'P 1'
_cell_length_a   13.05313300
_cell_length_b   13.05312861
_cell_length_c   29.04842000
_cell_angle_alpha   90.00000000
_cell_angle_beta   90.00000000
_cell_angle_gamma   120.00000858
_symmetry_Int_Tables_number   1
_chemical_formula_structural   Ce4Zn3Ge4Pd
_chemical_formula_sum   'Ce4 Zn3 Ge4 Pd1'
_cell_volume   4286.29926395
_cell_formula_units_Z   1
loop_
 _symmetry_equiv_pos_site_id
 _symmetry_equiv_pos_as_xyz
  1  'x, y, z'
loop_
 _atom_site_type_symbol
 _atom_site_label
 _atom_site_symmetry_multiplicity
 _atom_site_fract_x
 _atom_site_fract_y
 _atom_site_fract_z
 _atom_site_occupancy
  Ce  Ce0  1  0.000000  0.000000  0.757072  1
  Ce  Ce1  1  0.000000  0.000000  0.248751  1
  Ce  Ce2  1  0.000000  0.000000  0.495086  1
  Ce  Ce3  1  0.000000  0.000000  0.994191  1
  Zn  Zn4  1  0.666667  0.333333  0.639535  1
  Zn  Zn5  1  0.333333  0.666667  0.137938  1
  Zn  Zn6  1  0.333333  0.666667  0.359160  1
  Ge  Ge7  1  0.666667  0.333333  0.113719  1
  Ge  Ge8  1  0.666667  0.333333  0.378338  1
  Ge  Ge9  1  0.333333  0.666667  0.892180  1
  Ge  Ge10  1  0.333333  0.666667  0.620657  1
  Pd  Pd11  1  0.666667  0.333333  0.863374  1
