# generated using pymatgen
data_Y5B4Pt7Rh8
_symmetry_space_group_name_H-M   'P 1'
_cell_length_a   4.24123700
_cell_length_b   4.24123700
_cell_length_c   20.83107000
_cell_angle_alpha   90.00000000
_cell_angle_beta   90.00000000
_cell_angle_gamma   90.00000000
_symmetry_Int_Tables_number   1
_chemical_formula_structural   Y5B4Pt7Rh8
_chemical_formula_sum   'Y5 B4 Pt7 Rh8'
_cell_volume   374.71118883
_cell_formula_units_Z   1
loop_
 _symmetry_equiv_pos_site_id
 _symmetry_equiv_pos_as_xyz
  1  'x, y, z'
loop_
 _atom_site_type_symbol
 _atom_site_label
 _atom_site_symmetry_multiplicity
 _atom_site_fract_x
 _atom_site_fract_y
 _atom_site_fract_z
 _atom_site_occupancy
  Y  Y0  1  0.000000  0.000000  0.901094  1
  Y  Y1  1  0.000000  0.000000  0.098906  1
  Y  Y2  1  0.000000  0.000000  0.298733  1
  Y  Y3  1  0.000000  0.000000  0.500000  1
  Y  Y4  1  0.000000  0.000000  0.701267  1
  B  B5  1  0.500000  0.500000  0.189254  1
  B  B6  1  0.500000  0.500000  0.397038  1
  B  B7  1  0.500000  0.500000  0.602962  1
  B  B8  1  0.500000  0.500000  0.810746  1
  Pt  Pt9  1  0.500000  0.500000  0.909195  1
  Pt  Pt10  1  0.500000  0.500000  0.090805  1
  Pt  Pt11  1  0.500000  0.500000  0.295724  1
  Pt  Pt12  1  0.500000  0.500000  0.500000  1
  Pt  Pt13  1  0.500000  0.500000  0.704276  1
  Pt  Pt14  1  0.500000  0.000000  0.000000  1
  Pt  Pt15  1  0.000000  0.500000  0.000000  1
  Rh  Rh16  1  0.500000  0.000000  0.199379  1
  Rh  Rh17  1  0.500000  0.000000  0.399564  1
  Rh  Rh18  1  0.500000  0.000000  0.600436  1
  Rh  Rh19  1  0.500000  0.000000  0.800621  1
  Rh  Rh20  1  0.000000  0.500000  0.199379  1
  Rh  Rh21  1  0.000000  0.500000  0.399564  1
  Rh  Rh22  1  0.000000  0.500000  0.600436  1
  Rh  Rh23  1  0.000000  0.500000  0.800621  1
