# generated using pymatgen
data_Tm10NiSb5
_symmetry_space_group_name_H-M   'P 1'
_cell_length_a   7.87528600
_cell_length_b   9.11568900
_cell_length_c   11.76741100
_cell_angle_alpha   90.00000000
_cell_angle_beta   90.00000000
_cell_angle_gamma   90.00000000
_symmetry_Int_Tables_number   1
_chemical_formula_structural   Tm10NiSb5
_chemical_formula_sum   'Tm20 Ni2 Sb10'
_cell_volume   844.76664338
_cell_formula_units_Z   2
loop_
 _symmetry_equiv_pos_site_id
 _symmetry_equiv_pos_as_xyz
  1  'x, y, z'
loop_
 _atom_site_type_symbol
 _atom_site_label
 _atom_site_symmetry_multiplicity
 _atom_site_fract_x
 _atom_site_fract_y
 _atom_site_fract_z
 _atom_site_occupancy
  Tm  Tm0  1  0.432214  0.182292  0.564761  1
  Tm  Tm1  1  0.567786  0.817708  0.064761  1
  Tm  Tm2  1  0.067161  0.720699  0.434669  1
  Tm  Tm3  1  0.932839  0.279301  0.934669  1
  Tm  Tm4  1  0.067161  0.279301  0.434669  1
  Tm  Tm5  1  0.932839  0.720699  0.934669  1
  Tm  Tm6  1  0.432214  0.817708  0.564761  1
  Tm  Tm7  1  0.567786  0.182292  0.064761  1
  Tm  Tm8  1  0.573779  0.500000  0.773993  1
  Tm  Tm9  1  0.426221  0.500000  0.273993  1
  Tm  Tm10  1  0.910854  0.000000  0.206086  1
  Tm  Tm11  1  0.089146  0.000000  0.706086  1
  Tm  Tm12  1  0.267387  0.500000  0.994684  1
  Tm  Tm13  1  0.732613  0.500000  0.494684  1
  Tm  Tm14  1  0.202917  0.000000  0.999519  1
  Tm  Tm15  1  0.797083  0.000000  0.499519  1
  Tm  Tm16  1  0.092399  0.500000  0.714918  1
  Tm  Tm17  1  0.907601  0.500000  0.214918  1
  Tm  Tm18  1  0.380351  0.000000  0.303273  1
  Tm  Tm19  1  0.619649  0.000000  0.803273  1
  Ni  Ni20  1  0.166330  0.000000  0.485002  1
  Ni  Ni21  1  0.833670  0.000000  0.985002  1
  Sb  Sb22  1  0.814660  0.740498  0.672837  1
  Sb  Sb23  1  0.185340  0.259502  0.172837  1
  Sb  Sb24  1  0.682142  0.242212  0.325968  1
  Sb  Sb25  1  0.317858  0.757788  0.825968  1
  Sb  Sb26  1  0.682142  0.757788  0.325968  1
  Sb  Sb27  1  0.317858  0.242212  0.825968  1
  Sb  Sb28  1  0.814660  0.259502  0.672837  1
  Sb  Sb29  1  0.185340  0.740498  0.172837  1
  Sb  Sb30  1  0.343448  0.500000  0.526056  1
  Sb  Sb31  1  0.656552  0.500000  0.026056  1
