# generated using pymatgen
data_LiTb6AuI12
_symmetry_space_group_name_H-M   'P 1'
_cell_length_a   9.80420732
_cell_length_b   9.80105071
_cell_length_c   9.79990800
_cell_angle_alpha   106.79985162
_cell_angle_beta   106.86091080
_cell_angle_gamma   106.85258842
_symmetry_Int_Tables_number   1
_chemical_formula_structural   LiTb6AuI12
_chemical_formula_sum   'Li1 Tb6 Au1 I12'
_cell_volume   787.69131800
_cell_formula_units_Z   1
loop_
 _symmetry_equiv_pos_site_id
 _symmetry_equiv_pos_as_xyz
  1  'x, y, z'
loop_
 _atom_site_type_symbol
 _atom_site_label
 _atom_site_symmetry_multiplicity
 _atom_site_fract_x
 _atom_site_fract_y
 _atom_site_fract_z
 _atom_site_occupancy
  Li  Li0  1  0.500000  0.500000  0.500000  1
  Tb  Tb1  1  0.107185  0.312267  0.030886  1
  Tb  Tb2  1  0.312193  0.030685  0.107112  1
  Tb  Tb3  1  0.030899  0.106912  0.312269  1
  Tb  Tb4  1  0.969102  0.893088  0.687732  1
  Tb  Tb5  1  0.687807  0.969316  0.892888  1
  Tb  Tb6  1  0.892815  0.687733  0.969114  1
  Au  Au7  1  0.000000  0.000000  0.000000  1
  I  I8  1  0.221965  0.679156  0.074898  1
  I  I9  1  0.458745  0.378243  0.156126  1
  I  I10  1  0.679297  0.074754  0.222018  1
  I  I11  1  0.925321  0.777760  0.320852  1
  I  I12  1  0.156235  0.458538  0.378394  1
  I  I13  1  0.378516  0.156240  0.458822  1
  I  I14  1  0.621484  0.843760  0.541179  1
  I  I15  1  0.843766  0.541462  0.621606  1
  I  I16  1  0.074680  0.222240  0.679149  1
  I  I17  1  0.320704  0.925247  0.777982  1
  I  I18  1  0.541255  0.621757  0.843875  1
  I  I19  1  0.778035  0.320844  0.925102  1
