# generated using pymatgen
data_Lu12Ga2Co3Rh
_symmetry_space_group_name_H-M   'P 1'
_cell_length_a   8.10937355
_cell_length_b   8.10954327
_cell_length_c   8.10937222
_cell_angle_alpha   112.10149080
_cell_angle_beta   109.82293143
_cell_angle_gamma   106.53633489
_symmetry_Int_Tables_number   1
_chemical_formula_structural   Lu12Ga2Co3Rh
_chemical_formula_sum   'Lu12 Ga2 Co3 Rh1'
_cell_volume   409.56448489
_cell_formula_units_Z   1
loop_
 _symmetry_equiv_pos_site_id
 _symmetry_equiv_pos_as_xyz
  1  'x, y, z'
loop_
 _atom_site_type_symbol
 _atom_site_label
 _atom_site_symmetry_multiplicity
 _atom_site_fract_x
 _atom_site_fract_y
 _atom_site_fract_z
 _atom_site_occupancy
  Lu  Lu0  1  0.442706  0.247316  0.195442  1
  Lu  Lu1  1  0.566366  0.764424  0.801946  1
  Lu  Lu2  1  0.037521  0.235576  0.801941  1
  Lu  Lu3  1  0.948126  0.752684  0.195389  1
  Lu  Lu4  1  0.180780  0.285066  0.465870  1
  Lu  Lu5  1  0.820918  0.721861  0.542790  1
  Lu  Lu6  1  0.180804  0.714934  0.895712  1
  Lu  Lu7  1  0.820929  0.278139  0.099056  1
  Lu  Lu8  1  0.325830  0.633665  0.310922  1
  Lu  Lu9  1  0.677258  0.366335  0.692167  1
  Lu  Lu10  1  0.325852  0.014962  0.692154  1
  Lu  Lu11  1  0.677193  0.985038  0.310890  1
  Ga  Ga12  1  0.496955  0.500000  0.996955  1
  Ga  Ga13  1  0.007742  0.000000  0.007742  1
  Co  Co14  1  0.656705  0.000000  0.656705  1
  Co  Co15  1  0.116815  0.616420  0.500387  1
  Co  Co16  1  0.883967  0.383580  0.500397  1
  Rh  Rh17  1  0.333534  0.000000  0.333534  1
