# generated using pymatgen
data_YErRuC2
_symmetry_space_group_name_H-M   'P 1'
_cell_length_a   5.08624600
_cell_length_b   6.47607000
_cell_length_c   9.74074500
_cell_angle_alpha   90.00000000
_cell_angle_beta   90.00000000
_cell_angle_gamma   90.00000000
_symmetry_Int_Tables_number   1
_chemical_formula_structural   YErRuC2
_chemical_formula_sum   'Y4 Er4 Ru4 C8'
_cell_volume   320.84928067
_cell_formula_units_Z   4
loop_
 _symmetry_equiv_pos_site_id
 _symmetry_equiv_pos_as_xyz
  1  'x, y, z'
loop_
 _atom_site_type_symbol
 _atom_site_label
 _atom_site_symmetry_multiplicity
 _atom_site_fract_x
 _atom_site_fract_y
 _atom_site_fract_z
 _atom_site_occupancy
  Y  Y0  1  0.750000  0.471011  0.784920  1
  Y  Y1  1  0.250000  0.028989  0.284920  1
  Y  Y2  1  0.750000  0.971011  0.715080  1
  Y  Y3  1  0.250000  0.528989  0.215080  1
  Er  Er4  1  0.750000  0.825827  0.055980  1
  Er  Er5  1  0.250000  0.674173  0.555980  1
  Er  Er6  1  0.750000  0.325827  0.444020  1
  Er  Er7  1  0.250000  0.174173  0.944020  1
  Ru  Ru8  1  0.750000  0.280213  0.134648  1
  Ru  Ru9  1  0.250000  0.219787  0.634648  1
  Ru  Ru10  1  0.750000  0.780213  0.365352  1
  Ru  Ru11  1  0.250000  0.719787  0.865352  1
  C  C12  1  0.750000  0.170680  0.946915  1
  C  C13  1  0.250000  0.829320  0.053085  1
  C  C14  1  0.750000  0.670680  0.553085  1
  C  C15  1  0.250000  0.329320  0.446915  1
  C  C16  1  0.750000  0.045223  0.257914  1
  C  C17  1  0.250000  0.454777  0.757914  1
  C  C18  1  0.750000  0.545223  0.242086  1
  C  C19  1  0.250000  0.954777  0.742086  1
