# generated using pymatgen
data_Nd3Dy5(CdOs)2
_symmetry_space_group_name_H-M   'P 1'
_cell_length_a   9.74722794
_cell_length_b   9.74722844
_cell_length_c   9.74722900
_cell_angle_alpha   60.00000149
_cell_angle_beta   59.99999981
_cell_angle_gamma   60.00000352
_symmetry_Int_Tables_number   1
_chemical_formula_structural   Nd3Dy5(CdOs)2
_chemical_formula_sum   'Nd6 Dy10 Cd4 Os4'
_cell_volume   654.82982901
_cell_formula_units_Z   2
loop_
 _symmetry_equiv_pos_site_id
 _symmetry_equiv_pos_as_xyz
  1  'x, y, z'
loop_
 _atom_site_type_symbol
 _atom_site_label
 _atom_site_symmetry_multiplicity
 _atom_site_fract_x
 _atom_site_fract_y
 _atom_site_fract_z
 _atom_site_occupancy
  Nd  Nd0  1  0.942842  0.557158  0.557158  1
  Nd  Nd1  1  0.557158  0.942842  0.942842  1
  Nd  Nd2  1  0.557158  0.942842  0.557158  1
  Nd  Nd3  1  0.942842  0.557158  0.942842  1
  Nd  Nd4  1  0.557158  0.557158  0.942842  1
  Nd  Nd5  1  0.942842  0.942842  0.557158  1
  Dy  Dy6  1  0.345059  0.345059  0.345059  1
  Dy  Dy7  1  0.345059  0.345059  0.964822  1
  Dy  Dy8  1  0.345059  0.964822  0.345059  1
  Dy  Dy9  1  0.964822  0.345059  0.345059  1
  Dy  Dy10  1  0.811545  0.188455  0.188455  1
  Dy  Dy11  1  0.188455  0.811545  0.811545  1
  Dy  Dy12  1  0.188455  0.811545  0.188455  1
  Dy  Dy13  1  0.811545  0.188455  0.811545  1
  Dy  Dy14  1  0.188455  0.188455  0.811545  1
  Dy  Dy15  1  0.811545  0.811545  0.188455  1
  Cd  Cd16  1  0.578792  0.578792  0.578792  1
  Cd  Cd17  1  0.578792  0.578792  0.263622  1
  Cd  Cd18  1  0.578792  0.263622  0.578792  1
  Cd  Cd19  1  0.263622  0.578792  0.578792  1
  Os  Os20  1  0.139206  0.139206  0.139206  1
  Os  Os21  1  0.139206  0.139206  0.582382  1
  Os  Os22  1  0.139206  0.582382  0.139206  1
  Os  Os23  1  0.582382  0.139206  0.139206  1
