# generated using pymatgen
data_EuEr3(B6Ru)2
_symmetry_space_group_name_H-M   'P 1'
_cell_length_a   3.67682000
_cell_length_b   9.19328477
_cell_length_c   11.60320823
_cell_angle_alpha   89.92892699
_cell_angle_beta   90.00000000
_cell_angle_gamma   90.00000000
_symmetry_Int_Tables_number   1
_chemical_formula_structural   EuEr3(B6Ru)2
_chemical_formula_sum   'Eu2 Er6 B24 Ru4'
_cell_volume   392.21196137
_cell_formula_units_Z   2
loop_
 _symmetry_equiv_pos_site_id
 _symmetry_equiv_pos_as_xyz
  1  'x, y, z'
loop_
 _atom_site_type_symbol
 _atom_site_label
 _atom_site_symmetry_multiplicity
 _atom_site_fract_x
 _atom_site_fract_y
 _atom_site_fract_z
 _atom_site_occupancy
  Eu  Eu0  1  0.000000  0.323205  0.414101  1
  Eu  Eu1  1  0.000000  0.676795  0.585899  1
  Er  Er2  1  0.000000  0.822240  0.085308  1
  Er  Er3  1  0.000000  0.177760  0.914692  1
  Er  Er4  1  0.000000  0.943199  0.369901  1
  Er  Er5  1  0.000000  0.056801  0.630099  1
  Er  Er6  1  0.000000  0.443303  0.128299  1
  Er  Er7  1  0.000000  0.556697  0.871701  1
  B  B8  1  0.500000  0.555855  0.430262  1
  B  B9  1  0.500000  0.444145  0.569738  1
  B  B10  1  0.500000  0.053781  0.066353  1
  B  B11  1  0.500000  0.946219  0.933647  1
  B  B12  1  0.500000  0.749567  0.416560  1
  B  B13  1  0.500000  0.250433  0.583440  1
  B  B14  1  0.500000  0.248066  0.079960  1
  B  B15  1  0.500000  0.751934  0.920040  1
  B  B16  1  0.500000  0.792191  0.263563  1
  B  B17  1  0.500000  0.207809  0.736437  1
  B  B18  1  0.500000  0.289698  0.232069  1
  B  B19  1  0.500000  0.710302  0.767931  1
  B  B20  1  0.500000  0.632265  0.183534  1
  B  B21  1  0.500000  0.367735  0.816466  1
  B  B22  1  0.500000  0.130074  0.313138  1
  B  B23  1  0.500000  0.869926  0.686862  1
  B  B24  1  0.500000  0.982935  0.211185  1
  B  B25  1  0.500000  0.017065  0.788815  1
  B  B26  1  0.500000  0.485458  0.285526  1
  B  B27  1  0.500000  0.514542  0.714474  1
  B  B28  1  0.500000  0.606986  0.029143  1
  B  B29  1  0.500000  0.393014  0.970857  1
  B  B30  1  0.500000  0.100273  0.472475  1
  B  B31  1  0.500000  0.899727  0.527525  1
  Ru  Ru32  1  0.000000  0.641618  0.316875  1
  Ru  Ru33  1  0.000000  0.358382  0.683125  1
  Ru  Ru34  1  0.000000  0.136570  0.177245  1
  Ru  Ru35  1  0.000000  0.863430  0.822755  1
