# generated using pymatgen
data_Hf12Zn5Ni2Pd(PtN)4
_symmetry_space_group_name_H-M   'P 1'
_cell_length_a   8.48950126
_cell_length_b   8.49539571
_cell_length_c   8.47296400
_cell_angle_alpha   60.08729163
_cell_angle_beta   60.06437057
_cell_angle_gamma   60.08798123
_symmetry_Int_Tables_number   1
_chemical_formula_structural   Hf12Zn5Ni2Pd(PtN)4
_chemical_formula_sum   'Hf12 Zn5 Ni2 Pd1 Pt4 N4'
_cell_volume   432.88401700
_cell_formula_units_Z   1
loop_
 _symmetry_equiv_pos_site_id
 _symmetry_equiv_pos_as_xyz
  1  'x, y, z'
loop_
 _atom_site_type_symbol
 _atom_site_label
 _atom_site_symmetry_multiplicity
 _atom_site_fract_x
 _atom_site_fract_y
 _atom_site_fract_z
 _atom_site_occupancy
  Hf  Hf0  1  0.809955  0.190853  0.189275  1
  Hf  Hf1  1  0.189027  0.809956  0.191468  1
  Hf  Hf2  1  0.808447  0.807922  0.191816  1
  Hf  Hf3  1  0.189027  0.809957  0.809548  1
  Hf  Hf4  1  0.809956  0.190853  0.809915  1
  Hf  Hf5  1  0.186165  0.190658  0.811588  1
  Hf  Hf6  1  0.441283  0.061635  0.057041  1
  Hf  Hf7  1  0.068199  0.435758  0.059347  1
  Hf  Hf8  1  0.436386  0.434878  0.064369  1
  Hf  Hf9  1  0.068199  0.435757  0.436696  1
  Hf  Hf10  1  0.441282  0.061635  0.440043  1
  Hf  Hf11  1  0.059330  0.057427  0.441622  1
  Zn  Zn12  1  0.831761  0.511230  0.828504  1
  Zn  Zn13  1  0.618870  0.615681  0.132508  1
  Zn  Zn14  1  0.618870  0.615682  0.632941  1
  Zn  Zn15  1  0.140566  0.607859  0.625787  1
  Zn  Zn16  1  0.610943  0.138850  0.625103  1
  Ni  Ni17  1  0.410082  0.411862  0.771302  1
  Ni  Ni18  1  0.410083  0.411862  0.406754  1
  Pd  Pd19  1  0.489216  0.839035  0.835874  1
  Pt  Pt20  1  0.768446  0.411747  0.409904  1
  Pt  Pt21  1  0.411194  0.766325  0.411240  1
  Pt  Pt22  1  0.839079  0.839621  0.485129  1
  Pt  Pt23  1  0.839080  0.839622  0.836173  1
  N  N24  1  0.126672  0.125125  0.623474  1
  N  N25  1  0.126672  0.125125  0.124728  1
  N  N26  1  0.625676  0.125187  0.124569  1
  N  N27  1  0.125530  0.627898  0.123286  1
