# generated using pymatgen
data_Ce6Sc7Al9Ir7
_symmetry_space_group_name_H-M   'P 1'
_cell_length_a   9.27370803
_cell_length_b   9.27370790
_cell_length_c   9.27370800
_cell_angle_alpha   59.48672312
_cell_angle_beta   59.48673076
_cell_angle_gamma   59.48672507
_symmetry_Int_Tables_number   1
_chemical_formula_structural   Ce6Sc7Al9Ir7
_chemical_formula_sum   'Ce6 Sc7 Al9 Ir7'
_cell_volume   557.37232434
_cell_formula_units_Z   1
loop_
 _symmetry_equiv_pos_site_id
 _symmetry_equiv_pos_as_xyz
  1  'x, y, z'
loop_
 _atom_site_type_symbol
 _atom_site_label
 _atom_site_symmetry_multiplicity
 _atom_site_fract_x
 _atom_site_fract_y
 _atom_site_fract_z
 _atom_site_occupancy
  Ce  Ce0  1  0.680732  0.680732  0.322166  1
  Ce  Ce1  1  0.314148  0.691419  0.314148  1
  Ce  Ce2  1  0.691419  0.314148  0.314148  1
  Ce  Ce3  1  0.314148  0.314148  0.691419  1
  Ce  Ce4  1  0.680732  0.322166  0.680732  1
  Ce  Ce5  1  0.322166  0.680732  0.680732  1
  Sc  Sc6  1  0.882211  0.882211  0.360525  1
  Sc  Sc7  1  0.882211  0.360525  0.882211  1
  Sc  Sc8  1  0.360525  0.882211  0.882211  1
  Sc  Sc9  1  0.878506  0.878506  0.878506  1
  Sc  Sc10  1  0.120680  0.120680  0.636279  1
  Sc  Sc11  1  0.120680  0.636279  0.120680  1
  Sc  Sc12  1  0.636279  0.120680  0.120680  1
  Al  Al13  1  0.117833  0.117833  0.117833  1
  Al  Al14  1  0.669454  0.669454  0.992916  1
  Al  Al15  1  0.669454  0.992916  0.669454  1
  Al  Al16  1  0.992916  0.669454  0.669454  1
  Al  Al17  1  0.669849  0.669849  0.669849  1
  Al  Al18  1  0.326326  0.326326  0.011466  1
  Al  Al19  1  0.326326  0.011466  0.326326  1
  Al  Al20  1  0.011466  0.326326  0.326326  1
  Al  Al21  1  0.331458  0.331458  0.331458  1
  Ir  Ir22  1  0.001027  0.001027  0.001027  1
  Ir  Ir23  1  0.001116  0.001116  0.496865  1
  Ir  Ir24  1  0.500643  0.999065  0.500643  1
  Ir  Ir25  1  0.999065  0.500643  0.500643  1
  Ir  Ir26  1  0.500643  0.500643  0.999065  1
  Ir  Ir27  1  0.001116  0.496865  0.001116  1
  Ir  Ir28  1  0.496865  0.001116  0.001116  1
