# generated using pymatgen
data_La6NdIr2Pd
_symmetry_space_group_name_H-M   'P 1'
_cell_length_a   6.54109029
_cell_length_b   10.28869342
_cell_length_c   10.27769691
_cell_angle_alpha   120.08544710
_cell_angle_beta   90.13332178
_cell_angle_gamma   90.10506157
_symmetry_Int_Tables_number   1
_chemical_formula_structural   La6NdIr2Pd
_chemical_formula_sum   'La12 Nd2 Ir4 Pd2'
_cell_volume   598.49212573
_cell_formula_units_Z   2
loop_
 _symmetry_equiv_pos_site_id
 _symmetry_equiv_pos_as_xyz
  1  'x, y, z'
loop_
 _atom_site_type_symbol
 _atom_site_label
 _atom_site_symmetry_multiplicity
 _atom_site_fract_x
 _atom_site_fract_y
 _atom_site_fract_z
 _atom_site_occupancy
  La  La0  1  0.250640  0.120806  0.864843  1
  La  La1  1  0.250251  0.745612  0.865874  1
  La  La2  1  0.251296  0.130778  0.260973  1
  La  La3  1  0.739506  0.875797  0.124839  1
  La  La4  1  0.738499  0.249076  0.124316  1
  La  La5  1  0.747442  0.874028  0.749129  1
  La  La6  1  0.439372  0.543862  0.466986  1
  La  La7  1  0.439889  0.923198  0.466557  1
  La  La8  1  0.448033  0.534252  0.068838  1
  La  La9  1  0.931234  0.461490  0.540478  1
  La  La10  1  0.933109  0.079375  0.541291  1
  La  La11  1  0.938473  0.460500  0.922778  1
  Nd  Nd12  1  0.472576  0.333362  0.666124  1
  Nd  Nd13  1  0.960353  0.669661  0.339337  1
  Ir  Ir14  1  0.195844  0.810858  0.622511  1
  Ir  Ir15  1  0.692897  0.189425  0.814478  1
  Ir  Ir16  1  0.691836  0.625236  0.814590  1
  Ir  Ir17  1  0.692422  0.186684  0.373060  1
  Pd  Pd18  1  0.193752  0.809088  0.186369  1
  Pd  Pd19  1  0.194572  0.376913  0.186628  1
