# generated using pymatgen
data_Ho4Al18Ir3Pd2Rh
_symmetry_space_group_name_H-M   'P 1'
_cell_length_a   7.57323302
_cell_length_b   7.57314540
_cell_length_c   9.45360233
_cell_angle_alpha   89.97748964
_cell_angle_beta   89.97902619
_cell_angle_gamma   119.55283812
_symmetry_Int_Tables_number   1
_chemical_formula_structural   Ho4Al18Ir3Pd2Rh
_chemical_formula_sum   'Ho4 Al18 Ir3 Pd2 Rh1'
_cell_volume   471.65534139
_cell_formula_units_Z   1
loop_
 _symmetry_equiv_pos_site_id
 _symmetry_equiv_pos_as_xyz
  1  'x, y, z'
loop_
 _atom_site_type_symbol
 _atom_site_label
 _atom_site_symmetry_multiplicity
 _atom_site_fract_x
 _atom_site_fract_y
 _atom_site_fract_z
 _atom_site_occupancy
  Ho  Ho0  1  0.995441  0.670605  0.251881  1
  Ho  Ho1  1  0.004559  0.329395  0.748119  1
  Ho  Ho2  1  0.670574  0.995417  0.251886  1
  Ho  Ho3  1  0.329426  0.004583  0.748114  1
  Al  Al4  1  0.127121  0.127125  0.249907  1
  Al  Al5  1  0.872879  0.872875  0.750093  1
  Al  Al6  1  0.001184  0.331275  0.077591  1
  Al  Al7  1  0.998816  0.668725  0.922409  1
  Al  Al8  1  0.000207  0.665052  0.574421  1
  Al  Al9  1  0.334938  0.999779  0.425579  1
  Al  Al10  1  0.999793  0.334948  0.425579  1
  Al  Al11  1  0.665062  0.000221  0.574421  1
  Al  Al12  1  0.668694  0.998819  0.922411  1
  Al  Al13  1  0.331306  0.001181  0.077589  1
  Al  Al14  1  0.332163  0.332158  0.550121  1
  Al  Al15  1  0.667837  0.667842  0.449879  1
  Al  Al16  1  0.669544  0.669535  0.058521  1
  Al  Al17  1  0.330456  0.330465  0.941479  1
  Al  Al18  1  0.340121  0.547397  0.252932  1
  Al  Al19  1  0.659879  0.452603  0.747068  1
  Al  Al20  1  0.547417  0.340141  0.252926  1
  Al  Al21  1  0.452583  0.659859  0.747074  1
  Ir  Ir22  1  0.327983  0.672021  0.500004  1
  Ir  Ir23  1  0.672017  0.327979  0.499996  1
  Ir  Ir24  1  0.000000  0.000000  0.500000  1
  Pd  Pd25  1  0.672450  0.327550  0.999993  1
  Pd  Pd26  1  0.327550  0.672450  0.000007  1
  Rh  Rh27  1  0.000000  0.000000  0.000000  1
