# generated using pymatgen
data_Cs4YbI6
_symmetry_space_group_name_H-M   'P 1'
_cell_length_a   10.60176945
_cell_length_b   10.60177011
_cell_length_c   10.60176900
_cell_angle_alpha   89.10294319
_cell_angle_beta   89.10293983
_cell_angle_gamma   89.10294617
_symmetry_Int_Tables_number   1
_chemical_formula_structural   Cs4YbI6
_chemical_formula_sum   'Cs8 Yb2 I12'
_cell_volume   1191.17895048
_cell_formula_units_Z   2
loop_
 _symmetry_equiv_pos_site_id
 _symmetry_equiv_pos_as_xyz
  1  'x, y, z'
loop_
 _atom_site_type_symbol
 _atom_site_label
 _atom_site_symmetry_multiplicity
 _atom_site_fract_x
 _atom_site_fract_y
 _atom_site_fract_z
 _atom_site_occupancy
  Cs  Cs0  1  0.250000  0.250000  0.250000  1
  Cs  Cs1  1  0.750000  0.750000  0.750000  1
  Cs  Cs2  1  0.250000  0.626479  0.873521  1
  Cs  Cs3  1  0.873521  0.250000  0.626479  1
  Cs  Cs4  1  0.626479  0.873521  0.250000  1
  Cs  Cs5  1  0.750000  0.373521  0.126479  1
  Cs  Cs6  1  0.126479  0.750000  0.373521  1
  Cs  Cs7  1  0.373521  0.126479  0.750000  1
  Yb  Yb8  1  0.000000  0.000000  0.000000  1
  Yb  Yb9  1  0.500000  0.500000  0.500000  1
  I  I10  1  0.559326  0.216561  0.430852  1
  I  I11  1  0.430852  0.559326  0.216561  1
  I  I12  1  0.216561  0.430852  0.559326  1
  I  I13  1  0.940674  0.069148  0.283439  1
  I  I14  1  0.283439  0.940674  0.069148  1
  I  I15  1  0.069148  0.283439  0.940674  1
  I  I16  1  0.440674  0.783439  0.569148  1
  I  I17  1  0.569148  0.440674  0.783439  1
  I  I18  1  0.783439  0.569148  0.440674  1
  I  I19  1  0.059326  0.930852  0.716561  1
  I  I20  1  0.930852  0.716561  0.059326  1
  I  I21  1  0.716561  0.059326  0.930852  1
