# generated using pymatgen
data_Lu3Sc(Pa2Ga5)4
_symmetry_space_group_name_H-M   'P 1'
_cell_length_a   6.03195403
_cell_length_b   9.45180500
_cell_length_c   11.61161807
_cell_angle_alpha   90.00000000
_cell_angle_beta   90.01221997
_cell_angle_gamma   90.00000000
_symmetry_Int_Tables_number   1
_chemical_formula_structural   Lu3Sc(Pa2Ga5)4
_chemical_formula_sum   'Lu3 Sc1 Pa8 Ga20'
_cell_volume   662.01146234
_cell_formula_units_Z   1
loop_
 _symmetry_equiv_pos_site_id
 _symmetry_equiv_pos_as_xyz
  1  'x, y, z'
loop_
 _atom_site_type_symbol
 _atom_site_label
 _atom_site_symmetry_multiplicity
 _atom_site_fract_x
 _atom_site_fract_y
 _atom_site_fract_z
 _atom_site_occupancy
  Lu  Lu0  1  0.856389  0.750000  0.070934  1
  Lu  Lu1  1  0.642921  0.750000  0.570266  1
  Lu  Lu2  1  0.143342  0.250000  0.929096  1
  Sc  Sc3  1  0.355954  0.250000  0.428467  1
  Pa  Pa4  1  0.878342  0.502668  0.352334  1
  Pa  Pa5  1  0.621307  0.998413  0.851997  1
  Pa  Pa6  1  0.121453  0.002549  0.646890  1
  Pa  Pa7  1  0.378071  0.498051  0.147866  1
  Pa  Pa8  1  0.121453  0.497451  0.646890  1
  Pa  Pa9  1  0.378071  0.001949  0.147866  1
  Pa  Pa10  1  0.878342  0.997332  0.352334  1
  Pa  Pa11  1  0.621307  0.501587  0.851997  1
  Ga  Ga12  1  0.871219  0.051501  0.091086  1
  Ga  Ga13  1  0.627993  0.447157  0.588982  1
  Ga  Ga14  1  0.128524  0.550998  0.909072  1
  Ga  Ga15  1  0.371353  0.954184  0.409806  1
  Ga  Ga16  1  0.128524  0.949002  0.909072  1
  Ga  Ga17  1  0.371353  0.545816  0.409806  1
  Ga  Ga18  1  0.871219  0.448499  0.091086  1
  Ga  Ga19  1  0.627993  0.052843  0.588982  1
  Ga  Ga20  1  0.151336  0.750000  0.262709  1
  Ga  Ga21  1  0.348772  0.750000  0.762264  1
  Ga  Ga22  1  0.849340  0.250000  0.736928  1
  Ga  Ga23  1  0.646754  0.250000  0.240907  1
  Ga  Ga24  1  0.393178  0.750000  0.993112  1
  Ga  Ga25  1  0.109841  0.750000  0.493137  1
  Ga  Ga26  1  0.606748  0.250000  0.007570  1
  Ga  Ga27  1  0.900680  0.250000  0.505818  1
  Ga  Ga28  1  0.592453  0.750000  0.291361  1
  Ga  Ga29  1  0.904753  0.750000  0.790253  1
  Ga  Ga30  1  0.405536  0.250000  0.708374  1
  Ga  Ga31  1  0.095482  0.250000  0.212735  1
