# generated using pymatgen
data_Nd5GeS4
_symmetry_space_group_name_H-M   'P 1'
_cell_length_a   7.15262873
_cell_length_b   7.15262897
_cell_length_c   7.15262874
_cell_angle_alpha   99.51466413
_cell_angle_beta   99.51466539
_cell_angle_gamma   132.02076796
_symmetry_Int_Tables_number   1
_chemical_formula_structural   Nd5GeS4
_chemical_formula_sum   'Nd5 Ge1 S4'
_cell_volume   248.36701943
_cell_formula_units_Z   1
loop_
 _symmetry_equiv_pos_site_id
 _symmetry_equiv_pos_as_xyz
  1  'x, y, z'
loop_
 _atom_site_type_symbol
 _atom_site_label
 _atom_site_symmetry_multiplicity
 _atom_site_fract_x
 _atom_site_fract_y
 _atom_site_fract_z
 _atom_site_occupancy
  Nd  Nd0  1  0.401071  0.801552  0.202623  1
  Nd  Nd1  1  0.000000  0.000000  0.000000  1
  Nd  Nd2  1  0.598929  0.198448  0.797377  1
  Nd  Nd3  1  0.198448  0.401071  0.599519  1
  Nd  Nd4  1  0.801552  0.598929  0.400481  1
  Ge  Ge5  1  0.500000  0.500000  0.000000  1
  S  S6  1  0.103470  0.699527  0.802996  1
  S  S7  1  0.699527  0.896530  0.596057  1
  S  S8  1  0.300473  0.103470  0.403943  1
  S  S9  1  0.896530  0.300473  0.197004  1
