# generated using pymatgen
data_K6Fe2O7
_symmetry_space_group_name_H-M   'P 1'
_cell_length_a   9.27724100
_cell_length_b   6.64135586
_cell_length_c   11.11241010
_cell_angle_alpha   56.90800767
_cell_angle_beta   90.00000000
_cell_angle_gamma   90.00000000
_symmetry_Int_Tables_number   1
_chemical_formula_structural   K6Fe2O7
_chemical_formula_sum   'K12 Fe4 O14'
_cell_volume   573.61649454
_cell_formula_units_Z   2
loop_
 _symmetry_equiv_pos_site_id
 _symmetry_equiv_pos_as_xyz
  1  'x, y, z'
loop_
 _atom_site_type_symbol
 _atom_site_label
 _atom_site_symmetry_multiplicity
 _atom_site_fract_x
 _atom_site_fract_y
 _atom_site_fract_z
 _atom_site_occupancy
  K  K0  1  0.514377  0.198866  0.564982  1
  K  K1  1  0.985623  0.198866  0.064982  1
  K  K2  1  0.485623  0.801134  0.435018  1
  K  K3  1  0.014377  0.801134  0.935018  1
  K  K4  1  0.647915  0.929391  0.942121  1
  K  K5  1  0.852085  0.929391  0.442121  1
  K  K6  1  0.352085  0.070609  0.057879  1
  K  K7  1  0.147915  0.070609  0.557879  1
  K  K8  1  0.706471  0.584310  0.789651  1
  K  K9  1  0.793529  0.584310  0.289651  1
  K  K10  1  0.293529  0.415690  0.210349  1
  K  K11  1  0.206471  0.415690  0.710349  1
  Fe  Fe12  1  0.641442  0.303492  0.142587  1
  Fe  Fe13  1  0.858558  0.303492  0.642587  1
  Fe  Fe14  1  0.358558  0.696508  0.857413  1
  Fe  Fe15  1  0.141442  0.696508  0.357413  1
  O  O16  1  0.633610  0.013768  0.163001  1
  O  O17  1  0.866390  0.013768  0.663001  1
  O  O18  1  0.366390  0.986232  0.836999  1
  O  O19  1  0.133610  0.986232  0.336999  1
  O  O20  1  0.704735  0.501838  0.575611  1
  O  O21  1  0.795265  0.501838  0.075611  1
  O  O22  1  0.295265  0.498162  0.424389  1
  O  O23  1  0.204735  0.498162  0.924389  1
  O  O24  1  0.500000  0.500000  0.000000  1
  O  O25  1  0.000000  0.500000  0.500000  1
  O  O26  1  0.612934  0.234900  0.321176  1
  O  O27  1  0.887066  0.234900  0.821176  1
  O  O28  1  0.387066  0.765100  0.678824  1
  O  O29  1  0.112934  0.765100  0.178824  1
