# generated using pymatgen
data_YEr3Ir2(RhO7)2
_symmetry_space_group_name_H-M   'P 1'
_cell_length_a   7.23428874
_cell_length_b   7.21329188
_cell_length_c   7.21329246
_cell_angle_alpha   59.79001742
_cell_angle_beta   59.90545182
_cell_angle_gamma   59.90545799
_symmetry_Int_Tables_number   1
_chemical_formula_structural   YEr3Ir2(RhO7)2
_chemical_formula_sum   'Y1 Er3 Ir2 Rh2 O14'
_cell_volume   265.35898998
_cell_formula_units_Z   1
loop_
 _symmetry_equiv_pos_site_id
 _symmetry_equiv_pos_as_xyz
  1  'x, y, z'
loop_
 _atom_site_type_symbol
 _atom_site_label
 _atom_site_symmetry_multiplicity
 _atom_site_fract_x
 _atom_site_fract_y
 _atom_site_fract_z
 _atom_site_occupancy
  Y  Y0  1  0.125000  0.125000  0.125000  1
  Er  Er1  1  0.625000  0.125000  0.125000  1
  Er  Er2  1  0.125000  0.625000  0.125000  1
  Er  Er3  1  0.125000  0.125000  0.625000  1
  Ir  Ir4  1  0.125000  0.625000  0.625000  1
  Ir  Ir5  1  0.625000  0.625000  0.625000  1
  Rh  Rh6  1  0.625000  0.125000  0.625000  1
  Rh  Rh7  1  0.625000  0.625000  0.125000  1
  O  O8  1  0.716496  0.709685  0.289372  1
  O  O9  1  0.284594  0.289420  0.707273  1
  O  O10  1  0.716496  0.289372  0.709685  1
  O  O11  1  0.284594  0.707273  0.289420  1
  O  O12  1  0.289910  0.710290  0.710290  1
  O  O13  1  0.714066  0.283456  0.283456  1
  O  O14  1  0.533504  0.540315  0.960628  1
  O  O15  1  0.965406  0.960580  0.542727  1
  O  O16  1  0.533504  0.960628  0.540315  1
  O  O17  1  0.965406  0.542727  0.960580  1
  O  O18  1  0.960090  0.539710  0.539710  1
  O  O19  1  0.535934  0.966544  0.966544  1
  O  O20  1  0.249815  0.252020  0.252020  1
  O  O21  1  0.000185  0.997980  0.997980  1
