# generated using pymatgen
data_SrTh7H30
_symmetry_space_group_name_H-M   'P 1'
_cell_length_a   7.93387412
_cell_length_b   7.93387476
_cell_length_c   7.93387452
_cell_angle_alpha   109.38712972
_cell_angle_beta   109.38712878
_cell_angle_gamma   109.38713817
_symmetry_Int_Tables_number   1
_chemical_formula_structural   SrTh7H30
_chemical_formula_sum   'Sr1 Th7 H30'
_cell_volume   385.63712621
_cell_formula_units_Z   1
loop_
 _symmetry_equiv_pos_site_id
 _symmetry_equiv_pos_as_xyz
  1  'x, y, z'
loop_
 _atom_site_type_symbol
 _atom_site_label
 _atom_site_symmetry_multiplicity
 _atom_site_fract_x
 _atom_site_fract_y
 _atom_site_fract_z
 _atom_site_occupancy
  Sr  Sr0  1  0.921312  0.921312  0.921312  1
  Th  Th1  1  0.500188  0.998829  0.082615  1
  Th  Th2  1  0.998829  0.082615  0.500188  1
  Th  Th3  1  0.082615  0.500188  0.998829  1
  Th  Th4  1  0.999621  0.584895  0.500006  1
  Th  Th5  1  0.584895  0.500006  0.999621  1
  Th  Th6  1  0.500006  0.999621  0.584895  1
  Th  Th7  1  0.417825  0.417825  0.417825  1
  H  H8  1  0.653060  0.970964  0.373765  1
  H  H9  1  0.218662  0.316017  0.845538  1
  H  H10  1  0.183688  0.403804  0.532214  1
  H  H11  1  0.108286  0.302538  0.141896  1
  H  H12  1  0.302538  0.141896  0.108286  1
  H  H13  1  0.141896  0.108286  0.302538  1
  H  H14  1  0.465556  0.153873  0.871115  1
  H  H15  1  0.717914  0.346290  0.814864  1
  H  H16  1  0.628924  0.375205  0.250680  1
  H  H17  1  0.250680  0.628924  0.375205  1
  H  H18  1  0.741398  0.870671  0.137100  1
  H  H19  1  0.137100  0.741398  0.870671  1
  H  H20  1  0.375205  0.250680  0.628924  1
  H  H21  1  0.870671  0.137100  0.741398  1
  H  H22  1  0.773973  0.577628  0.610953  1
  H  H23  1  0.316017  0.845538  0.218662  1
  H  H24  1  0.373765  0.653060  0.970964  1
  H  H25  1  0.970964  0.373765  0.653060  1
  H  H26  1  0.532214  0.183688  0.403804  1
  H  H27  1  0.403804  0.532214  0.183688  1
  H  H28  1  0.845538  0.218662  0.316017  1
  H  H29  1  0.900705  0.671226  0.036201  1
  H  H30  1  0.814864  0.717914  0.346290  1
  H  H31  1  0.153873  0.871115  0.465556  1
  H  H32  1  0.671226  0.036201  0.900705  1
  H  H33  1  0.346290  0.814864  0.717914  1
  H  H34  1  0.871115  0.465556  0.153873  1
  H  H35  1  0.610953  0.773973  0.577628  1
  H  H36  1  0.577628  0.610953  0.773973  1
  H  H37  1  0.036201  0.900705  0.671226  1
