# generated using pymatgen
data_Tb4GaOs2Ru5
_symmetry_space_group_name_H-M   'P 1'
_cell_length_a   5.30166099
_cell_length_b   5.20453609
_cell_length_c   8.93285600
_cell_angle_alpha   90.00000000
_cell_angle_beta   90.00000000
_cell_angle_gamma   117.70732751
_symmetry_Int_Tables_number   1
_chemical_formula_structural   Tb4GaOs2Ru5
_chemical_formula_sum   'Tb4 Ga1 Os2 Ru5'
_cell_volume   218.21848553
_cell_formula_units_Z   1
loop_
 _symmetry_equiv_pos_site_id
 _symmetry_equiv_pos_as_xyz
  1  'x, y, z'
loop_
 _atom_site_type_symbol
 _atom_site_label
 _atom_site_symmetry_multiplicity
 _atom_site_fract_x
 _atom_site_fract_y
 _atom_site_fract_z
 _atom_site_occupancy
  Tb  Tb0  1  0.328151  0.666845  0.433080  1
  Tb  Tb1  1  0.667812  0.334572  0.565017  1
  Tb  Tb2  1  0.667812  0.334572  0.934983  1
  Tb  Tb3  1  0.328151  0.666845  0.066920  1
  Ga  Ga4  1  0.168365  0.833386  0.750000  1
  Os  Os5  1  0.840159  0.158762  0.250000  1
  Os  Os6  1  0.828549  0.650022  0.250000  1
  Ru  Ru7  1  0.989157  0.004772  0.499400  1
  Ru  Ru8  1  0.989157  0.004772  0.000600  1
  Ru  Ru9  1  0.354769  0.176739  0.250000  1
  Ru  Ru10  1  0.178403  0.343579  0.750000  1
  Ru  Ru11  1  0.659517  0.825133  0.750000  1
