# generated using pymatgen
data_Er4Ga17GeRh6
_symmetry_space_group_name_H-M   'P 1'
_cell_length_a   7.57701155
_cell_length_b   7.55173711
_cell_length_c   9.48581818
_cell_angle_alpha   90.07420182
_cell_angle_beta   89.80488963
_cell_angle_gamma   119.82716603
_symmetry_Int_Tables_number   1
_chemical_formula_structural   Er4Ga17GeRh6
_chemical_formula_sum   'Er4 Ga17 Ge1 Rh6'
_cell_volume   470.87041815
_cell_formula_units_Z   1
loop_
 _symmetry_equiv_pos_site_id
 _symmetry_equiv_pos_as_xyz
  1  'x, y, z'
loop_
 _atom_site_type_symbol
 _atom_site_label
 _atom_site_symmetry_multiplicity
 _atom_site_fract_x
 _atom_site_fract_y
 _atom_site_fract_z
 _atom_site_occupancy
  Er  Er0  1  0.996302  0.664946  0.248098  1
  Er  Er1  1  0.003297  0.330877  0.752179  1
  Er  Er2  1  0.673098  0.001996  0.248155  1
  Er  Er3  1  0.329866  0.002460  0.749252  1
  Ga  Ga4  1  0.128301  0.125397  0.251199  1
  Ga  Ga5  1  0.872845  0.875139  0.750114  1
  Ga  Ga6  1  0.999232  0.671390  0.917668  1
  Ga  Ga7  1  0.000271  0.665447  0.579606  1
  Ga  Ga8  1  0.334021  0.998131  0.419736  1
  Ga  Ga9  1  0.000526  0.334893  0.422357  1
  Ga  Ga10  1  0.665238  0.999931  0.579639  1
  Ga  Ga11  1  0.658012  0.994592  0.917702  1
  Ga  Ga12  1  0.333367  0.998045  0.080626  1
  Ga  Ga13  1  0.333056  0.331977  0.566028  1
  Ga  Ga14  1  0.669085  0.669587  0.433744  1
  Ga  Ga15  1  0.667657  0.669235  0.068285  1
  Ga  Ga16  1  0.339003  0.332507  0.932235  1
  Ga  Ga17  1  0.341370  0.549553  0.251685  1
  Ga  Ga18  1  0.663287  0.450840  0.750507  1
  Ga  Ga19  1  0.547301  0.338137  0.250476  1
  Ga  Ga20  1  0.450060  0.659306  0.749886  1
  Ge  Ge21  1  0.999396  0.334763  0.079044  1
  Rh  Rh22  1  0.677780  0.329519  0.001936  1
  Rh  Rh23  1  0.319321  0.662744  0.000295  1
  Rh  Rh24  1  0.328211  0.671519  0.500077  1
  Rh  Rh25  1  0.671904  0.328246  0.499510  1
  Rh  Rh26  1  0.998428  0.008444  0.000136  1
  Rh  Rh27  1  0.999763  0.000381  0.499821  1
