# generated using pymatgen
data_Sm3Eu(AgTe)12
_symmetry_space_group_name_H-M   'P 1'
_cell_length_a   7.33588295
_cell_length_b   8.29998580
_cell_length_c   13.88526583
_cell_angle_alpha   89.97563336
_cell_angle_beta   89.96849313
_cell_angle_gamma   89.81536911
_symmetry_Int_Tables_number   1
_chemical_formula_structural   Sm3Eu(AgTe)12
_chemical_formula_sum   'Sm3 Eu1 Ag12 Te12'
_cell_volume   845.43764422
_cell_formula_units_Z   1
loop_
 _symmetry_equiv_pos_site_id
 _symmetry_equiv_pos_as_xyz
  1  'x, y, z'
loop_
 _atom_site_type_symbol
 _atom_site_label
 _atom_site_symmetry_multiplicity
 _atom_site_fract_x
 _atom_site_fract_y
 _atom_site_fract_z
 _atom_site_occupancy
  Sm  Sm0  1  0.743132  0.250670  0.335397  1
  Sm  Sm1  1  0.743262  0.250622  0.666754  1
  Sm  Sm2  1  0.243180  0.749334  0.163444  1
  Eu  Eu3  1  0.243285  0.749270  0.833690  1
  Ag  Ag4  1  0.380746  0.121460  0.831816  1
  Ag  Ag5  1  0.626222  0.606736  0.000135  1
  Ag  Ag6  1  0.880302  0.878736  0.667683  1
  Ag  Ag7  1  0.607682  0.623608  0.670141  1
  Ag  Ag8  1  0.865954  0.889402  0.000329  1
  Ag  Ag9  1  0.125000  0.392806  0.500112  1
  Ag  Ag10  1  0.606718  0.623863  0.329289  1
  Ag  Ag11  1  0.367534  0.111048  0.500164  1
  Ag  Ag12  1  0.880680  0.878596  0.331869  1
  Ag  Ag13  1  0.381682  0.121203  0.167973  1
  Ag  Ag14  1  0.106916  0.376065  0.829198  1
  Ag  Ag15  1  0.106010  0.376399  0.170526  1
  Te  Te16  1  0.007002  0.560228  0.332712  1
  Te  Te17  1  0.506839  0.439331  0.167976  1
  Te  Te18  1  0.979949  0.059144  0.168365  1
  Te  Te19  1  0.003528  0.558201  0.666378  1
  Te  Te20  1  0.016508  0.567784  0.002505  1
  Te  Te21  1  0.510145  0.436536  0.832013  1
  Te  Te22  1  0.479551  0.941441  0.332298  1
  Te  Te23  1  0.483126  0.943265  0.666813  1
  Te  Te24  1  0.972024  0.074151  0.499332  1
  Te  Te25  1  0.474168  0.928125  0.002264  1
  Te  Te26  1  0.976563  0.061789  0.831534  1
  Te  Te27  1  0.518290  0.430186  0.499291  1
