# generated using pymatgen
data_YCu3PtAu
_symmetry_space_group_name_H-M   'P 1'
_cell_length_a   5.09566310
_cell_length_b   5.09566306
_cell_length_c   5.18356400
_cell_angle_alpha   60.55939069
_cell_angle_beta   60.55939094
_cell_angle_gamma   60.00001128
_symmetry_Int_Tables_number   1
_chemical_formula_structural   YCu3PtAu
_chemical_formula_sum   'Y1 Cu3 Pt1 Au1'
_cell_volume   95.97003888
_cell_formula_units_Z   1
loop_
 _symmetry_equiv_pos_site_id
 _symmetry_equiv_pos_as_xyz
  1  'x, y, z'
loop_
 _atom_site_type_symbol
 _atom_site_label
 _atom_site_symmetry_multiplicity
 _atom_site_fract_x
 _atom_site_fract_y
 _atom_site_fract_z
 _atom_site_occupancy
  Y  Y0  1  0.997868  0.997868  0.006395  1
  Cu  Cu1  1  0.626922  0.130015  0.616142  1
  Cu  Cu2  1  0.130015  0.626922  0.616142  1
  Cu  Cu3  1  0.626922  0.626922  0.616142  1
  Pt  Pt4  1  0.628134  0.628134  0.115599  1
  Au  Au5  1  0.240140  0.240140  0.279579  1
