# generated using pymatgen
data_CsFe2(AsO4)2
_symmetry_space_group_name_H-M   'P 1'
_cell_length_a   5.08207448
_cell_length_b   8.79386527
_cell_length_c   10.03907731
_cell_angle_alpha   106.92978327
_cell_angle_beta   90.14221641
_cell_angle_gamma   90.02239673
_symmetry_Int_Tables_number   1
_chemical_formula_structural   CsFe2(AsO4)2
_chemical_formula_sum   'Cs2 Fe4 As4 O16'
_cell_volume   429.21182587
_cell_formula_units_Z   2
loop_
 _symmetry_equiv_pos_site_id
 _symmetry_equiv_pos_as_xyz
  1  'x, y, z'
loop_
 _atom_site_type_symbol
 _atom_site_label
 _atom_site_symmetry_multiplicity
 _atom_site_fract_x
 _atom_site_fract_y
 _atom_site_fract_z
 _atom_site_occupancy
  Cs  Cs0  1  0.999459  0.999870  0.001146  1
  Cs  Cs1  1  0.498888  0.500350  0.002054  1
  Fe  Fe2  1  0.001010  0.832327  0.498177  1
  Fe  Fe3  1  0.499423  0.665575  0.500851  1
  Fe  Fe4  1  0.499617  0.334702  0.498391  1
  Fe  Fe5  1  0.000444  0.167087  0.501879  1
  As  As6  1  0.000103  0.436288  0.308510  1
  As  As7  1  0.500375  0.936853  0.310217  1
  As  As8  1  0.999131  0.564056  0.690955  1
  As  As9  1  0.500444  0.063134  0.690291  1
  O  O10  1  0.001149  0.376630  0.135479  1
  O  O11  1  0.498635  0.879783  0.137121  1
  O  O12  1  0.997421  0.619962  0.863944  1
  O  O13  1  0.500921  0.121232  0.863341  1
  O  O14  1  0.173586  0.615838  0.375863  1
  O  O15  1  0.674268  0.116786  0.377454  1
  O  O16  1  0.151784  0.294873  0.377919  1
  O  O17  1  0.648276  0.793761  0.377436  1
  O  O18  1  0.679014  0.467616  0.375896  1
  O  O19  1  0.177148  0.966485  0.377512  1
  O  O20  1  0.845709  0.376880  0.621599  1
  O  O21  1  0.350169  0.876121  0.622145  1
  O  O22  1  0.829291  0.699329  0.622610  1
  O  O23  1  0.329780  0.199586  0.622942  1
  O  O24  1  0.320215  0.548447  0.623244  1
  O  O25  1  0.823738  0.046424  0.623025  1
