# generated using pymatgen
data_CsSm6Tm4(C2I9)2
_symmetry_space_group_name_H-M   'P 1'
_cell_length_a   11.60728680
_cell_length_b   11.60087442
_cell_length_c   11.60350888
_cell_angle_alpha   113.19500276
_cell_angle_beta   86.67190845
_cell_angle_gamma   120.10666019
_symmetry_Int_Tables_number   1
_chemical_formula_structural   CsSm6Tm4(C2I9)2
_chemical_formula_sum   'Cs1 Sm6 Tm4 C4 I18'
_cell_volume   1223.15057274
_cell_formula_units_Z   1
loop_
 _symmetry_equiv_pos_site_id
 _symmetry_equiv_pos_as_xyz
  1  'x, y, z'
loop_
 _atom_site_type_symbol
 _atom_site_label
 _atom_site_symmetry_multiplicity
 _atom_site_fract_x
 _atom_site_fract_y
 _atom_site_fract_z
 _atom_site_occupancy
  Cs  Cs0  1  0.498211  0.996341  0.498414  1
  Sm  Sm1  1  0.907954  0.604850  0.704379  1
  Sm  Sm2  1  0.106268  0.945040  0.001141  1
  Sm  Sm3  1  0.035231  0.962071  0.672584  1
  Sm  Sm4  1  0.325263  0.277049  0.291589  1
  Sm  Sm5  1  0.720253  0.643264  0.983909  1
  Sm  Sm6  1  0.894931  0.056090  0.000228  1
  Tm  Tm7  1  0.682870  0.727115  0.714932  1
  Tm  Tm8  1  0.272937  0.348607  0.018264  1
  Tm  Tm9  1  0.095071  0.385667  0.288493  1
  Tm  Tm10  1  0.966492  0.040750  0.320634  1
  C  C11  1  0.152280  0.222013  0.123499  1
  C  C12  1  0.846228  0.777311  0.875713  1
  C  C13  1  0.921076  0.852915  0.800708  1
  C  C14  1  0.076847  0.146650  0.198898  1
  I  I15  1  0.450225  0.533287  0.828545  1
  I  I16  1  0.385770  0.038270  0.159377  1
  I  I17  1  0.772383  0.854780  0.503101  1
  I  I18  1  0.844845  0.314990  0.159011  1
  I  I19  1  0.544324  0.469951  0.165118  1
  I  I20  1  0.214335  0.144461  0.497400  1
  I  I21  1  0.318340  0.104125  0.833447  1
  I  I22  1  0.687864  0.906859  0.175749  1
  I  I23  1  0.974169  0.762677  0.175939  1
  I  I24  1  0.937502  0.296477  0.495638  1
  I  I25  1  0.032410  0.249462  0.835017  1
  I  I26  1  0.070621  0.702200  0.496699  1
  I  I27  1  0.258936  0.612863  0.180932  1
  I  I28  1  0.738628  0.372792  0.814653  1
  I  I29  1  0.637347  0.441561  0.502906  1
  I  I30  1  0.164638  0.690046  0.847579  1
  I  I31  1  0.617310  0.954229  0.838907  1
  I  I32  1  0.348442  0.565240  0.496596  1
