# generated using pymatgen
data_SrLa3Zr3TaO14
_symmetry_space_group_name_H-M   'P 1'
_cell_length_a   7.64179631
_cell_length_b   7.64179758
_cell_length_c   7.64179600
_cell_angle_alpha   60.02028949
_cell_angle_beta   60.02028397
_cell_angle_gamma   60.02029012
_symmetry_Int_Tables_number   1
_chemical_formula_structural   SrLa3Zr3TaO14
_chemical_formula_sum   'Sr1 La3 Zr3 Ta1 O14'
_cell_volume   315.69748569
_cell_formula_units_Z   1
loop_
 _symmetry_equiv_pos_site_id
 _symmetry_equiv_pos_as_xyz
  1  'x, y, z'
loop_
 _atom_site_type_symbol
 _atom_site_label
 _atom_site_symmetry_multiplicity
 _atom_site_fract_x
 _atom_site_fract_y
 _atom_site_fract_z
 _atom_site_occupancy
  Sr  Sr0  1  0.625000  0.625000  0.625000  1
  La  La1  1  0.625000  0.125000  0.625000  1
  La  La2  1  0.625000  0.625000  0.125000  1
  La  La3  1  0.125000  0.625000  0.625000  1
  Zr  Zr4  1  0.625000  0.125000  0.125000  1
  Zr  Zr5  1  0.125000  0.125000  0.625000  1
  Zr  Zr6  1  0.125000  0.625000  0.125000  1
  Ta  Ta7  1  0.125000  0.125000  0.125000  1
  O  O8  1  0.195747  0.792760  0.792760  1
  O  O9  1  0.792760  0.792760  0.195747  1
  O  O10  1  0.792760  0.195747  0.792760  1
  O  O11  1  0.197480  0.812050  0.197480  1
  O  O12  1  0.197480  0.197480  0.812050  1
  O  O13  1  0.812050  0.197480  0.197480  1
  O  O14  1  0.437950  0.052520  0.052520  1
  O  O15  1  0.052520  0.052520  0.437950  1
  O  O16  1  0.052520  0.437950  0.052520  1
  O  O17  1  0.457240  0.054253  0.457240  1
  O  O18  1  0.755473  0.755473  0.755473  1
  O  O19  1  0.457240  0.457240  0.054253  1
  O  O20  1  0.054253  0.457240  0.457240  1
  O  O21  1  0.494527  0.494527  0.494527  1
