# generated using pymatgen
data_Lu4AlSi(B2Rh5)2
_symmetry_space_group_name_H-M   'P 1'
_cell_length_a   9.35348700
_cell_length_b   9.35348700
_cell_length_c   3.18100300
_cell_angle_alpha   90.00000000
_cell_angle_beta   90.00000000
_cell_angle_gamma   90.00000000
_symmetry_Int_Tables_number   1
_chemical_formula_structural   Lu4AlSi(B2Rh5)2
_chemical_formula_sum   'Lu4 Al1 Si1 B4 Rh10'
_cell_volume   278.29869679
_cell_formula_units_Z   1
loop_
 _symmetry_equiv_pos_site_id
 _symmetry_equiv_pos_as_xyz
  1  'x, y, z'
loop_
 _atom_site_type_symbol
 _atom_site_label
 _atom_site_symmetry_multiplicity
 _atom_site_fract_x
 _atom_site_fract_y
 _atom_site_fract_z
 _atom_site_occupancy
  Lu  Lu0  1  0.825055  0.324704  0.000000  1
  Lu  Lu1  1  0.324704  0.174945  0.000000  1
  Lu  Lu2  1  0.675296  0.825055  0.000000  1
  Lu  Lu3  1  0.174945  0.675296  0.000000  1
  Al  Al4  1  0.500000  0.500000  0.000000  1
  Si  Si5  1  0.000000  0.000000  0.000000  1
  B  B6  1  0.622305  0.121962  0.000000  1
  B  B7  1  0.121962  0.377695  0.000000  1
  B  B8  1  0.878038  0.622305  0.000000  1
  B  B9  1  0.377695  0.878038  0.000000  1
  Rh  Rh10  1  0.068269  0.212894  0.500000  1
  Rh  Rh11  1  0.212894  0.931731  0.500000  1
  Rh  Rh12  1  0.787106  0.068269  0.500000  1
  Rh  Rh13  1  0.931731  0.787106  0.500000  1
  Rh  Rh14  1  0.427696  0.717457  0.500000  1
  Rh  Rh15  1  0.572304  0.282543  0.500000  1
  Rh  Rh16  1  0.717457  0.572304  0.500000  1
  Rh  Rh17  1  0.282543  0.427696  0.500000  1
  Rh  Rh18  1  0.500000  0.000000  0.500000  1
  Rh  Rh19  1  0.000000  0.500000  0.500000  1
