# generated using pymatgen
data_La5Sm3(SiBr6)2
_symmetry_space_group_name_H-M   'P 1'
_cell_length_a   4.25203200
_cell_length_b   13.84891297
_cell_length_c   14.68893936
_cell_angle_alpha   89.52192446
_cell_angle_beta   90.00000000
_cell_angle_gamma   90.00000000
_symmetry_Int_Tables_number   1
_chemical_formula_structural   La5Sm3(SiBr6)2
_chemical_formula_sum   'La5 Sm3 Si2 Br12'
_cell_volume   864.94308291
_cell_formula_units_Z   1
loop_
 _symmetry_equiv_pos_site_id
 _symmetry_equiv_pos_as_xyz
  1  'x, y, z'
loop_
 _atom_site_type_symbol
 _atom_site_label
 _atom_site_symmetry_multiplicity
 _atom_site_fract_x
 _atom_site_fract_y
 _atom_site_fract_z
 _atom_site_occupancy
  La  La0  1  0.500000  0.118818  0.336124  1
  La  La1  1  0.500000  0.876001  0.660581  1
  La  La2  1  0.500000  0.621025  0.161667  1
  La  La3  1  0.500000  0.381532  0.841107  1
  La  La4  1  0.000000  0.120278  0.579324  1
  Sm  Sm5  1  0.000000  0.882386  0.422469  1
  Sm  Sm6  1  0.000000  0.616545  0.923949  1
  Sm  Sm7  1  0.000000  0.384538  0.077448  1
  Si  Si8  1  0.500000  0.998055  0.498815  1
  Si  Si9  1  0.500000  0.501000  0.001349  1
  Br  Br10  1  0.500000  0.249787  0.158027  1
  Br  Br11  1  0.500000  0.750081  0.841964  1
  Br  Br12  1  0.500000  0.748114  0.340393  1
  Br  Br13  1  0.500000  0.259201  0.660793  1
  Br  Br14  1  0.000000  0.255254  0.408493  1
  Br  Br15  1  0.000000  0.743697  0.582839  1
  Br  Br16  1  0.000000  0.754310  0.083219  1
  Br  Br17  1  0.000000  0.246893  0.917865  1
  Br  Br18  1  0.000000  0.995230  0.246174  1
  Br  Br19  1  0.000000  0.995658  0.756022  1
  Br  Br20  1  0.000000  0.496431  0.252408  1
  Br  Br21  1  0.000000  0.505165  0.748969  1
