# generated using pymatgen
data_Sc22Ir3Os3Rh2
_symmetry_space_group_name_H-M   'P 1'
_cell_length_a   9.47386830
_cell_length_b   9.48341976
_cell_length_c   9.49975768
_cell_angle_alpha   59.87656782
_cell_angle_beta   59.97555898
_cell_angle_gamma   60.14775627
_symmetry_Int_Tables_number   1
_chemical_formula_structural   Sc22Ir3Os3Rh2
_chemical_formula_sum   'Sc22 Ir3 Os3 Rh2'
_cell_volume   603.51000830
_cell_formula_units_Z   1
loop_
 _symmetry_equiv_pos_site_id
 _symmetry_equiv_pos_as_xyz
  1  'x, y, z'
loop_
 _atom_site_type_symbol
 _atom_site_label
 _atom_site_symmetry_multiplicity
 _atom_site_fract_x
 _atom_site_fract_y
 _atom_site_fract_z
 _atom_site_occupancy
  Sc  Sc0  1  0.803395  0.802447  0.197557  1
  Sc  Sc1  1  0.195881  0.803107  0.196911  1
  Sc  Sc2  1  0.803085  0.196913  0.196936  1
  Sc  Sc3  1  0.196605  0.197553  0.802443  1
  Sc  Sc4  1  0.804119  0.196893  0.803089  1
  Sc  Sc5  1  0.196915  0.803087  0.803064  1
  Sc  Sc6  1  0.618321  0.616472  0.150635  1
  Sc  Sc7  1  0.614592  0.150624  0.616469  1
  Sc  Sc8  1  0.149507  0.613127  0.616355  1
  Sc  Sc9  1  0.621014  0.616356  0.613109  1
  Sc  Sc10  1  0.381679  0.383528  0.849365  1
  Sc  Sc11  1  0.385408  0.849376  0.383531  1
  Sc  Sc12  1  0.850493  0.386873  0.383645  1
  Sc  Sc13  1  0.378986  0.383644  0.386891  1
  Sc  Sc14  1  0.842979  0.842641  0.469982  1
  Sc  Sc15  1  0.844415  0.469969  0.842640  1
  Sc  Sc16  1  0.470603  0.843900  0.842696  1
  Sc  Sc17  1  0.842807  0.842709  0.843878  1
  Sc  Sc18  1  0.157021  0.157359  0.530018  1
  Sc  Sc19  1  0.155585  0.530031  0.157360  1
  Sc  Sc20  1  0.529397  0.156100  0.157304  1
  Sc  Sc21  1  0.157193  0.157291  0.156122  1
  Ir  Ir22  1  0.500000  0.000000  0.500000  1
  Ir  Ir23  1  0.000000  0.500000  0.000000  1
  Ir  Ir24  1  0.500000  0.000000  0.000000  1
  Os  Os25  1  0.000000  0.000000  0.000000  1
  Os  Os26  1  0.500000  0.500000  0.500000  1
  Os  Os27  1  0.000000  0.500000  0.500000  1
  Rh  Rh28  1  0.000000  0.000000  0.500000  1
  Rh  Rh29  1  0.500000  0.500000  0.000000  1
