# generated using pymatgen
data_Ti8Al15Ir7
_symmetry_space_group_name_H-M   'P 1'
_cell_length_a   8.65813257
_cell_length_b   8.65813167
_cell_length_c   8.65813222
_cell_angle_alpha   120.17341977
_cell_angle_beta   119.81817865
_cell_angle_gamma   90.00755349
_symmetry_Int_Tables_number   1
_chemical_formula_structural   Ti8Al15Ir7
_chemical_formula_sum   'Ti8 Al15 Ir7'
_cell_volume   458.96543465
_cell_formula_units_Z   1
loop_
 _symmetry_equiv_pos_site_id
 _symmetry_equiv_pos_as_xyz
  1  'x, y, z'
loop_
 _atom_site_type_symbol
 _atom_site_label
 _atom_site_symmetry_multiplicity
 _atom_site_fract_x
 _atom_site_fract_y
 _atom_site_fract_z
 _atom_site_occupancy
  Ti  Ti0  1  0.791606  0.290078  0.074267  1
  Ti  Ti1  1  0.215811  0.290078  0.498473  1
  Ti  Ti2  1  0.208240  0.708240  0.500000  1
  Ti  Ti3  1  0.215811  0.717339  0.925733  1
  Ti  Ti4  1  0.791606  0.717339  0.501527  1
  Ti  Ti5  1  0.783428  0.283428  0.500000  1
  Ti  Ti6  1  0.378895  0.123100  0.744205  1
  Ti  Ti7  1  0.378895  0.634690  0.255795  1
  Al  Al8  1  0.997091  0.497091  0.500000  1
  Al  Al9  1  0.153590  0.343843  0.190251  1
  Al  Al10  1  0.153590  0.963339  0.809749  1
  Al  Al11  1  0.150463  0.346887  0.803576  1
  Al  Al12  1  0.543310  0.346887  0.196424  1
  Al  Al13  1  0.845807  0.652275  0.806469  1
  Al  Al14  1  0.845807  0.039339  0.193531  1
  Al  Al15  1  0.843477  0.654050  0.189427  1
  Al  Al16  1  0.464623  0.654050  0.810573  1
  Al  Al17  1  0.379402  0.121818  0.257585  1
  Al  Al18  1  0.864234  0.121818  0.742415  1
  Al  Al19  1  0.621575  0.877657  0.256082  1
  Al  Al20  1  0.621575  0.365494  0.743918  1
  Al  Al21  1  0.621076  0.877957  0.743119  1
  Al  Al22  1  0.134837  0.877957  0.256881  1
  Ir  Ir23  1  0.001380  0.999826  0.501681  1
  Ir  Ir24  1  0.498145  0.999826  0.998446  1
  Ir  Ir25  1  0.497478  0.497478  0.000000  1
  Ir  Ir26  1  0.498145  0.499698  0.498319  1
  Ir  Ir27  1  0.001380  0.499698  0.001554  1
  Ir  Ir28  1  0.999052  0.999052  0.000000  1
  Ir  Ir29  1  0.499666  0.999666  0.500000  1
