# generated using pymatgen
data_Ho9Tm(InSb)3
_symmetry_space_group_name_H-M   'P 1'
_cell_length_a   8.93765303
_cell_length_b   8.91814056
_cell_length_c   6.51962011
_cell_angle_alpha   89.98116171
_cell_angle_beta   90.00054249
_cell_angle_gamma   120.08102089
_symmetry_Int_Tables_number   1
_chemical_formula_structural   Ho9Tm(InSb)3
_chemical_formula_sum   'Ho9 Tm1 In3 Sb3'
_cell_volume   449.67169325
_cell_formula_units_Z   1
loop_
 _symmetry_equiv_pos_site_id
 _symmetry_equiv_pos_as_xyz
  1  'x, y, z'
loop_
 _atom_site_type_symbol
 _atom_site_label
 _atom_site_symmetry_multiplicity
 _atom_site_fract_x
 _atom_site_fract_y
 _atom_site_fract_z
 _atom_site_occupancy
  Ho  Ho0  1  0.664903  0.333930  0.499079  1
  Ho  Ho1  1  0.665040  0.333996  0.000892  1
  Ho  Ho2  1  0.330984  0.666069  0.498992  1
  Ho  Ho3  1  0.760922  0.000027  0.750109  1
  Ho  Ho4  1  0.763310  0.759947  0.249870  1
  Ho  Ho5  1  0.003564  0.240152  0.249893  1
  Ho  Ho6  1  0.002410  0.763248  0.750187  1
  Ho  Ho7  1  0.239045  0.236767  0.750164  1
  Ho  Ho8  1  0.237752  0.999893  0.249850  1
  Tm  Tm9  1  0.330977  0.666087  0.001123  1
  In  In10  1  0.396481  0.999455  0.750351  1
  In  In11  1  0.395034  0.396927  0.249564  1
  In  In12  1  0.998945  0.603528  0.249568  1
  Sb  Sb13  1  0.998007  0.392057  0.750369  1
  Sb  Sb14  1  0.605437  0.608292  0.750406  1
  Sb  Sb15  1  0.607188  0.999625  0.249584  1
