# generated using pymatgen
data_K2Pd(SO4)2
_symmetry_space_group_name_H-M   'P 1'
_cell_length_a   4.97608695
_cell_length_b   6.70103260
_cell_length_c   7.51539817
_cell_angle_alpha   75.03728073
_cell_angle_beta   87.74911231
_cell_angle_gamma   72.84932440
_symmetry_Int_Tables_number   1
_chemical_formula_structural   K2Pd(SO4)2
_chemical_formula_sum   'K2 Pd1 S2 O8'
_cell_volume   231.15328631
_cell_formula_units_Z   1
loop_
 _symmetry_equiv_pos_site_id
 _symmetry_equiv_pos_as_xyz
  1  'x, y, z'
loop_
 _atom_site_type_symbol
 _atom_site_label
 _atom_site_symmetry_multiplicity
 _atom_site_fract_x
 _atom_site_fract_y
 _atom_site_fract_z
 _atom_site_occupancy
  K  K0  1  0.195688  0.695487  0.197071  1
  K  K1  1  0.804312  0.304513  0.802930  1
  Pd  Pd2  1  0.500000  0.000000  0.500000  1
  S  S3  1  0.899314  0.269906  0.294390  1
  S  S4  1  0.100686  0.730093  0.705609  1
  O  O5  1  0.923739  0.120265  0.178857  1
  O  O6  1  0.763682  0.496901  0.197739  1
  O  O7  1  0.187019  0.266066  0.363211  1
  O  O8  1  0.742667  0.205419  0.469231  1
  O  O9  1  0.257333  0.794581  0.530769  1
  O  O10  1  0.812982  0.733934  0.636789  1
  O  O11  1  0.236319  0.503099  0.802260  1
  O  O12  1  0.076262  0.879733  0.821143  1
