# generated using pymatgen
data_Mg8In8B2Ir5Rh3
_symmetry_space_group_name_H-M   'P 1'
_cell_length_a   8.71792526
_cell_length_b   8.74487573
_cell_length_c   8.71571169
_cell_angle_alpha   60.33514464
_cell_angle_beta   60.09700819
_cell_angle_gamma   60.04482675
_symmetry_Int_Tables_number   1
_chemical_formula_structural   Mg8In8B2Ir5Rh3
_chemical_formula_sum   'Mg8 In8 B2 Ir5 Rh3'
_cell_volume   471.53015470
_cell_formula_units_Z   1
loop_
 _symmetry_equiv_pos_site_id
 _symmetry_equiv_pos_as_xyz
  1  'x, y, z'
loop_
 _atom_site_type_symbol
 _atom_site_label
 _atom_site_symmetry_multiplicity
 _atom_site_fract_x
 _atom_site_fract_y
 _atom_site_fract_z
 _atom_site_occupancy
  Mg  Mg0  1  0.126819  0.123149  0.625584  1
  Mg  Mg1  1  0.546598  0.951105  0.549176  1
  Mg  Mg2  1  0.126956  0.622430  0.123060  1
  Mg  Mg3  1  0.544679  0.548002  0.949049  1
  Mg  Mg4  1  0.958155  0.544704  0.954319  1
  Mg  Mg5  1  0.125243  0.126385  0.123290  1
  Mg  Mg6  1  0.623093  0.125771  0.125117  1
  Mg  Mg7  1  0.297923  0.703856  0.706652  1
  In  In8  1  0.955811  0.946197  0.549187  1
  In  In9  1  0.306743  0.697296  0.295674  1
  In  In10  1  0.698619  0.305500  0.703789  1
  In  In11  1  0.295624  0.301305  0.701668  1
  In  In12  1  0.703994  0.300315  0.287851  1
  In  In13  1  0.700782  0.703864  0.299555  1
  In  In14  1  0.941802  0.557494  0.555633  1
  In  In15  1  0.555510  0.943411  0.943827  1
  B  B16  1  0.247677  0.251287  0.249299  1
  B  B17  1  0.000311  0.005354  0.994709  1
  Ir  Ir18  1  0.903186  0.899157  0.905631  1
  Ir  Ir19  1  0.899236  0.295662  0.904984  1
  Ir  Ir20  1  0.292957  0.898913  0.903953  1
  Ir  Ir21  1  0.347668  0.345175  0.959119  1
  Ir  Ir22  1  0.955433  0.346264  0.351068  1
  Rh  Rh23  1  0.902743  0.903008  0.290337  1
  Rh  Rh24  1  0.346016  0.959001  0.347709  1
  Rh  Rh25  1  0.346421  0.345396  0.349758  1
