# generated using pymatgen
data_Eu8TlPPd23
_symmetry_space_group_name_H-M   'P 1'
_cell_length_a   8.51025400
_cell_length_b   8.51025400
_cell_length_c   8.82166200
_cell_angle_alpha   90.00000000
_cell_angle_beta   90.00000000
_cell_angle_gamma   90.00000000
_symmetry_Int_Tables_number   1
_chemical_formula_structural   Eu8TlPPd23
_chemical_formula_sum   'Eu8 Tl1 P1 Pd23'
_cell_volume   638.90378153
_cell_formula_units_Z   1
loop_
 _symmetry_equiv_pos_site_id
 _symmetry_equiv_pos_as_xyz
  1  'x, y, z'
loop_
 _atom_site_type_symbol
 _atom_site_label
 _atom_site_symmetry_multiplicity
 _atom_site_fract_x
 _atom_site_fract_y
 _atom_site_fract_z
 _atom_site_occupancy
  Eu  Eu0  1  0.750662  0.750662  0.241401  1
  Eu  Eu1  1  0.745519  0.254481  0.749634  1
  Eu  Eu2  1  0.254481  0.745519  0.749634  1
  Eu  Eu3  1  0.745519  0.745519  0.749634  1
  Eu  Eu4  1  0.750662  0.249338  0.241401  1
  Eu  Eu5  1  0.254481  0.254481  0.749634  1
  Eu  Eu6  1  0.249338  0.750662  0.241401  1
  Eu  Eu7  1  0.249338  0.249338  0.241401  1
  Tl  Tl8  1  0.000000  0.000000  0.021458  1
  P  P9  1  0.000000  0.000000  0.441920  1
  Pd  Pd10  1  0.729783  0.000000  0.493449  1
  Pd  Pd11  1  0.729021  0.500000  0.998556  1
  Pd  Pd12  1  0.500000  0.000000  0.722042  1
  Pd  Pd13  1  0.000000  0.729783  0.493449  1
  Pd  Pd14  1  0.500000  0.000000  0.261428  1
  Pd  Pd15  1  0.000000  0.270217  0.493449  1
  Pd  Pd16  1  0.500000  0.729021  0.998556  1
  Pd  Pd17  1  0.254752  0.500000  0.492788  1
  Pd  Pd18  1  0.500000  0.500000  0.737739  1
  Pd  Pd19  1  0.500000  0.500000  0.252947  1
  Pd  Pd20  1  0.500000  0.254752  0.492788  1
  Pd  Pd21  1  0.500000  0.745248  0.492788  1
  Pd  Pd22  1  0.745248  0.500000  0.492788  1
  Pd  Pd23  1  0.324788  0.000000  0.992148  1
  Pd  Pd24  1  0.000000  0.000000  0.707095  1
  Pd  Pd25  1  0.000000  0.500000  0.261428  1
  Pd  Pd26  1  0.000000  0.324788  0.992148  1
  Pd  Pd27  1  0.000000  0.675212  0.992148  1
  Pd  Pd28  1  0.675212  0.000000  0.992148  1
  Pd  Pd29  1  0.270979  0.500000  0.998556  1
  Pd  Pd30  1  0.270217  0.000000  0.493449  1
  Pd  Pd31  1  0.000000  0.500000  0.722042  1
  Pd  Pd32  1  0.500000  0.270979  0.998556  1
