# generated using pymatgen
data_La6TiAl23Ru8
_symmetry_space_group_name_H-M   'P 1'
_cell_length_a   8.98473900
_cell_length_b   8.98473906
_cell_length_c   9.74761200
_cell_angle_alpha   90.00000000
_cell_angle_beta   90.00000000
_cell_angle_gamma   120.00000346
_symmetry_Int_Tables_number   1
_chemical_formula_structural   La6TiAl23Ru8
_chemical_formula_sum   'La6 Ti1 Al23 Ru8'
_cell_volume   681.45908332
_cell_formula_units_Z   1
loop_
 _symmetry_equiv_pos_site_id
 _symmetry_equiv_pos_as_xyz
  1  'x, y, z'
loop_
 _atom_site_type_symbol
 _atom_site_label
 _atom_site_symmetry_multiplicity
 _atom_site_fract_x
 _atom_site_fract_y
 _atom_site_fract_z
 _atom_site_occupancy
  La  La0  1  0.193024  0.386046  0.251299  1
  La  La1  1  0.807098  0.614198  0.748590  1
  La  La2  1  0.613954  0.806976  0.251299  1
  La  La3  1  0.385802  0.192902  0.748590  1
  La  La4  1  0.193024  0.806976  0.251299  1
  La  La5  1  0.807098  0.192902  0.748590  1
  Ti  Ti6  1  0.333333  0.666667  0.985426  1
  Al  Al7  1  0.666667  0.333333  0.000789  1
  Al  Al8  1  0.666667  0.333333  0.500530  1
  Al  Al9  1  0.333333  0.666667  0.496741  1
  Al  Al10  1  0.161598  0.323196  0.576624  1
  Al  Al11  1  0.838421  0.676841  0.423081  1
  Al  Al12  1  0.676804  0.838402  0.576624  1
  Al  Al13  1  0.838228  0.676454  0.077758  1
  Al  Al14  1  0.323159  0.161579  0.423081  1
  Al  Al15  1  0.159019  0.318038  0.923640  1
  Al  Al16  1  0.161598  0.838402  0.576624  1
  Al  Al17  1  0.323546  0.161772  0.077758  1
  Al  Al18  1  0.838421  0.161579  0.423081  1
  Al  Al19  1  0.681962  0.840981  0.923640  1
  Al  Al20  1  0.838228  0.161772  0.077758  1
  Al  Al21  1  0.159019  0.840981  0.923640  1
  Al  Al22  1  0.563894  0.127787  0.251688  1
  Al  Al23  1  0.437267  0.874535  0.748738  1
  Al  Al24  1  0.872213  0.436106  0.251688  1
  Al  Al25  1  0.125465  0.562733  0.748738  1
  Al  Al26  1  0.563894  0.436106  0.251688  1
  Al  Al27  1  0.437267  0.562733  0.748738  1
  Al  Al28  1  0.000000  0.000000  0.249797  1
  Al  Al29  1  0.000000  0.000000  0.748802  1
  Ru  Ru30  1  0.497339  0.994677  0.002553  1
  Ru  Ru31  1  0.005323  0.502661  0.002553  1
  Ru  Ru32  1  0.499852  0.999705  0.502266  1
  Ru  Ru33  1  0.497339  0.502661  0.002553  1
  Ru  Ru34  1  0.000295  0.500148  0.502266  1
  Ru  Ru35  1  0.499852  0.500148  0.502266  1
  Ru  Ru36  1  0.000000  0.000000  0.000240  1
  Ru  Ru37  1  0.000000  0.000000  0.498961  1
