# generated using pymatgen
data_Tm2Mn5(FeP)7
_symmetry_space_group_name_H-M   'P 1'
_cell_length_a   9.13847093
_cell_length_b   9.11363382
_cell_length_c   3.58639300
_cell_angle_alpha   90.00000000
_cell_angle_beta   90.00000000
_cell_angle_gamma   120.61930335
_symmetry_Int_Tables_number   1
_chemical_formula_structural   Tm2Mn5(FeP)7
_chemical_formula_sum   'Tm2 Mn5 Fe7 P7'
_cell_volume   257.04516044
_cell_formula_units_Z   1
loop_
 _symmetry_equiv_pos_site_id
 _symmetry_equiv_pos_as_xyz
  1  'x, y, z'
loop_
 _atom_site_type_symbol
 _atom_site_label
 _atom_site_symmetry_multiplicity
 _atom_site_fract_x
 _atom_site_fract_y
 _atom_site_fract_z
 _atom_site_occupancy
  Tm  Tm0  1  0.995542  0.993256  0.000000  1
  Tm  Tm1  1  0.669686  0.338728  0.500000  1
  Mn  Mn2  1  0.945247  0.230864  0.500000  1
  Mn  Mn3  1  0.287184  0.052189  0.500000  1
  Mn  Mn4  1  0.438062  0.541574  0.500000  1
  Mn  Mn5  1  0.104610  0.563945  0.500000  1
  Mn  Mn6  1  0.461409  0.901357  0.500000  1
  Fe  Fe7  1  0.386905  0.289651  0.000000  1
  Fe  Fe8  1  0.904421  0.611070  0.000000  1
  Fe  Fe9  1  0.713659  0.097948  0.000000  1
  Fe  Fe10  1  0.603066  0.783627  0.000000  1
  Fe  Fe11  1  0.175731  0.390037  0.000000  1
  Fe  Fe12  1  0.214680  0.825420  0.000000  1
  Fe  Fe13  1  0.766374  0.714835  0.500000  1
  P  P14  1  0.632949  0.555267  0.000000  1
  P  P15  1  0.922082  0.378558  0.000000  1
  P  P16  1  0.459342  0.080966  0.000000  1
  P  P17  1  0.736357  0.945282  0.500000  1
  P  P18  1  0.213298  0.258286  0.500000  1
  P  P19  1  0.038969  0.779812  0.500000  1
  P  P20  1  0.330428  0.667326  0.000000  1
