# generated using pymatgen
data_LiTb6IrCl12
_symmetry_space_group_name_H-M   'P 1'
_cell_length_a   8.68535671
_cell_length_b   8.95088096
_cell_length_c   8.96394000
_cell_angle_alpha   108.27438797
_cell_angle_beta   107.67947946
_cell_angle_gamma   107.74613042
_symmetry_Int_Tables_number   1
_chemical_formula_structural   LiTb6IrCl12
_chemical_formula_sum   'Li1 Tb6 Ir1 Cl12'
_cell_volume   565.49365865
_cell_formula_units_Z   1
loop_
 _symmetry_equiv_pos_site_id
 _symmetry_equiv_pos_as_xyz
  1  'x, y, z'
loop_
 _atom_site_type_symbol
 _atom_site_label
 _atom_site_symmetry_multiplicity
 _atom_site_fract_x
 _atom_site_fract_y
 _atom_site_fract_z
 _atom_site_occupancy
  Li  Li0  1  0.500000  0.500000  0.500000  1
  Tb  Tb1  1  0.128614  0.339811  0.038586  1
  Tb  Tb2  1  0.322658  0.033930  0.115786  1
  Tb  Tb3  1  0.035444  0.127427  0.339211  1
  Tb  Tb4  1  0.964557  0.872573  0.660790  1
  Tb  Tb5  1  0.677342  0.966071  0.884214  1
  Tb  Tb6  1  0.871386  0.660189  0.961414  1
  Ir  Ir7  1  0.000000  0.000000  0.000000  1
  Cl  Cl8  1  0.215580  0.687855  0.072601  1
  Cl  Cl9  1  0.467498  0.380346  0.176723  1
  Cl  Cl10  1  0.681632  0.069774  0.213065  1
  Cl  Cl11  1  0.927403  0.786653  0.313092  1
  Cl  Cl12  1  0.175957  0.464260  0.380624  1
  Cl  Cl13  1  0.380538  0.175694  0.458608  1
  Cl  Cl14  1  0.619462  0.824306  0.541393  1
  Cl  Cl15  1  0.824044  0.535740  0.619376  1
  Cl  Cl16  1  0.072598  0.213347  0.686909  1
  Cl  Cl17  1  0.318369  0.930227  0.786935  1
  Cl  Cl18  1  0.532502  0.619654  0.823278  1
  Cl  Cl19  1  0.784420  0.312145  0.927399  1
