# generated using pymatgen
data_RbErTe3O8
_symmetry_space_group_name_H-M   'P 1'
_cell_length_a   6.03294465
_cell_length_b   7.79573540
_cell_length_c   11.53725912
_cell_angle_alpha   100.73026781
_cell_angle_beta   89.31962379
_cell_angle_gamma   108.97938565
_symmetry_Int_Tables_number   1
_chemical_formula_structural   RbErTe3O8
_chemical_formula_sum   'Rb2 Er2 Te6 O16'
_cell_volume   503.44846937
_cell_formula_units_Z   2
loop_
 _symmetry_equiv_pos_site_id
 _symmetry_equiv_pos_as_xyz
  1  'x, y, z'
loop_
 _atom_site_type_symbol
 _atom_site_label
 _atom_site_symmetry_multiplicity
 _atom_site_fract_x
 _atom_site_fract_y
 _atom_site_fract_z
 _atom_site_occupancy
  Rb  Rb0  1  0.840149  0.120092  0.169173  1
  Rb  Rb1  1  0.159851  0.879908  0.830827  1
  Er  Er2  1  0.500000  0.500000  0.000000  1
  Er  Er3  1  0.000000  0.500000  0.500000  1
  Te  Te4  1  0.216641  0.993623  0.419573  1
  Te  Te5  1  0.783359  0.006377  0.580427  1
  Te  Te6  1  0.072738  0.684782  0.151139  1
  Te  Te7  1  0.927262  0.315218  0.848861  1
  Te  Te8  1  0.512999  0.522398  0.335604  1
  Te  Te9  1  0.487001  0.477602  0.664396  1
  O  O10  1  0.181913  0.744502  0.421131  1
  O  O11  1  0.818087  0.255498  0.578869  1
  O  O12  1  0.233876  0.936282  0.233032  1
  O  O13  1  0.766124  0.063718  0.766968  1
  O  O14  1  0.890323  0.966591  0.397403  1
  O  O15  1  0.109677  0.033409  0.602597  1
  O  O16  1  0.269010  0.684158  0.022476  1
  O  O17  1  0.730990  0.315842  0.977524  1
  O  O18  1  0.826724  0.734763  0.079976  1
  O  O19  1  0.173276  0.265237  0.920024  1
  O  O20  1  0.398382  0.433792  0.176504  1
  O  O21  1  0.601618  0.566208  0.823496  1
  O  O22  1  0.254417  0.369025  0.406590  1
  O  O23  1  0.745583  0.630975  0.593410  1
  O  O24  1  0.731566  0.396782  0.343348  1
  O  O25  1  0.268434  0.603218  0.656652  1
