# generated using pymatgen
data_Ho6CoNi
_symmetry_space_group_name_H-M   'P 1'
_cell_length_a   6.20590100
_cell_length_b   6.85925500
_cell_length_c   9.44455700
_cell_angle_alpha   90.00000000
_cell_angle_beta   90.00000000
_cell_angle_gamma   90.00000000
_symmetry_Int_Tables_number   1
_chemical_formula_structural   Ho6CoNi
_chemical_formula_sum   'Ho12 Co2 Ni2'
_cell_volume   402.03455618
_cell_formula_units_Z   2
loop_
 _symmetry_equiv_pos_site_id
 _symmetry_equiv_pos_as_xyz
  1  'x, y, z'
loop_
 _atom_site_type_symbol
 _atom_site_label
 _atom_site_symmetry_multiplicity
 _atom_site_fract_x
 _atom_site_fract_y
 _atom_site_fract_z
 _atom_site_occupancy
  Ho  Ho0  1  0.674615  0.175710  0.067938  1
  Ho  Ho1  1  0.363769  0.540897  0.250000  1
  Ho  Ho2  1  0.142412  0.036129  0.250000  1
  Ho  Ho3  1  0.821973  0.679718  0.434007  1
  Ho  Ho4  1  0.321973  0.820282  0.934007  1
  Ho  Ho5  1  0.174615  0.324290  0.567938  1
  Ho  Ho6  1  0.674615  0.175710  0.432062  1
  Ho  Ho7  1  0.174615  0.324290  0.932062  1
  Ho  Ho8  1  0.321973  0.820282  0.565993  1
  Ho  Ho9  1  0.863769  0.959103  0.750000  1
  Ho  Ho10  1  0.642412  0.463871  0.750000  1
  Ho  Ho11  1  0.821973  0.679718  0.065993  1
  Co  Co12  1  0.551235  0.888363  0.250000  1
  Co  Co13  1  0.051235  0.611637  0.750000  1
  Ni  Ni14  1  0.949408  0.388637  0.250000  1
  Ni  Ni15  1  0.449408  0.111363  0.750000  1
