# generated using pymatgen
data_Sr4EuP3O13
_symmetry_space_group_name_H-M   'P 1'
_cell_length_a   7.34793300
_cell_length_b   9.76664177
_cell_length_c   9.89837000
_cell_angle_alpha   60.44119727
_cell_angle_beta   90.00000000
_cell_angle_gamma   90.00000000
_symmetry_Int_Tables_number   1
_chemical_formula_structural   Sr4EuP3O13
_chemical_formula_sum   'Sr8 Eu2 P6 O26'
_cell_volume   617.90033261
_cell_formula_units_Z   2
loop_
 _symmetry_equiv_pos_site_id
 _symmetry_equiv_pos_as_xyz
  1  'x, y, z'
loop_
 _atom_site_type_symbol
 _atom_site_label
 _atom_site_symmetry_multiplicity
 _atom_site_fract_x
 _atom_site_fract_y
 _atom_site_fract_z
 _atom_site_occupancy
  Sr  Sr0  1  0.500038  0.334464  0.328256  1
  Sr  Sr1  1  0.000038  0.665536  0.671744  1
  Sr  Sr2  1  0.499962  0.665536  0.671744  1
  Sr  Sr3  1  0.999962  0.334464  0.328256  1
  Sr  Sr4  1  0.250000  0.007006  0.761540  1
  Sr  Sr5  1  0.250000  0.228403  0.013063  1
  Sr  Sr6  1  0.750000  0.992994  0.238460  1
  Sr  Sr7  1  0.750000  0.771597  0.986937  1
  Eu  Eu8  1  0.250000  0.760651  0.239801  1
  Eu  Eu9  1  0.750000  0.239349  0.760199  1
  P  P10  1  0.250000  0.966739  0.402278  1
  P  P11  1  0.250000  0.630473  0.967341  1
  P  P12  1  0.250000  0.395253  0.627994  1
  P  P13  1  0.750000  0.033261  0.597722  1
  P  P14  1  0.750000  0.369527  0.032659  1
  P  P15  1  0.750000  0.604747  0.372006  1
  O  O16  1  0.250000  0.884030  0.582801  1
  O  O17  1  0.250000  0.527350  0.886813  1
  O  O18  1  0.250000  0.579763  0.534101  1
  O  O19  1  0.750000  0.115970  0.417199  1
  O  O20  1  0.750000  0.472650  0.113187  1
  O  O21  1  0.750000  0.420237  0.465899  1
  O  O22  1  0.420226  0.909257  0.349450  1
  O  O23  1  0.422870  0.736586  0.910410  1
  O  O24  1  0.421737  0.338642  0.735204  1
  O  O25  1  0.920226  0.090743  0.650550  1
  O  O26  1  0.922870  0.263414  0.089590  1
  O  O27  1  0.921737  0.661358  0.264796  1
  O  O28  1  0.579774  0.090743  0.650550  1
  O  O29  1  0.577130  0.263414  0.089590  1
  O  O30  1  0.578263  0.661358  0.264796  1
  O  O31  1  0.079774  0.909257  0.349450  1
  O  O32  1  0.077130  0.736586  0.910410  1
  O  O33  1  0.078263  0.338642  0.735204  1
  O  O34  1  0.250000  0.148816  0.327328  1
  O  O35  1  0.250000  0.528570  0.148403  1
  O  O36  1  0.250000  0.327660  0.515368  1
  O  O37  1  0.750000  0.851184  0.672672  1
  O  O38  1  0.750000  0.471430  0.851597  1
  O  O39  1  0.750000  0.672340  0.484632  1
  O  O40  1  0.250000  0.968971  0.027348  1
  O  O41  1  0.750000  0.031029  0.972652  1
