# generated using pymatgen
data_Tm5Ta3Co16(SiP3)3
_symmetry_space_group_name_H-M   'P 1'
_cell_length_a   12.29307000
_cell_length_b   12.29306885
_cell_length_c   3.71714600
_cell_angle_alpha   90.00000000
_cell_angle_beta   90.00000000
_cell_angle_gamma   120.00000849
_symmetry_Int_Tables_number   1
_chemical_formula_structural   Tm5Ta3Co16(SiP3)3
_chemical_formula_sum   'Tm5 Ta3 Co16 Si3 P9'
_cell_volume   486.47539839
_cell_formula_units_Z   1
loop_
 _symmetry_equiv_pos_site_id
 _symmetry_equiv_pos_as_xyz
  1  'x, y, z'
loop_
 _atom_site_type_symbol
 _atom_site_label
 _atom_site_symmetry_multiplicity
 _atom_site_fract_x
 _atom_site_fract_y
 _atom_site_fract_z
 _atom_site_occupancy
  Tm  Tm0  1  0.666667  0.333333  0.000000  1
  Tm  Tm1  1  0.333333  0.666667  0.000000  1
  Tm  Tm2  1  0.817499  0.815832  0.500000  1
  Tm  Tm3  1  0.184168  0.001668  0.500000  1
  Tm  Tm4  1  0.998332  0.182501  0.500000  1
  Ta  Ta5  1  0.439933  0.442924  0.000000  1
  Ta  Ta6  1  0.557076  0.997009  0.000000  1
  Ta  Ta7  1  0.002991  0.560067  0.000000  1
  Co  Co8  1  0.881544  0.356456  0.500000  1
  Co  Co9  1  0.643544  0.525087  0.500000  1
  Co  Co10  1  0.474913  0.118456  0.500000  1
  Co  Co11  1  0.355741  0.871189  0.500000  1
  Co  Co12  1  0.515448  0.644259  0.500000  1
  Co  Co13  1  0.128811  0.484552  0.500000  1
  Co  Co14  1  0.804698  0.174623  0.000000  1
  Co  Co15  1  0.825377  0.630074  0.000000  1
  Co  Co16  1  0.369926  0.195302  0.000000  1
  Co  Co17  1  0.179560  0.804765  0.000000  1
  Co  Co18  1  0.625204  0.820440  0.000000  1
  Co  Co19  1  0.195235  0.374796  0.000000  1
  Co  Co20  1  0.275917  0.280596  0.500000  1
  Co  Co21  1  0.719404  0.995321  0.500000  1
  Co  Co22  1  0.004679  0.724083  0.500000  1
  Co  Co23  1  0.000000  0.000000  0.000000  1
  Si  Si24  1  0.689846  0.169141  0.500000  1
  Si  Si25  1  0.830859  0.520704  0.500000  1
  Si  Si26  1  0.479296  0.310154  0.500000  1
  P  P27  1  0.170073  0.690073  0.500000  1
  P  P28  1  0.519999  0.829927  0.500000  1
  P  P29  1  0.309927  0.480001  0.500000  1
  P  P30  1  0.177086  0.178779  0.000000  1
  P  P31  1  0.821221  0.998307  0.000000  1
  P  P32  1  0.001693  0.822914  0.000000  1
  P  P33  1  0.645941  0.644720  0.000000  1
  P  P34  1  0.355280  0.001221  0.000000  1
  P  P35  1  0.998779  0.354059  0.000000  1
