# generated using pymatgen
data_Ho10Er6MgIn3Ir4
_symmetry_space_group_name_H-M   'P 1'
_cell_length_a   9.63008302
_cell_length_b   9.61239648
_cell_length_c   9.62208600
_cell_angle_alpha   59.96664925
_cell_angle_beta   60.02746628
_cell_angle_gamma   60.05735550
_symmetry_Int_Tables_number   1
_chemical_formula_structural   Ho10Er6MgIn3Ir4
_chemical_formula_sum   'Ho10 Er6 Mg1 In3 Ir4'
_cell_volume   630.06341715
_cell_formula_units_Z   1
loop_
 _symmetry_equiv_pos_site_id
 _symmetry_equiv_pos_as_xyz
  1  'x, y, z'
loop_
 _atom_site_type_symbol
 _atom_site_label
 _atom_site_symmetry_multiplicity
 _atom_site_fract_x
 _atom_site_fract_y
 _atom_site_fract_z
 _atom_site_occupancy
  Ho  Ho0  1  0.059001  0.061671  0.439663  1
  Ho  Ho1  1  0.650118  0.045371  0.652255  1
  Ho  Ho2  1  0.192454  0.809301  0.191188  1
  Ho  Ho3  1  0.438326  0.061874  0.438048  1
  Ho  Ho4  1  0.192979  0.192331  0.807345  1
  Ho  Ho5  1  0.651619  0.651477  0.654877  1
  Ho  Ho6  1  0.048909  0.648867  0.651112  1
  Ho  Ho7  1  0.438326  0.061874  0.061753  1
  Ho  Ho8  1  0.651619  0.651477  0.042027  1
  Ho  Ho9  1  0.192454  0.809301  0.807056  1
  Er  Er10  1  0.813061  0.189292  0.809424  1
  Er  Er11  1  0.813061  0.189292  0.188222  1
  Er  Er12  1  0.811628  0.810761  0.188805  1
  Er  Er13  1  0.060463  0.438327  0.437441  1
  Er  Er14  1  0.435723  0.438138  0.063069  1
  Er  Er15  1  0.060463  0.438327  0.063767  1
  Mg  Mg16  1  0.731448  0.423608  0.422472  1
  In  In17  1  0.417611  0.416640  0.749741  1
  In  In18  1  0.419251  0.748039  0.416355  1
  In  In19  1  0.417611  0.416640  0.416007  1
  Ir  Ir20  1  0.860187  0.858229  0.858073  1
  Ir  Ir21  1  0.422709  0.858923  0.859184  1
  Ir  Ir22  1  0.860187  0.858229  0.423513  1
  Ir  Ir23  1  0.860794  0.422009  0.858599  1
