# generated using pymatgen
data_Nd6Mn3VC12
_symmetry_space_group_name_H-M   'P 1'
_cell_length_a   8.27893300
_cell_length_b   8.27893286
_cell_length_c   5.20006100
_cell_angle_alpha   90.00000000
_cell_angle_beta   90.00000000
_cell_angle_gamma   119.99998857
_symmetry_Int_Tables_number   1
_chemical_formula_structural   Nd6Mn3VC12
_chemical_formula_sum   'Nd6 Mn3 V1 C12'
_cell_volume   308.66532806
_cell_formula_units_Z   1
loop_
 _symmetry_equiv_pos_site_id
 _symmetry_equiv_pos_as_xyz
  1  'x, y, z'
loop_
 _atom_site_type_symbol
 _atom_site_label
 _atom_site_symmetry_multiplicity
 _atom_site_fract_x
 _atom_site_fract_y
 _atom_site_fract_z
 _atom_site_occupancy
  Nd  Nd0  1  0.614172  0.685058  0.748890  1
  Nd  Nd1  1  0.929114  0.614172  0.251110  1
  Nd  Nd2  1  0.685058  0.070886  0.251110  1
  Nd  Nd3  1  0.314942  0.929114  0.748890  1
  Nd  Nd4  1  0.070886  0.385828  0.748890  1
  Nd  Nd5  1  0.385828  0.314942  0.251110  1
  Mn  Mn6  1  0.000000  0.000000  0.000000  1
  Mn  Mn7  1  0.666667  0.333333  0.753302  1
  Mn  Mn8  1  0.333333  0.666667  0.246698  1
  V  V9  1  0.000000  0.000000  0.500000  1
  C  C10  1  0.955585  0.767915  0.745376  1
  C  C11  1  0.187670  0.955585  0.254624  1
  C  C12  1  0.767915  0.812330  0.254624  1
  C  C13  1  0.232085  0.187670  0.745376  1
  C  C14  1  0.812330  0.044415  0.745376  1
  C  C15  1  0.044415  0.232085  0.254624  1
  C  C16  1  0.857822  0.576519  0.752201  1
  C  C17  1  0.281302  0.857822  0.247799  1
  C  C18  1  0.576519  0.718698  0.247799  1
  C  C19  1  0.423481  0.281302  0.752201  1
  C  C20  1  0.142178  0.423481  0.247799  1
  C  C21  1  0.718698  0.142178  0.752201  1
