# generated using pymatgen
data_TmPa2(CoGe)3
_symmetry_space_group_name_H-M   'P 1'
_cell_length_a   6.83291988
_cell_length_b   6.78764835
_cell_length_c   3.84429200
_cell_angle_alpha   90.00000000
_cell_angle_beta   90.00000000
_cell_angle_gamma   119.78106714
_symmetry_Int_Tables_number   1
_chemical_formula_structural   TmPa2(CoGe)3
_chemical_formula_sum   'Tm1 Pa2 Co3 Ge3'
_cell_volume   154.74853414
_cell_formula_units_Z   1
loop_
 _symmetry_equiv_pos_site_id
 _symmetry_equiv_pos_as_xyz
  1  'x, y, z'
loop_
 _atom_site_type_symbol
 _atom_site_label
 _atom_site_symmetry_multiplicity
 _atom_site_fract_x
 _atom_site_fract_y
 _atom_site_fract_z
 _atom_site_occupancy
  Tm  Tm0  1  0.000000  0.591851  0.499999  1
  Pa  Pa1  1  0.584363  0.999152  0.499999  1
  Pa  Pa2  1  0.415637  0.414789  0.499999  1
  Co  Co3  1  0.642315  0.313574  0.000000  1
  Co  Co4  1  0.357685  0.671257  0.000000  1
  Co  Co5  1  0.000000  0.012136  0.499999  1
  Ge  Ge6  1  0.240267  0.989189  0.000000  1
  Ge  Ge7  1  0.000000  0.259131  0.000000  1
  Ge  Ge8  1  0.759733  0.748922  0.000000  1
