# generated using pymatgen
data_Tb3Ho2CoSb2
_symmetry_space_group_name_H-M   'P 1'
_cell_length_a   7.87902500
_cell_length_b   8.78266300
_cell_length_c   12.21968600
_cell_angle_alpha   90.00000000
_cell_angle_beta   90.00000000
_cell_angle_gamma   90.00000000
_symmetry_Int_Tables_number   1
_chemical_formula_structural   Tb3Ho2CoSb2
_chemical_formula_sum   'Tb12 Ho8 Co4 Sb8'
_cell_volume   845.58786839
_cell_formula_units_Z   4
loop_
 _symmetry_equiv_pos_site_id
 _symmetry_equiv_pos_as_xyz
  1  'x, y, z'
loop_
 _atom_site_type_symbol
 _atom_site_label
 _atom_site_symmetry_multiplicity
 _atom_site_fract_x
 _atom_site_fract_y
 _atom_site_fract_z
 _atom_site_occupancy
  Tb  Tb0  1  0.155776  0.750000  0.203985  1
  Tb  Tb1  1  0.655776  0.250000  0.296015  1
  Tb  Tb2  1  0.844224  0.250000  0.796015  1
  Tb  Tb3  1  0.344224  0.750000  0.703985  1
  Tb  Tb4  1  0.453057  0.750000  0.997806  1
  Tb  Tb5  1  0.953057  0.250000  0.502194  1
  Tb  Tb6  1  0.546943  0.250000  0.002194  1
  Tb  Tb7  1  0.046943  0.750000  0.497806  1
  Tb  Tb8  1  0.623375  0.750000  0.307238  1
  Tb  Tb9  1  0.123375  0.250000  0.192762  1
  Tb  Tb10  1  0.376625  0.250000  0.692762  1
  Tb  Tb11  1  0.876625  0.750000  0.807238  1
  Ho  Ho12  1  0.822592  0.963297  0.065449  1
  Ho  Ho13  1  0.322592  0.036703  0.434551  1
  Ho  Ho14  1  0.177408  0.463297  0.934551  1
  Ho  Ho15  1  0.677408  0.536703  0.565449  1
  Ho  Ho16  1  0.177408  0.036703  0.934551  1
  Ho  Ho17  1  0.677408  0.963297  0.565449  1
  Ho  Ho18  1  0.822592  0.536703  0.065449  1
  Ho  Ho19  1  0.322592  0.463297  0.434551  1
  Co  Co20  1  0.432227  0.750000  0.490522  1
  Co  Co21  1  0.932227  0.250000  0.009478  1
  Co  Co22  1  0.567773  0.250000  0.509478  1
  Co  Co23  1  0.067773  0.750000  0.990522  1
  Sb  Sb24  1  0.929936  0.991946  0.326774  1
  Sb  Sb25  1  0.429936  0.008054  0.173226  1
  Sb  Sb26  1  0.070064  0.491946  0.673226  1
  Sb  Sb27  1  0.570064  0.508054  0.826774  1
  Sb  Sb28  1  0.070064  0.008054  0.673226  1
  Sb  Sb29  1  0.570064  0.991946  0.826774  1
  Sb  Sb30  1  0.929936  0.508054  0.326774  1
  Sb  Sb31  1  0.429936  0.491946  0.173226  1
