# generated using pymatgen
data_Ca4Ga5Ni2Rh7
_symmetry_space_group_name_H-M   'P 1'
_cell_length_a   5.67075397
_cell_length_b   5.49357950
_cell_length_c   12.14913458
_cell_angle_alpha   76.68437893
_cell_angle_beta   76.50378361
_cell_angle_gamma   58.92727915
_symmetry_Int_Tables_number   1
_chemical_formula_structural   Ca4Ga5Ni2Rh7
_chemical_formula_sum   'Ca4 Ga5 Ni2 Rh7'
_cell_volume   312.46567288
_cell_formula_units_Z   1
loop_
 _symmetry_equiv_pos_site_id
 _symmetry_equiv_pos_as_xyz
  1  'x, y, z'
loop_
 _atom_site_type_symbol
 _atom_site_label
 _atom_site_symmetry_multiplicity
 _atom_site_fract_x
 _atom_site_fract_y
 _atom_site_fract_z
 _atom_site_occupancy
  Ca  Ca0  1  0.949222  0.950429  0.151126  1
  Ca  Ca1  1  0.048458  0.051010  0.852076  1
  Ca  Ca2  1  0.855280  0.849266  0.440174  1
  Ca  Ca3  1  0.147026  0.144974  0.560974  1
  Ga  Ga4  1  0.501292  0.495460  0.501955  1
  Ga  Ga5  1  0.714517  0.736582  0.834383  1
  Ga  Ga6  1  0.281284  0.275066  0.162367  1
  Ga  Ga7  1  0.608531  0.618215  0.164723  1
  Ga  Ga8  1  0.393487  0.379533  0.833494  1
  Ni  Ni9  1  0.500307  0.000557  0.998829  1
  Ni  Ni10  1  0.612080  0.105948  0.669890  1
  Rh  Rh11  1  0.999369  0.502218  0.998282  1
  Rh  Rh12  1  0.500131  0.502218  0.998282  1
  Rh  Rh13  1  0.391441  0.386669  0.328675  1
  Rh  Rh14  1  0.893216  0.386669  0.328675  1
  Rh  Rh15  1  0.386312  0.895257  0.332120  1
  Rh  Rh16  1  0.612190  0.609965  0.671988  1
  Rh  Rh17  1  0.105856  0.609965  0.671988  1
