# generated using pymatgen
data_Sc6Ti4Al12Ru5Rh2
_symmetry_space_group_name_H-M   'P 1'
_cell_length_a   8.82398570
_cell_length_b   8.82965404
_cell_length_c   8.82965446
_cell_angle_alpha   59.94621151
_cell_angle_beta   60.04207499
_cell_angle_gamma   60.04207365
_symmetry_Int_Tables_number   1
_chemical_formula_structural   Sc6Ti4Al12Ru5Rh2
_chemical_formula_sum   'Sc6 Ti4 Al12 Ru5 Rh2'
_cell_volume   486.55956393
_cell_formula_units_Z   1
loop_
 _symmetry_equiv_pos_site_id
 _symmetry_equiv_pos_as_xyz
  1  'x, y, z'
loop_
 _atom_site_type_symbol
 _atom_site_label
 _atom_site_symmetry_multiplicity
 _atom_site_fract_x
 _atom_site_fract_y
 _atom_site_fract_z
 _atom_site_occupancy
  Sc  Sc0  1  0.706010  0.290173  0.290173  1
  Sc  Sc1  1  0.707327  0.292037  0.711078  1
  Sc  Sc2  1  0.707327  0.711078  0.292037  1
  Sc  Sc3  1  0.293533  0.709898  0.709898  1
  Sc  Sc4  1  0.293756  0.706297  0.289986  1
  Sc  Sc5  1  0.293756  0.289986  0.706297  1
  Ti  Ti6  1  0.641916  0.119084  0.119084  1
  Ti  Ti7  1  0.119970  0.642376  0.121018  1
  Ti  Ti8  1  0.119970  0.121018  0.642376  1
  Ti  Ti9  1  0.121915  0.117751  0.117751  1
  Al  Al10  1  0.358131  0.880654  0.880654  1
  Al  Al11  1  0.880350  0.357962  0.880351  1
  Al  Al12  1  0.880350  0.880351  0.357962  1
  Al  Al13  1  0.879980  0.881198  0.881198  1
  Al  Al14  1  0.997787  0.333878  0.333878  1
  Al  Al15  1  0.332796  0.999878  0.333664  1
  Al  Al16  1  0.332796  0.333664  0.999878  1
  Al  Al17  1  0.332558  0.332518  0.332518  1
  Al  Al18  1  0.004544  0.665060  0.665060  1
  Al  Al19  1  0.666015  0.001794  0.666431  1
  Al  Al20  1  0.666015  0.666431  0.001794  1
  Al  Al21  1  0.667440  0.666721  0.666721  1
  Ru  Ru22  1  0.999966  0.000033  0.000033  1
  Ru  Ru23  1  0.496990  0.001434  0.001434  1
  Ru  Ru24  1  0.498021  0.001468  0.499323  1
  Ru  Ru25  1  0.498021  0.499323  0.001468  1
  Ru  Ru26  1  0.001588  0.498565  0.498565  1
  Rh  Rh27  1  0.000584  0.498869  0.000500  1
  Rh  Rh28  1  0.000584  0.000500  0.498869  1
