# generated using pymatgen
data_SmYTm4NiI10
_symmetry_space_group_name_H-M   'P 1'
_cell_length_a   7.66032810
_cell_length_b   9.61597590
_cell_length_c   9.68596989
_cell_angle_alpha   106.94788451
_cell_angle_beta   96.77967058
_cell_angle_gamma   104.69367118
_symmetry_Int_Tables_number   1
_chemical_formula_structural   SmYTm4NiI10
_chemical_formula_sum   'Sm1 Y1 Tm4 Ni1 I10'
_cell_volume   645.80857177
_cell_formula_units_Z   1
loop_
 _symmetry_equiv_pos_site_id
 _symmetry_equiv_pos_as_xyz
  1  'x, y, z'
loop_
 _atom_site_type_symbol
 _atom_site_label
 _atom_site_symmetry_multiplicity
 _atom_site_fract_x
 _atom_site_fract_y
 _atom_site_fract_z
 _atom_site_occupancy
  Sm  Sm0  1  0.884209  0.957271  0.238743  1
  Y  Y1  1  0.342036  0.121507  0.161062  1
  Tm  Tm2  1  0.110405  0.040294  0.768324  1
  Tm  Tm3  1  0.029806  0.723580  0.915295  1
  Tm  Tm4  1  0.969247  0.275913  0.080227  1
  Tm  Tm5  1  0.665045  0.881276  0.841319  1
  Ni  Ni6  1  0.999835  0.999688  0.999833  1
  I  I7  1  0.650897  0.551765  0.728261  1
  I  I8  1  0.345818  0.451474  0.271225  1
  I  I9  1  0.741457  0.912428  0.542924  1
  I  I10  1  0.262028  0.089161  0.466250  1
  I  I11  1  0.084093  0.371992  0.819506  1
  I  I12  1  0.916276  0.620238  0.173349  1
  I  I13  1  0.448985  0.810550  0.087805  1
  I  I14  1  0.546376  0.183866  0.904884  1
  I  I15  1  0.228388  0.746296  0.658533  1
  I  I16  1  0.775099  0.262698  0.342460  1
