# generated using pymatgen
data_CePrTh(CoSn)3
_symmetry_space_group_name_H-M   'P 1'
_cell_length_a   7.43128012
_cell_length_b   7.33577902
_cell_length_c   4.01691700
_cell_angle_alpha   90.00000000
_cell_angle_beta   90.00000000
_cell_angle_gamma   120.07766700
_symmetry_Int_Tables_number   1
_chemical_formula_structural   CePrTh(CoSn)3
_chemical_formula_sum   'Ce1 Pr1 Th1 Co3 Sn3'
_cell_volume   189.49289928
_cell_formula_units_Z   1
loop_
 _symmetry_equiv_pos_site_id
 _symmetry_equiv_pos_as_xyz
  1  'x, y, z'
loop_
 _atom_site_type_symbol
 _atom_site_label
 _atom_site_symmetry_multiplicity
 _atom_site_fract_x
 _atom_site_fract_y
 _atom_site_fract_z
 _atom_site_occupancy
  Ce  Ce0  1  0.413826  0.414756  0.500000  1
  Pr  Pr1  1  0.999491  0.588318  0.500000  1
  Th  Th2  1  0.583888  0.999784  0.500000  1
  Co  Co3  1  0.356096  0.670569  0.000000  1
  Co  Co4  1  0.998656  0.009417  0.500000  1
  Co  Co5  1  0.648165  0.314956  0.000000  1
  Sn  Sn6  1  0.752727  0.747746  0.000000  1
  Sn  Sn7  1  0.003969  0.254392  0.000000  1
  Sn  Sn8  1  0.243184  0.000062  0.000000  1
