# generated using pymatgen
data_Ho19TmBi12
_symmetry_space_group_name_H-M   'P 1'
_cell_length_a   8.22318612
_cell_length_b   9.49951703
_cell_length_c   11.99838115
_cell_angle_alpha   90.00187015
_cell_angle_beta   90.01790218
_cell_angle_gamma   90.00868330
_symmetry_Int_Tables_number   1
_chemical_formula_structural   Ho19TmBi12
_chemical_formula_sum   'Ho19 Tm1 Bi12'
_cell_volume   937.26904362
_cell_formula_units_Z   1
loop_
 _symmetry_equiv_pos_site_id
 _symmetry_equiv_pos_as_xyz
  1  'x, y, z'
loop_
 _atom_site_type_symbol
 _atom_site_label
 _atom_site_symmetry_multiplicity
 _atom_site_fract_x
 _atom_site_fract_y
 _atom_site_fract_z
 _atom_site_occupancy
  Ho  Ho0  1  0.353753  0.749916  0.216259  1
  Ho  Ho1  1  0.853516  0.749877  0.283633  1
  Ho  Ho2  1  0.646310  0.249952  0.783667  1
  Ho  Ho3  1  0.146355  0.249971  0.716285  1
  Ho  Ho4  1  0.192002  0.935831  0.441011  1
  Ho  Ho5  1  0.308020  0.064223  0.941017  1
  Ho  Ho6  1  0.807982  0.435819  0.558981  1
  Ho  Ho7  1  0.307954  0.435821  0.941005  1
  Ho  Ho8  1  0.808010  0.064205  0.559008  1
  Ho  Ho9  1  0.692079  0.935630  0.058970  1
  Ho  Ho10  1  0.192013  0.564183  0.440997  1
  Ho  Ho11  1  0.476640  0.249965  0.488908  1
  Ho  Ho12  1  0.976595  0.250029  0.011088  1
  Ho  Ho13  1  0.523362  0.750001  0.511071  1
  Ho  Ho14  1  0.023099  0.749895  0.988956  1
  Ho  Ho15  1  0.314436  0.249999  0.218118  1
  Ho  Ho16  1  0.814510  0.250002  0.281898  1
  Ho  Ho17  1  0.685490  0.749933  0.781946  1
  Ho  Ho18  1  0.185522  0.750003  0.718106  1
  Tm  Tm19  1  0.692031  0.564535  0.058999  1
  Bi  Bi20  1  0.405619  0.749816  0.957540  1
  Bi  Bi21  1  0.905427  0.750000  0.542522  1
  Bi  Bi22  1  0.594695  0.250547  0.042584  1
  Bi  Bi23  1  0.094549  0.249998  0.457463  1
  Bi  Bi24  1  0.566081  0.996192  0.325681  1
  Bi  Bi25  1  0.065968  0.503759  0.174248  1
  Bi  Bi26  1  0.433989  0.496214  0.674325  1
  Bi  Bi27  1  0.933917  0.003756  0.825722  1
  Bi  Bi28  1  0.433949  0.003763  0.674308  1
  Bi  Bi29  1  0.933955  0.496196  0.825775  1
  Bi  Bi30  1  0.566117  0.503767  0.325633  1
  Bi  Bi31  1  0.066055  0.996200  0.174273  1
