# generated using pymatgen
data_Tb5Zn2Bi
_symmetry_space_group_name_H-M   'P 1'
_cell_length_a   8.66991095
_cell_length_b   8.66991127
_cell_length_c   8.66991067
_cell_angle_alpha   123.29829714
_cell_angle_beta   123.29829621
_cell_angle_gamma   84.37621935
_symmetry_Int_Tables_number   1
_chemical_formula_structural   Tb5Zn2Bi
_chemical_formula_sum   'Tb10 Zn4 Bi2'
_cell_volume   435.54975877
_cell_formula_units_Z   2
loop_
 _symmetry_equiv_pos_site_id
 _symmetry_equiv_pos_as_xyz
  1  'x, y, z'
loop_
 _atom_site_type_symbol
 _atom_site_label
 _atom_site_symmetry_multiplicity
 _atom_site_fract_x
 _atom_site_fract_y
 _atom_site_fract_z
 _atom_site_occupancy
  Tb  Tb0  1  0.500000  0.500000  0.000000  1
  Tb  Tb1  1  0.000000  0.000000  0.000000  1
  Tb  Tb2  1  0.509014  0.009014  0.803328  1
  Tb  Tb3  1  0.205686  0.705686  0.196672  1
  Tb  Tb4  1  0.009014  0.205686  0.500000  1
  Tb  Tb5  1  0.705686  0.509014  0.500000  1
  Tb  Tb6  1  0.490986  0.990986  0.196672  1
  Tb  Tb7  1  0.794314  0.294314  0.803328  1
  Tb  Tb8  1  0.990986  0.794314  0.500000  1
  Tb  Tb9  1  0.294314  0.490986  0.500000  1
  Zn  Zn10  1  0.140296  0.640296  0.780592  1
  Zn  Zn11  1  0.859704  0.359704  0.219408  1
  Zn  Zn12  1  0.640296  0.859704  0.500000  1
  Zn  Zn13  1  0.359704  0.140296  0.500000  1
  Bi  Bi14  1  0.250000  0.250000  0.000000  1
  Bi  Bi15  1  0.750000  0.750000  0.000000  1
