# generated using pymatgen
data_Y5FeIrO12
_symmetry_space_group_name_H-M   'P 1'
_cell_length_a   6.84746825
_cell_length_b   6.84746716
_cell_length_c   7.31074821
_cell_angle_alpha   74.42868993
_cell_angle_beta   74.42869371
_cell_angle_gamma   51.27723165
_symmetry_Int_Tables_number   1
_chemical_formula_structural   Y5FeIrO12
_chemical_formula_sum   'Y5 Fe1 Ir1 O12'
_cell_volume   255.30451766
_cell_formula_units_Z   1
loop_
 _symmetry_equiv_pos_site_id
 _symmetry_equiv_pos_as_xyz
  1  'x, y, z'
loop_
 _atom_site_type_symbol
 _atom_site_label
 _atom_site_symmetry_multiplicity
 _atom_site_fract_x
 _atom_site_fract_y
 _atom_site_fract_z
 _atom_site_occupancy
  Y  Y0  1  0.692729  0.690339  0.670224  1
  Y  Y1  1  0.691125  0.703091  0.139710  1
  Y  Y2  1  0.995462  0.004538  0.000000  1
  Y  Y3  1  0.296909  0.308875  0.860290  1
  Y  Y4  1  0.309661  0.307271  0.329776  1
  Fe  Fe5  1  0.246455  0.753545  0.500000  1
  Ir  Ir6  1  0.758851  0.241149  0.500000  1
  O  O7  1  0.400570  0.905890  0.924028  1
  O  O8  1  0.575335  0.096168  0.582791  1
  O  O9  1  0.903832  0.424665  0.417209  1
  O  O10  1  0.094110  0.599430  0.075972  1
  O  O11  1  0.996079  0.004492  0.314997  1
  O  O12  1  0.510349  0.489460  0.687064  1
  O  O13  1  0.900990  0.405391  0.925550  1
  O  O14  1  0.100945  0.574059  0.581106  1
  O  O15  1  0.425941  0.899055  0.418894  1
  O  O16  1  0.594609  0.099010  0.074450  1
  O  O17  1  0.510540  0.489651  0.312936  1
  O  O18  1  0.995508  0.003921  0.685003  1
