# generated using pymatgen
data_NdSm3(Al8Pt3)3
_symmetry_space_group_name_H-M   'P 1'
_cell_length_a   7.54656228
_cell_length_b   7.56286582
_cell_length_c   13.28145600
_cell_angle_alpha   84.72467648
_cell_angle_beta   100.75940307
_cell_angle_gamma   119.74523689
_symmetry_Int_Tables_number   1
_chemical_formula_structural   NdSm3(Al8Pt3)3
_chemical_formula_sum   'Nd1 Sm3 Al24 Pt9'
_cell_volume   646.57367905
_cell_formula_units_Z   1
loop_
 _symmetry_equiv_pos_site_id
 _symmetry_equiv_pos_as_xyz
  1  'x, y, z'
loop_
 _atom_site_type_symbol
 _atom_site_label
 _atom_site_symmetry_multiplicity
 _atom_site_fract_x
 _atom_site_fract_y
 _atom_site_fract_z
 _atom_site_occupancy
  Nd  Nd0  1  0.437258  0.831147  0.807986  1
  Sm  Sm1  1  0.562941  0.168954  0.192170  1
  Sm  Sm2  1  0.768087  0.501849  0.807915  1
  Sm  Sm3  1  0.232001  0.498036  0.192010  1
  Al  Al4  1  0.480390  0.166750  0.945385  1
  Al  Al5  1  0.520132  0.833872  0.055118  1
  Al  Al6  1  0.021433  0.167634  0.560151  1
  Al  Al7  1  0.978466  0.832277  0.439808  1
  Al  Al8  1  0.354013  0.833486  0.557557  1
  Al  Al9  1  0.646069  0.166935  0.442048  1
  Al  Al10  1  0.618408  0.834308  0.331762  1
  Al  Al11  1  0.381450  0.166176  0.668065  1
  Al  Al12  1  0.055258  0.493133  0.667597  1
  Al  Al13  1  0.943931  0.506127  0.332015  1
  Al  Al14  1  0.730673  0.840100  0.666292  1
  Al  Al15  1  0.269661  0.159963  0.333217  1
  Al  Al16  1  0.146983  0.498168  0.946012  1
  Al  Al17  1  0.852494  0.501435  0.054242  1
  Al  Al18  1  0.818630  0.833631  0.954781  1
  Al  Al19  1  0.181890  0.166154  0.045289  1
  Al  Al20  1  0.313726  0.500386  0.441472  1
  Al  Al21  1  0.686244  0.499415  0.558587  1
  Al  Al22  1  0.101592  0.836139  0.183894  1
  Al  Al23  1  0.899048  0.164876  0.816113  1
  Al  Al24  1  0.305525  0.367087  0.814836  1
  Al  Al25  1  0.694482  0.632136  0.185213  1
  Al  Al26  1  0.101441  0.960321  0.815442  1
  Al  Al27  1  0.897738  0.039568  0.184675  1
  Pt  Pt28  1  0.385779  0.506061  0.636918  1
  Pt  Pt29  1  0.614091  0.493896  0.363064  1
  Pt  Pt30  1  0.171487  0.828995  0.999777  1
  Pt  Pt31  1  0.828774  0.171286  0.000480  1
  Pt  Pt32  1  0.293843  0.833343  0.362654  1
  Pt  Pt33  1  0.706073  0.166545  0.637297  1
  Pt  Pt34  1  0.046794  0.827149  0.635774  1
  Pt  Pt35  1  0.953216  0.172913  0.364299  1
  Pt  Pt36  1  0.499977  0.499749  0.000083  1
