# generated using pymatgen
data_Li8SmY7(SnSb3)2
_symmetry_space_group_name_H-M   'P 1'
_cell_length_a   9.46720900
_cell_length_b   9.46720969
_cell_length_c   7.08050200
_cell_angle_alpha   90.00000000
_cell_angle_beta   90.00000000
_cell_angle_gamma   120.00000110
_symmetry_Int_Tables_number   1
_chemical_formula_structural   Li8SmY7(SnSb3)2
_chemical_formula_sum   'Li8 Sm1 Y7 Sn2 Sb6'
_cell_volume   549.58976685
_cell_formula_units_Z   1
loop_
 _symmetry_equiv_pos_site_id
 _symmetry_equiv_pos_as_xyz
  1  'x, y, z'
loop_
 _atom_site_type_symbol
 _atom_site_label
 _atom_site_symmetry_multiplicity
 _atom_site_fract_x
 _atom_site_fract_y
 _atom_site_fract_z
 _atom_site_occupancy
  Li  Li0  1  0.832357  0.167643  0.720533  1
  Li  Li1  1  0.832357  0.664716  0.720533  1
  Li  Li2  1  0.335284  0.167643  0.720533  1
  Li  Li3  1  0.167761  0.832239  0.221280  1
  Li  Li4  1  0.167761  0.335521  0.221280  1
  Li  Li5  1  0.664479  0.832239  0.221280  1
  Li  Li6  1  0.666667  0.333333  0.316280  1
  Li  Li7  1  0.333333  0.666667  0.816037  1
  Sm  Sm8  1  0.000000  0.000000  0.998112  1
  Y  Y9  1  0.490558  0.509442  0.506866  1
  Y  Y10  1  0.490558  0.981117  0.506866  1
  Y  Y11  1  0.018883  0.509442  0.506866  1
  Y  Y12  1  0.509416  0.490584  0.006820  1
  Y  Y13  1  0.509416  0.018832  0.006820  1
  Y  Y14  1  0.981168  0.490584  0.006820  1
  Y  Y15  1  0.000000  0.000000  0.497797  1
  Sn  Sn16  1  0.666667  0.333333  0.742017  1
  Sn  Sn17  1  0.333333  0.666667  0.241688  1
  Sb  Sb18  1  0.832990  0.167010  0.264606  1
  Sb  Sb19  1  0.832990  0.665978  0.264606  1
  Sb  Sb20  1  0.334022  0.167010  0.264606  1
  Sb  Sb21  1  0.167307  0.832693  0.761924  1
  Sb  Sb22  1  0.167307  0.334616  0.761924  1
  Sb  Sb23  1  0.665384  0.832693  0.761924  1
