# generated using pymatgen
data_Y5Mg3Co9Ni7P12
_symmetry_space_group_name_H-M   'P 1'
_cell_length_a   12.19860100
_cell_length_b   12.19860094
_cell_length_c   3.75825500
_cell_angle_alpha   90.00000000
_cell_angle_beta   90.00000000
_cell_angle_gamma   120.00000287
_symmetry_Int_Tables_number   1
_chemical_formula_structural   Y5Mg3Co9Ni7P12
_chemical_formula_sum   'Y5 Mg3 Co9 Ni7 P12'
_cell_volume   484.32502956
_cell_formula_units_Z   1
loop_
 _symmetry_equiv_pos_site_id
 _symmetry_equiv_pos_as_xyz
  1  'x, y, z'
loop_
 _atom_site_type_symbol
 _atom_site_label
 _atom_site_symmetry_multiplicity
 _atom_site_fract_x
 _atom_site_fract_y
 _atom_site_fract_z
 _atom_site_occupancy
  Y  Y0  1  0.185897  0.185897  0.500000  1
  Y  Y1  1  0.814103  0.000000  0.500000  1
  Y  Y2  1  0.000000  0.814103  0.500000  1
  Y  Y3  1  0.333333  0.666667  0.000000  1
  Y  Y4  1  0.666667  0.333333  0.000000  1
  Mg  Mg5  1  0.561219  0.561219  0.000000  1
  Mg  Mg6  1  0.438781  0.000000  0.000000  1
  Mg  Mg7  1  0.000000  0.438781  0.000000  1
  Co  Co8  1  0.719833  0.719833  0.500000  1
  Co  Co9  1  0.280167  0.000000  0.500000  1
  Co  Co10  1  0.000000  0.280167  0.500000  1
  Co  Co11  1  0.180169  0.377464  0.000000  1
  Co  Co12  1  0.622536  0.802705  0.000000  1
  Co  Co13  1  0.197295  0.819831  0.000000  1
  Co  Co14  1  0.802705  0.622536  0.000000  1
  Co  Co15  1  0.819831  0.197295  0.000000  1
  Co  Co16  1  0.377464  0.180169  0.000000  1
  Ni  Ni17  1  0.360681  0.482919  0.500000  1
  Ni  Ni18  1  0.517081  0.877763  0.500000  1
  Ni  Ni19  1  0.122237  0.639319  0.500000  1
  Ni  Ni20  1  0.877763  0.517081  0.500000  1
  Ni  Ni21  1  0.639319  0.122237  0.500000  1
  Ni  Ni22  1  0.482919  0.360681  0.500000  1
  Ni  Ni23  1  0.000000  0.000000  0.000000  1
  P  P24  1  0.820100  0.820100  0.000000  1
  P  P25  1  0.179900  0.000000  0.000000  1
  P  P26  1  0.000000  0.179900  0.000000  1
  P  P27  1  0.171072  0.474911  0.500000  1
  P  P28  1  0.525089  0.696161  0.500000  1
  P  P29  1  0.303839  0.828928  0.500000  1
  P  P30  1  0.696161  0.525089  0.500000  1
  P  P31  1  0.828928  0.303839  0.500000  1
  P  P32  1  0.474911  0.171072  0.500000  1
  P  P33  1  0.356014  0.356014  0.000000  1
  P  P34  1  0.643986  0.000000  0.000000  1
  P  P35  1  0.000000  0.643986  0.000000  1
