# generated using pymatgen
data_Ta2Be3Nb4BRu10
_symmetry_space_group_name_H-M   'P 1'
_cell_length_a   9.43498808
_cell_length_b   9.43498894
_cell_length_c   3.11405700
_cell_angle_alpha   90.00000000
_cell_angle_beta   90.00000000
_cell_angle_gamma   90.24812496
_symmetry_Int_Tables_number   1
_chemical_formula_structural   Ta2Be3Nb4BRu10
_chemical_formula_sum   'Ta2 Be3 Nb4 B1 Ru10'
_cell_volume   277.20766613
_cell_formula_units_Z   1
loop_
 _symmetry_equiv_pos_site_id
 _symmetry_equiv_pos_as_xyz
  1  'x, y, z'
loop_
 _atom_site_type_symbol
 _atom_site_label
 _atom_site_symmetry_multiplicity
 _atom_site_fract_x
 _atom_site_fract_y
 _atom_site_fract_z
 _atom_site_occupancy
  Ta  Ta0  1  0.498614  0.500453  0.000000  1
  Ta  Ta1  1  0.000453  0.998614  0.000000  1
  Be  Be2  1  0.621156  0.878640  0.000000  1
  Be  Be3  1  0.378640  0.121156  0.000000  1
  Be  Be4  1  0.121324  0.621324  0.000000  1
  Nb  Nb5  1  0.824867  0.675797  0.000000  1
  Nb  Nb6  1  0.175797  0.324867  0.000000  1
  Nb  Nb7  1  0.326090  0.826090  0.000000  1
  Nb  Nb8  1  0.673959  0.173959  0.000000  1
  B  B9  1  0.879433  0.379433  0.000000  1
  Ru  Ru10  1  0.573207  0.710506  0.500000  1
  Ru  Ru11  1  0.429600  0.288466  0.500000  1
  Ru  Ru12  1  0.071756  0.787214  0.500000  1
  Ru  Ru13  1  0.925178  0.217264  0.500000  1
  Ru  Ru14  1  0.287214  0.571756  0.500000  1
  Ru  Ru15  1  0.717264  0.425178  0.500000  1
  Ru  Ru16  1  0.210506  0.073207  0.500000  1
  Ru  Ru17  1  0.788466  0.929600  0.500000  1
  Ru  Ru18  1  0.499645  0.999645  0.500000  1
  Ru  Ru19  1  0.996831  0.496831  0.500000  1
