# generated using pymatgen
data_Zn7Cu5(Mo3N)4
_symmetry_space_group_name_H-M   'P 1'
_cell_length_a   7.97058740
_cell_length_b   7.97058743
_cell_length_c   7.96698641
_cell_angle_alpha   59.98504727
_cell_angle_beta   59.98504664
_cell_angle_gamma   59.99999368
_symmetry_Int_Tables_number   1
_chemical_formula_structural   Zn7Cu5(Mo3N)4
_chemical_formula_sum   'Zn7 Cu5 Mo12 N4'
_cell_volume   357.81745458
_cell_formula_units_Z   1
loop_
 _symmetry_equiv_pos_site_id
 _symmetry_equiv_pos_as_xyz
  1  'x, y, z'
loop_
 _atom_site_type_symbol
 _atom_site_label
 _atom_site_symmetry_multiplicity
 _atom_site_fract_x
 _atom_site_fract_y
 _atom_site_fract_z
 _atom_site_occupancy
  Zn  Zn0  1  0.833779  0.833779  0.832346  1
  Zn  Zn1  1  0.500098  0.833779  0.832346  1
  Zn  Zn2  1  0.833779  0.500098  0.832346  1
  Zn  Zn3  1  0.622172  0.622172  0.133484  1
  Zn  Zn4  1  0.624543  0.624543  0.619647  1
  Zn  Zn5  1  0.131268  0.624543  0.619647  1
  Zn  Zn6  1  0.624543  0.131268  0.619647  1
  Cu  Cu7  1  0.416225  0.416225  0.751322  1
  Cu  Cu8  1  0.415734  0.415734  0.416496  1
  Cu  Cu9  1  0.752033  0.415734  0.416496  1
  Cu  Cu10  1  0.415734  0.752033  0.416496  1
  Cu  Cu11  1  0.832944  0.832944  0.501171  1
  Mo  Mo12  1  0.810891  0.187178  0.191040  1
  Mo  Mo13  1  0.187178  0.810891  0.191040  1
  Mo  Mo14  1  0.810891  0.810891  0.191040  1
  Mo  Mo15  1  0.190042  0.809275  0.810642  1
  Mo  Mo16  1  0.809275  0.190042  0.810642  1
  Mo  Mo17  1  0.190042  0.190042  0.810642  1
  Mo  Mo18  1  0.438239  0.061881  0.061642  1
  Mo  Mo19  1  0.061881  0.438239  0.061642  1
  Mo  Mo20  1  0.438239  0.438239  0.061642  1
  Mo  Mo21  1  0.061377  0.438312  0.438934  1
  Mo  Mo22  1  0.438312  0.061377  0.438934  1
  Mo  Mo23  1  0.061377  0.061377  0.438934  1
  N  N24  1  0.124512  0.124512  0.626464  1
  N  N25  1  0.124472  0.124472  0.125108  1
  N  N26  1  0.625949  0.124472  0.125108  1
  N  N27  1  0.124472  0.625949  0.125108  1
