# generated using pymatgen
data_LaHo3(ScIr)4
_symmetry_space_group_name_H-M   'P 1'
_cell_length_a   7.16770304
_cell_length_b   4.26973200
_cell_length_c   8.78648114
_cell_angle_alpha   90.00000000
_cell_angle_beta   89.43000239
_cell_angle_gamma   90.00000000
_symmetry_Int_Tables_number   1
_chemical_formula_structural   LaHo3(ScIr)4
_chemical_formula_sum   'La1 Ho3 Sc4 Ir4'
_cell_volume   268.88966525
_cell_formula_units_Z   1
loop_
 _symmetry_equiv_pos_site_id
 _symmetry_equiv_pos_as_xyz
  1  'x, y, z'
loop_
 _atom_site_type_symbol
 _atom_site_label
 _atom_site_symmetry_multiplicity
 _atom_site_fract_x
 _atom_site_fract_y
 _atom_site_fract_z
 _atom_site_occupancy
  La  La0  1  0.511169  0.750000  0.677215  1
  Ho  Ho1  1  0.978288  0.250000  0.175090  1
  Ho  Ho2  1  0.479766  0.250000  0.321861  1
  Ho  Ho3  1  0.018967  0.750000  0.830198  1
  Sc  Sc4  1  0.865548  0.250000  0.562327  1
  Sc  Sc5  1  0.359056  0.250000  0.943048  1
  Sc  Sc6  1  0.140109  0.750000  0.430971  1
  Sc  Sc7  1  0.642978  0.750000  0.068920  1
  Ir  Ir8  1  0.743511  0.250000  0.896722  1
  Ir  Ir9  1  0.235754  0.250000  0.599918  1
  Ir  Ir10  1  0.261072  0.750000  0.106867  1
  Ir  Ir11  1  0.763786  0.750000  0.386862  1
