# generated using pymatgen
data_Pr4LuIr3
_symmetry_space_group_name_H-M   'P 1'
_cell_length_a   11.24321900
_cell_length_b   11.24321900
_cell_length_c   6.53450900
_cell_angle_alpha   90.00000000
_cell_angle_beta   90.00000000
_cell_angle_gamma   90.00000000
_symmetry_Int_Tables_number   1
_chemical_formula_structural   Pr4LuIr3
_chemical_formula_sum   'Pr16 Lu4 Ir12'
_cell_volume   826.02710941
_cell_formula_units_Z   4
loop_
 _symmetry_equiv_pos_site_id
 _symmetry_equiv_pos_as_xyz
  1  'x, y, z'
loop_
 _atom_site_type_symbol
 _atom_site_label
 _atom_site_symmetry_multiplicity
 _atom_site_fract_x
 _atom_site_fract_y
 _atom_site_fract_z
 _atom_site_occupancy
  Pr  Pr0  1  0.287483  0.086986  0.381357  1
  Pr  Pr1  1  0.287483  0.913014  0.881357  1
  Pr  Pr2  1  0.712517  0.086986  0.881357  1
  Pr  Pr3  1  0.712517  0.913014  0.381357  1
  Pr  Pr4  1  0.586986  0.787483  0.881357  1
  Pr  Pr5  1  0.586986  0.212517  0.381357  1
  Pr  Pr6  1  0.413014  0.787483  0.381357  1
  Pr  Pr7  1  0.413014  0.212517  0.881357  1
  Pr  Pr8  1  0.212517  0.413014  0.618643  1
  Pr  Pr9  1  0.212517  0.586986  0.118643  1
  Pr  Pr10  1  0.787483  0.413014  0.118643  1
  Pr  Pr11  1  0.787483  0.586986  0.618643  1
  Pr  Pr12  1  0.913014  0.712517  0.118643  1
  Pr  Pr13  1  0.913014  0.287483  0.618643  1
  Pr  Pr14  1  0.086986  0.712517  0.618643  1
  Pr  Pr15  1  0.086986  0.287483  0.118643  1
  Lu  Lu16  1  0.000000  0.000000  0.500000  1
  Lu  Lu17  1  0.000000  0.000000  0.000000  1
  Lu  Lu18  1  0.500000  0.500000  0.000000  1
  Lu  Lu19  1  0.500000  0.500000  0.500000  1
  Ir  Ir20  1  0.854247  0.145753  0.250000  1
  Ir  Ir21  1  0.854247  0.854247  0.750000  1
  Ir  Ir22  1  0.145753  0.145753  0.750000  1
  Ir  Ir23  1  0.145753  0.854247  0.250000  1
  Ir  Ir24  1  0.645753  0.354247  0.750000  1
  Ir  Ir25  1  0.645753  0.645753  0.250000  1
  Ir  Ir26  1  0.354247  0.354247  0.250000  1
  Ir  Ir27  1  0.354247  0.645753  0.750000  1
  Ir  Ir28  1  0.500000  0.000000  0.117163  1
  Ir  Ir29  1  0.500000  0.000000  0.617163  1
  Ir  Ir30  1  0.000000  0.500000  0.882837  1
  Ir  Ir31  1  0.000000  0.500000  0.382837  1
