# generated using pymatgen
data_LiNb12Zn2Ga8CoN4
_symmetry_space_group_name_H-M   'P 1'
_cell_length_a   8.25840070
_cell_length_b   8.31544846
_cell_length_c   8.25840200
_cell_angle_alpha   60.22668649
_cell_angle_beta   60.00000279
_cell_angle_gamma   60.22669245
_symmetry_Int_Tables_number   1
_chemical_formula_structural   LiNb12Zn2Ga8CoN4
_chemical_formula_sum   'Li1 Nb12 Zn2 Ga8 Co1 N4'
_cell_volume   402.38544392
_cell_formula_units_Z   1
loop_
 _symmetry_equiv_pos_site_id
 _symmetry_equiv_pos_as_xyz
  1  'x, y, z'
loop_
 _atom_site_type_symbol
 _atom_site_label
 _atom_site_symmetry_multiplicity
 _atom_site_fract_x
 _atom_site_fract_y
 _atom_site_fract_z
 _atom_site_occupancy
  Li  Li0  1  0.625000  0.625000  0.125000  1
  Nb  Nb1  1  0.439585  0.443620  0.057645  1
  Nb  Nb2  1  0.059149  0.443620  0.057645  1
  Nb  Nb3  1  0.436916  0.059695  0.066472  1
  Nb  Nb4  1  0.066591  0.058363  0.438083  1
  Nb  Nb5  1  0.436961  0.058363  0.438083  1
  Nb  Nb6  1  0.058186  0.443204  0.440424  1
  Nb  Nb7  1  0.810415  0.806380  0.192355  1
  Nb  Nb8  1  0.190851  0.806380  0.192355  1
  Nb  Nb9  1  0.813084  0.190305  0.183528  1
  Nb  Nb10  1  0.183409  0.191637  0.811917  1
  Nb  Nb11  1  0.813039  0.191637  0.811917  1
  Nb  Nb12  1  0.191814  0.806796  0.809576  1
  Zn  Zn13  1  0.125000  0.625000  0.625000  1
  Zn  Zn14  1  0.625000  0.625000  0.625000  1
  Ga  Ga15  1  0.830481  0.849593  0.489447  1
  Ga  Ga16  1  0.831330  0.493706  0.843634  1
  Ga  Ga17  1  0.490428  0.845025  0.837761  1
  Ga  Ga18  1  0.826788  0.845025  0.837761  1
  Ga  Ga19  1  0.419519  0.400407  0.760553  1
  Ga  Ga20  1  0.418670  0.756294  0.406366  1
  Ga  Ga21  1  0.759572  0.404975  0.412239  1
  Ga  Ga22  1  0.423212  0.404975  0.412239  1
  Co  Co23  1  0.625000  0.125000  0.625000  1
  N  N24  1  0.125000  0.125000  0.625000  1
  N  N25  1  0.125000  0.625000  0.125000  1
  N  N26  1  0.625000  0.125000  0.125000  1
  N  N27  1  0.125000  0.125000  0.125000  1
