# generated using pymatgen
data_Tb2TiMn3Co8P7
_symmetry_space_group_name_H-M   'P 1'
_cell_length_a   9.08334546
_cell_length_b   9.08294345
_cell_length_c   3.63270000
_cell_angle_alpha   90.00000000
_cell_angle_beta   90.00000000
_cell_angle_gamma   119.78467424
_symmetry_Int_Tables_number   1
_chemical_formula_structural   Tb2TiMn3Co8P7
_chemical_formula_sum   'Tb2 Ti1 Mn3 Co8 P7'
_cell_volume   260.11826058
_cell_formula_units_Z   1
loop_
 _symmetry_equiv_pos_site_id
 _symmetry_equiv_pos_as_xyz
  1  'x, y, z'
loop_
 _atom_site_type_symbol
 _atom_site_label
 _atom_site_symmetry_multiplicity
 _atom_site_fract_x
 _atom_site_fract_y
 _atom_site_fract_z
 _atom_site_occupancy
  Tb  Tb0  1  0.663825  0.331528  0.000000  1
  Tb  Tb1  1  0.332773  0.665507  0.500000  1
  Ti  Ti2  1  0.105345  0.886524  0.500000  1
  Mn  Mn3  1  0.877535  0.155989  0.000000  1
  Mn  Mn4  1  0.775941  0.897372  0.500000  1
  Mn  Mn5  1  0.127569  0.225471  0.500000  1
  Co  Co6  1  0.059522  0.628990  0.000000  1
  Co  Co7  1  0.571506  0.937860  0.000000  1
  Co  Co8  1  0.369755  0.429510  0.000000  1
  Co  Co9  1  0.276211  0.120726  0.000000  1
  Co  Co10  1  0.840662  0.723812  0.000000  1
  Co  Co11  1  0.438925  0.051666  0.500000  1
  Co  Co12  1  0.613072  0.562343  0.500000  1
  Co  Co13  1  0.951313  0.385776  0.500000  1
  P  P14  1  0.304919  0.888873  0.000000  1
  P  P15  1  0.587316  0.697314  0.000000  1
  P  P16  1  0.110050  0.407309  0.000000  1
  P  P17  1  0.400884  0.289467  0.500000  1
  P  P18  1  0.880785  0.588168  0.500000  1
  P  P19  1  0.714596  0.121092  0.500000  1
  P  P20  1  0.997495  0.004705  0.000000  1
