# generated using pymatgen
data_HoEr2MoO7
_symmetry_space_group_name_H-M   'P 1'
_cell_length_a   6.41089876
_cell_length_b   6.41089836
_cell_length_c   7.44582400
_cell_angle_alpha   90.00000000
_cell_angle_beta   90.00000000
_cell_angle_gamma   109.16793510
_symmetry_Int_Tables_number   1
_chemical_formula_structural   HoEr2MoO7
_chemical_formula_sum   'Ho2 Er4 Mo2 O14'
_cell_volume   289.05484280
_cell_formula_units_Z   2
loop_
 _symmetry_equiv_pos_site_id
 _symmetry_equiv_pos_as_xyz
  1  'x, y, z'
loop_
 _atom_site_type_symbol
 _atom_site_label
 _atom_site_symmetry_multiplicity
 _atom_site_fract_x
 _atom_site_fract_y
 _atom_site_fract_z
 _atom_site_occupancy
  Ho  Ho0  1  0.516685  0.516685  0.500000  1
  Ho  Ho1  1  0.483315  0.483315  0.000000  1
  Er  Er2  1  0.998808  0.464999  0.747481  1
  Er  Er3  1  0.001192  0.535001  0.247481  1
  Er  Er4  1  0.535001  0.001192  0.752519  1
  Er  Er5  1  0.464999  0.998808  0.252519  1
  Mo  Mo6  1  0.001421  0.001421  0.500000  1
  Mo  Mo7  1  0.998579  0.998579  0.000000  1
  O  O8  1  0.637187  0.362813  0.750000  1
  O  O9  1  0.362813  0.637187  0.250000  1
  O  O10  1  0.924469  0.075531  0.750000  1
  O  O11  1  0.075531  0.924469  0.250000  1
  O  O12  1  0.919741  0.672973  0.528684  1
  O  O13  1  0.080259  0.327027  0.028684  1
  O  O14  1  0.327027  0.080259  0.971316  1
  O  O15  1  0.672973  0.919741  0.471316  1
  O  O16  1  0.368436  0.631564  0.750000  1
  O  O17  1  0.631564  0.368436  0.250000  1
  O  O18  1  0.931322  0.680331  0.966580  1
  O  O19  1  0.068678  0.319669  0.466580  1
  O  O20  1  0.319669  0.068678  0.533420  1
  O  O21  1  0.680331  0.931322  0.033420  1
