# generated using pymatgen
data_Nd8Hf12Si15Au
_symmetry_space_group_name_H-M   'P 1'
_cell_length_a   7.38525358
_cell_length_b   7.43426396
_cell_length_c   13.62404743
_cell_angle_alpha   89.95024466
_cell_angle_beta   89.93939872
_cell_angle_gamma   89.97267451
_symmetry_Int_Tables_number   1
_chemical_formula_structural   Nd8Hf12Si15Au
_chemical_formula_sum   'Nd8 Hf12 Si15 Au1'
_cell_volume   748.01288625
_cell_formula_units_Z   1
loop_
 _symmetry_equiv_pos_site_id
 _symmetry_equiv_pos_as_xyz
  1  'x, y, z'
loop_
 _atom_site_type_symbol
 _atom_site_label
 _atom_site_symmetry_multiplicity
 _atom_site_fract_x
 _atom_site_fract_y
 _atom_site_fract_z
 _atom_site_occupancy
  Nd  Nd0  1  0.991326  0.345427  0.214723  1
  Nd  Nd1  1  0.005452  0.655988  0.715308  1
  Nd  Nd2  1  0.154626  0.497374  0.466625  1
  Nd  Nd3  1  0.504997  0.842049  0.033308  1
  Nd  Nd4  1  0.843149  0.503462  0.964829  1
  Nd  Nd5  1  0.495753  0.154930  0.537631  1
  Nd  Nd6  1  0.342262  0.996903  0.785015  1
  Nd  Nd7  1  0.661928  0.998636  0.283393  1
  Hf  Hf8  1  0.174720  0.176196  0.998759  1
  Hf  Hf9  1  0.825862  0.825289  0.500701  1
  Hf  Hf10  1  0.326519  0.681024  0.249060  1
  Hf  Hf11  1  0.675514  0.324854  0.750417  1
  Hf  Hf12  1  0.149595  0.994620  0.374232  1
  Hf  Hf13  1  0.849234  0.006285  0.873527  1
  Hf  Hf14  1  0.506406  0.651690  0.624275  1
  Hf  Hf15  1  0.348918  0.493463  0.875545  1
  Hf  Hf16  1  0.493602  0.348150  0.120744  1
  Hf  Hf17  1  0.654145  0.512016  0.380799  1
  Hf  Hf18  1  0.994798  0.150610  0.627205  1
  Hf  Hf19  1  0.002952  0.847162  0.124282  1
  Si  Si20  1  0.633812  0.704152  0.815666  1
  Si  Si21  1  0.203108  0.866277  0.565580  1
  Si  Si22  1  0.133766  0.796553  0.934094  1
  Si  Si23  1  0.796694  0.133762  0.063953  1
  Si  Si24  1  0.864944  0.199365  0.436998  1
  Si  Si25  1  0.297108  0.366755  0.685259  1
  Si  Si26  1  0.702918  0.634967  0.184598  1
  Si  Si27  1  0.287129  0.046402  0.181659  1
  Si  Si28  1  0.709596  0.949829  0.685656  1
  Si  Si29  1  0.448162  0.791865  0.435570  1
  Si  Si30  1  0.208576  0.550807  0.064161  1
  Si  Si31  1  0.549415  0.208597  0.934213  1
  Si  Si32  1  0.790763  0.448399  0.567237  1
  Si  Si33  1  0.049111  0.292007  0.815153  1
  Si  Si34  1  0.950822  0.708087  0.314063  1
  Au  Au35  1  0.372322  0.296049  0.315761  1
