# generated using pymatgen
data_Nd4Mn3Co(CuO5)4
_symmetry_space_group_name_H-M   'P 1'
_cell_length_a   5.66921600
_cell_length_b   7.82984468
_cell_length_c   8.58224223
_cell_angle_alpha   89.77762030
_cell_angle_beta   90.00000000
_cell_angle_gamma   90.00000000
_symmetry_Int_Tables_number   1
_chemical_formula_structural   Nd4Mn3Co(CuO5)4
_chemical_formula_sum   'Nd4 Mn3 Co1 Cu4 O20'
_cell_volume   380.95497388
_cell_formula_units_Z   1
loop_
 _symmetry_equiv_pos_site_id
 _symmetry_equiv_pos_as_xyz
  1  'x, y, z'
loop_
 _atom_site_type_symbol
 _atom_site_label
 _atom_site_symmetry_multiplicity
 _atom_site_fract_x
 _atom_site_fract_y
 _atom_site_fract_z
 _atom_site_occupancy
  Nd  Nd0  1  0.001952  0.347820  0.675555  1
  Nd  Nd1  1  0.001952  0.652180  0.324445  1
  Nd  Nd2  1  0.001442  0.846187  0.826248  1
  Nd  Nd3  1  0.001442  0.153813  0.173752  1
  Mn  Mn4  1  0.738661  0.000000  0.500000  1
  Mn  Mn5  1  0.736675  0.500000  0.000000  1
  Mn  Mn6  1  0.261406  0.000000  0.500000  1
  Co  Co7  1  0.260577  0.500000  0.000000  1
  Cu  Cu8  1  0.500105  0.066812  0.848783  1
  Cu  Cu9  1  0.500105  0.933188  0.151217  1
  Cu  Cu10  1  0.500073  0.566173  0.652655  1
  Cu  Cu11  1  0.500073  0.433827  0.347345  1
  O  O12  1  0.247341  0.910794  0.287681  1
  O  O13  1  0.247341  0.089206  0.712319  1
  O  O14  1  0.753131  0.410748  0.211933  1
  O  O15  1  0.753131  0.589252  0.788067  1
  O  O16  1  0.752890  0.089801  0.712500  1
  O  O17  1  0.752890  0.910199  0.287500  1
  O  O18  1  0.248215  0.586106  0.791933  1
  O  O19  1  0.248215  0.413894  0.208067  1
  O  O20  1  0.495827  0.351649  0.942636  1
  O  O21  1  0.495827  0.648351  0.057364  1
  O  O22  1  0.499889  0.850106  0.559439  1
  O  O23  1  0.499889  0.149894  0.440561  1
  O  O24  1  0.278464  0.000000  0.000000  1
  O  O25  1  0.720913  0.500000  0.500000  1
  O  O26  1  0.721919  0.000000  0.000000  1
  O  O27  1  0.278330  0.500000  0.500000  1
  O  O28  1  0.000337  0.157922  0.451001  1
  O  O29  1  0.000337  0.842078  0.548999  1
  O  O30  1  0.000326  0.656101  0.048152  1
  O  O31  1  0.000326  0.343899  0.951848  1
