# generated using pymatgen
data_YbTm7(Si4Mo3)4
_symmetry_space_group_name_H-M   'P 1'
_cell_length_a   6.71853451
_cell_length_b   6.91173618
_cell_length_c   12.87224777
_cell_angle_alpha   90.08585541
_cell_angle_beta   89.98549431
_cell_angle_gamma   90.08950458
_symmetry_Int_Tables_number   1
_chemical_formula_structural   YbTm7(Si4Mo3)4
_chemical_formula_sum   'Yb1 Tm7 Si16 Mo12'
_cell_volume   597.74377824
_cell_formula_units_Z   1
loop_
 _symmetry_equiv_pos_site_id
 _symmetry_equiv_pos_as_xyz
  1  'x, y, z'
loop_
 _atom_site_type_symbol
 _atom_site_label
 _atom_site_symmetry_multiplicity
 _atom_site_fract_x
 _atom_site_fract_y
 _atom_site_fract_z
 _atom_site_occupancy
  Yb  Yb0  1  0.997198  0.166115  0.090952  1
  Tm  Tm1  1  0.498025  0.331094  0.094262  1
  Tm  Tm2  1  0.997376  0.169093  0.405624  1
  Tm  Tm3  1  0.503622  0.668461  0.593753  1
  Tm  Tm4  1  0.003267  0.833208  0.907239  1
  Tm  Tm5  1  0.503131  0.667785  0.906424  1
  Tm  Tm6  1  0.003523  0.831825  0.593947  1
  Tm  Tm7  1  0.496867  0.331339  0.405790  1
  Si  Si8  1  0.661826  0.041625  0.546093  1
  Si  Si9  1  0.160210  0.458869  0.953029  1
  Si  Si10  1  0.340768  0.958838  0.046863  1
  Si  Si11  1  0.838462  0.541706  0.453923  1
  Si  Si12  1  0.337735  0.958507  0.453889  1
  Si  Si13  1  0.839706  0.540613  0.047041  1
  Si  Si14  1  0.659388  0.041514  0.953157  1
  Si  Si15  1  0.161461  0.457919  0.546110  1
  Si  Si16  1  0.533475  0.368186  0.749907  1
  Si  Si17  1  0.033842  0.133202  0.750640  1
  Si  Si18  1  0.465817  0.631091  0.250502  1
  Si  Si19  1  0.965925  0.868309  0.250348  1
  Si  Si20  1  0.803026  0.633204  0.750279  1
  Si  Si21  1  0.302448  0.868214  0.750097  1
  Si  Si22  1  0.196524  0.366934  0.248884  1
  Si  Si23  1  0.698786  0.131055  0.249048  1
  Mo  Mo24  1  0.829044  0.336654  0.624864  1
  Mo  Mo25  1  0.330903  0.164204  0.874649  1
  Mo  Mo26  1  0.170465  0.666157  0.125843  1
  Mo  Mo27  1  0.668936  0.835786  0.374899  1
  Mo  Mo28  1  0.170607  0.662774  0.375841  1
  Mo  Mo29  1  0.668947  0.832322  0.125067  1
  Mo  Mo30  1  0.827857  0.337729  0.874080  1
  Mo  Mo31  1  0.330055  0.164512  0.625118  1
  Mo  Mo32  1  0.666425  0.998397  0.749413  1
  Mo  Mo33  1  0.166112  0.501922  0.749892  1
  Mo  Mo34  1  0.334253  0.000533  0.251344  1
  Mo  Mo35  1  0.833991  0.500307  0.251187  1
