# generated using pymatgen
data_Dy13Ho3(LuRh3)4
_symmetry_space_group_name_H-M   'P 1'
_cell_length_a   10.84586501
_cell_length_b   10.84447602
_cell_length_c   6.34007100
_cell_angle_alpha   90.00239867
_cell_angle_beta   89.99776541
_cell_angle_gamma   89.99782333
_symmetry_Int_Tables_number   1
_chemical_formula_structural   Dy13Ho3(LuRh3)4
_chemical_formula_sum   'Dy13 Ho3 Lu4 Rh12'
_cell_volume   745.70471272
_cell_formula_units_Z   1
loop_
 _symmetry_equiv_pos_site_id
 _symmetry_equiv_pos_as_xyz
  1  'x, y, z'
loop_
 _atom_site_type_symbol
 _atom_site_label
 _atom_site_symmetry_multiplicity
 _atom_site_fract_x
 _atom_site_fract_y
 _atom_site_fract_z
 _atom_site_occupancy
  Dy  Dy0  1  0.289639  0.088026  0.378081  1
  Dy  Dy1  1  0.289659  0.911978  0.878073  1
  Dy  Dy2  1  0.710358  0.088039  0.878117  1
  Dy  Dy3  1  0.710242  0.912117  0.378263  1
  Dy  Dy4  1  0.587885  0.789802  0.878233  1
  Dy  Dy5  1  0.587890  0.210179  0.378284  1
  Dy  Dy6  1  0.412067  0.789787  0.378288  1
  Dy  Dy7  1  0.412091  0.210152  0.878325  1
  Dy  Dy8  1  0.210005  0.412112  0.621697  1
  Dy  Dy9  1  0.210104  0.587766  0.121668  1
  Dy  Dy10  1  0.789959  0.411966  0.121711  1
  Dy  Dy11  1  0.789958  0.587712  0.621696  1
  Dy  Dy12  1  0.912302  0.710225  0.121685  1
  Ho  Ho13  1  0.912402  0.290015  0.621506  1
  Ho  Ho14  1  0.087692  0.709931  0.621537  1
  Ho  Ho15  1  0.087594  0.290022  0.121501  1
  Lu  Lu16  1  0.000040  0.000031  0.500248  1
  Lu  Lu17  1  0.000107  0.000190  0.000169  1
  Lu  Lu18  1  0.500006  0.499957  0.000016  1
  Lu  Lu19  1  0.499950  0.499952  0.500100  1
  Rh  Rh20  1  0.848796  0.151962  0.250375  1
  Rh  Rh21  1  0.848675  0.848268  0.749823  1
  Rh  Rh22  1  0.151157  0.151988  0.750348  1
  Rh  Rh23  1  0.151538  0.848154  0.250606  1
  Rh  Rh24  1  0.651752  0.348362  0.749876  1
  Rh  Rh25  1  0.651430  0.651697  0.250139  1
  Rh  Rh26  1  0.348268  0.348352  0.249802  1
  Rh  Rh27  1  0.348246  0.651658  0.749858  1
  Rh  Rh28  1  0.499982  0.999997  0.122261  1
  Rh  Rh29  1  0.500009  0.999980  0.622274  1
  Rh  Rh30  1  0.000090  0.499798  0.877555  1
  Rh  Rh31  1  0.000103  0.499820  0.377883  1
