# generated using pymatgen
data_Ho6Zr5Al11Os7
_symmetry_space_group_name_H-M   'P 1'
_cell_length_a   9.20215975
_cell_length_b   9.19917444
_cell_length_c   9.17680402
_cell_angle_alpha   59.92345304
_cell_angle_beta   59.92377054
_cell_angle_gamma   60.01226176
_symmetry_Int_Tables_number   1
_chemical_formula_structural   Ho6Zr5Al11Os7
_chemical_formula_sum   'Ho6 Zr5 Al11 Os7'
_cell_volume   548.72255496
_cell_formula_units_Z   1
loop_
 _symmetry_equiv_pos_site_id
 _symmetry_equiv_pos_as_xyz
  1  'x, y, z'
loop_
 _atom_site_type_symbol
 _atom_site_label
 _atom_site_symmetry_multiplicity
 _atom_site_fract_x
 _atom_site_fract_y
 _atom_site_fract_z
 _atom_site_occupancy
  Ho  Ho0  1  0.703180  0.703144  0.297870  1
  Ho  Ho1  1  0.295814  0.703183  0.297910  1
  Ho  Ho2  1  0.703203  0.295806  0.297912  1
  Ho  Ho3  1  0.296709  0.296725  0.712717  1
  Ho  Ho4  1  0.693900  0.296674  0.712691  1
  Ho  Ho5  1  0.296669  0.693897  0.712688  1
  Zr  Zr6  1  0.880801  0.880794  0.357557  1
  Zr  Zr7  1  0.876739  0.363129  0.883389  1
  Zr  Zr8  1  0.363130  0.876722  0.883395  1
  Zr  Zr9  1  0.876735  0.876706  0.883380  1
  Zr  Zr10  1  0.124707  0.124725  0.625941  1
  Al  Al11  1  0.119450  0.640526  0.120474  1
  Al  Al12  1  0.640546  0.119461  0.120445  1
  Al  Al13  1  0.119494  0.119508  0.120510  1
  Al  Al14  1  0.666694  0.666700  0.999966  1
  Al  Al15  1  0.668767  0.995652  0.666936  1
  Al  Al16  1  0.995658  0.668751  0.666928  1
  Al  Al17  1  0.668731  0.668696  0.666922  1
  Al  Al18  1  0.328373  0.328383  0.014808  1
  Al  Al19  1  0.336266  0.003232  0.324073  1
  Al  Al20  1  0.003210  0.336301  0.324076  1
  Al  Al21  1  0.336326  0.336377  0.324065  1
  Os  Os22  1  0.002588  0.002598  0.992193  1
  Os  Os23  1  0.000557  0.000552  0.499296  1
  Os  Os24  1  0.499585  0.000570  0.499296  1
  Os  Os25  1  0.000579  0.499581  0.499284  1
  Os  Os26  1  0.499093  0.499106  0.998421  1
  Os  Os27  1  0.003415  0.499080  0.998440  1
  Os  Os28  1  0.499081  0.003421  0.998419  1
