# generated using pymatgen
data_Zr8AlTc4Os3
_symmetry_space_group_name_H-M   'P 1'
_cell_length_a   6.61710700
_cell_length_b   4.66128800
_cell_length_c   9.36623600
_cell_angle_alpha   89.99996936
_cell_angle_beta   90.00069146
_cell_angle_gamma   90.00007151
_symmetry_Int_Tables_number   1
_chemical_formula_structural   Zr8AlTc4Os3
_chemical_formula_sum   'Zr8 Al1 Tc4 Os3'
_cell_volume   288.89444469
_cell_formula_units_Z   1
loop_
 _symmetry_equiv_pos_site_id
 _symmetry_equiv_pos_as_xyz
  1  'x, y, z'
loop_
 _atom_site_type_symbol
 _atom_site_label
 _atom_site_symmetry_multiplicity
 _atom_site_fract_x
 _atom_site_fract_y
 _atom_site_fract_z
 _atom_site_occupancy
  Zr  Zr0  1  0.991588  0.749999  0.125001  1
  Zr  Zr1  1  0.508503  0.749999  0.125002  1
  Zr  Zr2  1  0.996695  0.249999  0.379739  1
  Zr  Zr3  1  0.503410  0.249999  0.379741  1
  Zr  Zr4  1  0.499849  0.749999  0.625005  1
  Zr  Zr5  1  0.000031  0.749999  0.625010  1
  Zr  Zr6  1  0.503300  0.249999  0.870253  1
  Zr  Zr7  1  0.996621  0.249999  0.870268  1
  Al  Al8  1  0.250050  0.249999  0.125029  1
  Tc  Tc9  1  0.750039  0.249999  0.124991  1
  Tc  Tc10  1  0.250042  0.749999  0.370216  1
  Tc  Tc11  1  0.749958  0.249999  0.624992  1
  Tc  Tc12  1  0.249961  0.750000  0.879773  1
  Os  Os13  1  0.750042  0.749999  0.375849  1
  Os  Os14  1  0.249956  0.249999  0.624996  1
  Os  Os15  1  0.749957  0.749999  0.874135  1
