# generated using pymatgen
data_Lu9ScTl3In5Co4
_symmetry_space_group_name_H-M   'P 1'
_cell_length_a   3.49496400
_cell_length_b   7.82070895
_cell_length_c   17.78396767
_cell_angle_alpha   89.87928032
_cell_angle_beta   90.00000000
_cell_angle_gamma   90.00000000
_symmetry_Int_Tables_number   1
_chemical_formula_structural   Lu9ScTl3In5Co4
_chemical_formula_sum   'Lu9 Sc1 Tl3 In5 Co4'
_cell_volume   486.08982077
_cell_formula_units_Z   1
loop_
 _symmetry_equiv_pos_site_id
 _symmetry_equiv_pos_as_xyz
  1  'x, y, z'
loop_
 _atom_site_type_symbol
 _atom_site_label
 _atom_site_symmetry_multiplicity
 _atom_site_fract_x
 _atom_site_fract_y
 _atom_site_fract_z
 _atom_site_occupancy
  Lu  Lu0  1  0.500000  0.499177  0.499924  1
  Lu  Lu1  1  0.500000  0.882003  0.406823  1
  Lu  Lu2  1  0.500000  0.116921  0.593010  1
  Lu  Lu3  1  0.500000  0.617175  0.910314  1
  Lu  Lu4  1  0.500000  0.383601  0.090785  1
  Lu  Lu5  1  0.500000  0.246433  0.276676  1
  Lu  Lu6  1  0.500000  0.752379  0.722143  1
  Lu  Lu7  1  0.500000  0.251972  0.781119  1
  Lu  Lu8  1  0.500000  0.749248  0.219644  1
  Sc  Sc9  1  0.500000  0.998656  0.000074  1
  Tl  Tl10  1  0.000000  0.202893  0.433215  1
  Tl  Tl11  1  0.000000  0.796275  0.565987  1
  Tl  Tl12  1  0.000000  0.292463  0.936760  1
  In  In13  1  0.000000  0.708001  0.065581  1
  In  In14  1  0.000000  0.569525  0.346620  1
  In  In15  1  0.000000  0.428810  0.653416  1
  In  In16  1  0.000000  0.929469  0.850781  1
  In  In17  1  0.000000  0.066717  0.148296  1
  Co  Co18  1  0.000000  0.966340  0.300260  1
  Co  Co19  1  0.000000  0.034455  0.700016  1
  Co  Co20  1  0.000000  0.535720  0.802818  1
  Co  Co21  1  0.000000  0.471767  0.195738  1
