# generated using pymatgen
data_Ir3AuF24
_symmetry_space_group_name_H-M   'P 1'
_cell_length_a   5.16299411
_cell_length_b   8.92087000
_cell_length_c   9.81256814
_cell_angle_alpha   90.00000000
_cell_angle_beta   89.77346341
_cell_angle_gamma   90.00000000
_symmetry_Int_Tables_number   1
_chemical_formula_structural   Ir3AuF24
_chemical_formula_sum   'Ir3 Au1 F24'
_cell_volume   451.94764838
_cell_formula_units_Z   1
loop_
 _symmetry_equiv_pos_site_id
 _symmetry_equiv_pos_as_xyz
  1  'x, y, z'
loop_
 _atom_site_type_symbol
 _atom_site_label
 _atom_site_symmetry_multiplicity
 _atom_site_fract_x
 _atom_site_fract_y
 _atom_site_fract_z
 _atom_site_occupancy
  Ir  Ir0  1  0.905786  0.250000  0.372662  1
  Ir  Ir1  1  0.406356  0.750000  0.126235  1
  Ir  Ir2  1  0.094055  0.750000  0.627628  1
  Au  Au3  1  0.593882  0.250000  0.873373  1
  F  F4  1  0.248681  0.601668  0.518721  1
  F  F5  1  0.251673  0.898081  0.018868  1
  F  F6  1  0.939738  0.897972  0.735684  1
  F  F7  1  0.195611  0.250000  0.486637  1
  F  F8  1  0.752510  0.097197  0.985477  1
  F  F9  1  0.559540  0.898203  0.234901  1
  F  F10  1  0.292895  0.250000  0.990746  1
  F  F11  1  0.248681  0.898332  0.518721  1
  F  F12  1  0.751105  0.398714  0.480542  1
  F  F13  1  0.435465  0.402647  0.761272  1
  F  F14  1  0.752510  0.402803  0.985477  1
  F  F15  1  0.804767  0.750000  0.512635  1
  F  F16  1  0.697393  0.750000  0.011931  1
  F  F17  1  0.251673  0.601919  0.018868  1
  F  F18  1  0.435465  0.097353  0.761272  1
  F  F19  1  0.060613  0.398332  0.264426  1
  F  F20  1  0.614940  0.250000  0.259401  1
  F  F21  1  0.559540  0.601797  0.234901  1
  F  F22  1  0.895783  0.250000  0.756390  1
  F  F23  1  0.115085  0.750000  0.241479  1
  F  F24  1  0.060613  0.101668  0.264426  1
  F  F25  1  0.939738  0.602028  0.735684  1
  F  F26  1  0.384795  0.750000  0.741102  1
  F  F27  1  0.751105  0.101286  0.480542  1
