# generated using pymatgen
data_NdEr3ThSn4
_symmetry_space_group_name_H-M   'P 1'
_cell_length_a   8.12372900
_cell_length_b   8.22672200
_cell_length_c   15.52181700
_cell_angle_alpha   90.00000000
_cell_angle_beta   90.00000000
_cell_angle_gamma   90.00000000
_symmetry_Int_Tables_number   1
_chemical_formula_structural   NdEr3ThSn4
_chemical_formula_sum   'Nd4 Er12 Th4 Sn16'
_cell_volume   1037.34879767
_cell_formula_units_Z   4
loop_
 _symmetry_equiv_pos_site_id
 _symmetry_equiv_pos_as_xyz
  1  'x, y, z'
loop_
 _atom_site_type_symbol
 _atom_site_label
 _atom_site_symmetry_multiplicity
 _atom_site_fract_x
 _atom_site_fract_y
 _atom_site_fract_z
 _atom_site_occupancy
  Nd  Nd0  1  0.520360  0.320897  0.902416  1
  Nd  Nd1  1  0.020360  0.179103  0.597584  1
  Nd  Nd2  1  0.479640  0.679103  0.402416  1
  Nd  Nd3  1  0.979640  0.820897  0.097584  1
  Er  Er4  1  0.362382  0.836174  0.876479  1
  Er  Er5  1  0.862382  0.663826  0.623521  1
  Er  Er6  1  0.637618  0.163826  0.376479  1
  Er  Er7  1  0.137618  0.336174  0.123521  1
  Er  Er8  1  0.637916  0.163088  0.123718  1
  Er  Er9  1  0.137916  0.336912  0.376282  1
  Er  Er10  1  0.362084  0.836912  0.623718  1
  Er  Er11  1  0.862084  0.663088  0.876282  1
  Er  Er12  1  0.192961  0.501181  0.750428  1
  Er  Er13  1  0.692961  0.998819  0.749572  1
  Er  Er14  1  0.807039  0.498819  0.250428  1
  Er  Er15  1  0.307039  0.001181  0.249572  1
  Th  Th16  1  0.481693  0.679307  0.096949  1
  Th  Th17  1  0.981693  0.820693  0.403051  1
  Th  Th18  1  0.518307  0.320693  0.596949  1
  Th  Th19  1  0.018307  0.179307  0.903051  1
  Sn  Sn20  1  0.297719  0.037937  0.042157  1
  Sn  Sn21  1  0.797719  0.462063  0.457843  1
  Sn  Sn22  1  0.702281  0.962063  0.542157  1
  Sn  Sn23  1  0.202281  0.537937  0.957843  1
  Sn  Sn24  1  0.701625  0.960162  0.957867  1
  Sn  Sn25  1  0.201625  0.539838  0.542133  1
  Sn  Sn26  1  0.298375  0.039838  0.457867  1
  Sn  Sn27  1  0.798375  0.460162  0.042133  1
  Sn  Sn28  1  0.559167  0.623471  0.749308  1
  Sn  Sn29  1  0.059167  0.876529  0.750692  1
  Sn  Sn30  1  0.440833  0.376529  0.249308  1
  Sn  Sn31  1  0.940833  0.123471  0.250692  1
  Sn  Sn32  1  0.325869  0.143010  0.750295  1
  Sn  Sn33  1  0.825869  0.356990  0.749705  1
  Sn  Sn34  1  0.674131  0.856990  0.250295  1
  Sn  Sn35  1  0.174131  0.643010  0.249705  1
