# generated using pymatgen
data_Pr4Y2Ir13Rh5
_symmetry_space_group_name_H-M   'P 1'
_cell_length_a   5.36627900
_cell_length_b   5.36627967
_cell_length_c   17.64323000
_cell_angle_alpha   90.00000000
_cell_angle_beta   90.00000000
_cell_angle_gamma   119.99998971
_symmetry_Int_Tables_number   1
_chemical_formula_structural   Pr4Y2Ir13Rh5
_chemical_formula_sum   'Pr4 Y2 Ir13 Rh5'
_cell_volume   440.00268189
_cell_formula_units_Z   1
loop_
 _symmetry_equiv_pos_site_id
 _symmetry_equiv_pos_as_xyz
  1  'x, y, z'
loop_
 _atom_site_type_symbol
 _atom_site_label
 _atom_site_symmetry_multiplicity
 _atom_site_fract_x
 _atom_site_fract_y
 _atom_site_fract_z
 _atom_site_occupancy
  Pr  Pr0  1  0.333333  0.666667  0.958159  1
  Pr  Pr1  1  0.666667  0.333333  0.041841  1
  Pr  Pr2  1  0.333333  0.666667  0.747148  1
  Pr  Pr3  1  0.666667  0.333333  0.252852  1
  Y  Y4  1  0.666667  0.333333  0.459897  1
  Y  Y5  1  0.333333  0.666667  0.540103  1
  Ir  Ir6  1  0.167794  0.832206  0.376287  1
  Ir  Ir7  1  0.167794  0.335588  0.376287  1
  Ir  Ir8  1  0.664412  0.832206  0.376287  1
  Ir  Ir9  1  0.832206  0.167794  0.623713  1
  Ir  Ir10  1  0.832206  0.664412  0.623713  1
  Ir  Ir11  1  0.335588  0.167794  0.623713  1
  Ir  Ir12  1  0.833445  0.166555  0.870137  1
  Ir  Ir13  1  0.833445  0.666891  0.870137  1
  Ir  Ir14  1  0.333109  0.166555  0.870137  1
  Ir  Ir15  1  0.166555  0.833445  0.129863  1
  Ir  Ir16  1  0.166555  0.333109  0.129863  1
  Ir  Ir17  1  0.666891  0.833445  0.129863  1
  Ir  Ir18  1  0.000000  0.000000  0.500000  1
  Rh  Rh19  1  0.333333  0.666667  0.251672  1
  Rh  Rh20  1  0.666667  0.333333  0.748328  1
  Rh  Rh21  1  0.000000  0.000000  0.252831  1
  Rh  Rh22  1  0.000000  0.000000  0.747169  1
  Rh  Rh23  1  0.000000  0.000000  0.000000  1
