# generated using pymatgen
data_K4AlCr3F16
_symmetry_space_group_name_H-M   'P 1'
_cell_length_a   7.59528339
_cell_length_b   6.58819676
_cell_length_c   7.77137261
_cell_angle_alpha   72.62895186
_cell_angle_beta   89.96393254
_cell_angle_gamma   90.05105537
_symmetry_Int_Tables_number   1
_chemical_formula_structural   K4AlCr3F16
_chemical_formula_sum   'K4 Al1 Cr3 F16'
_cell_volume   371.13711757
_cell_formula_units_Z   1
loop_
 _symmetry_equiv_pos_site_id
 _symmetry_equiv_pos_as_xyz
  1  'x, y, z'
loop_
 _atom_site_type_symbol
 _atom_site_label
 _atom_site_symmetry_multiplicity
 _atom_site_fract_x
 _atom_site_fract_y
 _atom_site_fract_z
 _atom_site_occupancy
  K  K0  1  0.246974  0.540468  0.868360  1
  K  K1  1  0.249210  0.552797  0.362153  1
  K  K2  1  0.753026  0.459532  0.131640  1
  K  K3  1  0.750790  0.447203  0.637847  1
  Al  Al4  1  0.000000  0.000000  0.000000  1
  Cr  Cr5  1  0.500000  0.000000  0.000000  1
  Cr  Cr6  1  0.000000  0.000000  0.500000  1
  Cr  Cr7  1  0.500000  0.000000  0.500000  1
  F  F8  1  0.249897  0.067328  0.508252  1
  F  F9  1  0.038348  0.721462  0.066195  1
  F  F10  1  0.456798  0.699875  0.580848  1
  F  F11  1  0.528557  0.003797  0.749065  1
  F  F12  1  0.757205  0.945835  0.033637  1
  F  F13  1  0.460374  0.699741  0.071684  1
  F  F14  1  0.961652  0.278538  0.933805  1
  F  F15  1  0.242795  0.054165  0.966363  1
  F  F16  1  0.543202  0.300125  0.419152  1
  F  F17  1  0.957778  0.300127  0.419545  1
  F  F18  1  0.021280  0.997303  0.244178  1
  F  F19  1  0.471443  0.996203  0.250935  1
  F  F20  1  0.978720  0.002697  0.755822  1
  F  F21  1  0.042222  0.699873  0.580455  1
  F  F22  1  0.539626  0.300259  0.928316  1
  F  F23  1  0.750103  0.932672  0.491748  1
