# generated using pymatgen
data_Ho18ErLuPb16
_symmetry_space_group_name_H-M   'P 1'
_cell_length_a   8.17849400
_cell_length_b   8.24817212
_cell_length_c   15.59169000
_cell_angle_alpha   90.00000000
_cell_angle_beta   90.00000000
_cell_angle_gamma   90.00994042
_symmetry_Int_Tables_number   1
_chemical_formula_structural   Ho18ErLuPb16
_chemical_formula_sum   'Ho18 Er1 Lu1 Pb16'
_cell_volume   1051.77838046
_cell_formula_units_Z   1
loop_
 _symmetry_equiv_pos_site_id
 _symmetry_equiv_pos_as_xyz
  1  'x, y, z'
loop_
 _atom_site_type_symbol
 _atom_site_label
 _atom_site_symmetry_multiplicity
 _atom_site_fract_x
 _atom_site_fract_y
 _atom_site_fract_z
 _atom_site_occupancy
  Ho  Ho0  1  0.377223  0.841336  0.879063  1
  Ho  Ho1  1  0.877413  0.658661  0.621069  1
  Ho  Ho2  1  0.622284  0.158452  0.378993  1
  Ho  Ho3  1  0.122885  0.341146  0.121007  1
  Ho  Ho4  1  0.622284  0.158452  0.121007  1
  Ho  Ho5  1  0.122885  0.341146  0.378993  1
  Ho  Ho6  1  0.377223  0.841336  0.620937  1
  Ho  Ho7  1  0.877413  0.658661  0.878931  1
  Ho  Ho8  1  0.536872  0.323845  0.899966  1
  Ho  Ho9  1  0.037019  0.176290  0.599929  1
  Ho  Ho10  1  0.462879  0.676519  0.400121  1
  Ho  Ho11  1  0.963196  0.823970  0.099969  1
  Ho  Ho12  1  0.462879  0.676519  0.099879  1
  Ho  Ho13  1  0.963196  0.823970  0.400031  1
  Ho  Ho14  1  0.536872  0.323845  0.600034  1
  Ho  Ho15  1  0.037019  0.176290  0.900071  1
  Ho  Ho16  1  0.708821  0.995912  0.750000  1
  Ho  Ho17  1  0.791112  0.495906  0.250000  1
  Er  Er18  1  0.208800  0.504266  0.750000  1
  Lu  Lu19  1  0.291107  0.004370  0.250000  1
  Pb  Pb20  1  0.280719  0.032790  0.043247  1
  Pb  Pb21  1  0.780774  0.467014  0.457230  1
  Pb  Pb22  1  0.719289  0.966967  0.542843  1
  Pb  Pb23  1  0.219144  0.532839  0.957061  1
  Pb  Pb24  1  0.719289  0.966967  0.957157  1
  Pb  Pb25  1  0.219144  0.532839  0.542939  1
  Pb  Pb26  1  0.280719  0.032790  0.456753  1
  Pb  Pb27  1  0.780774  0.467014  0.042770  1
  Pb  Pb28  1  0.571998  0.625799  0.750000  1
  Pb  Pb29  1  0.072547  0.873888  0.750000  1
  Pb  Pb30  1  0.427524  0.373507  0.250000  1
  Pb  Pb31  1  0.928638  0.125459  0.250000  1
  Pb  Pb32  1  0.348635  0.154280  0.750000  1
  Pb  Pb33  1  0.848917  0.345830  0.750000  1
  Pb  Pb34  1  0.650913  0.845930  0.250000  1
  Pb  Pb35  1  0.151597  0.655195  0.250000  1
