# generated using pymatgen
data_Er2Sc3Ge4
_symmetry_space_group_name_H-M   'P 1'
_cell_length_a   7.21237900
_cell_length_b   7.45277600
_cell_length_c   14.04897500
_cell_angle_alpha   90.00000000
_cell_angle_beta   90.00000000
_cell_angle_gamma   90.00000000
_symmetry_Int_Tables_number   1
_chemical_formula_structural   Er2Sc3Ge4
_chemical_formula_sum   'Er8 Sc12 Ge16'
_cell_volume   755.16394780
_cell_formula_units_Z   4
loop_
 _symmetry_equiv_pos_site_id
 _symmetry_equiv_pos_as_xyz
  1  'x, y, z'
loop_
 _atom_site_type_symbol
 _atom_site_label
 _atom_site_symmetry_multiplicity
 _atom_site_fract_x
 _atom_site_fract_y
 _atom_site_fract_z
 _atom_site_occupancy
  Er  Er0  1  0.998924  0.176407  0.096213  1
  Er  Er1  1  0.001076  0.823593  0.903787  1
  Er  Er2  1  0.501076  0.676407  0.903787  1
  Er  Er3  1  0.001076  0.823593  0.596213  1
  Er  Er4  1  0.498924  0.323593  0.096213  1
  Er  Er5  1  0.998924  0.176407  0.403787  1
  Er  Er6  1  0.498924  0.323593  0.403787  1
  Er  Er7  1  0.501076  0.676407  0.596213  1
  Sc  Sc8  1  0.175542  0.500374  0.750000  1
  Sc  Sc9  1  0.824458  0.499626  0.250000  1
  Sc  Sc10  1  0.324458  0.000374  0.250000  1
  Sc  Sc11  1  0.675542  0.999626  0.750000  1
  Sc  Sc12  1  0.340971  0.168426  0.624609  1
  Sc  Sc13  1  0.659029  0.831574  0.375391  1
  Sc  Sc14  1  0.159029  0.668426  0.375391  1
  Sc  Sc15  1  0.659029  0.831574  0.124609  1
  Sc  Sc16  1  0.840971  0.331574  0.624609  1
  Sc  Sc17  1  0.340971  0.168426  0.875391  1
  Sc  Sc18  1  0.840971  0.331574  0.875391  1
  Sc  Sc19  1  0.159029  0.668426  0.124609  1
  Ge  Ge20  1  0.178569  0.459447  0.541511  1
  Ge  Ge21  1  0.821431  0.540553  0.458489  1
  Ge  Ge22  1  0.321431  0.959447  0.458489  1
  Ge  Ge23  1  0.821431  0.540553  0.041511  1
  Ge  Ge24  1  0.678569  0.040553  0.541511  1
  Ge  Ge25  1  0.178569  0.459447  0.958489  1
  Ge  Ge26  1  0.678569  0.040553  0.958489  1
  Ge  Ge27  1  0.321431  0.959447  0.041511  1
  Ge  Ge28  1  0.039728  0.125784  0.750000  1
  Ge  Ge29  1  0.960272  0.874216  0.250000  1
  Ge  Ge30  1  0.460272  0.625784  0.250000  1
  Ge  Ge31  1  0.539728  0.374216  0.750000  1
  Ge  Ge32  1  0.306983  0.861139  0.750000  1
  Ge  Ge33  1  0.693017  0.138861  0.250000  1
  Ge  Ge34  1  0.193017  0.361139  0.250000  1
  Ge  Ge35  1  0.806983  0.638861  0.750000  1
