# generated using pymatgen
data_LuHf3Si4W
_symmetry_space_group_name_H-M   'P 1'
_cell_length_a   7.01663500
_cell_length_b   7.01663500
_cell_length_c   12.81605200
_cell_angle_alpha   90.00000000
_cell_angle_beta   90.00000000
_cell_angle_gamma   90.00000000
_symmetry_Int_Tables_number   1
_chemical_formula_structural   LuHf3Si4W
_chemical_formula_sum   'Lu4 Hf12 Si16 W4'
_cell_volume   630.97482485
_cell_formula_units_Z   4
loop_
 _symmetry_equiv_pos_site_id
 _symmetry_equiv_pos_as_xyz
  1  'x, y, z'
loop_
 _atom_site_type_symbol
 _atom_site_label
 _atom_site_symmetry_multiplicity
 _atom_site_fract_x
 _atom_site_fract_y
 _atom_site_fract_z
 _atom_site_occupancy
  Lu  Lu0  1  0.495344  0.156960  0.531439  1
  Lu  Lu1  1  0.504656  0.843040  0.031439  1
  Lu  Lu2  1  0.656960  0.004656  0.281439  1
  Lu  Lu3  1  0.343040  0.995344  0.781439  1
  Hf  Hf4  1  0.846359  0.500225  0.969051  1
  Hf  Hf5  1  0.153641  0.499775  0.469051  1
  Hf  Hf6  1  0.000225  0.653641  0.719051  1
  Hf  Hf7  1  0.999775  0.346359  0.219051  1
  Hf  Hf8  1  0.494632  0.355725  0.125188  1
  Hf  Hf9  1  0.505368  0.644275  0.625188  1
  Hf  Hf10  1  0.855725  0.005368  0.875188  1
  Hf  Hf11  1  0.144275  0.994632  0.375188  1
  Hf  Hf12  1  0.645574  0.503059  0.374833  1
  Hf  Hf13  1  0.354426  0.496941  0.874833  1
  Hf  Hf14  1  0.003059  0.854426  0.124833  1
  Hf  Hf15  1  0.996941  0.145574  0.624833  1
  Si  Si16  1  0.801807  0.149727  0.070388  1
  Si  Si17  1  0.198193  0.850273  0.570388  1
  Si  Si18  1  0.649727  0.698193  0.820388  1
  Si  Si19  1  0.350273  0.301807  0.320388  1
  Si  Si20  1  0.859574  0.206508  0.429198  1
  Si  Si21  1  0.140426  0.793492  0.929198  1
  Si  Si22  1  0.706508  0.640426  0.179198  1
  Si  Si23  1  0.293492  0.359574  0.679198  1
  Si  Si24  1  0.549422  0.201980  0.933170  1
  Si  Si25  1  0.450578  0.798020  0.433170  1
  Si  Si26  1  0.701980  0.950578  0.683170  1
  Si  Si27  1  0.298020  0.049422  0.183170  1
  Si  Si28  1  0.804742  0.454532  0.566604  1
  Si  Si29  1  0.195258  0.545468  0.066604  1
  Si  Si30  1  0.954532  0.695258  0.316604  1
  Si  Si31  1  0.045468  0.304742  0.816604  1
  W  W32  1  0.678344  0.328895  0.750128  1
  W  W33  1  0.321656  0.671105  0.250128  1
  W  W34  1  0.828895  0.821656  0.500128  1
  W  W35  1  0.171105  0.178344  0.000128  1
