# generated using pymatgen
data_Tb14Th2MgCd3Ni4
_symmetry_space_group_name_H-M   'P 1'
_cell_length_a   9.61280272
_cell_length_b   9.61280188
_cell_length_c   9.63527295
_cell_angle_alpha   60.03528465
_cell_angle_beta   60.03528442
_cell_angle_gamma   59.88827163
_symmetry_Int_Tables_number   1
_chemical_formula_structural   Tb14Th2MgCd3Ni4
_chemical_formula_sum   'Tb14 Th2 Mg1 Cd3 Ni4'
_cell_volume   629.37866265
_cell_formula_units_Z   1
loop_
 _symmetry_equiv_pos_site_id
 _symmetry_equiv_pos_as_xyz
  1  'x, y, z'
loop_
 _atom_site_type_symbol
 _atom_site_label
 _atom_site_symmetry_multiplicity
 _atom_site_fract_x
 _atom_site_fract_y
 _atom_site_fract_z
 _atom_site_occupancy
  Tb  Tb0  1  0.346641  0.954428  0.349268  1
  Tb  Tb1  1  0.954428  0.346641  0.349268  1
  Tb  Tb2  1  0.810323  0.190264  0.190213  1
  Tb  Tb3  1  0.189476  0.812829  0.811973  1
  Tb  Tb4  1  0.190264  0.810323  0.190213  1
  Tb  Tb5  1  0.812829  0.189476  0.811973  1
  Tb  Tb6  1  0.190524  0.190524  0.811088  1
  Tb  Tb7  1  0.812499  0.812499  0.187839  1
  Tb  Tb8  1  0.938498  0.566079  0.565754  1
  Tb  Tb9  1  0.563340  0.936548  0.934302  1
  Tb  Tb10  1  0.566079  0.938498  0.565754  1
  Tb  Tb11  1  0.936548  0.563340  0.934302  1
  Tb  Tb12  1  0.564621  0.564621  0.937624  1
  Tb  Tb13  1  0.935606  0.935606  0.563327  1
  Th  Th14  1  0.343481  0.343481  0.348478  1
  Th  Th15  1  0.342730  0.342730  0.962911  1
  Mg  Mg16  1  0.576271  0.576271  0.576159  1
  Cd  Cd17  1  0.582379  0.582379  0.254827  1
  Cd  Cd18  1  0.582946  0.256049  0.580210  1
  Cd  Cd19  1  0.256049  0.582946  0.580210  1
  Ni  Ni20  1  0.144763  0.144763  0.138083  1
  Ni  Ni21  1  0.143203  0.143203  0.572068  1
  Ni  Ni22  1  0.147044  0.569459  0.142078  1
  Ni  Ni23  1  0.569459  0.147044  0.142078  1
