# generated using pymatgen
data_Ho(TmSe2)3
_symmetry_space_group_name_H-M   'P 1'
_cell_length_a   7.02748409
_cell_length_b   7.01918953
_cell_length_c   12.81090439
_cell_angle_alpha   100.66952565
_cell_angle_beta   100.69388226
_cell_angle_gamma   108.89598427
_symmetry_Int_Tables_number   1
_chemical_formula_structural   Ho(TmSe2)3
_chemical_formula_sum   'Ho2 Tm6 Se12'
_cell_volume   566.67884958
_cell_formula_units_Z   2
loop_
 _symmetry_equiv_pos_site_id
 _symmetry_equiv_pos_as_xyz
  1  'x, y, z'
loop_
 _atom_site_type_symbol
 _atom_site_label
 _atom_site_symmetry_multiplicity
 _atom_site_fract_x
 _atom_site_fract_y
 _atom_site_fract_z
 _atom_site_occupancy
  Ho  Ho0  1  0.377470  0.127486  0.754943  1
  Ho  Ho1  1  0.959003  0.209028  0.917976  1
  Tm  Tm2  1  0.041586  0.791598  0.083167  1
  Tm  Tm3  1  0.622737  0.872745  0.245455  1
  Tm  Tm4  1  0.127593  0.377600  0.255226  1
  Tm  Tm5  1  0.208593  0.958598  0.417227  1
  Tm  Tm6  1  0.791189  0.041185  0.582366  1
  Tm  Tm7  1  0.872446  0.622453  0.744879  1
  Se  Se8  1  0.804580  0.047986  0.088972  1
  Se  Se9  1  0.284712  0.541136  0.089085  1
  Se  Se10  1  0.366762  0.117075  0.250046  1
  Se  Se11  1  0.883091  0.633091  0.249995  1
  Se  Se12  1  0.951257  0.194753  0.412011  1
  Se  Se13  1  0.460640  0.717008  0.411957  1
  Se  Se14  1  0.540387  0.283746  0.586918  1
  Se  Se15  1  0.046580  0.803259  0.586858  1
  Se  Se16  1  0.116210  0.368641  0.748786  1
  Se  Se17  1  0.632661  0.879989  0.748715  1
  Se  Se18  1  0.717442  0.464514  0.912711  1
  Se  Se19  1  0.195062  0.948110  0.912703  1
