# generated using pymatgen
data_CaSmB4RuRh4
_symmetry_space_group_name_H-M   'P 1'
_cell_length_a   7.50738007
_cell_length_b   6.32648424
_cell_length_c   5.61836304
_cell_angle_alpha   77.62942907
_cell_angle_beta   55.39999754
_cell_angle_gamma   47.01360074
_symmetry_Int_Tables_number   1
_chemical_formula_structural   CaSmB4RuRh4
_chemical_formula_sum   'Ca1 Sm1 B4 Ru1 Rh4'
_cell_volume   153.90838333
_cell_formula_units_Z   1
loop_
 _symmetry_equiv_pos_site_id
 _symmetry_equiv_pos_as_xyz
  1  'x, y, z'
loop_
 _atom_site_type_symbol
 _atom_site_label
 _atom_site_symmetry_multiplicity
 _atom_site_fract_x
 _atom_site_fract_y
 _atom_site_fract_z
 _atom_site_occupancy
  Ca  Ca0  1  0.146597  0.146597  0.853403  1
  Sm  Sm1  1  0.859538  0.859538  0.140462  1
  B  B2  1  0.785836  0.477151  0.535489  1
  B  B3  1  0.199630  0.534292  0.478643  1
  B  B4  1  0.534292  0.199630  0.787436  1
  B  B5  1  0.477151  0.785836  0.201524  1
  Ru  Ru6  1  0.748683  0.748683  0.751317  1
  Rh  Rh7  1  0.499711  0.499711  0.500289  1
  Rh  Rh8  1  0.498786  0.498786  0.001214  1
  Rh  Rh9  1  0.000963  0.000963  0.499037  1
  Rh  Rh10  1  0.248814  0.248814  0.251186  1
