# generated using pymatgen
data_ErTmU(GaRu)3
_symmetry_space_group_name_H-M   'P 1'
_cell_length_a   6.86418238
_cell_length_b   6.86262726
_cell_length_c   3.95939200
_cell_angle_alpha   90.00000000
_cell_angle_beta   90.00000000
_cell_angle_gamma   116.24400766
_symmetry_Int_Tables_number   1
_chemical_formula_structural   ErTmU(GaRu)3
_chemical_formula_sum   'Er1 Tm1 U1 Ga3 Ru3'
_cell_volume   167.28652038
_cell_formula_units_Z   1
loop_
 _symmetry_equiv_pos_site_id
 _symmetry_equiv_pos_as_xyz
  1  'x, y, z'
loop_
 _atom_site_type_symbol
 _atom_site_label
 _atom_site_symmetry_multiplicity
 _atom_site_fract_x
 _atom_site_fract_y
 _atom_site_fract_z
 _atom_site_occupancy
  Er  Er0  1  0.411571  0.007150  0.500000  1
  Tm  Tm1  1  0.007365  0.411534  0.500000  1
  U  U2  1  0.617560  0.617389  0.500000  1
  Ga  Ga3  1  0.743571  0.034789  0.000000  1
  Ga  Ga4  1  0.034439  0.742777  0.000000  1
  Ga  Ga5  1  0.210750  0.211172  0.000000  1
  Ru  Ru6  1  0.378743  0.636881  0.000000  1
  Ru  Ru7  1  0.637332  0.379161  0.000000  1
  Ru  Ru8  1  0.958670  0.959148  0.500000  1
