# generated using pymatgen
data_SmHo3Co4(P3Rh4)4
_symmetry_space_group_name_H-M   'P 1'
_cell_length_a   3.85707100
_cell_length_b   10.77920210
_cell_length_c   12.42728912
_cell_angle_alpha   90.01570032
_cell_angle_beta   90.00000000
_cell_angle_gamma   90.00000000
_symmetry_Int_Tables_number   1
_chemical_formula_structural   SmHo3Co4(P3Rh4)4
_chemical_formula_sum   'Sm1 Ho3 Co4 P12 Rh16'
_cell_volume   516.67879001
_cell_formula_units_Z   1
loop_
 _symmetry_equiv_pos_site_id
 _symmetry_equiv_pos_as_xyz
  1  'x, y, z'
loop_
 _atom_site_type_symbol
 _atom_site_label
 _atom_site_symmetry_multiplicity
 _atom_site_fract_x
 _atom_site_fract_y
 _atom_site_fract_z
 _atom_site_occupancy
  Sm  Sm0  1  0.250000  0.585154  0.707907  1
  Ho  Ho1  1  0.250000  0.914978  0.207758  1
  Ho  Ho2  1  0.750000  0.414863  0.292186  1
  Ho  Ho3  1  0.750000  0.085103  0.792380  1
  Co  Co4  1  0.250000  0.463416  0.935025  1
  Co  Co5  1  0.250000  0.036074  0.433615  1
  Co  Co6  1  0.750000  0.535767  0.067022  1
  Co  Co7  1  0.750000  0.965096  0.565720  1
  P  P8  1  0.250000  0.423958  0.106751  1
  P  P9  1  0.250000  0.075991  0.605859  1
  P  P10  1  0.750000  0.575696  0.895282  1
  P  P11  1  0.750000  0.924406  0.393756  1
  P  P12  1  0.250000  0.271795  0.872420  1
  P  P13  1  0.250000  0.227738  0.372221  1
  P  P14  1  0.750000  0.728137  0.127618  1
  P  P15  1  0.750000  0.773897  0.626330  1
  P  P16  1  0.250000  0.599226  0.388074  1
  P  P17  1  0.250000  0.900715  0.887977  1
  P  P18  1  0.750000  0.399217  0.611235  1
  P  P19  1  0.750000  0.099180  0.112098  1
  Rh  Rh20  1  0.250000  0.716396  0.987844  1
  Rh  Rh21  1  0.250000  0.783811  0.487440  1
  Rh  Rh22  1  0.750000  0.283367  0.012998  1
  Rh  Rh23  1  0.750000  0.215878  0.511823  1
  Rh  Rh24  1  0.250000  0.407680  0.479345  1
  Rh  Rh25  1  0.250000  0.091650  0.979378  1
  Rh  Rh26  1  0.750000  0.591565  0.517369  1
  Rh  Rh27  1  0.750000  0.908427  0.020960  1
  Rh  Rh28  1  0.250000  0.227585  0.178496  1
  Rh  Rh29  1  0.250000  0.272122  0.677935  1
  Rh  Rh30  1  0.750000  0.774632  0.822905  1
  Rh  Rh31  1  0.750000  0.728383  0.321125  1
  Rh  Rh32  1  0.250000  0.887761  0.698677  1
  Rh  Rh33  1  0.250000  0.612849  0.199103  1
  Rh  Rh34  1  0.750000  0.112864  0.301090  1
  Rh  Rh35  1  0.750000  0.384624  0.802278  1
