# generated using pymatgen
data_NaPtF6
_symmetry_space_group_name_H-M   'P 1'
_cell_length_a   5.91719899
_cell_length_b   5.91719984
_cell_length_c   5.91719874
_cell_angle_alpha   55.75797232
_cell_angle_beta   55.75796972
_cell_angle_gamma   55.75796102
_symmetry_Int_Tables_number   1
_chemical_formula_structural   NaPtF6
_chemical_formula_sum   'Na1 Pt1 F6'
_cell_volume   132.08584844
_cell_formula_units_Z   1
loop_
 _symmetry_equiv_pos_site_id
 _symmetry_equiv_pos_as_xyz
  1  'x, y, z'
loop_
 _atom_site_type_symbol
 _atom_site_label
 _atom_site_symmetry_multiplicity
 _atom_site_fract_x
 _atom_site_fract_y
 _atom_site_fract_z
 _atom_site_occupancy
  Na  Na0  1  0.500000  0.500000  0.500000  1
  Pt  Pt1  1  0.000000  0.000000  0.000000  1
  F  F2  1  0.222148  0.894628  0.657899  1
  F  F3  1  0.894628  0.657899  0.222148  1
  F  F4  1  0.342101  0.777852  0.105372  1
  F  F5  1  0.105372  0.342101  0.777852  1
  F  F6  1  0.777852  0.105372  0.342101  1
  F  F7  1  0.657899  0.222148  0.894628  1
