# generated using pymatgen
data_Th3ScGa2Ru3
_symmetry_space_group_name_H-M   'P 1'
_cell_length_a   7.42265394
_cell_length_b   7.42265310
_cell_length_c   4.07019000
_cell_angle_alpha   90.00000000
_cell_angle_beta   90.00000000
_cell_angle_gamma   121.45742421
_symmetry_Int_Tables_number   1
_chemical_formula_structural   Th3ScGa2Ru3
_chemical_formula_sum   'Th3 Sc1 Ga2 Ru3'
_cell_volume   191.29183998
_cell_formula_units_Z   1
loop_
 _symmetry_equiv_pos_site_id
 _symmetry_equiv_pos_as_xyz
  1  'x, y, z'
loop_
 _atom_site_type_symbol
 _atom_site_label
 _atom_site_symmetry_multiplicity
 _atom_site_fract_x
 _atom_site_fract_y
 _atom_site_fract_z
 _atom_site_occupancy
  Th  Th0  1  0.397011  0.397011  0.500000  1
  Th  Th1  1  0.573802  0.010572  0.500000  1
  Th  Th2  1  0.010572  0.573802  0.500000  1
  Sc  Sc3  1  0.776045  0.776045  0.000000  1
  Ga  Ga4  1  0.236452  0.991167  0.000000  1
  Ga  Ga5  1  0.991167  0.236452  0.000000  1
  Ru  Ru6  1  0.666697  0.332801  0.000000  1
  Ru  Ru7  1  0.332801  0.666697  0.000000  1
  Ru  Ru8  1  0.015454  0.015454  0.500000  1
