# generated using pymatgen
data_Nb20Al3Ga3Ir4
_symmetry_space_group_name_H-M   'P 1'
_cell_length_a   9.93545896
_cell_length_b   9.92817496
_cell_length_c   5.19589600
_cell_angle_alpha   90.00000000
_cell_angle_beta   90.00000000
_cell_angle_gamma   90.12558348
_symmetry_Int_Tables_number   1
_chemical_formula_structural   Nb20Al3Ga3Ir4
_chemical_formula_sum   'Nb20 Al3 Ga3 Ir4'
_cell_volume   512.52701603
_cell_formula_units_Z   1
loop_
 _symmetry_equiv_pos_site_id
 _symmetry_equiv_pos_as_xyz
  1  'x, y, z'
loop_
 _atom_site_type_symbol
 _atom_site_label
 _atom_site_symmetry_multiplicity
 _atom_site_fract_x
 _atom_site_fract_y
 _atom_site_fract_z
 _atom_site_occupancy
  Nb  Nb0  1  0.399185  0.392632  0.000000  1
  Nb  Nb1  1  0.892129  0.101094  0.500000  1
  Nb  Nb2  1  0.106965  0.898727  0.500000  1
  Nb  Nb3  1  0.601074  0.607340  0.000000  1
  Nb  Nb4  1  0.129325  0.465586  0.000000  1
  Nb  Nb5  1  0.964442  0.370170  0.500000  1
  Nb  Nb6  1  0.035035  0.629169  0.500000  1
  Nb  Nb7  1  0.871184  0.535359  0.000000  1
  Nb  Nb8  1  0.373740  0.964479  0.500000  1
  Nb  Nb9  1  0.625895  0.035432  0.500000  1
  Nb  Nb10  1  0.464244  0.126170  0.000000  1
  Nb  Nb11  1  0.535572  0.873857  0.000000  1
  Nb  Nb12  1  0.183352  0.183605  0.249992  1
  Nb  Nb13  1  0.684104  0.316977  0.749779  1
  Nb  Nb14  1  0.316374  0.682962  0.749483  1
  Nb  Nb15  1  0.817153  0.815890  0.249734  1
  Nb  Nb16  1  0.316374  0.682962  0.250517  1
  Nb  Nb17  1  0.684104  0.316977  0.250221  1
  Nb  Nb18  1  0.183352  0.183605  0.750008  1
  Nb  Nb19  1  0.817153  0.815890  0.750266  1
  Al  Al20  1  0.999222  0.000360  0.000000  1
  Al  Al21  1  0.500179  0.499712  0.500000  1
  Al  Al22  1  0.066851  0.742073  0.000000  1
  Ga  Ga23  1  0.240258  0.434476  0.500000  1
  Ga  Ga24  1  0.759689  0.565440  0.500000  1
  Ga  Ga25  1  0.934916  0.259549  0.000000  1
  Ir  Ir26  1  0.257637  0.933120  0.000000  1
  Ir  Ir27  1  0.433941  0.241216  0.500000  1
  Ir  Ir28  1  0.565939  0.758796  0.500000  1
  Ir  Ir29  1  0.740611  0.066375  0.000000  1
