# generated using pymatgen
data_TbCeSc2(ReB6)2
_symmetry_space_group_name_H-M   'P 1'
_cell_length_a   3.62236600
_cell_length_b   9.03023044
_cell_length_c   11.42899783
_cell_angle_alpha   89.93524715
_cell_angle_beta   90.00000000
_cell_angle_gamma   90.00000000
_symmetry_Int_Tables_number   1
_chemical_formula_structural   TbCeSc2(ReB6)2
_chemical_formula_sum   'Tb2 Ce2 Sc4 Re4 B24'
_cell_volume   373.85142014
_cell_formula_units_Z   2
loop_
 _symmetry_equiv_pos_site_id
 _symmetry_equiv_pos_as_xyz
  1  'x, y, z'
loop_
 _atom_site_type_symbol
 _atom_site_label
 _atom_site_symmetry_multiplicity
 _atom_site_fract_x
 _atom_site_fract_y
 _atom_site_fract_z
 _atom_site_occupancy
  Tb  Tb0  1  0.000000  0.322142  0.414378  1
  Tb  Tb1  1  0.000000  0.677858  0.585622  1
  Ce  Ce2  1  0.000000  0.820741  0.085912  1
  Ce  Ce3  1  0.000000  0.179259  0.914088  1
  Sc  Sc4  1  0.000000  0.944249  0.371885  1
  Sc  Sc5  1  0.000000  0.055751  0.628115  1
  Sc  Sc6  1  0.000000  0.444849  0.128742  1
  Sc  Sc7  1  0.000000  0.555151  0.871258  1
  Re  Re8  1  0.000000  0.641787  0.317545  1
  Re  Re9  1  0.000000  0.358213  0.682455  1
  Re  Re10  1  0.000000  0.140082  0.180903  1
  Re  Re11  1  0.000000  0.859918  0.819097  1
  B  B12  1  0.500000  0.554551  0.432348  1
  B  B13  1  0.500000  0.445449  0.567652  1
  B  B14  1  0.500000  0.055309  0.068950  1
  B  B15  1  0.500000  0.944691  0.931050  1
  B  B16  1  0.500000  0.753585  0.418304  1
  B  B17  1  0.500000  0.246415  0.581696  1
  B  B18  1  0.500000  0.254100  0.082902  1
  B  B19  1  0.500000  0.745900  0.917098  1
  B  B20  1  0.500000  0.794339  0.265772  1
  B  B21  1  0.500000  0.205661  0.734228  1
  B  B22  1  0.500000  0.294920  0.234992  1
  B  B23  1  0.500000  0.705080  0.765008  1
  B  B24  1  0.500000  0.629123  0.183836  1
  B  B25  1  0.500000  0.370877  0.816164  1
  B  B26  1  0.500000  0.129442  0.317136  1
  B  B27  1  0.500000  0.870558  0.682864  1
  B  B28  1  0.500000  0.982376  0.214903  1
  B  B29  1  0.500000  0.017624  0.785097  1
  B  B30  1  0.500000  0.481755  0.286186  1
  B  B31  1  0.500000  0.518245  0.713814  1
  B  B32  1  0.500000  0.597055  0.026439  1
  B  B33  1  0.500000  0.402945  0.973561  1
  B  B34  1  0.500000  0.096504  0.473736  1
  B  B35  1  0.500000  0.903496  0.526264  1
