# generated using pymatgen
data_Hf18Re6SiAsW2
_symmetry_space_group_name_H-M   'P 1'
_cell_length_a   8.64198400
_cell_length_b   8.64198427
_cell_length_c   8.62184500
_cell_angle_alpha   90.00000000
_cell_angle_beta   90.00000000
_cell_angle_gamma   119.99999895
_symmetry_Int_Tables_number   1
_chemical_formula_structural   Hf18Re6SiAsW2
_chemical_formula_sum   'Hf18 Re6 Si1 As1 W2'
_cell_volume   557.64495426
_cell_formula_units_Z   1
loop_
 _symmetry_equiv_pos_site_id
 _symmetry_equiv_pos_as_xyz
  1  'x, y, z'
loop_
 _atom_site_type_symbol
 _atom_site_label
 _atom_site_symmetry_multiplicity
 _atom_site_fract_x
 _atom_site_fract_y
 _atom_site_fract_z
 _atom_site_occupancy
  Hf  Hf0  1  0.194538  0.805462  0.453741  1
  Hf  Hf1  1  0.194538  0.389075  0.453741  1
  Hf  Hf2  1  0.610925  0.805462  0.453741  1
  Hf  Hf3  1  0.804506  0.195494  0.547862  1
  Hf  Hf4  1  0.804506  0.609012  0.547862  1
  Hf  Hf5  1  0.390988  0.195494  0.547862  1
  Hf  Hf6  1  0.804506  0.195494  0.952138  1
  Hf  Hf7  1  0.804506  0.609012  0.952138  1
  Hf  Hf8  1  0.390988  0.195494  0.952138  1
  Hf  Hf9  1  0.194538  0.805462  0.046259  1
  Hf  Hf10  1  0.194538  0.389075  0.046259  1
  Hf  Hf11  1  0.610925  0.805462  0.046259  1
  Hf  Hf12  1  0.540970  0.459030  0.250000  1
  Hf  Hf13  1  0.540970  0.081939  0.250000  1
  Hf  Hf14  1  0.918061  0.459030  0.250000  1
  Hf  Hf15  1  0.461215  0.538785  0.750000  1
  Hf  Hf16  1  0.461215  0.922431  0.750000  1
  Hf  Hf17  1  0.077569  0.538785  0.750000  1
  Re  Re18  1  0.889776  0.110224  0.250000  1
  Re  Re19  1  0.889776  0.779554  0.250000  1
  Re  Re20  1  0.220446  0.110224  0.250000  1
  Re  Re21  1  0.110125  0.889875  0.750000  1
  Re  Re22  1  0.110125  0.220248  0.750000  1
  Re  Re23  1  0.779752  0.889875  0.750000  1
  Si  Si24  1  0.666667  0.333333  0.750000  1
  As  As25  1  0.333333  0.666667  0.250000  1
  W  W26  1  0.000000  0.000000  0.500231  1
  W  W27  1  0.000000  0.000000  0.999769  1
