# generated using pymatgen
data_DyHo(H2Cl)2
_symmetry_space_group_name_H-M   'P 1'
_cell_length_a   10.26971229
_cell_length_b   10.26971217
_cell_length_c   10.26971200
_cell_angle_alpha   20.76671751
_cell_angle_beta   20.76671948
_cell_angle_gamma   20.76672186
_symmetry_Int_Tables_number   1
_chemical_formula_structural   DyHo(H2Cl)2
_chemical_formula_sum   'Dy1 Ho1 H4 Cl2'
_cell_volume   119.21242332
_cell_formula_units_Z   1
loop_
 _symmetry_equiv_pos_site_id
 _symmetry_equiv_pos_as_xyz
  1  'x, y, z'
loop_
 _atom_site_type_symbol
 _atom_site_label
 _atom_site_symmetry_multiplicity
 _atom_site_fract_x
 _atom_site_fract_y
 _atom_site_fract_z
 _atom_site_occupancy
  Dy  Dy0  1  0.886834  0.886834  0.886834  1
  Ho  Ho1  1  0.113213  0.113213  0.113213  1
  H  H2  1  0.813357  0.813357  0.813357  1
  H  H3  1  0.186400  0.186400  0.186400  1
  H  H4  1  0.546110  0.546110  0.546110  1
  H  H5  1  0.453821  0.453821  0.453821  1
  Cl  Cl6  1  0.721456  0.721456  0.721456  1
  Cl  Cl7  1  0.278808  0.278808  0.278808  1
