# generated using pymatgen
data_Dy2Y14In3HgRh4
_symmetry_space_group_name_H-M   'P 1'
_cell_length_a   9.70878083
_cell_length_b   9.68131745
_cell_length_c   9.67464400
_cell_angle_alpha   59.97716769
_cell_angle_beta   59.96969160
_cell_angle_gamma   60.09353021
_symmetry_Int_Tables_number   1
_chemical_formula_structural   Dy2Y14In3HgRh4
_chemical_formula_sum   'Dy2 Y14 In3 Hg1 Rh4'
_cell_volume   643.20647962
_cell_formula_units_Z   1
loop_
 _symmetry_equiv_pos_site_id
 _symmetry_equiv_pos_as_xyz
  1  'x, y, z'
loop_
 _atom_site_type_symbol
 _atom_site_label
 _atom_site_symmetry_multiplicity
 _atom_site_fract_x
 _atom_site_fract_y
 _atom_site_fract_z
 _atom_site_occupancy
  Dy  Dy0  1  0.690785  0.309101  0.691013  1
  Dy  Dy1  1  0.549952  0.151008  0.148030  1
  Y  Y2  1  0.689700  0.309559  0.310403  1
  Y  Y3  1  0.689700  0.690337  0.310403  1
  Y  Y4  1  0.311108  0.689897  0.309097  1
  Y  Y5  1  0.937221  0.938537  0.559150  1
  Y  Y6  1  0.147635  0.150532  0.551301  1
  Y  Y7  1  0.562723  0.939958  0.557361  1
  Y  Y8  1  0.149961  0.153466  0.149079  1
  Y  Y9  1  0.310241  0.307995  0.690597  1
  Y  Y10  1  0.937221  0.565093  0.559150  1
  Y  Y11  1  0.562935  0.562394  0.935834  1
  Y  Y12  1  0.562935  0.938839  0.935834  1
  Y  Y13  1  0.936325  0.564971  0.933735  1
  Y  Y14  1  0.149961  0.547493  0.149079  1
  Y  Y15  1  0.310241  0.691168  0.690597  1
  In  In16  1  0.246691  0.916347  0.920616  1
  In  In17  1  0.917912  0.246566  0.919869  1
  In  In18  1  0.917912  0.915653  0.919869  1
  Hg  Hg19  1  0.914290  0.912959  0.259792  1
  Rh  Rh20  1  0.358658  0.355981  0.356660  1
  Rh  Rh21  1  0.923995  0.357079  0.361848  1
  Rh  Rh22  1  0.363244  0.356368  0.924021  1
  Rh  Rh23  1  0.358658  0.928703  0.356660  1
