# generated using pymatgen
data_Er2Tm(Zn2Si)2
_symmetry_space_group_name_H-M   'P 1'
_cell_length_a   6.77519506
_cell_length_b   6.77519719
_cell_length_c   4.24243700
_cell_angle_alpha   90.00000000
_cell_angle_beta   90.00000000
_cell_angle_gamma   119.97183479
_symmetry_Int_Tables_number   1
_chemical_formula_structural   Er2Tm(Zn2Si)2
_chemical_formula_sum   'Er2 Tm1 Zn4 Si2'
_cell_volume   168.69917723
_cell_formula_units_Z   1
loop_
 _symmetry_equiv_pos_site_id
 _symmetry_equiv_pos_as_xyz
  1  'x, y, z'
loop_
 _atom_site_type_symbol
 _atom_site_label
 _atom_site_symmetry_multiplicity
 _atom_site_fract_x
 _atom_site_fract_y
 _atom_site_fract_z
 _atom_site_occupancy
  Er  Er0  1  0.574992  0.000210  0.000000  1
  Er  Er1  1  0.000210  0.574992  0.000000  1
  Tm  Tm2  1  0.424689  0.424689  0.000000  1
  Zn  Zn3  1  0.242935  0.000100  0.500000  1
  Zn  Zn4  1  0.000100  0.242935  0.500000  1
  Zn  Zn5  1  0.756685  0.756685  0.500000  1
  Zn  Zn6  1  0.001223  0.001223  0.000000  1
  Si  Si7  1  0.333437  0.665729  0.500000  1
  Si  Si8  1  0.665729  0.333437  0.500000  1
