# generated using pymatgen
data_Tb3Tm(HfPt)4
_symmetry_space_group_name_H-M   'P 1'
_cell_length_a   4.66110700
_cell_length_b   7.09404171
_cell_length_c   8.21632176
_cell_angle_alpha   89.92526229
_cell_angle_beta   90.00000000
_cell_angle_gamma   90.00000000
_symmetry_Int_Tables_number   1
_chemical_formula_structural   Tb3Tm(HfPt)4
_chemical_formula_sum   'Tb3 Tm1 Hf4 Pt4'
_cell_volume   271.68138287
_cell_formula_units_Z   1
loop_
 _symmetry_equiv_pos_site_id
 _symmetry_equiv_pos_as_xyz
  1  'x, y, z'
loop_
 _atom_site_type_symbol
 _atom_site_label
 _atom_site_symmetry_multiplicity
 _atom_site_fract_x
 _atom_site_fract_y
 _atom_site_fract_z
 _atom_site_occupancy
  Tb  Tb0  1  0.250000  0.484809  0.177921  1
  Tb  Tb1  1  0.750000  0.015333  0.679427  1
  Tb  Tb2  1  0.250000  0.984814  0.321252  1
  Tm  Tm3  1  0.750000  0.516164  0.821824  1
  Hf  Hf4  1  0.750000  0.645601  0.423114  1
  Hf  Hf5  1  0.250000  0.354288  0.579480  1
  Hf  Hf6  1  0.750000  0.146982  0.077006  1
  Hf  Hf7  1  0.250000  0.853137  0.921749  1
  Pt  Pt8  1  0.750000  0.272163  0.405632  1
  Pt  Pt9  1  0.250000  0.726302  0.595696  1
  Pt  Pt10  1  0.750000  0.771530  0.092370  1
  Pt  Pt11  1  0.250000  0.228882  0.904530  1
