# generated using pymatgen
data_Sc2P2IrRh
_symmetry_space_group_name_H-M   'P 1'
_cell_length_a   3.89611000
_cell_length_b   6.45363900
_cell_length_c   7.33824800
_cell_angle_alpha   90.00000000
_cell_angle_beta   90.00000000
_cell_angle_gamma   90.00000000
_symmetry_Int_Tables_number   1
_chemical_formula_structural   Sc2P2IrRh
_chemical_formula_sum   'Sc4 P4 Ir2 Rh2'
_cell_volume   184.51354940
_cell_formula_units_Z   2
loop_
 _symmetry_equiv_pos_site_id
 _symmetry_equiv_pos_as_xyz
  1  'x, y, z'
loop_
 _atom_site_type_symbol
 _atom_site_label
 _atom_site_symmetry_multiplicity
 _atom_site_fract_x
 _atom_site_fract_y
 _atom_site_fract_z
 _atom_site_occupancy
  Sc  Sc0  1  0.250000  0.027087  0.821448  1
  Sc  Sc1  1  0.250000  0.527087  0.678552  1
  Sc  Sc2  1  0.750000  0.972482  0.179510  1
  Sc  Sc3  1  0.750000  0.472482  0.320490  1
  P  P4  1  0.250000  0.769041  0.376609  1
  P  P5  1  0.250000  0.269041  0.123391  1
  P  P6  1  0.750000  0.232099  0.621268  1
  P  P7  1  0.750000  0.732099  0.878732  1
  Ir  Ir8  1  0.250000  0.153248  0.440040  1
  Ir  Ir9  1  0.250000  0.653248  0.059960  1
  Rh  Rh10  1  0.750000  0.846042  0.560851  1
  Rh  Rh11  1  0.750000  0.346042  0.939149  1
