# generated using pymatgen
data_ErTm3CoHg
_symmetry_space_group_name_H-M   'P 1'
_cell_length_a   9.32232365
_cell_length_b   9.32232423
_cell_length_c   9.32232300
_cell_angle_alpha   60.00000081
_cell_angle_beta   59.99999875
_cell_angle_gamma   60.00000123
_symmetry_Int_Tables_number   1
_chemical_formula_structural   ErTm3CoHg
_chemical_formula_sum   'Er4 Tm12 Co4 Hg4'
_cell_volume   572.87191442
_cell_formula_units_Z   4
loop_
 _symmetry_equiv_pos_site_id
 _symmetry_equiv_pos_as_xyz
  1  'x, y, z'
loop_
 _atom_site_type_symbol
 _atom_site_label
 _atom_site_symmetry_multiplicity
 _atom_site_fract_x
 _atom_site_fract_y
 _atom_site_fract_z
 _atom_site_occupancy
  Er  Er0  1  0.348137  0.348137  0.348137  1
  Er  Er1  1  0.348137  0.348137  0.955590  1
  Er  Er2  1  0.348137  0.955590  0.348137  1
  Er  Er3  1  0.955590  0.348137  0.348137  1
  Tm  Tm4  1  0.812132  0.187868  0.187868  1
  Tm  Tm5  1  0.187868  0.812132  0.812132  1
  Tm  Tm6  1  0.187868  0.812132  0.187868  1
  Tm  Tm7  1  0.812132  0.187868  0.812132  1
  Tm  Tm8  1  0.187868  0.187868  0.812132  1
  Tm  Tm9  1  0.812132  0.812132  0.187868  1
  Tm  Tm10  1  0.938438  0.561562  0.561562  1
  Tm  Tm11  1  0.561562  0.938438  0.938438  1
  Tm  Tm12  1  0.561562  0.938438  0.561562  1
  Tm  Tm13  1  0.938438  0.561562  0.938438  1
  Tm  Tm14  1  0.561562  0.561562  0.938438  1
  Tm  Tm15  1  0.938438  0.938438  0.561562  1
  Co  Co16  1  0.141450  0.141450  0.141450  1
  Co  Co17  1  0.141450  0.141450  0.575649  1
  Co  Co18  1  0.141450  0.575649  0.141450  1
  Co  Co19  1  0.575649  0.141450  0.141450  1
  Hg  Hg20  1  0.584021  0.584021  0.584021  1
  Hg  Hg21  1  0.584021  0.584021  0.247937  1
  Hg  Hg22  1  0.584021  0.247937  0.584021  1
  Hg  Hg23  1  0.247937  0.584021  0.584021  1
