# generated using pymatgen
data_Sr8Ta4Mn3FeO24
_symmetry_space_group_name_H-M   'P 1'
_cell_length_a   5.72498595
_cell_length_b   9.73013782
_cell_length_c   9.75208129
_cell_angle_alpha   72.00235031
_cell_angle_beta   90.06292946
_cell_angle_gamma   90.00120615
_symmetry_Int_Tables_number   1
_chemical_formula_structural   Sr8Ta4Mn3FeO24
_chemical_formula_sum   'Sr8 Ta4 Mn3 Fe1 O24'
_cell_volume   516.65728427
_cell_formula_units_Z   1
loop_
 _symmetry_equiv_pos_site_id
 _symmetry_equiv_pos_as_xyz
  1  'x, y, z'
loop_
 _atom_site_type_symbol
 _atom_site_label
 _atom_site_symmetry_multiplicity
 _atom_site_fract_x
 _atom_site_fract_y
 _atom_site_fract_z
 _atom_site_occupancy
  Sr  Sr0  1  0.491048  0.121600  0.628306  1
  Sr  Sr1  1  0.481702  0.627067  0.124298  1
  Sr  Sr2  1  0.991847  0.877846  0.871418  1
  Sr  Sr3  1  0.980661  0.375161  0.376847  1
  Sr  Sr4  1  0.008153  0.122154  0.128582  1
  Sr  Sr5  1  0.019339  0.624839  0.623153  1
  Sr  Sr6  1  0.508952  0.878400  0.371694  1
  Sr  Sr7  1  0.518298  0.372933  0.875702  1
  Ta  Ta8  1  0.997790  0.749492  0.248087  1
  Ta  Ta9  1  0.002210  0.250508  0.751913  1
  Ta  Ta10  1  0.488658  0.252997  0.250421  1
  Ta  Ta11  1  0.511342  0.747003  0.749579  1
  Mn  Mn12  1  0.000000  0.500000  0.000000  1
  Mn  Mn13  1  0.500000  0.500000  0.500000  1
  Mn  Mn14  1  0.000000  0.000000  0.500000  1
  Fe  Fe15  1  0.500000  0.000000  0.000000  1
  O  O16  1  0.510364  0.648514  0.593150  1
  O  O17  1  0.478169  0.151486  0.103002  1
  O  O18  1  0.997209  0.852631  0.396862  1
  O  O19  1  0.990839  0.346961  0.906489  1
  O  O20  1  0.489636  0.351486  0.406850  1
  O  O21  1  0.521831  0.848514  0.896998  1
  O  O22  1  0.002791  0.147369  0.603138  1
  O  O23  1  0.009161  0.653039  0.093511  1
  O  O24  1  0.260578  0.874007  0.649930  1
  O  O25  1  0.213142  0.380008  0.150262  1
  O  O26  1  0.736186  0.123301  0.855805  1
  O  O27  1  0.737089  0.622719  0.343139  1
  O  O28  1  0.739422  0.125993  0.350070  1
  O  O29  1  0.786858  0.619992  0.849738  1
  O  O30  1  0.263814  0.876699  0.144195  1
  O  O31  1  0.262911  0.377281  0.656861  1
  O  O32  1  0.767847  0.896354  0.131585  1
  O  O33  1  0.776913  0.393021  0.632456  1
  O  O34  1  0.248466  0.107611  0.371791  1
  O  O35  1  0.297245  0.602639  0.863644  1
  O  O36  1  0.232153  0.103646  0.868415  1
  O  O37  1  0.223087  0.606979  0.367544  1
  O  O38  1  0.751534  0.892389  0.628209  1
  O  O39  1  0.702755  0.397361  0.136356  1
