# generated using pymatgen
data_Er4Al5Tc3
_symmetry_space_group_name_H-M   'P 1'
_cell_length_a   5.49280883
_cell_length_b   5.54465964
_cell_length_c   8.75710700
_cell_angle_alpha   90.00000000
_cell_angle_beta   90.00000000
_cell_angle_gamma   120.31275796
_symmetry_Int_Tables_number   1
_chemical_formula_structural   Er4Al5Tc3
_chemical_formula_sum   'Er4 Al5 Tc3'
_cell_volume   230.24134602
_cell_formula_units_Z   1
loop_
 _symmetry_equiv_pos_site_id
 _symmetry_equiv_pos_as_xyz
  1  'x, y, z'
loop_
 _atom_site_type_symbol
 _atom_site_label
 _atom_site_symmetry_multiplicity
 _atom_site_fract_x
 _atom_site_fract_y
 _atom_site_fract_z
 _atom_site_occupancy
  Er  Er0  1  0.337427  0.668714  0.443719  1
  Er  Er1  1  0.664512  0.332255  0.554868  1
  Er  Er2  1  0.664512  0.332255  0.945132  1
  Er  Er3  1  0.337427  0.668714  0.056281  1
  Al  Al4  1  0.836798  0.162198  0.250000  1
  Al  Al5  1  0.836798  0.674601  0.250000  1
  Al  Al6  1  0.323840  0.161920  0.250000  1
  Al  Al7  1  0.184627  0.841941  0.750000  1
  Al  Al8  1  0.184627  0.342685  0.750000  1
  Tc  Tc9  1  0.976282  0.988141  0.510052  1
  Tc  Tc10  1  0.976282  0.988141  0.989948  1
  Tc  Tc11  1  0.676870  0.838435  0.750000  1
