# generated using pymatgen
data_Nd11Y5MgNi4Ag3
_symmetry_space_group_name_H-M   'P 1'
_cell_length_a   9.72992062
_cell_length_b   9.78955935
_cell_length_c   9.77350900
_cell_angle_alpha   60.05421727
_cell_angle_beta   59.85169408
_cell_angle_gamma   59.68290748
_symmetry_Int_Tables_number   1
_chemical_formula_structural   Nd11Y5MgNi4Ag3
_chemical_formula_sum   'Nd11 Y5 Mg1 Ni4 Ag3'
_cell_volume   656.21467651
_cell_formula_units_Z   1
loop_
 _symmetry_equiv_pos_site_id
 _symmetry_equiv_pos_as_xyz
  1  'x, y, z'
loop_
 _atom_site_type_symbol
 _atom_site_label
 _atom_site_symmetry_multiplicity
 _atom_site_fract_x
 _atom_site_fract_y
 _atom_site_fract_z
 _atom_site_occupancy
  Nd  Nd0  1  0.812384  0.813005  0.187305  1
  Nd  Nd1  1  0.937372  0.563108  0.564101  1
  Nd  Nd2  1  0.561604  0.937665  0.937110  1
  Nd  Nd3  1  0.561604  0.937665  0.563622  1
  Nd  Nd4  1  0.937372  0.563108  0.935418  1
  Nd  Nd5  1  0.562439  0.564547  0.936507  1
  Nd  Nd6  1  0.936286  0.933874  0.564919  1
  Nd  Nd7  1  0.349682  0.349021  0.348481  1
  Nd  Nd8  1  0.349682  0.349021  0.952817  1
  Nd  Nd9  1  0.346280  0.953332  0.350194  1
  Nd  Nd10  1  0.939892  0.350752  0.354678  1
  Y  Y11  1  0.812633  0.188540  0.186873  1
  Y  Y12  1  0.185780  0.816074  0.813387  1
  Y  Y13  1  0.185780  0.816074  0.184759  1
  Y  Y14  1  0.812633  0.188540  0.811954  1
  Y  Y15  1  0.184509  0.185167  0.815162  1
  Mg  Mg16  1  0.290340  0.569862  0.569899  1
  Ni  Ni17  1  0.139307  0.142877  0.142476  1
  Ni  Ni18  1  0.139307  0.142877  0.575341  1
  Ni  Ni19  1  0.141210  0.573982  0.142404  1
  Ni  Ni20  1  0.572676  0.143630  0.141847  1
  Ag  Ag21  1  0.580207  0.582481  0.585089  1
  Ag  Ag22  1  0.580207  0.582481  0.252224  1
  Ag  Ag23  1  0.580818  0.252317  0.583433  1
