# generated using pymatgen
data_Sm4Sn10PtRh5
_symmetry_space_group_name_H-M   'P 1'
_cell_length_a   13.57603829
_cell_length_b   13.57603811
_cell_length_c   7.31959672
_cell_angle_alpha   90.20219187
_cell_angle_beta   89.79780888
_cell_angle_gamma   161.01357547
_symmetry_Int_Tables_number   1
_chemical_formula_structural   Sm4Sn10PtRh5
_chemical_formula_sum   'Sm4 Sn10 Pt1 Rh5'
_cell_volume   438.90793790
_cell_formula_units_Z   1
loop_
 _symmetry_equiv_pos_site_id
 _symmetry_equiv_pos_as_xyz
  1  'x, y, z'
loop_
 _atom_site_type_symbol
 _atom_site_label
 _atom_site_symmetry_multiplicity
 _atom_site_fract_x
 _atom_site_fract_y
 _atom_site_fract_z
 _atom_site_occupancy
  Sm  Sm0  1  0.173726  0.826274  0.754274  1
  Sm  Sm1  1  0.826664  0.173336  0.251354  1
  Sm  Sm2  1  0.475797  0.524203  0.739799  1
  Sm  Sm3  1  0.523211  0.476789  0.237724  1
  Sn  Sn4  1  0.879924  0.120076  0.731355  1
  Sn  Sn5  1  0.120882  0.879118  0.226271  1
  Sn  Sn6  1  0.705089  0.294911  0.047050  1
  Sn  Sn7  1  0.295953  0.704047  0.548430  1
  Sn  Sn8  1  0.598206  0.401794  0.618099  1
  Sn  Sn9  1  0.403122  0.596878  0.113410  1
  Sn  Sn10  1  0.950220  0.049780  0.397473  1
  Sn  Sn11  1  0.047427  0.952573  0.905998  1
  Sn  Sn12  1  0.290280  0.709720  0.974945  1
  Sn  Sn13  1  0.710430  0.289570  0.474697  1
  Pt  Pt14  1  0.049957  0.950043  0.520784  1
  Rh  Rh15  1  0.948958  0.051042  0.019759  1
  Rh  Rh16  1  0.777258  0.222742  0.762544  1
  Rh  Rh17  1  0.222588  0.777412  0.263580  1
  Rh  Rh18  1  0.394268  0.605732  0.483218  1
  Rh  Rh19  1  0.606039  0.393961  0.985231  1
