# generated using pymatgen
data_Li4CdSb3Pd8
_symmetry_space_group_name_H-M   'P 1'
_cell_length_a   4.54933837
_cell_length_b   6.24174300
_cell_length_c   9.09175075
_cell_angle_alpha   89.99986015
_cell_angle_beta   90.04649072
_cell_angle_gamma   89.99987280
_symmetry_Int_Tables_number   1
_chemical_formula_structural   Li4CdSb3Pd8
_chemical_formula_sum   'Li4 Cd1 Sb3 Pd8'
_cell_volume   258.16745957
_cell_formula_units_Z   1
loop_
 _symmetry_equiv_pos_site_id
 _symmetry_equiv_pos_as_xyz
  1  'x, y, z'
loop_
 _atom_site_type_symbol
 _atom_site_label
 _atom_site_symmetry_multiplicity
 _atom_site_fract_x
 _atom_site_fract_y
 _atom_site_fract_z
 _atom_site_occupancy
  Li  Li0  1  0.248601  0.750000  0.125049  1
  Li  Li1  1  0.748839  0.250001  0.371520  1
  Li  Li2  1  0.251268  0.750001  0.625060  1
  Li  Li3  1  0.751163  0.249999  0.878445  1
  Cd  Cd4  1  0.248264  0.250003  0.124956  1
  Sb  Sb5  1  0.748940  0.750000  0.372042  1
  Sb  Sb6  1  0.251289  0.250001  0.624972  1
  Sb  Sb7  1  0.751456  0.749999  0.877901  1
  Pd  Pd8  1  0.748116  0.994061  0.125051  1
  Pd  Pd9  1  0.748119  0.505937  0.125051  1
  Pd  Pd10  1  0.248839  0.996433  0.381640  1
  Pd  Pd11  1  0.248838  0.503570  0.381645  1
  Pd  Pd12  1  0.751435  0.002038  0.625035  1
  Pd  Pd13  1  0.751439  0.497958  0.625033  1
  Pd  Pd14  1  0.251694  0.996478  0.868301  1
  Pd  Pd15  1  0.251690  0.503524  0.868299  1
