# generated using pymatgen
data_LiPr8Tm11Si16
_symmetry_space_group_name_H-M   'P 1'
_cell_length_a   7.41584241
_cell_length_b   7.76042543
_cell_length_c   14.70686600
_cell_angle_alpha   90.00000000
_cell_angle_beta   90.00000000
_cell_angle_gamma   90.03819592
_symmetry_Int_Tables_number   1
_chemical_formula_structural   LiPr8Tm11Si16
_chemical_formula_sum   'Li1 Pr8 Tm11 Si16'
_cell_volume   846.38130395
_cell_formula_units_Z   1
loop_
 _symmetry_equiv_pos_site_id
 _symmetry_equiv_pos_as_xyz
  1  'x, y, z'
loop_
 _atom_site_type_symbol
 _atom_site_label
 _atom_site_symmetry_multiplicity
 _atom_site_fract_x
 _atom_site_fract_y
 _atom_site_fract_z
 _atom_site_occupancy
  Li  Li0  1  0.652584  0.992539  0.750000  1
  Pr  Pr1  1  0.019267  0.177246  0.402633  1
  Pr  Pr2  1  0.518440  0.323635  0.402563  1
  Pr  Pr3  1  0.482169  0.685951  0.898249  1
  Pr  Pr4  1  0.482169  0.685951  0.601751  1
  Pr  Pr5  1  0.972812  0.824034  0.601568  1
  Pr  Pr6  1  0.972812  0.824034  0.898432  1
  Pr  Pr7  1  0.518440  0.323635  0.097437  1
  Pr  Pr8  1  0.019267  0.177246  0.097367  1
  Tm  Tm9  1  0.330376  0.174434  0.625358  1
  Tm  Tm10  1  0.677493  0.820359  0.375850  1
  Tm  Tm11  1  0.177860  0.677633  0.377257  1
  Tm  Tm12  1  0.820714  0.315075  0.875047  1
  Tm  Tm13  1  0.820714  0.315075  0.624953  1
  Tm  Tm14  1  0.845870  0.491962  0.250000  1
  Tm  Tm15  1  0.344451  0.008843  0.250000  1
  Tm  Tm16  1  0.330376  0.174434  0.874642  1
  Tm  Tm17  1  0.177860  0.677633  0.122743  1
  Tm  Tm18  1  0.677493  0.820359  0.124150  1
  Tm  Tm19  1  0.152888  0.506532  0.750000  1
  Si  Si20  1  0.269142  0.880372  0.750000  1
  Si  Si21  1  0.472490  0.614447  0.250000  1
  Si  Si22  1  0.032960  0.112466  0.750000  1
  Si  Si23  1  0.526486  0.395612  0.750000  1
  Si  Si24  1  0.149258  0.468198  0.541036  1
  Si  Si25  1  0.972058  0.882653  0.250000  1
  Si  Si26  1  0.722472  0.121320  0.250000  1
  Si  Si27  1  0.853252  0.532156  0.037163  1
  Si  Si28  1  0.353017  0.967188  0.039194  1
  Si  Si29  1  0.149258  0.468198  0.958964  1
  Si  Si30  1  0.649525  0.035914  0.533951  1
  Si  Si31  1  0.353017  0.967188  0.460806  1
  Si  Si32  1  0.853252  0.532156  0.462837  1
  Si  Si33  1  0.776753  0.609724  0.750000  1
  Si  Si34  1  0.223479  0.379881  0.250000  1
  Si  Si35  1  0.649525  0.035914  0.966049  1
