# generated using pymatgen
data_Ti3Al2IrO
_symmetry_space_group_name_H-M   'P 1'
_cell_length_a   8.16824518
_cell_length_b   8.16830225
_cell_length_c   8.16843100
_cell_angle_alpha   59.99962772
_cell_angle_beta   59.99873279
_cell_angle_gamma   59.99966838
_symmetry_Int_Tables_number   1
_chemical_formula_structural   Ti3Al2IrO
_chemical_formula_sum   'Ti12 Al8 Ir4 O4'
_cell_volume   385.36985688
_cell_formula_units_Z   4
loop_
 _symmetry_equiv_pos_site_id
 _symmetry_equiv_pos_as_xyz
  1  'x, y, z'
loop_
 _atom_site_type_symbol
 _atom_site_label
 _atom_site_symmetry_multiplicity
 _atom_site_fract_x
 _atom_site_fract_y
 _atom_site_fract_z
 _atom_site_occupancy
  Ti  Ti0  1  0.562147  0.937858  0.562152  1
  Ti  Ti1  1  0.312134  0.687848  0.687846  1
  Ti  Ti2  1  0.687849  0.312150  0.312158  1
  Ti  Ti3  1  0.312138  0.687848  0.312166  1
  Ti  Ti4  1  0.687846  0.687842  0.312153  1
  Ti  Ti5  1  0.312145  0.312168  0.687843  1
  Ti  Ti6  1  0.562154  0.562158  0.937847  1
  Ti  Ti7  1  0.937866  0.562152  0.562154  1
  Ti  Ti8  1  0.562151  0.937850  0.937842  1
  Ti  Ti9  1  0.937855  0.937832  0.562157  1
  Ti  Ti10  1  0.687853  0.312142  0.687848  1
  Ti  Ti11  1  0.937862  0.562152  0.937834  1
  Al  Al12  1  0.335226  0.335241  0.335236  1
  Al  Al13  1  0.255687  0.914781  0.914766  1
  Al  Al14  1  0.914784  0.255696  0.914763  1
  Al  Al15  1  0.914772  0.914766  0.255700  1
  Al  Al16  1  0.335216  0.994304  0.335237  1
  Al  Al17  1  0.335228  0.335234  0.994300  1
  Al  Al18  1  0.994313  0.335219  0.335234  1
  Al  Al19  1  0.914774  0.914759  0.914764  1
  Ir  Ir20  1  0.125000  0.125000  0.125000  1
  Ir  Ir21  1  0.625000  0.125000  0.125000  1
  Ir  Ir22  1  0.125000  0.625000  0.125000  1
  Ir  Ir23  1  0.125000  0.125000  0.625000  1
  O  O24  1  0.625000  0.625000  0.625000  1
  O  O25  1  0.125000  0.625000  0.625000  1
  O  O26  1  0.625000  0.125000  0.625000  1
  O  O27  1  0.625000  0.625000  0.125000  1
