# generated using pymatgen
data_HoEr4Pt9
_symmetry_space_group_name_H-M   'P 1'
_cell_length_a   9.72896222
_cell_length_b   9.72264323
_cell_length_c   5.75492400
_cell_angle_alpha   90.00000000
_cell_angle_beta   90.00000000
_cell_angle_gamma   90.02464841
_symmetry_Int_Tables_number   1
_chemical_formula_structural   HoEr4Pt9
_chemical_formula_sum   'Ho2 Er8 Pt18'
_cell_volume   544.36528165
_cell_formula_units_Z   2
loop_
 _symmetry_equiv_pos_site_id
 _symmetry_equiv_pos_as_xyz
  1  'x, y, z'
loop_
 _atom_site_type_symbol
 _atom_site_label
 _atom_site_symmetry_multiplicity
 _atom_site_fract_x
 _atom_site_fract_y
 _atom_site_fract_z
 _atom_site_occupancy
  Ho  Ho0  1  0.452554  0.808984  0.000000  1
  Ho  Ho1  1  0.547446  0.191016  0.000000  1
  Er  Er2  1  0.190943  0.547370  0.000000  1
  Er  Er3  1  0.809057  0.452630  0.000000  1
  Er  Er4  1  0.500000  0.500000  0.500000  1
  Er  Er5  1  0.308951  0.047452  0.500000  1
  Er  Er6  1  0.691049  0.952548  0.500000  1
  Er  Er7  1  0.952565  0.690998  0.500000  1
  Er  Er8  1  0.047435  0.309002  0.500000  1
  Er  Er9  1  0.000000  0.000000  0.000000  1
  Pt  Pt10  1  0.191606  0.808218  0.250613  1
  Pt  Pt11  1  0.808394  0.191782  0.749387  1
  Pt  Pt12  1  0.808394  0.191782  0.250613  1
  Pt  Pt13  1  0.191606  0.808218  0.749387  1
  Pt  Pt14  1  0.440879  0.782090  0.500000  1
  Pt  Pt15  1  0.559121  0.217910  0.500000  1
  Pt  Pt16  1  0.217908  0.559104  0.500000  1
  Pt  Pt17  1  0.782092  0.440896  0.500000  1
  Pt  Pt18  1  0.308074  0.308281  0.249646  1
  Pt  Pt19  1  0.691926  0.691719  0.750354  1
  Pt  Pt20  1  0.691926  0.691719  0.249646  1
  Pt  Pt21  1  0.308074  0.308281  0.750354  1
  Pt  Pt22  1  0.281834  0.059177  0.000000  1
  Pt  Pt23  1  0.718166  0.940823  0.000000  1
  Pt  Pt24  1  0.940920  0.717887  0.000000  1
  Pt  Pt25  1  0.059080  0.282113  0.000000  1
  Pt  Pt26  1  0.000000  0.000000  0.500000  1
  Pt  Pt27  1  0.500000  0.500000  0.000000  1
