# generated using pymatgen
data_Tb2Ce2Zn7CuRu2
_symmetry_space_group_name_H-M   'P 1'
_cell_length_a   7.13042037
_cell_length_b   7.13042037
_cell_length_c   5.11477473
_cell_angle_alpha   90.19301413
_cell_angle_beta   90.19301413
_cell_angle_gamma   90.38526492
_symmetry_Int_Tables_number   1
_chemical_formula_structural   Tb2Ce2Zn7CuRu2
_chemical_formula_sum   'Tb2 Ce2 Zn7 Cu1 Ru2'
_cell_volume   260.04110241
_cell_formula_units_Z   1
loop_
 _symmetry_equiv_pos_site_id
 _symmetry_equiv_pos_as_xyz
  1  'x, y, z'
loop_
 _atom_site_type_symbol
 _atom_site_label
 _atom_site_symmetry_multiplicity
 _atom_site_fract_x
 _atom_site_fract_y
 _atom_site_fract_z
 _atom_site_occupancy
  Tb  Tb0  1  0.004411  0.504411  0.768143  1
  Tb  Tb1  1  0.496272  0.996272  0.228801  1
  Ce  Ce2  1  0.003964  0.996841  0.004859  1
  Ce  Ce3  1  0.496841  0.503964  0.004859  1
  Zn  Zn4  1  0.819965  0.684942  0.290825  1
  Zn  Zn5  1  0.812495  0.312495  0.286933  1
  Zn  Zn6  1  0.315273  0.184823  0.711218  1
  Zn  Zn7  1  0.184942  0.319965  0.290825  1
  Zn  Zn8  1  0.687027  0.187027  0.716954  1
  Zn  Zn9  1  0.684823  0.815273  0.711218  1
  Zn  Zn10  1  0.309987  0.809987  0.701332  1
  Cu  Cu11  1  0.181919  0.681919  0.280123  1
  Ru  Ru12  1  0.503443  0.498638  0.501955  1
  Ru  Ru13  1  0.998638  0.003443  0.501955  1
