# generated using pymatgen
data_Hf3Pa2Tc6Sn
_symmetry_space_group_name_H-M   'P 1'
_cell_length_a   4.70658800
_cell_length_b   6.71940200
_cell_length_c   13.93697500
_cell_angle_alpha   90.00000000
_cell_angle_beta   89.99935887
_cell_angle_gamma   90.00000000
_symmetry_Int_Tables_number   1
_chemical_formula_structural   Hf3Pa2Tc6Sn
_chemical_formula_sum   'Hf6 Pa4 Tc12 Sn2'
_cell_volume   440.76320106
_cell_formula_units_Z   2
loop_
 _symmetry_equiv_pos_site_id
 _symmetry_equiv_pos_as_xyz
  1  'x, y, z'
loop_
 _atom_site_type_symbol
 _atom_site_label
 _atom_site_symmetry_multiplicity
 _atom_site_fract_x
 _atom_site_fract_y
 _atom_site_fract_z
 _atom_site_occupancy
  Hf  Hf0  1  0.999994  0.499999  0.989329  1
  Hf  Hf1  1  0.499973  0.000000  0.168372  1
  Hf  Hf2  1  0.999965  0.499999  0.331633  1
  Hf  Hf3  1  0.499995  0.000000  0.510656  1
  Hf  Hf4  1  0.000035  0.499999  0.679693  1
  Hf  Hf5  1  0.500036  0.000000  0.820328  1
  Pa  Pa6  1  0.000006  0.000000  0.991579  1
  Pa  Pa7  1  0.499964  0.499999  0.161009  1
  Pa  Pa8  1  0.999967  0.000000  0.338933  1
  Pa  Pa9  1  0.500004  0.499999  0.508411  1
  Tc  Tc10  1  0.500006  0.245093  0.000644  1
  Tc  Tc11  1  0.500006  0.754909  0.000644  1
  Tc  Tc12  1  0.999959  0.244985  0.165031  1
  Tc  Tc13  1  0.999959  0.755017  0.165031  1
  Tc  Tc14  1  0.499956  0.255003  0.334970  1
  Tc  Tc15  1  0.499956  0.744996  0.334970  1
  Tc  Tc16  1  0.000006  0.254837  0.499348  1
  Tc  Tc17  1  0.000006  0.745165  0.499348  1
  Tc  Tc18  1  0.500039  0.258693  0.664108  1
  Tc  Tc19  1  0.500039  0.741306  0.664108  1
  Tc  Tc20  1  0.000036  0.241284  0.835916  1
  Tc  Tc21  1  0.000036  0.758718  0.835916  1
  Sn  Sn22  1  0.000035  0.000000  0.666004  1
  Sn  Sn23  1  0.500027  0.499999  0.834014  1
