# generated using pymatgen
data_Tm4Ir3PdO14
_symmetry_space_group_name_H-M   'P 1'
_cell_length_a   7.17126450
_cell_length_b   7.20530479
_cell_length_c   7.20530600
_cell_angle_alpha   60.00000362
_cell_angle_beta   59.84285737
_cell_angle_gamma   59.84285416
_symmetry_Int_Tables_number   1
_chemical_formula_structural   Tm4Ir3PdO14
_chemical_formula_sum   'Tm4 Ir3 Pd1 O14'
_cell_volume   262.63336348
_cell_formula_units_Z   1
loop_
 _symmetry_equiv_pos_site_id
 _symmetry_equiv_pos_as_xyz
  1  'x, y, z'
loop_
 _atom_site_type_symbol
 _atom_site_label
 _atom_site_symmetry_multiplicity
 _atom_site_fract_x
 _atom_site_fract_y
 _atom_site_fract_z
 _atom_site_occupancy
  Tm  Tm0  1  0.625000  0.625000  0.125000  1
  Tm  Tm1  1  0.625000  0.625000  0.625000  1
  Tm  Tm2  1  0.625000  0.125000  0.625000  1
  Tm  Tm3  1  0.125000  0.625000  0.625000  1
  Ir  Ir4  1  0.125000  0.125000  0.125000  1
  Ir  Ir5  1  0.125000  0.625000  0.125000  1
  Ir  Ir6  1  0.125000  0.125000  0.625000  1
  Pd  Pd7  1  0.625000  0.125000  0.125000  1
  O  O8  1  0.041388  0.463258  0.463258  1
  O  O9  1  0.784835  0.778055  0.218555  1
  O  O10  1  0.784835  0.218555  0.218555  1
  O  O11  1  0.465165  0.031445  0.471945  1
  O  O12  1  0.041388  0.032095  0.463258  1
  O  O13  1  0.041388  0.463258  0.032095  1
  O  O14  1  0.750524  0.749825  0.749825  1
  O  O15  1  0.499476  0.500175  0.500175  1
  O  O16  1  0.784835  0.218555  0.778055  1
  O  O17  1  0.208612  0.786742  0.217905  1
  O  O18  1  0.208612  0.217905  0.786742  1
  O  O19  1  0.465165  0.031445  0.031445  1
  O  O20  1  0.465165  0.471945  0.031445  1
  O  O21  1  0.208612  0.786742  0.786742  1
