# generated using pymatgen
data_Zr6Ti4Al12CoIr6
_symmetry_space_group_name_H-M   'P 1'
_cell_length_a   8.76032525
_cell_length_b   8.76032573
_cell_length_c   8.76032600
_cell_angle_alpha   59.99999899
_cell_angle_beta   59.99999718
_cell_angle_gamma   59.99999993
_symmetry_Int_Tables_number   1
_chemical_formula_structural   Zr6Ti4Al12CoIr6
_chemical_formula_sum   'Zr6 Ti4 Al12 Co1 Ir6'
_cell_volume   475.38529427
_cell_formula_units_Z   1
loop_
 _symmetry_equiv_pos_site_id
 _symmetry_equiv_pos_as_xyz
  1  'x, y, z'
loop_
 _atom_site_type_symbol
 _atom_site_label
 _atom_site_symmetry_multiplicity
 _atom_site_fract_x
 _atom_site_fract_y
 _atom_site_fract_z
 _atom_site_occupancy
  Zr  Zr0  1  0.690823  0.690823  0.309177  1
  Zr  Zr1  1  0.309177  0.690823  0.309177  1
  Zr  Zr2  1  0.690823  0.309177  0.309177  1
  Zr  Zr3  1  0.309177  0.309177  0.690823  1
  Zr  Zr4  1  0.690823  0.309177  0.690823  1
  Zr  Zr5  1  0.309177  0.690823  0.690823  1
  Ti  Ti6  1  0.882542  0.882542  0.352374  1
  Ti  Ti7  1  0.882542  0.352374  0.882542  1
  Ti  Ti8  1  0.352374  0.882542  0.882542  1
  Ti  Ti9  1  0.882542  0.882542  0.882542  1
  Al  Al10  1  0.118028  0.118028  0.645917  1
  Al  Al11  1  0.118028  0.645917  0.118028  1
  Al  Al12  1  0.645917  0.118028  0.118028  1
  Al  Al13  1  0.118028  0.118028  0.118028  1
  Al  Al14  1  0.663671  0.663671  0.008985  1
  Al  Al15  1  0.663671  0.008985  0.663671  1
  Al  Al16  1  0.008985  0.663671  0.663671  1
  Al  Al17  1  0.663671  0.663671  0.663671  1
  Al  Al18  1  0.335841  0.335841  0.992477  1
  Al  Al19  1  0.335841  0.992477  0.335841  1
  Al  Al20  1  0.992477  0.335841  0.335841  1
  Al  Al21  1  0.335841  0.335841  0.335841  1
  Co  Co22  1  0.000000  0.000000  0.000000  1
  Ir  Ir23  1  0.998688  0.998688  0.501312  1
  Ir  Ir24  1  0.501312  0.998688  0.501312  1
  Ir  Ir25  1  0.998688  0.501312  0.501312  1
  Ir  Ir26  1  0.501312  0.501312  0.998688  1
  Ir  Ir27  1  0.998688  0.501312  0.998688  1
  Ir  Ir28  1  0.501312  0.998688  0.998688  1
