# generated using pymatgen
data_Ba4Li3AlSi8
_symmetry_space_group_name_H-M   'P 1'
_cell_length_a   4.56621200
_cell_length_b   7.33373255
_cell_length_c   11.52915408
_cell_angle_alpha   89.00801404
_cell_angle_beta   90.00000000
_cell_angle_gamma   90.00000000
_symmetry_Int_Tables_number   1
_chemical_formula_structural   Ba4Li3AlSi8
_chemical_formula_sum   'Ba4 Li3 Al1 Si8'
_cell_volume   386.02327246
_cell_formula_units_Z   1
loop_
 _symmetry_equiv_pos_site_id
 _symmetry_equiv_pos_as_xyz
  1  'x, y, z'
loop_
 _atom_site_type_symbol
 _atom_site_label
 _atom_site_symmetry_multiplicity
 _atom_site_fract_x
 _atom_site_fract_y
 _atom_site_fract_z
 _atom_site_occupancy
  Ba  Ba0  1  0.250000  0.131253  0.140157  1
  Ba  Ba1  1  0.750000  0.867329  0.865958  1
  Ba  Ba2  1  0.250000  0.627814  0.362761  1
  Ba  Ba3  1  0.750000  0.370245  0.635887  1
  Li  Li4  1  0.250000  0.121197  0.434152  1
  Li  Li5  1  0.250000  0.614459  0.065301  1
  Li  Li6  1  0.750000  0.384850  0.934325  1
  Al  Al7  1  0.750000  0.883565  0.561975  1
  Si  Si8  1  0.750000  0.465242  0.163870  1
  Si  Si9  1  0.250000  0.532614  0.833888  1
  Si  Si10  1  0.750000  0.968384  0.341838  1
  Si  Si11  1  0.250000  0.036532  0.658396  1
  Si  Si12  1  0.750000  0.292630  0.343872  1
  Si  Si13  1  0.250000  0.707617  0.652504  1
  Si  Si14  1  0.750000  0.788175  0.165774  1
  Si  Si15  1  0.250000  0.208094  0.839341  1
