# generated using pymatgen
data_TbY7(HgPt)2
_symmetry_space_group_name_H-M   'P 1'
_cell_length_a   9.69038669
_cell_length_b   9.69038722
_cell_length_c   9.66597300
_cell_angle_alpha   60.08331045
_cell_angle_beta   60.08330863
_cell_angle_gamma   60.15466016
_symmetry_Int_Tables_number   1
_chemical_formula_structural   TbY7(HgPt)2
_chemical_formula_sum   'Tb2 Y14 Hg4 Pt4'
_cell_volume   643.37603106
_cell_formula_units_Z   2
loop_
 _symmetry_equiv_pos_site_id
 _symmetry_equiv_pos_as_xyz
  1  'x, y, z'
loop_
 _atom_site_type_symbol
 _atom_site_label
 _atom_site_symmetry_multiplicity
 _atom_site_fract_x
 _atom_site_fract_y
 _atom_site_fract_z
 _atom_site_occupancy
  Tb  Tb0  1  0.353998  0.353998  0.352418  1
  Tb  Tb1  1  0.353998  0.353998  0.939587  1
  Y  Y2  1  0.357854  0.930916  0.355615  1
  Y  Y3  1  0.930916  0.357854  0.355615  1
  Y  Y4  1  0.811164  0.189849  0.189360  1
  Y  Y5  1  0.189849  0.811164  0.809626  1
  Y  Y6  1  0.189849  0.811164  0.189360  1
  Y  Y7  1  0.811164  0.189849  0.809626  1
  Y  Y8  1  0.190362  0.190362  0.809638  1
  Y  Y9  1  0.811414  0.811414  0.188586  1
  Y  Y10  1  0.937237  0.563543  0.563733  1
  Y  Y11  1  0.563543  0.937237  0.935487  1
  Y  Y12  1  0.563543  0.937237  0.563733  1
  Y  Y13  1  0.937237  0.563543  0.935487  1
  Y  Y14  1  0.564406  0.564406  0.935594  1
  Y  Y15  1  0.937272  0.937272  0.562728  1
  Hg  Hg16  1  0.585811  0.585811  0.587536  1
  Hg  Hg17  1  0.585811  0.585811  0.240841  1
  Hg  Hg18  1  0.585193  0.240420  0.587194  1
  Hg  Hg19  1  0.240420  0.585193  0.587194  1
  Pt  Pt20  1  0.143773  0.143773  0.146280  1
  Pt  Pt21  1  0.143773  0.143773  0.566175  1
  Pt  Pt22  1  0.142359  0.569053  0.144294  1
  Pt  Pt23  1  0.569053  0.142359  0.144294  1
