# generated using pymatgen
data_Tb3Dy7Si5Pb
_symmetry_space_group_name_H-M   'P 1'
_cell_length_a   8.55101300
_cell_length_b   8.58243876
_cell_length_c   6.43070700
_cell_angle_alpha   90.00000000
_cell_angle_beta   90.00000000
_cell_angle_gamma   119.87894396
_symmetry_Int_Tables_number   1
_chemical_formula_structural   Tb3Dy7Si5Pb
_chemical_formula_sum   'Tb3 Dy7 Si5 Pb1'
_cell_volume   409.20988196
_cell_formula_units_Z   1
loop_
 _symmetry_equiv_pos_site_id
 _symmetry_equiv_pos_as_xyz
  1  'x, y, z'
loop_
 _atom_site_type_symbol
 _atom_site_label
 _atom_site_symmetry_multiplicity
 _atom_site_fract_x
 _atom_site_fract_y
 _atom_site_fract_z
 _atom_site_occupancy
  Tb  Tb0  1  0.998754  0.242839  0.250000  1
  Tb  Tb1  1  0.755915  0.757161  0.250000  1
  Tb  Tb2  1  0.240603  0.000000  0.250000  1
  Dy  Dy3  1  0.987530  0.747252  0.750000  1
  Dy  Dy4  1  0.766393  0.000000  0.750000  1
  Dy  Dy5  1  0.240277  0.252748  0.750000  1
  Dy  Dy6  1  0.674708  0.343357  0.003991  1
  Dy  Dy7  1  0.331350  0.656643  0.496009  1
  Dy  Dy8  1  0.331350  0.656643  0.003991  1
  Dy  Dy9  1  0.674708  0.343357  0.496009  1
  Si  Si10  1  0.393725  0.392291  0.250000  1
  Si  Si11  1  0.001434  0.607709  0.250000  1
  Si  Si12  1  0.998584  0.394361  0.750000  1
  Si  Si13  1  0.604223  0.605639  0.750000  1
  Si  Si14  1  0.605964  0.000000  0.250000  1
  Pb  Pb15  1  0.394483  0.000000  0.750000  1
