# generated using pymatgen
data_Dy5Ho(CI5)2
_symmetry_space_group_name_H-M   'P 1'
_cell_length_a   7.64320163
_cell_length_b   9.47479012
_cell_length_c   9.55388987
_cell_angle_alpha   107.03632916
_cell_angle_beta   96.52475242
_cell_angle_gamma   104.33188160
_symmetry_Int_Tables_number   1
_chemical_formula_structural   Dy5Ho(CI5)2
_chemical_formula_sum   'Dy5 Ho1 C2 I10'
_cell_volume   627.84939203
_cell_formula_units_Z   1
loop_
 _symmetry_equiv_pos_site_id
 _symmetry_equiv_pos_as_xyz
  1  'x, y, z'
loop_
 _atom_site_type_symbol
 _atom_site_label
 _atom_site_symmetry_multiplicity
 _atom_site_fract_x
 _atom_site_fract_y
 _atom_site_fract_z
 _atom_site_occupancy
  Dy  Dy0  1  0.103153  0.038006  0.781470  1
  Dy  Dy1  1  0.374284  0.131945  0.177284  1
  Dy  Dy2  1  0.896771  0.961962  0.218470  1
  Dy  Dy3  1  0.028233  0.742603  0.925177  1
  Dy  Dy4  1  0.971759  0.257420  0.074821  1
  Ho  Ho5  1  0.626393  0.868115  0.822893  1
  C  C6  1  0.907407  0.969701  0.958299  1
  C  C7  1  0.091573  0.029993  0.041264  1
  I  I8  1  0.192338  0.735695  0.648148  1
  I  I9  1  0.087387  0.364820  0.821877  1
  I  I10  1  0.456302  0.809327  0.093257  1
  I  I11  1  0.255062  0.084843  0.458795  1
  I  I12  1  0.543994  0.190093  0.906019  1
  I  I13  1  0.808414  0.264511  0.352140  1
  I  I14  1  0.346018  0.453932  0.273288  1
  I  I15  1  0.912605  0.635178  0.178124  1
  I  I16  1  0.653755  0.546857  0.726882  1
  I  I17  1  0.744553  0.914997  0.541795  1
