# generated using pymatgen
data_Ho16Cd4Ir3Ru
_symmetry_space_group_name_H-M   'P 1'
_cell_length_a   9.62925653
_cell_length_b   9.62925633
_cell_length_c   9.62925616
_cell_angle_alpha   59.68897119
_cell_angle_beta   59.68897258
_cell_angle_gamma   59.68897410
_symmetry_Int_Tables_number   1
_chemical_formula_structural   Ho16Cd4Ir3Ru
_chemical_formula_sum   'Ho16 Cd4 Ir3 Ru1'
_cell_volume   626.87922369
_cell_formula_units_Z   1
loop_
 _symmetry_equiv_pos_site_id
 _symmetry_equiv_pos_as_xyz
  1  'x, y, z'
loop_
 _atom_site_type_symbol
 _atom_site_label
 _atom_site_symmetry_multiplicity
 _atom_site_fract_x
 _atom_site_fract_y
 _atom_site_fract_z
 _atom_site_occupancy
  Ho  Ho0  1  0.598805  0.598805  0.598805  1
  Ho  Ho1  1  0.598682  0.598682  0.205518  1
  Ho  Ho2  1  0.598682  0.205518  0.598682  1
  Ho  Ho3  1  0.205518  0.598682  0.598682  1
  Ho  Ho4  1  0.061554  0.438894  0.438894  1
  Ho  Ho5  1  0.438166  0.060004  0.060004  1
  Ho  Ho6  1  0.438894  0.061554  0.438894  1
  Ho  Ho7  1  0.060004  0.438166  0.060004  1
  Ho  Ho8  1  0.438894  0.438894  0.061554  1
  Ho  Ho9  1  0.060004  0.060004  0.438166  1
  Ho  Ho10  1  0.188966  0.811713  0.811713  1
  Ho  Ho11  1  0.809932  0.188300  0.188300  1
  Ho  Ho12  1  0.811713  0.188966  0.811713  1
  Ho  Ho13  1  0.188300  0.809932  0.188300  1
  Ho  Ho14  1  0.811713  0.811713  0.188966  1
  Ho  Ho15  1  0.188300  0.188300  0.809932  1
  Cd  Cd16  1  0.830242  0.830242  0.830242  1
  Cd  Cd17  1  0.830884  0.830884  0.506349  1
  Cd  Cd18  1  0.830884  0.506349  0.830884  1
  Cd  Cd19  1  0.506349  0.830884  0.830884  1
  Ir  Ir20  1  0.393155  0.393155  0.826139  1
  Ir  Ir21  1  0.393155  0.826139  0.393155  1
  Ir  Ir22  1  0.826139  0.393155  0.393155  1
  Ru  Ru23  1  0.391068  0.391068  0.391068  1
