# generated using pymatgen
data_CaNd(Al5Os)4
_symmetry_space_group_name_H-M   'P 1'
_cell_length_a   6.89191206
_cell_length_b   6.89191231
_cell_length_c   9.19228400
_cell_angle_alpha   90.00000000
_cell_angle_beta   90.00000000
_cell_angle_gamma   96.41008698
_symmetry_Int_Tables_number   1
_chemical_formula_structural   CaNd(Al5Os)4
_chemical_formula_sum   'Ca1 Nd1 Al20 Os4'
_cell_volume   433.88965312
_cell_formula_units_Z   1
loop_
 _symmetry_equiv_pos_site_id
 _symmetry_equiv_pos_as_xyz
  1  'x, y, z'
loop_
 _atom_site_type_symbol
 _atom_site_label
 _atom_site_symmetry_multiplicity
 _atom_site_fract_x
 _atom_site_fract_y
 _atom_site_fract_z
 _atom_site_occupancy
  Ca  Ca0  1  0.873780  0.126220  0.750000  1
  Nd  Nd1  1  0.125178  0.874822  0.250000  1
  Al  Al2  1  0.623026  0.376974  0.544494  1
  Al  Al3  1  0.377622  0.622378  0.449341  1
  Al  Al4  1  0.377622  0.622378  0.050659  1
  Al  Al5  1  0.623026  0.376974  0.955506  1
  Al  Al6  1  0.223503  0.225483  0.501190  1
  Al  Al7  1  0.774517  0.776497  0.501190  1
  Al  Al8  1  0.774517  0.776497  0.998810  1
  Al  Al9  1  0.223503  0.225483  0.998810  1
  Al  Al10  1  0.841872  0.158128  0.100402  1
  Al  Al11  1  0.160751  0.839249  0.897653  1
  Al  Al12  1  0.160751  0.839249  0.602347  1
  Al  Al13  1  0.841872  0.158128  0.399598  1
  Al  Al14  1  0.857568  0.586421  0.750000  1
  Al  Al15  1  0.142508  0.412911  0.250000  1
  Al  Al16  1  0.413579  0.142432  0.750000  1
  Al  Al17  1  0.587089  0.857492  0.250000  1
  Al  Al18  1  0.217049  0.477859  0.750000  1
  Al  Al19  1  0.780088  0.517647  0.250000  1
  Al  Al20  1  0.522141  0.782951  0.750000  1
  Al  Al21  1  0.482353  0.219912  0.250000  1
  Os  Os22  1  0.999332  0.501290  0.500684  1
  Os  Os23  1  0.999332  0.501290  0.999316  1
  Os  Os24  1  0.498710  0.000668  0.999316  1
  Os  Os25  1  0.498710  0.000668  0.500684  1
