# generated using pymatgen
data_La14Nd6Si15Ge
_symmetry_space_group_name_H-M   'P 1'
_cell_length_a   8.00419971
_cell_length_b   8.00023672
_cell_length_c   15.42776961
_cell_angle_alpha   90.06941128
_cell_angle_beta   89.89386810
_cell_angle_gamma   90.03301331
_symmetry_Int_Tables_number   1
_chemical_formula_structural   La14Nd6Si15Ge
_chemical_formula_sum   'La14 Nd6 Si15 Ge1'
_cell_volume   987.92224100
_cell_formula_units_Z   1
loop_
 _symmetry_equiv_pos_site_id
 _symmetry_equiv_pos_as_xyz
  1  'x, y, z'
loop_
 _atom_site_type_symbol
 _atom_site_label
 _atom_site_symmetry_multiplicity
 _atom_site_fract_x
 _atom_site_fract_y
 _atom_site_fract_z
 _atom_site_occupancy
  La  La0  1  0.518697  0.625857  0.127536  1
  La  La1  1  0.125690  0.982537  0.875876  1
  La  La2  1  0.988171  0.620146  0.052913  1
  La  La3  1  0.011916  0.377868  0.553056  1
  La  La4  1  0.621200  0.987835  0.946724  1
  La  La5  1  0.121135  0.511449  0.802092  1
  La  La6  1  0.877232  0.486140  0.301842  1
  La  La7  1  0.512885  0.121738  0.197974  1
  La  La8  1  0.487993  0.879828  0.696693  1
  La  La9  1  0.379712  0.013125  0.447746  1
  La  La10  1  0.687412  0.692187  0.501173  1
  La  La11  1  0.810555  0.190456  0.750000  1
  La  La12  1  0.194333  0.807262  0.247591  1
  La  La13  1  0.307506  0.308676  0.999867  1
  Nd  Nd14  1  0.373353  0.482440  0.374507  1
  Nd  Nd15  1  0.872860  0.019297  0.376390  1
  Nd  Nd16  1  0.981532  0.127306  0.124590  1
  Nd  Nd17  1  0.016103  0.872964  0.623422  1
  Nd  Nd18  1  0.626973  0.517362  0.873336  1
  Nd  Nd19  1  0.484213  0.373109  0.625914  1
  Si  Si20  1  0.918573  0.288432  0.941047  1
  Si  Si21  1  0.713857  0.081462  0.558690  1
  Si  Si22  1  0.211406  0.417388  0.192194  1
  Si  Si23  1  0.786444  0.579104  0.690616  1
  Si  Si24  1  0.420044  0.215096  0.807652  1
  Si  Si25  1  0.581140  0.789664  0.310771  1
  Si  Si26  1  0.287778  0.921077  0.058529  1
  Si  Si27  1  0.829501  0.801529  0.796889  1
  Si  Si28  1  0.167669  0.196654  0.299532  1
  Si  Si29  1  0.806070  0.833437  0.203979  1
  Si  Si30  1  0.304358  0.667251  0.550903  1
  Si  Si31  1  0.697283  0.330192  0.047536  1
  Si  Si32  1  0.668262  0.303804  0.451381  1
  Si  Si33  1  0.332645  0.695374  0.952035  1
  Si  Si34  1  0.197998  0.168233  0.699649  1
  Ge  Ge35  1  0.077500  0.713720  0.439354  1
