# generated using pymatgen
data_Hf4InTc24
_symmetry_space_group_name_H-M   'P 1'
_cell_length_a   8.40473064
_cell_length_b   8.40473175
_cell_length_c   8.40473100
_cell_angle_alpha   109.47121882
_cell_angle_beta   109.47122150
_cell_angle_gamma   109.47123074
_symmetry_Int_Tables_number   1
_chemical_formula_structural   Hf4InTc24
_chemical_formula_sum   'Hf4 In1 Tc24'
_cell_volume   457.03507881
_cell_formula_units_Z   1
loop_
 _symmetry_equiv_pos_site_id
 _symmetry_equiv_pos_as_xyz
  1  'x, y, z'
loop_
 _atom_site_type_symbol
 _atom_site_label
 _atom_site_symmetry_multiplicity
 _atom_site_fract_x
 _atom_site_fract_y
 _atom_site_fract_z
 _atom_site_occupancy
  Hf  Hf0  1  0.628607  0.000000  0.000000  1
  Hf  Hf1  1  0.000000  0.628607  0.000000  1
  Hf  Hf2  1  0.000000  0.000000  0.628607  1
  Hf  Hf3  1  0.371393  0.371393  0.371393  1
  In  In4  1  0.000000  0.000000  0.000000  1
  Tc  Tc5  1  0.392684  0.674131  0.000000  1
  Tc  Tc6  1  0.718553  0.325869  0.325869  1
  Tc  Tc7  1  0.392684  0.000000  0.674131  1
  Tc  Tc8  1  0.674131  0.392684  0.000000  1
  Tc  Tc9  1  0.000000  0.392684  0.674131  1
  Tc  Tc10  1  0.325869  0.718553  0.325869  1
  Tc  Tc11  1  0.325869  0.325869  0.718553  1
  Tc  Tc12  1  0.000000  0.674131  0.392684  1
  Tc  Tc13  1  0.674131  0.000000  0.392684  1
  Tc  Tc14  1  0.607316  0.607316  0.281447  1
  Tc  Tc15  1  0.281447  0.607316  0.607316  1
  Tc  Tc16  1  0.607316  0.281447  0.607316  1
  Tc  Tc17  1  0.375053  0.194326  0.000000  1
  Tc  Tc18  1  0.180727  0.805674  0.805674  1
  Tc  Tc19  1  0.375053  0.000000  0.194326  1
  Tc  Tc20  1  0.194326  0.375053  0.000000  1
  Tc  Tc21  1  0.000000  0.375053  0.194326  1
  Tc  Tc22  1  0.805674  0.180727  0.805674  1
  Tc  Tc23  1  0.805674  0.805674  0.180727  1
  Tc  Tc24  1  0.000000  0.194326  0.375053  1
  Tc  Tc25  1  0.194326  0.000000  0.375053  1
  Tc  Tc26  1  0.624947  0.624947  0.819273  1
  Tc  Tc27  1  0.819273  0.624947  0.624947  1
  Tc  Tc28  1  0.624947  0.819273  0.624947  1
