# generated using pymatgen
data_Y5Tm5(InSb2)2
_symmetry_space_group_name_H-M   'P 1'
_cell_length_a   8.97443000
_cell_length_b   8.96585373
_cell_length_c   6.45288000
_cell_angle_alpha   90.00005751
_cell_angle_beta   90.00000000
_cell_angle_gamma   120.00791165
_symmetry_Int_Tables_number   1
_chemical_formula_structural   Y5Tm5(InSb2)2
_chemical_formula_sum   'Y5 Tm5 In2 Sb4'
_cell_volume   449.62258240
_cell_formula_units_Z   1
loop_
 _symmetry_equiv_pos_site_id
 _symmetry_equiv_pos_as_xyz
  1  'x, y, z'
loop_
 _atom_site_type_symbol
 _atom_site_label
 _atom_site_symmetry_multiplicity
 _atom_site_fract_x
 _atom_site_fract_y
 _atom_site_fract_z
 _atom_site_occupancy
  Y  Y0  1  0.757329  0.998397  0.750000  1
  Y  Y1  1  0.758049  0.759453  0.250000  1
  Y  Y2  1  0.002393  0.242951  0.250000  1
  Y  Y3  1  0.002585  0.759226  0.750001  1
  Y  Y4  1  0.241661  0.237443  0.750002  1
  Tm  Tm5  1  0.334634  0.667413  0.000114  1
  Tm  Tm6  1  0.663062  0.331488  0.499869  1
  Tm  Tm7  1  0.663059  0.331485  0.000131  1
  Tm  Tm8  1  0.334633  0.667412  0.499884  1
  Tm  Tm9  1  0.242005  0.004383  0.249999  1
  In  In10  1  0.396029  0.997993  0.750001  1
  In  In11  1  0.395684  0.396697  0.250001  1
  Sb  Sb12  1  0.000144  0.607967  0.250000  1
  Sb  Sb13  1  0.999201  0.392613  0.750000  1
  Sb  Sb14  1  0.605165  0.604887  0.749999  1
  Sb  Sb15  1  0.604366  0.000193  0.250000  1
