# generated using pymatgen
data_BeV3Os4
_symmetry_space_group_name_H-M   'P 1'
_cell_length_a   6.66231143
_cell_length_b   6.66231179
_cell_length_c   2.97615800
_cell_angle_alpha   90.00000000
_cell_angle_beta   90.00000000
_cell_angle_gamma   127.21283832
_symmetry_Int_Tables_number   1
_chemical_formula_structural   BeV3Os4
_chemical_formula_sum   'Be1 V3 Os4'
_cell_volume   105.20444213
_cell_formula_units_Z   1
loop_
 _symmetry_equiv_pos_site_id
 _symmetry_equiv_pos_as_xyz
  1  'x, y, z'
loop_
 _atom_site_type_symbol
 _atom_site_label
 _atom_site_symmetry_multiplicity
 _atom_site_fract_x
 _atom_site_fract_y
 _atom_site_fract_z
 _atom_site_occupancy
  Be  Be0  1  0.500000  0.500000  0.500000  1
  V  V1  1  0.247717  0.752283  0.500000  1
  V  V2  1  0.000000  0.000000  0.500000  1
  V  V3  1  0.752283  0.247717  0.500000  1
  Os  Os4  1  0.865427  0.622329  0.000000  1
  Os  Os5  1  0.377671  0.134573  0.000000  1
  Os  Os6  1  0.134573  0.377671  0.000000  1
  Os  Os7  1  0.622329  0.865427  0.000000  1
