# generated using pymatgen
data_AcNd2(AlNi2)2
_symmetry_space_group_name_H-M   'P 1'
_cell_length_a   5.63072376
_cell_length_b   5.63072422
_cell_length_c   8.25870285
_cell_angle_alpha   98.64633181
_cell_angle_beta   98.64633293
_cell_angle_gamma   43.57515835
_symmetry_Int_Tables_number   1
_chemical_formula_structural   AcNd2(AlNi2)2
_chemical_formula_sum   'Ac1 Nd2 Al2 Ni4'
_cell_volume   178.10838341
_cell_formula_units_Z   1
loop_
 _symmetry_equiv_pos_site_id
 _symmetry_equiv_pos_as_xyz
  1  'x, y, z'
loop_
 _atom_site_type_symbol
 _atom_site_label
 _atom_site_symmetry_multiplicity
 _atom_site_fract_x
 _atom_site_fract_y
 _atom_site_fract_z
 _atom_site_occupancy
  Ac  Ac0  1  0.000000  0.000000  0.000000  1
  Nd  Nd1  1  0.624173  0.624173  0.385775  1
  Nd  Nd2  1  0.375826  0.375826  0.614225  1
  Al  Al3  1  0.321272  0.321272  0.217147  1
  Al  Al4  1  0.678728  0.678728  0.782853  1
  Ni  Ni5  1  0.738188  0.738188  0.088702  1
  Ni  Ni6  1  0.913207  0.913207  0.364345  1
  Ni  Ni7  1  0.086794  0.086794  0.635655  1
  Ni  Ni8  1  0.261812  0.261812  0.911298  1
