# generated using pymatgen
data_Pr8In2IrOs
_symmetry_space_group_name_H-M   'P 1'
_cell_length_a   10.06780346
_cell_length_b   10.06780391
_cell_length_c   10.08182600
_cell_angle_alpha   59.95391700
_cell_angle_beta   59.95391551
_cell_angle_gamma   59.91490880
_symmetry_Int_Tables_number   1
_chemical_formula_structural   Pr8In2IrOs
_chemical_formula_sum   'Pr16 In4 Ir2 Os2'
_cell_volume   721.62428742
_cell_formula_units_Z   2
loop_
 _symmetry_equiv_pos_site_id
 _symmetry_equiv_pos_as_xyz
  1  'x, y, z'
loop_
 _atom_site_type_symbol
 _atom_site_label
 _atom_site_symmetry_multiplicity
 _atom_site_fract_x
 _atom_site_fract_y
 _atom_site_fract_z
 _atom_site_occupancy
  Pr  Pr0  1  0.347260  0.347260  0.347447  1
  Pr  Pr1  1  0.347260  0.347260  0.958031  1
  Pr  Pr2  1  0.346773  0.959409  0.346909  1
  Pr  Pr3  1  0.959409  0.346773  0.346909  1
  Pr  Pr4  1  0.809244  0.191176  0.193217  1
  Pr  Pr5  1  0.191176  0.809244  0.806363  1
  Pr  Pr6  1  0.191176  0.809244  0.193217  1
  Pr  Pr7  1  0.809244  0.191176  0.806363  1
  Pr  Pr8  1  0.191884  0.191884  0.808116  1
  Pr  Pr9  1  0.806834  0.806834  0.193166  1
  Pr  Pr10  1  0.940552  0.556525  0.561215  1
  Pr  Pr11  1  0.556525  0.940552  0.941708  1
  Pr  Pr12  1  0.556525  0.940552  0.561215  1
  Pr  Pr13  1  0.940552  0.556525  0.941708  1
  Pr  Pr14  1  0.560366  0.560366  0.939634  1
  Pr  Pr15  1  0.942078  0.942078  0.557922  1
  In  In16  1  0.580518  0.580518  0.580118  1
  In  In17  1  0.580518  0.580518  0.258845  1
  In  In18  1  0.580615  0.257886  0.580749  1
  In  In19  1  0.257886  0.580615  0.580749  1
  Ir  Ir20  1  0.142233  0.580435  0.138666  1
  Ir  Ir21  1  0.580435  0.142233  0.138666  1
  Os  Os22  1  0.140468  0.140468  0.136834  1
  Os  Os23  1  0.140468  0.140468  0.582230  1
