# generated using pymatgen
data_PrAl2Tc2B
_symmetry_space_group_name_H-M   'P 1'
_cell_length_a   4.28939200
_cell_length_b   4.28939200
_cell_length_c   5.62132400
_cell_angle_alpha   90.00000000
_cell_angle_beta   90.00000000
_cell_angle_gamma   90.00000000
_symmetry_Int_Tables_number   1
_chemical_formula_structural   PrAl2Tc2B
_chemical_formula_sum   'Pr1 Al2 Tc2 B1'
_cell_volume   103.42608668
_cell_formula_units_Z   1
loop_
 _symmetry_equiv_pos_site_id
 _symmetry_equiv_pos_as_xyz
  1  'x, y, z'
loop_
 _atom_site_type_symbol
 _atom_site_label
 _atom_site_symmetry_multiplicity
 _atom_site_fract_x
 _atom_site_fract_y
 _atom_site_fract_z
 _atom_site_occupancy
  Pr  Pr0  1  0.000000  0.000000  0.500000  1
  Al  Al1  1  0.499999  0.499999  0.257242  1
  Al  Al2  1  0.499999  0.499999  0.742757  1
  Tc  Tc3  1  0.499999  0.000000  0.000000  1
  Tc  Tc4  1  0.000000  0.499999  0.000000  1
  B  B5  1  0.000000  0.000000  0.000000  1
