# generated using pymatgen
data_TbDy3C2Cl3
_symmetry_space_group_name_H-M   'P 1'
_cell_length_a   3.66825600
_cell_length_b   10.52711900
_cell_length_c   19.74553300
_cell_angle_alpha   90.00000000
_cell_angle_beta   90.00000000
_cell_angle_gamma   90.00000000
_symmetry_Int_Tables_number   1
_chemical_formula_structural   TbDy3C2Cl3
_chemical_formula_sum   'Tb4 Dy12 C8 Cl12'
_cell_volume   762.49680841
_cell_formula_units_Z   4
loop_
 _symmetry_equiv_pos_site_id
 _symmetry_equiv_pos_as_xyz
  1  'x, y, z'
loop_
 _atom_site_type_symbol
 _atom_site_label
 _atom_site_symmetry_multiplicity
 _atom_site_fract_x
 _atom_site_fract_y
 _atom_site_fract_z
 _atom_site_occupancy
  Tb  Tb0  1  0.250000  0.138327  0.573063  1
  Tb  Tb1  1  0.250000  0.638327  0.926937  1
  Tb  Tb2  1  0.750000  0.861673  0.426937  1
  Tb  Tb3  1  0.750000  0.361673  0.073063  1
  Dy  Dy4  1  0.250000  0.637440  0.756022  1
  Dy  Dy5  1  0.250000  0.137440  0.743978  1
  Dy  Dy6  1  0.750000  0.362560  0.243978  1
  Dy  Dy7  1  0.750000  0.862560  0.256022  1
  Dy  Dy8  1  0.250000  0.100577  0.331862  1
  Dy  Dy9  1  0.250000  0.600577  0.168138  1
  Dy  Dy10  1  0.750000  0.899423  0.668138  1
  Dy  Dy11  1  0.750000  0.399423  0.831862  1
  Dy  Dy12  1  0.250000  0.124704  0.164727  1
  Dy  Dy13  1  0.250000  0.624704  0.335273  1
  Dy  Dy14  1  0.750000  0.875296  0.835273  1
  Dy  Dy15  1  0.750000  0.375296  0.664727  1
  C  C16  1  0.250000  0.863960  0.347637  1
  C  C17  1  0.250000  0.363960  0.152363  1
  C  C18  1  0.750000  0.136040  0.652363  1
  C  C19  1  0.750000  0.636040  0.847637  1
  C  C20  1  0.250000  0.387928  0.750070  1
  C  C21  1  0.250000  0.887928  0.749930  1
  C  C22  1  0.750000  0.612072  0.249930  1
  C  C23  1  0.750000  0.112072  0.250070  1
  Cl  Cl24  1  0.250000  0.376986  0.952533  1
  Cl  Cl25  1  0.250000  0.876986  0.547467  1
  Cl  Cl26  1  0.750000  0.623014  0.047467  1
  Cl  Cl27  1  0.750000  0.123014  0.452533  1
  Cl  Cl28  1  0.250000  0.887887  0.944598  1
  Cl  Cl29  1  0.250000  0.387887  0.555402  1
  Cl  Cl30  1  0.750000  0.112113  0.055402  1
  Cl  Cl31  1  0.750000  0.612113  0.444598  1
  Cl  Cl32  1  0.250000  0.360618  0.353776  1
  Cl  Cl33  1  0.250000  0.860618  0.146224  1
  Cl  Cl34  1  0.750000  0.639382  0.646224  1
  Cl  Cl35  1  0.750000  0.139382  0.853776  1
