# generated using pymatgen
data_Cs3RbCr3ReN8
_symmetry_space_group_name_H-M   'P 1'
_cell_length_a   5.86191600
_cell_length_b   8.35021100
_cell_length_c   11.78819800
_cell_angle_alpha   90.00000000
_cell_angle_beta   90.00000000
_cell_angle_gamma   90.00000000
_symmetry_Int_Tables_number   1
_chemical_formula_structural   Cs3RbCr3ReN8
_chemical_formula_sum   'Cs6 Rb2 Cr6 Re2 N16'
_cell_volume   577.01149140
_cell_formula_units_Z   2
loop_
 _symmetry_equiv_pos_site_id
 _symmetry_equiv_pos_as_xyz
  1  'x, y, z'
loop_
 _atom_site_type_symbol
 _atom_site_label
 _atom_site_symmetry_multiplicity
 _atom_site_fract_x
 _atom_site_fract_y
 _atom_site_fract_z
 _atom_site_occupancy
  Cs  Cs0  1  0.250000  0.874023  0.000000  1
  Cs  Cs1  1  0.750000  0.125977  0.500000  1
  Cs  Cs2  1  0.742910  0.367064  0.238090  1
  Cs  Cs3  1  0.242910  0.632936  0.261910  1
  Cs  Cs4  1  0.257090  0.632936  0.738090  1
  Cs  Cs5  1  0.757090  0.367064  0.761910  1
  Rb  Rb6  1  0.750000  0.102175  0.000000  1
  Rb  Rb7  1  0.250000  0.897825  0.500000  1
  Cr  Cr8  1  0.750000  0.639099  0.000000  1
  Cr  Cr9  1  0.250000  0.360901  0.500000  1
  Cr  Cr10  1  0.244465  0.120069  0.252523  1
  Cr  Cr11  1  0.744465  0.879931  0.247477  1
  Cr  Cr12  1  0.755535  0.879931  0.752523  1
  Cr  Cr13  1  0.255535  0.120069  0.747477  1
  Re  Re14  1  0.250000  0.377384  0.000000  1
  Re  Re15  1  0.750000  0.622616  0.500000  1
  N  N16  1  0.991950  0.002636  0.249904  1
  N  N17  1  0.491950  0.997364  0.250096  1
  N  N18  1  0.008050  0.997364  0.749904  1
  N  N19  1  0.508050  0.002636  0.750096  1
  N  N20  1  0.248055  0.238470  0.377597  1
  N  N21  1  0.748055  0.761530  0.122403  1
  N  N22  1  0.751945  0.761530  0.877597  1
  N  N23  1  0.251945  0.238470  0.622403  1
  N  N24  1  0.751767  0.751740  0.628143  1
  N  N25  1  0.251767  0.248260  0.871857  1
  N  N26  1  0.248233  0.248260  0.128143  1
  N  N27  1  0.748233  0.751740  0.371857  1
  N  N28  1  0.495566  0.490363  0.499830  1
  N  N29  1  0.995566  0.509637  0.000170  1
  N  N30  1  0.504434  0.509637  0.999830  1
  N  N31  1  0.004434  0.490363  0.500170  1
