# generated using pymatgen
data_Gd10AlIn9Ni4
_symmetry_space_group_name_H-M   'P 1'
_cell_length_a   3.70124500
_cell_length_b   12.91046959
_cell_length_c   12.84859822
_cell_angle_alpha   110.38638505
_cell_angle_beta   90.00000000
_cell_angle_gamma   90.00000000
_symmetry_Int_Tables_number   1
_chemical_formula_structural   Gd10AlIn9Ni4
_chemical_formula_sum   'Gd10 Al1 In9 Ni4'
_cell_volume   575.51183498
_cell_formula_units_Z   1
loop_
 _symmetry_equiv_pos_site_id
 _symmetry_equiv_pos_as_xyz
  1  'x, y, z'
loop_
 _atom_site_type_symbol
 _atom_site_label
 _atom_site_symmetry_multiplicity
 _atom_site_fract_x
 _atom_site_fract_y
 _atom_site_fract_z
 _atom_site_occupancy
  Gd  Gd0  1  0.000000  0.069185  0.423282  1
  Gd  Gd1  1  0.000000  0.580360  0.919614  1
  Gd  Gd2  1  0.000000  0.420809  0.080236  1
  Gd  Gd3  1  0.000000  0.156524  0.838904  1
  Gd  Gd4  1  0.000000  0.841914  0.159762  1
  Gd  Gd5  1  0.000000  0.371336  0.627973  1
  Gd  Gd6  1  0.000000  0.631804  0.373705  1
  Gd  Gd7  1  0.000000  0.696347  0.684871  1
  Gd  Gd8  1  0.000000  0.312930  0.316456  1
  Gd  Gd9  1  0.000000  0.000136  0.997205  1
  Al  Al10  1  0.000000  0.902306  0.573366  1
  In  In11  1  0.500000  0.149154  0.635313  1
  In  In12  1  0.500000  0.845285  0.376485  1
  In  In13  1  0.500000  0.634215  0.160528  1
  In  In14  1  0.500000  0.368707  0.844595  1
  In  In15  1  0.500000  0.929981  0.765483  1
  In  In16  1  0.500000  0.077180  0.221066  1
  In  In17  1  0.500000  0.779715  0.916863  1
  In  In18  1  0.500000  0.220849  0.078923  1
  In  In19  1  0.500000  0.502349  0.501659  1
  Ni  Ni20  1  0.500000  0.768282  0.551295  1
  Ni  Ni21  1  0.500000  0.240108  0.452686  1
  Ni  Ni22  1  0.500000  0.548188  0.748540  1
  Ni  Ni23  1  0.500000  0.452339  0.251191  1
