# generated using pymatgen
data_LaPr7(Si3Ir)4
_symmetry_space_group_name_H-M   'P 1'
_cell_length_a   8.25708300
_cell_length_b   8.29743006
_cell_length_c   8.52171200
_cell_angle_alpha   90.00000000
_cell_angle_beta   90.00000000
_cell_angle_gamma   120.16177040
_symmetry_Int_Tables_number   1
_chemical_formula_structural   LaPr7(Si3Ir)4
_chemical_formula_sum   'La1 Pr7 Si12 Ir4'
_cell_volume   504.79782877
_cell_formula_units_Z   1
loop_
 _symmetry_equiv_pos_site_id
 _symmetry_equiv_pos_as_xyz
  1  'x, y, z'
loop_
 _atom_site_type_symbol
 _atom_site_label
 _atom_site_symmetry_multiplicity
 _atom_site_fract_x
 _atom_site_fract_y
 _atom_site_fract_z
 _atom_site_occupancy
  La  La0  1  0.000880  0.500441  0.750000  1
  Pr  Pr1  1  0.999690  0.999845  0.250000  1
  Pr  Pr2  1  0.000108  0.000054  0.750000  1
  Pr  Pr3  1  0.499990  0.499650  0.250000  1
  Pr  Pr4  1  0.499990  0.000341  0.250000  1
  Pr  Pr5  1  0.999311  0.499656  0.250000  1
  Pr  Pr6  1  0.500115  0.500117  0.750000  1
  Pr  Pr7  1  0.500115  0.999997  0.750000  1
  Si  Si8  1  0.167129  0.833968  0.498614  1
  Si  Si9  1  0.167129  0.333163  0.498614  1
  Si  Si10  1  0.666371  0.833186  0.500170  1
  Si  Si11  1  0.832882  0.165957  0.498586  1
  Si  Si12  1  0.832882  0.666924  0.498586  1
  Si  Si13  1  0.333487  0.166742  0.500196  1
  Si  Si14  1  0.832882  0.165957  0.001414  1
  Si  Si15  1  0.832882  0.666924  0.001414  1
  Si  Si16  1  0.333487  0.166742  0.999804  1
  Si  Si17  1  0.167129  0.833968  0.001386  1
  Si  Si18  1  0.167129  0.333163  0.001386  1
  Si  Si19  1  0.666371  0.833186  0.999830  1
  Ir  Ir20  1  0.332427  0.666214  0.498206  1
  Ir  Ir21  1  0.667596  0.333797  0.499242  1
  Ir  Ir22  1  0.667596  0.333797  0.000758  1
  Ir  Ir23  1  0.332427  0.666214  0.001794  1
