# generated using pymatgen
data_Pu3U2O10
_symmetry_space_group_name_H-M   'P 1'
_cell_length_a   6.61431805
_cell_length_b   6.61431896
_cell_length_c   8.52707425
_cell_angle_alpha   49.96991816
_cell_angle_beta   49.96990980
_cell_angle_gamma   48.24860095
_symmetry_Int_Tables_number   1
_chemical_formula_structural   Pu3U2O10
_chemical_formula_sum   'Pu3 U2 O10'
_cell_volume   197.45296216
_cell_formula_units_Z   1
loop_
 _symmetry_equiv_pos_site_id
 _symmetry_equiv_pos_as_xyz
  1  'x, y, z'
loop_
 _atom_site_type_symbol
 _atom_site_label
 _atom_site_symmetry_multiplicity
 _atom_site_fract_x
 _atom_site_fract_y
 _atom_site_fract_z
 _atom_site_occupancy
  Pu  Pu0  1  0.101164  0.101164  0.598173  1
  Pu  Pu1  1  0.500000  0.500000  0.000000  1
  Pu  Pu2  1  0.898836  0.898836  0.401827  1
  U  U3  1  0.299204  0.299204  0.799663  1
  U  U4  1  0.700796  0.700796  0.200337  1
  O  O5  1  0.554306  0.042098  0.294674  1
  O  O6  1  0.957902  0.445694  0.705326  1
  O  O7  1  0.042098  0.554306  0.294674  1
  O  O8  1  0.355410  0.855731  0.099341  1
  O  O9  1  0.445694  0.957902  0.705326  1
  O  O10  1  0.739369  0.260631  0.500000  1
  O  O11  1  0.855731  0.355410  0.099341  1
  O  O12  1  0.144269  0.644590  0.900659  1
  O  O13  1  0.260631  0.739369  0.500000  1
  O  O14  1  0.644590  0.144269  0.900659  1
