# generated using pymatgen
data_YbPr4Ga2Ru3
_symmetry_space_group_name_H-M   'P 1'
_cell_length_a   8.52244942
_cell_length_b   8.53387628
_cell_length_c   8.50549400
_cell_angle_alpha   109.04263607
_cell_angle_beta   109.32386323
_cell_angle_gamma   109.89765502
_symmetry_Int_Tables_number   1
_chemical_formula_structural   YbPr4Ga2Ru3
_chemical_formula_sum   'Yb2 Pr8 Ga4 Ru6'
_cell_volume   477.05483140
_cell_formula_units_Z   2
loop_
 _symmetry_equiv_pos_site_id
 _symmetry_equiv_pos_as_xyz
  1  'x, y, z'
loop_
 _atom_site_type_symbol
 _atom_site_label
 _atom_site_symmetry_multiplicity
 _atom_site_fract_x
 _atom_site_fract_y
 _atom_site_fract_z
 _atom_site_occupancy
  Yb  Yb0  1  0.470034  0.157252  0.220687  1
  Yb  Yb1  1  0.159217  0.222589  0.473132  1
  Pr  Pr2  1  0.222204  0.470526  0.159943  1
  Pr  Pr3  1  0.403343  0.687950  0.903631  1
  Pr  Pr4  1  0.691129  0.911039  0.403640  1
  Pr  Pr5  1  0.904411  0.403061  0.687354  1
  Pr  Pr6  1  0.657241  0.092327  0.844424  1
  Pr  Pr7  1  0.094391  0.846715  0.658566  1
  Pr  Pr8  1  0.845557  0.658081  0.095709  1
  Pr  Pr9  1  0.624147  0.621704  0.622951  1
  Ga  Ga10  1  0.408418  0.320914  0.908450  1
  Ga  Ga11  1  0.321852  0.914091  0.405178  1
  Ga  Ga12  1  0.903862  0.403031  0.319901  1
  Ga  Ga13  1  0.998427  0.994415  0.999783  1
  Ru  Ru14  1  0.038209  0.157499  0.791137  1
  Ru  Ru15  1  0.155608  0.781697  0.033577  1
  Ru  Ru16  1  0.789847  0.038465  0.155585  1
  Ru  Ru17  1  0.659454  0.531553  0.279938  1
  Ru  Ru18  1  0.527542  0.276206  0.661519  1
  Ru  Ru19  1  0.275106  0.660884  0.524903  1
