# generated using pymatgen
data_Sm8PdPt23W
_symmetry_space_group_name_H-M   'P 1'
_cell_length_a   8.47068400
_cell_length_b   8.47068400
_cell_length_c   8.48640100
_cell_angle_alpha   90.00000000
_cell_angle_beta   90.00000000
_cell_angle_gamma   90.00000000
_symmetry_Int_Tables_number   1
_chemical_formula_structural   Sm8PdPt23W
_chemical_formula_sum   'Sm8 Pd1 Pt23 W1'
_cell_volume   608.92038106
_cell_formula_units_Z   1
loop_
 _symmetry_equiv_pos_site_id
 _symmetry_equiv_pos_as_xyz
  1  'x, y, z'
loop_
 _atom_site_type_symbol
 _atom_site_label
 _atom_site_symmetry_multiplicity
 _atom_site_fract_x
 _atom_site_fract_y
 _atom_site_fract_z
 _atom_site_occupancy
  Sm  Sm0  1  0.250912  0.250912  0.251258  1
  Sm  Sm1  1  0.748759  0.748759  0.748772  1
  Sm  Sm2  1  0.749088  0.749088  0.251258  1
  Sm  Sm3  1  0.748759  0.251241  0.748772  1
  Sm  Sm4  1  0.251241  0.251241  0.748772  1
  Sm  Sm5  1  0.250912  0.749088  0.251258  1
  Sm  Sm6  1  0.251241  0.748759  0.748772  1
  Sm  Sm7  1  0.749088  0.250912  0.251258  1
  Pd  Pd8  1  0.500000  0.500000  0.745076  1
  Pt  Pt9  1  0.264423  0.500000  0.000365  1
  Pt  Pt10  1  0.735577  0.500000  0.000365  1
  Pt  Pt11  1  0.000000  0.264089  0.500100  1
  Pt  Pt12  1  0.500000  0.264423  0.000365  1
  Pt  Pt13  1  0.000000  0.735911  0.500100  1
  Pt  Pt14  1  0.500000  0.735577  0.000365  1
  Pt  Pt15  1  0.500000  0.000000  0.263838  1
  Pt  Pt16  1  0.264089  0.000000  0.500100  1
  Pt  Pt17  1  0.500000  0.000000  0.735748  1
  Pt  Pt18  1  0.735911  0.000000  0.500100  1
  Pt  Pt19  1  0.000000  0.500000  0.263838  1
  Pt  Pt20  1  0.000000  0.500000  0.735748  1
  Pt  Pt21  1  0.254754  0.500000  0.499683  1
  Pt  Pt22  1  0.745246  0.500000  0.499683  1
  Pt  Pt23  1  0.500000  0.254754  0.499683  1
  Pt  Pt24  1  0.500000  0.745246  0.499683  1
  Pt  Pt25  1  0.500000  0.500000  0.254713  1
  Pt  Pt26  1  0.302680  0.000000  0.999813  1
  Pt  Pt27  1  0.697320  0.000000  0.999813  1
  Pt  Pt28  1  0.000000  0.302680  0.999813  1
  Pt  Pt29  1  0.000000  0.697320  0.999813  1
  Pt  Pt30  1  0.000000  0.000000  0.302266  1
  Pt  Pt31  1  0.000000  0.000000  0.698424  1
  W  W32  1  0.000000  0.000000  0.000381  1
