# generated using pymatgen
data_Dy5HoU4O20
_symmetry_space_group_name_H-M   'P 1'
_cell_length_a   6.64642008
_cell_length_b   7.49614488
_cell_length_c   8.40836088
_cell_angle_alpha   100.88013842
_cell_angle_beta   97.64963085
_cell_angle_gamma   107.25433396
_symmetry_Int_Tables_number   1
_chemical_formula_structural   Dy5HoU4O20
_chemical_formula_sum   'Dy5 Ho1 U4 O20'
_cell_volume   384.81171774
_cell_formula_units_Z   1
loop_
 _symmetry_equiv_pos_site_id
 _symmetry_equiv_pos_as_xyz
  1  'x, y, z'
loop_
 _atom_site_type_symbol
 _atom_site_label
 _atom_site_symmetry_multiplicity
 _atom_site_fract_x
 _atom_site_fract_y
 _atom_site_fract_z
 _atom_site_occupancy
  Dy  Dy0  1  0.614814  0.703759  0.699209  1
  Dy  Dy1  1  0.385186  0.296241  0.300791  1
  Dy  Dy2  1  0.197228  0.896513  0.891028  1
  Dy  Dy3  1  0.000000  0.500000  0.500000  1
  Dy  Dy4  1  0.802772  0.103487  0.108972  1
  Ho  Ho5  1  0.000000  0.000000  0.500000  1
  U  U6  1  0.401598  0.804581  0.301873  1
  U  U7  1  0.199008  0.399651  0.898996  1
  U  U8  1  0.800992  0.600349  0.101004  1
  U  U9  1  0.598402  0.195419  0.698127  1
  O  O10  1  0.439975  0.532170  0.137611  1
  O  O11  1  0.555130  0.987049  0.841465  1
  O  O12  1  0.267230  0.143406  0.744040  1
  O  O13  1  0.359928  0.594266  0.442678  1
  O  O14  1  0.053875  0.729662  0.333249  1
  O  O15  1  0.444870  0.012951  0.158535  1
  O  O16  1  0.150690  0.183280  0.032586  1
  O  O17  1  0.560025  0.467830  0.862389  1
  O  O18  1  0.854493  0.336280  0.950875  1
  O  O19  1  0.257255  0.606673  0.758627  1
  O  O20  1  0.953592  0.772795  0.651530  1
  O  O21  1  0.352785  0.062317  0.453266  1
  O  O22  1  0.647215  0.937683  0.546734  1
  O  O23  1  0.046408  0.227205  0.348470  1
  O  O24  1  0.742745  0.393327  0.241373  1
  O  O25  1  0.145507  0.663720  0.049125  1
  O  O26  1  0.849310  0.816720  0.967414  1
  O  O27  1  0.946125  0.270338  0.666751  1
  O  O28  1  0.640072  0.405734  0.557322  1
  O  O29  1  0.732770  0.856594  0.255960  1
