# generated using pymatgen
data_Sc2VNi7Pt2
_symmetry_space_group_name_H-M   'P 1'
_cell_length_a   3.74305800
_cell_length_b   3.74305800
_cell_length_c   10.90681300
_cell_angle_alpha   90.00000000
_cell_angle_beta   90.00000000
_cell_angle_gamma   90.00000000
_symmetry_Int_Tables_number   1
_chemical_formula_structural   Sc2VNi7Pt2
_chemical_formula_sum   'Sc2 V1 Ni7 Pt2'
_cell_volume   152.80972021
_cell_formula_units_Z   1
loop_
 _symmetry_equiv_pos_site_id
 _symmetry_equiv_pos_as_xyz
  1  'x, y, z'
loop_
 _atom_site_type_symbol
 _atom_site_label
 _atom_site_symmetry_multiplicity
 _atom_site_fract_x
 _atom_site_fract_y
 _atom_site_fract_z
 _atom_site_occupancy
  Sc  Sc0  1  0.000000  0.000000  0.329776  1
  Sc  Sc1  1  0.000000  0.000000  0.670224  1
  V  V2  1  0.000000  0.000000  0.000000  1
  Ni  Ni3  1  0.500000  0.500000  0.000000  1
  Ni  Ni4  1  0.500000  0.000000  0.145856  1
  Ni  Ni5  1  0.500000  0.000000  0.500000  1
  Ni  Ni6  1  0.500000  0.000000  0.854144  1
  Ni  Ni7  1  0.000000  0.500000  0.145856  1
  Ni  Ni8  1  0.000000  0.500000  0.500000  1
  Ni  Ni9  1  0.000000  0.500000  0.854144  1
  Pt  Pt10  1  0.500000  0.500000  0.323214  1
  Pt  Pt11  1  0.500000  0.500000  0.676786  1
