# generated using pymatgen
data_U3Zn3Ir2Pt
_symmetry_space_group_name_H-M   'P 1'
_cell_length_a   6.95184600
_cell_length_b   6.95184766
_cell_length_c   4.08261100
_cell_angle_alpha   90.00000000
_cell_angle_beta   90.00000000
_cell_angle_gamma   120.00001114
_symmetry_Int_Tables_number   1
_chemical_formula_structural   U3Zn3Ir2Pt
_chemical_formula_sum   'U3 Zn3 Ir2 Pt1'
_cell_volume   170.87124104
_cell_formula_units_Z   1
loop_
 _symmetry_equiv_pos_site_id
 _symmetry_equiv_pos_as_xyz
  1  'x, y, z'
loop_
 _atom_site_type_symbol
 _atom_site_label
 _atom_site_symmetry_multiplicity
 _atom_site_fract_x
 _atom_site_fract_y
 _atom_site_fract_z
 _atom_site_occupancy
  U  U0  1  0.425465  0.425465  0.500000  1
  U  U1  1  0.574535  0.000000  0.500000  1
  U  U2  1  0.000000  0.574535  0.500000  1
  Zn  Zn3  1  0.763091  0.763091  0.000000  1
  Zn  Zn4  1  0.236909  0.000000  0.000000  1
  Zn  Zn5  1  0.000000  0.236909  0.000000  1
  Ir  Ir6  1  0.666667  0.333333  0.000000  1
  Ir  Ir7  1  0.333333  0.666667  0.000000  1
  Pt  Pt8  1  0.000000  0.000000  0.500000  1
