# generated using pymatgen
data_Cs3Rb11Tl6(VP5)2
_symmetry_space_group_name_H-M   'P 1'
_cell_length_a   8.53444683
_cell_length_b   9.48678925
_cell_length_c   14.30570437
_cell_angle_alpha   85.60926697
_cell_angle_beta   84.18707050
_cell_angle_gamma   86.46291084
_symmetry_Int_Tables_number   1
_chemical_formula_structural   Cs3Rb11Tl6(VP5)2
_chemical_formula_sum   'Cs3 Rb11 Tl6 V2 P10'
_cell_volume   1147.21648390
_cell_formula_units_Z   1
loop_
 _symmetry_equiv_pos_site_id
 _symmetry_equiv_pos_as_xyz
  1  'x, y, z'
loop_
 _atom_site_type_symbol
 _atom_site_label
 _atom_site_symmetry_multiplicity
 _atom_site_fract_x
 _atom_site_fract_y
 _atom_site_fract_z
 _atom_site_occupancy
  Cs  Cs0  1  0.181081  0.192950  0.870193  1
  Cs  Cs1  1  0.322312  0.917561  0.113707  1
  Cs  Cs2  1  0.679492  0.654800  0.404971  1
  Rb  Rb3  1  0.851566  0.354590  0.657377  1
  Rb  Rb4  1  0.817294  0.802246  0.138247  1
  Rb  Rb5  1  0.235783  0.009846  0.469232  1
  Rb  Rb6  1  0.270138  0.263644  0.250507  1
  Rb  Rb7  1  0.734687  0.500126  0.976524  1
  Rb  Rb8  1  0.264750  0.503011  0.022498  1
  Rb  Rb9  1  0.674018  0.088301  0.883576  1
  Rb  Rb10  1  0.757660  0.994251  0.531509  1
  Rb  Rb11  1  0.727352  0.736510  0.748096  1
  Rb  Rb12  1  0.347581  0.348974  0.600246  1
  Rb  Rb13  1  0.162590  0.641168  0.344669  1
  Tl  Tl14  1  0.051011  0.813497  0.873834  1
  Tl  Tl15  1  0.944879  0.183525  0.127001  1
  Tl  Tl16  1  0.365242  0.956207  0.700973  1
  Tl  Tl17  1  0.089669  0.714832  0.617586  1
  Tl  Tl18  1  0.906302  0.281775  0.381284  1
  Tl  Tl19  1  0.629380  0.043939  0.296721  1
  V  V20  1  0.353689  0.606810  0.772564  1
  V  V21  1  0.645911  0.392947  0.225358  1
  P  P22  1  0.907213  0.452463  0.209172  1
  P  P23  1  0.616716  0.213456  0.124495  1
  P  P24  1  0.092769  0.546623  0.790031  1
  P  P25  1  0.577284  0.304369  0.380986  1
  P  P26  1  0.416815  0.696764  0.617062  1
  P  P27  1  0.018033  0.000303  0.699850  1
  P  P28  1  0.509603  0.416601  0.805591  1
  P  P29  1  0.493807  0.584276  0.191716  1
  P  P30  1  0.381679  0.787498  0.872204  1
  P  P31  1  0.973695  0.996135  0.302224  1
