# generated using pymatgen
data_Hf5Al16GaIr5Pt2
_symmetry_space_group_name_H-M   'P 1'
_cell_length_a   8.67589733
_cell_length_b   8.76561631
_cell_length_c   8.76561724
_cell_angle_alpha   59.32398545
_cell_angle_beta   60.33800764
_cell_angle_gamma   60.33800714
_symmetry_Int_Tables_number   1
_chemical_formula_structural   Hf5Al16GaIr5Pt2
_chemical_formula_sum   'Hf5 Al16 Ga1 Ir5 Pt2'
_cell_volume   471.27486946
_cell_formula_units_Z   1
loop_
 _symmetry_equiv_pos_site_id
 _symmetry_equiv_pos_as_xyz
  1  'x, y, z'
loop_
 _atom_site_type_symbol
 _atom_site_label
 _atom_site_symmetry_multiplicity
 _atom_site_fract_x
 _atom_site_fract_y
 _atom_site_fract_z
 _atom_site_occupancy
  Hf  Hf0  1  0.316086  0.683914  0.683914  1
  Hf  Hf1  1  0.285871  0.714129  0.287538  1
  Hf  Hf2  1  0.712462  0.287538  0.714129  1
  Hf  Hf3  1  0.285871  0.287538  0.714129  1
  Hf  Hf4  1  0.712462  0.714129  0.287538  1
  Al  Al5  1  0.380998  0.336134  0.336134  1
  Al  Al6  1  0.675349  0.653921  0.653921  1
  Al  Al7  1  0.346079  0.324651  0.983191  1
  Al  Al8  1  0.346079  0.983191  0.324651  1
  Al  Al9  1  0.663866  0.619002  0.053264  1
  Al  Al10  1  0.663866  0.053264  0.619002  1
  Al  Al11  1  0.946736  0.336134  0.336134  1
  Al  Al12  1  0.016809  0.653921  0.653921  1
  Al  Al13  1  0.105965  0.122557  0.122557  1
  Al  Al14  1  0.888647  0.868595  0.868595  1
  Al  Al15  1  0.131405  0.111353  0.625839  1
  Al  Al16  1  0.131405  0.625839  0.111353  1
  Al  Al17  1  0.877443  0.894035  0.351077  1
  Al  Al18  1  0.877443  0.351077  0.894035  1
  Al  Al19  1  0.648923  0.122557  0.122557  1
  Al  Al20  1  0.374161  0.868595  0.868595  1
  Ga  Ga21  1  0.543346  0.456654  0.456654  1
  Ir  Ir22  1  0.012639  0.496225  0.987361  1
  Ir  Ir23  1  0.503775  0.987361  0.496225  1
  Ir  Ir24  1  0.012639  0.987361  0.496225  1
  Ir  Ir25  1  0.503775  0.496225  0.987361  1
  Ir  Ir26  1  0.010123  0.989877  0.989877  1
  Pt  Pt27  1  0.512888  0.987112  0.987112  1
  Pt  Pt28  1  0.012888  0.487112  0.487112  1
