# generated using pymatgen
data_PBrCl4
_symmetry_space_group_name_H-M   'P 1'
_cell_length_a   8.44130800
_cell_length_b   8.44130800
_cell_length_c   5.52533600
_cell_angle_alpha   90.00000000
_cell_angle_beta   90.00000000
_cell_angle_gamma   90.00000000
_symmetry_Int_Tables_number   1
_chemical_formula_structural   PBrCl4
_chemical_formula_sum   'P2 Br2 Cl8'
_cell_volume   393.71157806
_cell_formula_units_Z   2
loop_
 _symmetry_equiv_pos_site_id
 _symmetry_equiv_pos_as_xyz
  1  'x, y, z'
loop_
 _atom_site_type_symbol
 _atom_site_label
 _atom_site_symmetry_multiplicity
 _atom_site_fract_x
 _atom_site_fract_y
 _atom_site_fract_z
 _atom_site_occupancy
  P  P0  1  0.500000  0.500000  0.000000  1
  P  P1  1  0.000000  0.000000  0.000000  1
  Br  Br2  1  0.000000  0.500000  0.471406  1
  Br  Br3  1  0.500000  0.000000  0.528594  1
  Cl  Cl4  1  0.000000  0.194643  0.792791  1
  Cl  Cl5  1  0.305357  0.500000  0.792791  1
  Cl  Cl6  1  0.500000  0.694643  0.207209  1
  Cl  Cl7  1  0.194643  0.000000  0.207209  1
  Cl  Cl8  1  0.805357  0.000000  0.207209  1
  Cl  Cl9  1  0.500000  0.305357  0.207209  1
  Cl  Cl10  1  0.000000  0.805357  0.792791  1
  Cl  Cl11  1  0.694643  0.500000  0.792791  1
