# generated using pymatgen
data_LaPr3(In2I5)4
_symmetry_space_group_name_H-M   'P 1'
_cell_length_a   9.20706113
_cell_length_b   9.84390000
_cell_length_c   14.42337178
_cell_angle_alpha   90.00000000
_cell_angle_beta   89.94313634
_cell_angle_gamma   90.00000000
_symmetry_Int_Tables_number   1
_chemical_formula_structural   LaPr3(In2I5)4
_chemical_formula_sum   'La1 Pr3 In8 I20'
_cell_volume   1307.23842239
_cell_formula_units_Z   1
loop_
 _symmetry_equiv_pos_site_id
 _symmetry_equiv_pos_as_xyz
  1  'x, y, z'
loop_
 _atom_site_type_symbol
 _atom_site_label
 _atom_site_symmetry_multiplicity
 _atom_site_fract_x
 _atom_site_fract_y
 _atom_site_fract_z
 _atom_site_occupancy
  La  La0  1  0.920920  0.750000  0.505990  1
  Pr  Pr1  1  0.079789  0.250000  0.494047  1
  Pr  Pr2  1  0.420132  0.250000  0.993999  1
  Pr  Pr3  1  0.579889  0.750000  0.006108  1
  In  In4  1  0.950275  0.004185  0.826393  1
  In  In5  1  0.049351  0.995927  0.173539  1
  In  In6  1  0.450626  0.995825  0.673636  1
  In  In7  1  0.049351  0.504073  0.173539  1
  In  In8  1  0.549343  0.004193  0.326379  1
  In  In9  1  0.950275  0.495815  0.826393  1
  In  In10  1  0.549343  0.495807  0.326379  1
  In  In11  1  0.450626  0.504175  0.673636  1
  I  I12  1  0.129919  0.750000  0.685912  1
  I  I13  1  0.871342  0.250000  0.315238  1
  I  I14  1  0.628665  0.250000  0.815263  1
  I  I15  1  0.371253  0.750000  0.184820  1
  I  I16  1  0.830374  0.047350  0.580636  1
  I  I17  1  0.170141  0.955605  0.419425  1
  I  I18  1  0.331022  0.954548  0.919995  1
  I  I19  1  0.170141  0.544395  0.419425  1
  I  I20  1  0.669083  0.045472  0.080035  1
  I  I21  1  0.830374  0.452650  0.580636  1
  I  I22  1  0.669083  0.454528  0.080035  1
  I  I23  1  0.331022  0.545452  0.919995  1
  I  I24  1  0.564600  0.750000  0.505431  1
  I  I25  1  0.433477  0.250000  0.494577  1
  I  I26  1  0.066635  0.250000  0.994550  1
  I  I27  1  0.933409  0.750000  0.005388  1
  I  I28  1  0.665638  0.750000  0.790907  1
  I  I29  1  0.334461  0.250000  0.209010  1
  I  I30  1  0.165624  0.250000  0.709024  1
  I  I31  1  0.833815  0.750000  0.289661  1
