# generated using pymatgen
data_Pr2Nd6Si12Pt3Rh
_symmetry_space_group_name_H-M   'P 1'
_cell_length_a   8.24575500
_cell_length_b   8.24575585
_cell_length_c   8.57063800
_cell_angle_alpha   90.00000000
_cell_angle_beta   90.00000000
_cell_angle_gamma   120.00000059
_symmetry_Int_Tables_number   1
_chemical_formula_structural   Pr2Nd6Si12Pt3Rh
_chemical_formula_sum   'Pr2 Nd6 Si12 Pt3 Rh1'
_cell_volume   504.66673556
_cell_formula_units_Z   1
loop_
 _symmetry_equiv_pos_site_id
 _symmetry_equiv_pos_as_xyz
  1  'x, y, z'
loop_
 _atom_site_type_symbol
 _atom_site_label
 _atom_site_symmetry_multiplicity
 _atom_site_fract_x
 _atom_site_fract_y
 _atom_site_fract_z
 _atom_site_occupancy
  Pr  Pr0  1  0.000000  0.000000  0.750879  1
  Pr  Pr1  1  0.000000  0.000000  0.249211  1
  Nd  Nd2  1  0.498601  0.501399  0.752223  1
  Nd  Nd3  1  0.498601  0.997202  0.752223  1
  Nd  Nd4  1  0.002798  0.501399  0.752223  1
  Nd  Nd5  1  0.499726  0.500274  0.247691  1
  Nd  Nd6  1  0.000548  0.500274  0.247691  1
  Nd  Nd7  1  0.499726  0.999452  0.247691  1
  Si  Si8  1  0.834613  0.165387  0.999386  1
  Si  Si9  1  0.834613  0.669227  0.999386  1
  Si  Si10  1  0.330773  0.165387  0.999386  1
  Si  Si11  1  0.833698  0.166302  0.500747  1
  Si  Si12  1  0.833698  0.667396  0.500747  1
  Si  Si13  1  0.332604  0.166302  0.500747  1
  Si  Si14  1  0.165888  0.834112  0.499384  1
  Si  Si15  1  0.668223  0.834112  0.499384  1
  Si  Si16  1  0.165888  0.331777  0.499384  1
  Si  Si17  1  0.168078  0.831922  0.000604  1
  Si  Si18  1  0.663843  0.831922  0.000604  1
  Si  Si19  1  0.168078  0.336157  0.000604  1
  Pt  Pt20  1  0.666667  0.333333  0.998554  1
  Pt  Pt21  1  0.666667  0.333333  0.501144  1
  Pt  Pt22  1  0.333333  0.666667  0.498539  1
  Rh  Rh23  1  0.333333  0.666667  0.001562  1
