# generated using pymatgen
data_Tb19DyCoBi8Ru3
_symmetry_space_group_name_H-M   'P 1'
_cell_length_a   8.04259796
_cell_length_b   9.02449603
_cell_length_c   12.50324324
_cell_angle_alpha   89.99529785
_cell_angle_beta   90.31838808
_cell_angle_gamma   89.99218332
_symmetry_Int_Tables_number   1
_chemical_formula_structural   Tb19DyCoBi8Ru3
_chemical_formula_sum   'Tb19 Dy1 Co1 Bi8 Ru3'
_cell_volume   907.47628966
_cell_formula_units_Z   1
loop_
 _symmetry_equiv_pos_site_id
 _symmetry_equiv_pos_as_xyz
  1  'x, y, z'
loop_
 _atom_site_type_symbol
 _atom_site_label
 _atom_site_symmetry_multiplicity
 _atom_site_fract_x
 _atom_site_fract_y
 _atom_site_fract_z
 _atom_site_occupancy
  Tb  Tb0  1  0.845804  0.750024  0.800060  1
  Tb  Tb1  1  0.155432  0.249985  0.204812  1
  Tb  Tb2  1  0.344707  0.249941  0.706238  1
  Tb  Tb3  1  0.654580  0.750023  0.294952  1
  Tb  Tb4  1  0.376981  0.750070  0.694355  1
  Tb  Tb5  1  0.621779  0.249909  0.306531  1
  Tb  Tb6  1  0.877195  0.249976  0.807475  1
  Tb  Tb7  1  0.120015  0.750008  0.189052  1
  Tb  Tb8  1  0.946114  0.750054  0.504561  1
  Tb  Tb9  1  0.053535  0.249969  0.496106  1
  Tb  Tb10  1  0.449879  0.249995  0.996506  1
  Tb  Tb11  1  0.549788  0.749988  0.003491  1
  Tb  Tb12  1  0.323128  0.958365  0.435646  1
  Tb  Tb13  1  0.177164  0.958065  0.935623  1
  Tb  Tb14  1  0.322871  0.541684  0.435554  1
  Tb  Tb15  1  0.823882  0.035682  0.063012  1
  Tb  Tb16  1  0.676478  0.459166  0.564452  1
  Tb  Tb17  1  0.823879  0.464314  0.062996  1
  Tb  Tb18  1  0.177158  0.541920  0.935625  1
  Dy  Dy19  1  0.676041  0.040860  0.564398  1
  Co  Co20  1  0.933087  0.749999  0.009507  1
  Bi  Bi21  1  0.572211  0.492647  0.827449  1
  Bi  Bi22  1  0.428654  0.507543  0.172383  1
  Bi  Bi23  1  0.070428  0.507465  0.673358  1
  Bi  Bi24  1  0.428651  0.992469  0.172391  1
  Bi  Bi25  1  0.928879  0.493008  0.326503  1
  Bi  Bi26  1  0.572260  0.007354  0.827382  1
  Bi  Bi27  1  0.928903  0.006983  0.326512  1
  Bi  Bi28  1  0.070254  0.992549  0.673300  1
  Ru  Ru29  1  0.573344  0.750174  0.511677  1
  Ru  Ru30  1  0.425830  0.249792  0.488540  1
  Ru  Ru31  1  0.071091  0.250019  0.989554  1
