# generated using pymatgen
data_GdCoAsH2
_symmetry_space_group_name_H-M   'P 1'
_cell_length_a   4.05867700
_cell_length_b   4.05864082
_cell_length_c   8.31596900
_cell_angle_alpha   90.00000000
_cell_angle_beta   90.00000000
_cell_angle_gamma   120.00155438
_symmetry_Int_Tables_number   1
_chemical_formula_structural   GdCoAsH2
_chemical_formula_sum   'Gd2 Co2 As2 H4'
_cell_volume   118.63198580
_cell_formula_units_Z   2
loop_
 _symmetry_equiv_pos_site_id
 _symmetry_equiv_pos_as_xyz
  1  'x, y, z'
loop_
 _atom_site_type_symbol
 _atom_site_label
 _atom_site_symmetry_multiplicity
 _atom_site_fract_x
 _atom_site_fract_y
 _atom_site_fract_z
 _atom_site_occupancy
  Gd  Gd0  1  0.000000  0.000000  0.500000  1
  Gd  Gd1  1  0.000000  0.000000  0.000000  1
  Co  Co2  1  0.333327  0.666656  0.750000  1
  Co  Co3  1  0.666673  0.333344  0.250000  1
  As  As4  1  0.666659  0.333336  0.750000  1
  As  As5  1  0.333341  0.666664  0.250000  1
  H  H6  1  0.666673  0.333335  0.058995  1
  H  H7  1  0.333327  0.666665  0.941005  1
  H  H8  1  0.666673  0.333335  0.441005  1
  H  H9  1  0.333327  0.666665  0.558995  1
