# generated using pymatgen
data_Nd8B8Rh19Au
_symmetry_space_group_name_H-M   'P 1'
_cell_length_a   5.55612808
_cell_length_b   5.55933779
_cell_length_c   21.19748301
_cell_angle_alpha   90.00193820
_cell_angle_beta   90.00155970
_cell_angle_gamma   119.99680316
_symmetry_Int_Tables_number   1
_chemical_formula_structural   Nd8B8Rh19Au
_chemical_formula_sum   'Nd8 B8 Rh19 Au1'
_cell_volume   567.05375147
_cell_formula_units_Z   1
loop_
 _symmetry_equiv_pos_site_id
 _symmetry_equiv_pos_as_xyz
  1  'x, y, z'
loop_
 _atom_site_type_symbol
 _atom_site_label
 _atom_site_symmetry_multiplicity
 _atom_site_fract_x
 _atom_site_fract_y
 _atom_site_fract_z
 _atom_site_occupancy
  Nd  Nd0  1  0.666661  0.333333  0.524801  1
  Nd  Nd1  1  0.333339  0.666667  0.475199  1
  Nd  Nd2  1  0.333328  0.666667  0.020994  1
  Nd  Nd3  1  0.666672  0.333333  0.979006  1
  Nd  Nd4  1  0.666649  0.333364  0.676228  1
  Nd  Nd5  1  0.333351  0.666636  0.323772  1
  Nd  Nd6  1  0.333367  0.666620  0.173308  1
  Nd  Nd7  1  0.666633  0.333380  0.826692  1
  B  B8  1  0.999961  0.000013  0.677003  1
  B  B9  1  0.000039  0.999987  0.322997  1
  B  B10  1  0.000029  0.999977  0.177379  1
  B  B11  1  0.999971  0.000023  0.822621  1
  B  B12  1  0.666674  0.333293  0.325220  1
  B  B13  1  0.333326  0.666707  0.674780  1
  B  B14  1  0.333328  0.666710  0.825171  1
  B  B15  1  0.666672  0.333290  0.174829  1
  Rh  Rh16  1  0.000000  0.000000  0.000000  1
  Rh  Rh17  1  0.166801  0.333667  0.749980  1
  Rh  Rh18  1  0.166805  0.833206  0.749980  1
  Rh  Rh19  1  0.666346  0.833208  0.749981  1
  Rh  Rh20  1  0.833199  0.666333  0.250020  1
  Rh  Rh21  1  0.833195  0.166794  0.250020  1
  Rh  Rh22  1  0.333654  0.166792  0.250019  1
  Rh  Rh23  1  0.165417  0.330887  0.610065  1
  Rh  Rh24  1  0.165404  0.834583  0.610066  1
  Rh  Rh25  1  0.669107  0.834588  0.610066  1
  Rh  Rh26  1  0.834583  0.669113  0.389935  1
  Rh  Rh27  1  0.834596  0.165417  0.389934  1
  Rh  Rh28  1  0.330893  0.165412  0.389934  1
  Rh  Rh29  1  0.836524  0.672975  0.109581  1
  Rh  Rh30  1  0.836510  0.163480  0.109581  1
  Rh  Rh31  1  0.327036  0.163482  0.109577  1
  Rh  Rh32  1  0.163476  0.327025  0.890419  1
  Rh  Rh33  1  0.163490  0.836520  0.890419  1
  Rh  Rh34  1  0.672964  0.836518  0.890423  1
  Au  Au35  1  0.000000  0.000000  0.500000  1
