# generated using pymatgen
data_MgTaNb(Co10B3)2
_symmetry_space_group_name_H-M   'P 1'
_cell_length_a   7.45630564
_cell_length_b   7.45630649
_cell_length_c   7.45630600
_cell_angle_alpha   60.00000216
_cell_angle_beta   59.99999841
_cell_angle_gamma   60.00000269
_symmetry_Int_Tables_number   1
_chemical_formula_structural   MgTaNb(Co10B3)2
_chemical_formula_sum   'Mg1 Ta1 Nb1 Co20 B6'
_cell_volume   293.12724657
_cell_formula_units_Z   1
loop_
 _symmetry_equiv_pos_site_id
 _symmetry_equiv_pos_as_xyz
  1  'x, y, z'
loop_
 _atom_site_type_symbol
 _atom_site_label
 _atom_site_symmetry_multiplicity
 _atom_site_fract_x
 _atom_site_fract_y
 _atom_site_fract_z
 _atom_site_occupancy
  Mg  Mg0  1  0.000000  0.000000  0.000000  1
  Ta  Ta1  1  0.250000  0.250000  0.250000  1
  Nb  Nb2  1  0.750000  0.750000  0.750000  1
  Co  Co3  1  0.616193  0.616193  0.151420  1
  Co  Co4  1  0.616193  0.151420  0.616193  1
  Co  Co5  1  0.151420  0.616193  0.616193  1
  Co  Co6  1  0.616193  0.616193  0.616193  1
  Co  Co7  1  0.383871  0.383871  0.848387  1
  Co  Co8  1  0.383871  0.848387  0.383871  1
  Co  Co9  1  0.848387  0.383871  0.383871  1
  Co  Co10  1  0.383871  0.383871  0.383871  1
  Co  Co11  1  0.000240  0.000240  0.344308  1
  Co  Co12  1  0.655213  0.000240  0.344308  1
  Co  Co13  1  0.000240  0.655213  0.344308  1
  Co  Co14  1  0.655213  0.344308  0.000240  1
  Co  Co15  1  0.000240  0.344308  0.000240  1
  Co  Co16  1  0.000240  0.344308  0.655213  1
  Co  Co17  1  0.344308  0.655213  0.000240  1
  Co  Co18  1  0.344308  0.000240  0.655213  1
  Co  Co19  1  0.344308  0.000240  0.000240  1
  Co  Co20  1  0.000240  0.000240  0.655213  1
  Co  Co21  1  0.000240  0.655213  0.000240  1
  Co  Co22  1  0.655213  0.000240  0.000240  1
  B  B23  1  0.727700  0.727700  0.272300  1
  B  B24  1  0.272300  0.727700  0.272300  1
  B  B25  1  0.727700  0.272300  0.272300  1
  B  B26  1  0.272300  0.272300  0.727700  1
  B  B27  1  0.727700  0.272300  0.727700  1
  B  B28  1  0.272300  0.727700  0.727700  1
