# generated using pymatgen
data_Pr4Al18Ir5Rh
_symmetry_space_group_name_H-M   'P 1'
_cell_length_a   7.63280282
_cell_length_b   7.63280725
_cell_length_c   9.64515203
_cell_angle_alpha   89.99534631
_cell_angle_beta   89.99523246
_cell_angle_gamma   119.29084478
_symmetry_Int_Tables_number   1
_chemical_formula_structural   Pr4Al18Ir5Rh
_chemical_formula_sum   'Pr4 Al18 Ir5 Rh1'
_cell_volume   490.08039603
_cell_formula_units_Z   1
loop_
 _symmetry_equiv_pos_site_id
 _symmetry_equiv_pos_as_xyz
  1  'x, y, z'
loop_
 _atom_site_type_symbol
 _atom_site_label
 _atom_site_symmetry_multiplicity
 _atom_site_fract_x
 _atom_site_fract_y
 _atom_site_fract_z
 _atom_site_occupancy
  Pr  Pr0  1  0.995039  0.670237  0.250373  1
  Pr  Pr1  1  0.004961  0.329763  0.749627  1
  Pr  Pr2  1  0.670238  0.995038  0.250373  1
  Pr  Pr3  1  0.329762  0.004962  0.749627  1
  Al  Al4  1  0.130707  0.130706  0.249750  1
  Al  Al5  1  0.869293  0.869294  0.750250  1
  Al  Al6  1  0.003260  0.335155  0.071825  1
  Al  Al7  1  0.996740  0.664845  0.928175  1
  Al  Al8  1  0.996701  0.664816  0.571784  1
  Al  Al9  1  0.335184  0.003299  0.428216  1
  Al  Al10  1  0.003299  0.335184  0.428216  1
  Al  Al11  1  0.664816  0.996701  0.571784  1
  Al  Al12  1  0.664846  0.996740  0.928175  1
  Al  Al13  1  0.335154  0.003260  0.071825  1
  Al  Al14  1  0.334221  0.334221  0.545793  1
  Al  Al15  1  0.665779  0.665779  0.454207  1
  Al  Al16  1  0.665495  0.665495  0.046223  1
  Al  Al17  1  0.334505  0.334505  0.953777  1
  Al  Al18  1  0.338907  0.545380  0.250083  1
  Al  Al19  1  0.661093  0.454620  0.749917  1
  Al  Al20  1  0.545380  0.338907  0.250083  1
  Al  Al21  1  0.454620  0.661093  0.749917  1
  Ir  Ir22  1  0.671278  0.328719  0.000000  1
  Ir  Ir23  1  0.328722  0.671281  0.000000  1
  Ir  Ir24  1  0.328960  0.671038  0.499999  1
  Ir  Ir25  1  0.671040  0.328962  0.500001  1
  Ir  Ir26  1  0.000000  0.000000  0.500000  1
  Rh  Rh27  1  0.000000  0.000000  0.000000  1
