# generated using pymatgen
data_Na3Sr3GaSbAs3
_symmetry_space_group_name_H-M   'P 1'
_cell_length_a   9.80062808
_cell_length_b   9.80062797
_cell_length_c   7.75836800
_cell_angle_alpha   90.00000000
_cell_angle_beta   90.00000000
_cell_angle_gamma   119.99763540
_symmetry_Int_Tables_number   1
_chemical_formula_structural   Na3Sr3GaSbAs3
_chemical_formula_sum   'Na6 Sr6 Ga2 Sb2 As6'
_cell_volume   645.38544591
_cell_formula_units_Z   2
loop_
 _symmetry_equiv_pos_site_id
 _symmetry_equiv_pos_as_xyz
  1  'x, y, z'
loop_
 _atom_site_type_symbol
 _atom_site_label
 _atom_site_symmetry_multiplicity
 _atom_site_fract_x
 _atom_site_fract_y
 _atom_site_fract_z
 _atom_site_occupancy
  Na  Na0  1  0.134254  0.865747  0.168934  1
  Na  Na1  1  0.865747  0.134253  0.668933  1
  Na  Na2  1  0.134452  0.268804  0.169047  1
  Na  Na3  1  0.731194  0.865547  0.169047  1
  Na  Na4  1  0.268805  0.134452  0.669045  1
  Na  Na5  1  0.865549  0.731196  0.669045  1
  Sr  Sr6  1  0.518774  0.481228  0.006861  1
  Sr  Sr7  1  0.481227  0.518774  0.506862  1
  Sr  Sr8  1  0.518781  0.037543  0.006918  1
  Sr  Sr9  1  0.962457  0.481218  0.006918  1
  Sr  Sr10  1  0.037542  0.518782  0.506918  1
  Sr  Sr11  1  0.481219  0.962458  0.506918  1
  Ga  Ga12  1  0.333303  0.666697  0.852568  1
  Ga  Ga13  1  0.666697  0.333303  0.352569  1
  Sb  Sb14  1  0.333317  0.666685  0.217588  1
  Sb  Sb15  1  0.666684  0.333317  0.717588  1
  As  As16  1  0.188607  0.811393  0.777726  1
  As  As17  1  0.811394  0.188607  0.277725  1
  As  As18  1  0.188656  0.377307  0.777747  1
  As  As19  1  0.622692  0.811343  0.777747  1
  As  As20  1  0.377307  0.188656  0.277748  1
  As  As21  1  0.811343  0.622693  0.277748  1
