# generated using pymatgen
data_LiU8Se17
_symmetry_space_group_name_H-M   'P 1'
_cell_length_a   8.23745048
_cell_length_b   8.23744983
_cell_length_c   10.92687931
_cell_angle_alpha   79.91427556
_cell_angle_beta   79.91427618
_cell_angle_gamma   63.91057831
_symmetry_Int_Tables_number   1
_chemical_formula_structural   LiU8Se17
_chemical_formula_sum   'Li1 U8 Se17'
_cell_volume   651.56432081
_cell_formula_units_Z   1
loop_
 _symmetry_equiv_pos_site_id
 _symmetry_equiv_pos_as_xyz
  1  'x, y, z'
loop_
 _atom_site_type_symbol
 _atom_site_label
 _atom_site_symmetry_multiplicity
 _atom_site_fract_x
 _atom_site_fract_y
 _atom_site_fract_z
 _atom_site_occupancy
  Li  Li0  1  0.000000  0.000000  0.000000  1
  U  U1  1  0.818374  0.300962  0.297940  1
  U  U2  1  0.300962  0.818374  0.297940  1
  U  U3  1  0.181626  0.699038  0.702060  1
  U  U4  1  0.699038  0.181626  0.702060  1
  U  U5  1  0.801032  0.801032  0.457984  1
  U  U6  1  0.198968  0.198968  0.542016  1
  U  U7  1  0.317698  0.317698  0.011413  1
  U  U8  1  0.682302  0.682302  0.988587  1
  Se  Se9  1  0.182148  0.564414  0.465490  1
  Se  Se10  1  0.564414  0.182148  0.465490  1
  Se  Se11  1  0.817852  0.435586  0.534510  1
  Se  Se12  1  0.435586  0.817852  0.534510  1
  Se  Se13  1  0.942452  0.328382  0.035882  1
  Se  Se14  1  0.328382  0.942452  0.035882  1
  Se  Se15  1  0.057548  0.671618  0.964118  1
  Se  Se16  1  0.671618  0.057548  0.964118  1
  Se  Se17  1  0.940838  0.940838  0.228806  1
  Se  Se18  1  0.059162  0.059162  0.771194  1
  Se  Se19  1  0.785809  0.785809  0.722496  1
  Se  Se20  1  0.214191  0.214191  0.277504  1
  Se  Se21  1  0.700094  0.700094  0.247400  1
  Se  Se22  1  0.299906  0.299906  0.752600  1
  Se  Se23  1  0.478854  0.478854  0.171223  1
  Se  Se24  1  0.521146  0.521146  0.828777  1
  Se  Se25  1  0.000000  0.000000  0.500000  1
