# generated using pymatgen
data_Zr6Zn21Os2Se
_symmetry_space_group_name_H-M   'P 1'
_cell_length_a   8.81591312
_cell_length_b   8.81591262
_cell_length_c   8.81591200
_cell_angle_alpha   59.60753064
_cell_angle_beta   59.60753254
_cell_angle_gamma   59.60753290
_symmetry_Int_Tables_number   1
_chemical_formula_structural   Zr6Zn21Os2Se
_chemical_formula_sum   'Zr6 Zn21 Os2 Se1'
_cell_volume   480.17060475
_cell_formula_units_Z   1
loop_
 _symmetry_equiv_pos_site_id
 _symmetry_equiv_pos_as_xyz
  1  'x, y, z'
loop_
 _atom_site_type_symbol
 _atom_site_label
 _atom_site_symmetry_multiplicity
 _atom_site_fract_x
 _atom_site_fract_y
 _atom_site_fract_z
 _atom_site_occupancy
  Zr  Zr0  1  0.727740  0.284069  0.284069  1
  Zr  Zr1  1  0.272260  0.715931  0.715931  1
  Zr  Zr2  1  0.284069  0.727740  0.284069  1
  Zr  Zr3  1  0.715931  0.272260  0.715931  1
  Zr  Zr4  1  0.284069  0.284069  0.727740  1
  Zr  Zr5  1  0.715931  0.715931  0.272260  1
  Zn  Zn6  1  0.118823  0.118823  0.637470  1
  Zn  Zn7  1  0.118823  0.637470  0.118823  1
  Zn  Zn8  1  0.881177  0.881177  0.362530  1
  Zn  Zn9  1  0.881177  0.362530  0.881177  1
  Zn  Zn10  1  0.637470  0.118823  0.118823  1
  Zn  Zn11  1  0.362530  0.881177  0.881177  1
  Zn  Zn12  1  0.500000  0.000000  0.000000  1
  Zn  Zn13  1  0.000000  0.500000  0.500000  1
  Zn  Zn14  1  0.000000  0.500000  0.000000  1
  Zn  Zn15  1  0.500000  0.000000  0.500000  1
  Zn  Zn16  1  0.000000  0.000000  0.500000  1
  Zn  Zn17  1  0.500000  0.500000  0.000000  1
  Zn  Zn18  1  0.336768  0.336768  0.336768  1
  Zn  Zn19  1  0.663232  0.663232  0.663232  1
  Zn  Zn20  1  0.328920  0.328920  0.006511  1
  Zn  Zn21  1  0.328920  0.006511  0.328920  1
  Zn  Zn22  1  0.671080  0.671080  0.993489  1
  Zn  Zn23  1  0.671080  0.993489  0.671080  1
  Zn  Zn24  1  0.006511  0.328920  0.328920  1
  Zn  Zn25  1  0.993489  0.671080  0.671080  1
  Zn  Zn26  1  0.000000  0.000000  0.000000  1
  Os  Os27  1  0.118246  0.118246  0.118246  1
  Os  Os28  1  0.881754  0.881754  0.881754  1
  Se  Se29  1  0.500000  0.500000  0.500000  1
