# generated using pymatgen
data_Pr6Al24Ir4Ru3Au
_symmetry_space_group_name_H-M   'P 1'
_cell_length_a   8.96439328
_cell_length_b   8.95168182
_cell_length_c   9.66800886
_cell_angle_alpha   89.93693547
_cell_angle_beta   89.86388588
_cell_angle_gamma   120.09985537
_symmetry_Int_Tables_number   1
_chemical_formula_structural   Pr6Al24Ir4Ru3Au
_chemical_formula_sum   'Pr6 Al24 Ir4 Ru3 Au1'
_cell_volume   671.20099145
_cell_formula_units_Z   1
loop_
 _symmetry_equiv_pos_site_id
 _symmetry_equiv_pos_as_xyz
  1  'x, y, z'
loop_
 _atom_site_type_symbol
 _atom_site_label
 _atom_site_symmetry_multiplicity
 _atom_site_fract_x
 _atom_site_fract_y
 _atom_site_fract_z
 _atom_site_occupancy
  Pr  Pr0  1  0.192532  0.382136  0.253298  1
  Pr  Pr1  1  0.807468  0.617864  0.746702  1
  Pr  Pr2  1  0.619701  0.809244  0.248266  1
  Pr  Pr3  1  0.380299  0.190756  0.751734  1
  Pr  Pr4  1  0.190648  0.809986  0.248386  1
  Pr  Pr5  1  0.809352  0.190014  0.751614  1
  Al  Al6  1  0.330282  0.656234  0.023221  1
  Al  Al7  1  0.669718  0.343766  0.976779  1
  Al  Al8  1  0.666344  0.333175  0.523146  1
  Al  Al9  1  0.333656  0.666825  0.476854  1
  Al  Al10  1  0.163437  0.326872  0.575507  1
  Al  Al11  1  0.836563  0.673128  0.424493  1
  Al  Al12  1  0.673165  0.836262  0.572207  1
  Al  Al13  1  0.835087  0.672847  0.075445  1
  Al  Al14  1  0.326835  0.163738  0.427793  1
  Al  Al15  1  0.164913  0.327153  0.924555  1
  Al  Al16  1  0.162555  0.836780  0.574398  1
  Al  Al17  1  0.323966  0.172982  0.077434  1
  Al  Al18  1  0.837445  0.163220  0.425602  1
  Al  Al19  1  0.676034  0.827018  0.922566  1
  Al  Al20  1  0.848145  0.170686  0.079538  1
  Al  Al21  1  0.151855  0.829314  0.920462  1
  Al  Al22  1  0.566581  0.131673  0.257087  1
  Al  Al23  1  0.433419  0.868327  0.742913  1
  Al  Al24  1  0.874642  0.437778  0.250466  1
  Al  Al25  1  0.125358  0.562222  0.749534  1
  Al  Al26  1  0.563382  0.439125  0.248616  1
  Al  Al27  1  0.436618  0.560875  0.751384  1
  Al  Al28  1  0.000057  0.999164  0.250526  1
  Al  Al29  1  0.999943  0.000836  0.749474  1
  Ir  Ir30  1  0.000000  0.500000  0.000000  1
  Ir  Ir31  1  0.500000  0.000000  0.500000  1
  Ir  Ir32  1  0.000000  0.500000  0.500000  1
  Ir  Ir33  1  0.500000  0.500000  0.500000  1
  Ru  Ru34  1  0.500000  0.500000  0.000000  1
  Ru  Ru35  1  0.000000  0.000000  0.000000  1
  Ru  Ru36  1  0.000000  0.000000  0.500000  1
  Au  Au37  1  0.500000  0.000000  0.000000  1
