# generated using pymatgen
data_Nd3Th5(ZnIr)8
_symmetry_space_group_name_H-M   'P 1'
_cell_length_a   3.98335800
_cell_length_b   7.48723621
_cell_length_c   16.67472171
_cell_angle_alpha   90.36165242
_cell_angle_beta   90.00000000
_cell_angle_gamma   90.00000000
_symmetry_Int_Tables_number   1
_chemical_formula_structural   Nd3Th5(ZnIr)8
_chemical_formula_sum   'Nd3 Th5 Zn8 Ir8'
_cell_volume   497.30270056
_cell_formula_units_Z   1
loop_
 _symmetry_equiv_pos_site_id
 _symmetry_equiv_pos_as_xyz
  1  'x, y, z'
loop_
 _atom_site_type_symbol
 _atom_site_label
 _atom_site_symmetry_multiplicity
 _atom_site_fract_x
 _atom_site_fract_y
 _atom_site_fract_z
 _atom_site_occupancy
  Nd  Nd0  1  0.750000  0.445626  0.214634  1
  Nd  Nd1  1  0.250000  0.052936  0.713834  1
  Nd  Nd2  1  0.250000  0.552926  0.785625  1
  Th  Th3  1  0.250000  0.172014  0.938377  1
  Th  Th4  1  0.250000  0.671333  0.561372  1
  Th  Th5  1  0.750000  0.327868  0.439119  1
  Th  Th6  1  0.750000  0.946303  0.284755  1
  Th  Th7  1  0.750000  0.830921  0.060517  1
  Zn  Zn8  1  0.750000  0.007221  0.561109  1
  Zn  Zn9  1  0.250000  0.615495  0.345545  1
  Zn  Zn10  1  0.750000  0.381476  0.654353  1
  Zn  Zn11  1  0.250000  0.496332  0.061818  1
  Zn  Zn12  1  0.750000  0.506858  0.938707  1
  Zn  Zn13  1  0.250000  0.992606  0.441468  1
  Zn  Zn14  1  0.250000  0.122914  0.151731  1
  Zn  Zn15  1  0.750000  0.881622  0.845566  1
  Ir  Ir16  1  0.750000  0.743803  0.437685  1
  Ir  Ir17  1  0.250000  0.232166  0.318027  1
  Ir  Ir18  1  0.750000  0.248039  0.819159  1
  Ir  Ir19  1  0.750000  0.749257  0.680059  1
  Ir  Ir20  1  0.250000  0.258806  0.560336  1
  Ir  Ir21  1  0.250000  0.760201  0.186104  1
  Ir  Ir22  1  0.750000  0.246070  0.060000  1
  Ir  Ir23  1  0.250000  0.757206  0.940100  1
