# generated using pymatgen
data_Yb4Ga2As4Ir7
_symmetry_space_group_name_H-M   'P 1'
_cell_length_a   7.24331286
_cell_length_b   7.24331270
_cell_length_c   7.24494200
_cell_angle_alpha   109.22371470
_cell_angle_beta   109.22371425
_cell_angle_gamma   109.95834348
_symmetry_Int_Tables_number   1
_chemical_formula_structural   Yb4Ga2As4Ir7
_chemical_formula_sum   'Yb4 Ga2 As4 Ir7'
_cell_volume   292.62531467
_cell_formula_units_Z   1
loop_
 _symmetry_equiv_pos_site_id
 _symmetry_equiv_pos_as_xyz
  1  'x, y, z'
loop_
 _atom_site_type_symbol
 _atom_site_label
 _atom_site_symmetry_multiplicity
 _atom_site_fract_x
 _atom_site_fract_y
 _atom_site_fract_z
 _atom_site_occupancy
  Yb  Yb0  1  0.999455  0.999455  0.490321  1
  Yb  Yb1  1  0.998141  0.498141  0.996281  1
  Yb  Yb2  1  0.498141  0.998141  0.996281  1
  Yb  Yb3  1  0.490866  0.490866  0.490321  1
  Ga  Ga4  1  0.692499  0.996224  0.688724  1
  Ga  Ga5  1  0.996224  0.692499  0.688724  1
  As  As6  1  0.681506  0.681506  0.994558  1
  As  As7  1  0.328076  0.996777  0.324853  1
  As  As8  1  0.996777  0.328076  0.324853  1
  As  As9  1  0.313053  0.313053  0.994558  1
  Ir  Ir10  1  0.750240  0.250240  0.500480  1
  Ir  Ir11  1  0.746651  0.500958  0.247609  1
  Ir  Ir12  1  0.500990  0.247823  0.748812  1
  Ir  Ir13  1  0.247823  0.500990  0.748812  1
  Ir  Ir14  1  0.250240  0.750240  0.500480  1
  Ir  Ir15  1  0.500958  0.746651  0.247609  1
  Ir  Ir16  1  0.008364  0.008364  0.016727  1
