# generated using pymatgen
data_SmBiI18
_symmetry_space_group_name_H-M   'P 1'
_cell_length_a   10.49250766
_cell_length_b   10.52632282
_cell_length_c   10.47245955
_cell_angle_alpha   88.79336728
_cell_angle_beta   88.92868687
_cell_angle_gamma   88.67737636
_symmetry_Int_Tables_number   1
_chemical_formula_structural   SmBiI18
_chemical_formula_sum   'Sm1 Bi1 I18'
_cell_volume   1155.90073166
_cell_formula_units_Z   1
loop_
 _symmetry_equiv_pos_site_id
 _symmetry_equiv_pos_as_xyz
  1  'x, y, z'
loop_
 _atom_site_type_symbol
 _atom_site_label
 _atom_site_symmetry_multiplicity
 _atom_site_fract_x
 _atom_site_fract_y
 _atom_site_fract_z
 _atom_site_occupancy
  Sm  Sm0  1  0.500000  0.500000  0.500000  1
  Bi  Bi1  1  0.000000  0.000000  0.000000  1
  I  I2  1  0.794687  0.464741  0.502367  1
  I  I3  1  0.500899  0.793595  0.463813  1
  I  I4  1  0.465017  0.502227  0.794973  1
  I  I5  1  0.205313  0.535259  0.497633  1
  I  I6  1  0.499101  0.206405  0.536187  1
  I  I7  1  0.534983  0.497773  0.205027  1
  I  I8  1  0.897610  0.378385  0.749438  1
  I  I9  1  0.747484  0.896050  0.378580  1
  I  I10  1  0.378864  0.748360  0.897517  1
  I  I11  1  0.102390  0.621615  0.250562  1
  I  I12  1  0.252516  0.103950  0.621420  1
  I  I13  1  0.621136  0.251640  0.102483  1
  I  I14  1  0.016791  0.979749  0.701681  1
  I  I15  1  0.702379  0.016427  0.977591  1
  I  I16  1  0.977794  0.703254  0.014098  1
  I  I17  1  0.983209  0.020251  0.298319  1
  I  I18  1  0.297621  0.983573  0.022409  1
  I  I19  1  0.022206  0.296746  0.985902  1
