# generated using pymatgen
data_Ta2PbF12
_symmetry_space_group_name_H-M   'P 1'
_cell_length_a   5.40009184
_cell_length_b   5.91124600
_cell_length_c   9.36908300
_cell_angle_alpha   104.68126580
_cell_angle_beta   90.85684392
_cell_angle_gamma   117.96318630
_symmetry_Int_Tables_number   1
_chemical_formula_structural   Ta2PbF12
_chemical_formula_sum   'Ta2 Pb1 F12'
_cell_volume   252.37906891
_cell_formula_units_Z   1
loop_
 _symmetry_equiv_pos_site_id
 _symmetry_equiv_pos_as_xyz
  1  'x, y, z'
loop_
 _atom_site_type_symbol
 _atom_site_label
 _atom_site_symmetry_multiplicity
 _atom_site_fract_x
 _atom_site_fract_y
 _atom_site_fract_z
 _atom_site_occupancy
  Ta  Ta0  1  0.774293  0.520309  0.283182  1
  Ta  Ta1  1  0.225707  0.479691  0.716818  1
  Pb  Pb2  1  0.000000  0.000000  0.000000  1
  F  F3  1  0.832306  0.261815  0.707004  1
  F  F4  1  0.167694  0.738185  0.292996  1
  F  F5  1  0.219527  0.714978  0.912240  1
  F  F6  1  0.727657  0.734615  0.453036  1
  F  F7  1  0.272343  0.265385  0.546964  1
  F  F8  1  0.806836  0.283861  0.373690  1
  F  F9  1  0.193164  0.716139  0.626310  1
  F  F10  1  0.360318  0.285594  0.227666  1
  F  F11  1  0.639682  0.714406  0.772334  1
  F  F12  1  0.717273  0.716516  0.154144  1
  F  F13  1  0.282727  0.283484  0.845856  1
  F  F14  1  0.780473  0.285022  0.087760  1
