# generated using pymatgen
data_TbDyY2(B4Ru)4
_symmetry_space_group_name_H-M   'P 1'
_cell_length_a   3.56543200
_cell_length_b   5.96800213
_cell_length_c   11.54978511
_cell_angle_alpha   89.98047115
_cell_angle_beta   90.00000000
_cell_angle_gamma   90.00000000
_symmetry_Int_Tables_number   1
_chemical_formula_structural   TbDyY2(B4Ru)4
_chemical_formula_sum   'Tb1 Dy1 Y2 B16 Ru4'
_cell_volume   245.76215458
_cell_formula_units_Z   1
loop_
 _symmetry_equiv_pos_site_id
 _symmetry_equiv_pos_as_xyz
  1  'x, y, z'
loop_
 _atom_site_type_symbol
 _atom_site_label
 _atom_site_symmetry_multiplicity
 _atom_site_fract_x
 _atom_site_fract_y
 _atom_site_fract_z
 _atom_site_occupancy
  Tb  Tb0  1  0.000000  0.628745  0.850128  1
  Dy  Dy1  1  0.000000  0.371175  0.149891  1
  Y  Y2  1  0.000000  0.128846  0.649848  1
  Y  Y3  1  0.000000  0.871180  0.350137  1
  B  B4  1  0.500000  0.476409  0.691599  1
  B  B5  1  0.500000  0.523457  0.308200  1
  B  B6  1  0.500000  0.976447  0.808421  1
  B  B7  1  0.500000  0.023856  0.191592  1
  B  B8  1  0.500000  0.288413  0.814554  1
  B  B9  1  0.500000  0.711208  0.185449  1
  B  B10  1  0.500000  0.788507  0.685528  1
  B  B11  1  0.500000  0.211564  0.314325  1
  B  B12  1  0.500000  0.363542  0.969999  1
  B  B13  1  0.500000  0.636250  0.030247  1
  B  B14  1  0.500000  0.863679  0.530110  1
  B  B15  1  0.500000  0.136351  0.469879  1
  B  B16  1  0.500000  0.388089  0.546670  1
  B  B17  1  0.500000  0.611867  0.453308  1
  B  B18  1  0.500000  0.888408  0.953456  1
  B  B19  1  0.500000  0.112033  0.046707  1
  Ru  Ru20  1  0.000000  0.140366  0.907527  1
  Ru  Ru21  1  0.000000  0.859585  0.092626  1
  Ru  Ru22  1  0.000000  0.640283  0.592469  1
  Ru  Ru23  1  0.000000  0.359740  0.407330  1
