# generated using pymatgen
data_Ho2ZnB2IrRh4
_symmetry_space_group_name_H-M   'P 1'
_cell_length_a   9.53754900
_cell_length_b   9.53754900
_cell_length_c   3.17349700
_cell_angle_alpha   90.00000000
_cell_angle_beta   90.00000000
_cell_angle_gamma   90.00000000
_symmetry_Int_Tables_number   1
_chemical_formula_structural   Ho2ZnB2IrRh4
_chemical_formula_sum   'Ho4 Zn2 B4 Ir2 Rh8'
_cell_volume   288.67664979
_cell_formula_units_Z   2
loop_
 _symmetry_equiv_pos_site_id
 _symmetry_equiv_pos_as_xyz
  1  'x, y, z'
loop_
 _atom_site_type_symbol
 _atom_site_label
 _atom_site_symmetry_multiplicity
 _atom_site_fract_x
 _atom_site_fract_y
 _atom_site_fract_z
 _atom_site_occupancy
  Ho  Ho0  1  0.321857  0.821857  0.000000  1
  Ho  Ho1  1  0.678143  0.178143  0.000000  1
  Ho  Ho2  1  0.178143  0.321857  0.000000  1
  Ho  Ho3  1  0.821857  0.678143  0.000000  1
  Zn  Zn4  1  0.500000  0.500000  0.000000  1
  Zn  Zn5  1  0.000000  0.000000  0.000000  1
  B  B6  1  0.121865  0.621865  0.000000  1
  B  B7  1  0.878135  0.378135  0.000000  1
  B  B8  1  0.378135  0.121865  0.000000  1
  B  B9  1  0.621865  0.878135  0.000000  1
  Ir  Ir10  1  0.000000  0.500000  0.500000  1
  Ir  Ir11  1  0.500000  0.000000  0.500000  1
  Rh  Rh12  1  0.568922  0.720268  0.500000  1
  Rh  Rh13  1  0.431078  0.279732  0.500000  1
  Rh  Rh14  1  0.931078  0.220268  0.500000  1
  Rh  Rh15  1  0.068922  0.779732  0.500000  1
  Rh  Rh16  1  0.779732  0.931078  0.500000  1
  Rh  Rh17  1  0.220268  0.068922  0.500000  1
  Rh  Rh18  1  0.279732  0.568922  0.500000  1
  Rh  Rh19  1  0.720268  0.431078  0.500000  1
