# generated using pymatgen
data_K(ZrSe2)8
_symmetry_space_group_name_H-M   'P 1'
_cell_length_a   7.60887700
_cell_length_b   7.60887831
_cell_length_c   16.28101500
_cell_angle_alpha   90.00000000
_cell_angle_beta   90.00000000
_cell_angle_gamma   119.99999865
_symmetry_Int_Tables_number   1
_chemical_formula_structural   K(ZrSe2)8
_chemical_formula_sum   'K1 Zr8 Se16'
_cell_volume   816.30661539
_cell_formula_units_Z   1
loop_
 _symmetry_equiv_pos_site_id
 _symmetry_equiv_pos_as_xyz
  1  'x, y, z'
loop_
 _atom_site_type_symbol
 _atom_site_label
 _atom_site_symmetry_multiplicity
 _atom_site_fract_x
 _atom_site_fract_y
 _atom_site_fract_z
 _atom_site_occupancy
  K  K0  1  0.000000  0.000000  0.000000  1
  Zr  Zr1  1  0.500757  0.499243  0.737242  1
  Zr  Zr2  1  0.499243  0.500757  0.262758  1
  Zr  Zr3  1  0.500757  0.001514  0.737242  1
  Zr  Zr4  1  0.499243  0.998486  0.262758  1
  Zr  Zr5  1  0.998486  0.499243  0.737242  1
  Zr  Zr6  1  0.001514  0.500757  0.262758  1
  Zr  Zr7  1  0.000000  0.000000  0.735340  1
  Zr  Zr8  1  0.000000  0.000000  0.264660  1
  Se  Se9  1  0.833885  0.667773  0.163705  1
  Se  Se10  1  0.832892  0.665785  0.639301  1
  Se  Se11  1  0.833885  0.166115  0.163705  1
  Se  Se12  1  0.832892  0.167108  0.639301  1
  Se  Se13  1  0.333333  0.666667  0.164061  1
  Se  Se14  1  0.333333  0.666667  0.641215  1
  Se  Se15  1  0.332227  0.166115  0.163705  1
  Se  Se16  1  0.334215  0.167108  0.639301  1
  Se  Se17  1  0.667773  0.833885  0.836295  1
  Se  Se18  1  0.665785  0.832892  0.360699  1
  Se  Se19  1  0.666667  0.333333  0.835939  1
  Se  Se20  1  0.666667  0.333333  0.358785  1
  Se  Se21  1  0.166115  0.833885  0.836295  1
  Se  Se22  1  0.167108  0.832892  0.360699  1
  Se  Se23  1  0.166115  0.332227  0.836295  1
  Se  Se24  1  0.167108  0.334215  0.360699  1
