# generated using pymatgen
data_La6CoBr10
_symmetry_space_group_name_H-M   'P 1'
_cell_length_a   7.80300354
_cell_length_b   9.49839209
_cell_length_c   9.73136118
_cell_angle_alpha   109.83587559
_cell_angle_beta   107.32139272
_cell_angle_gamma   96.97196259
_symmetry_Int_Tables_number   1
_chemical_formula_structural   La6CoBr10
_chemical_formula_sum   'La6 Co1 Br10'
_cell_volume   627.50894256
_cell_formula_units_Z   1
loop_
 _symmetry_equiv_pos_site_id
 _symmetry_equiv_pos_as_xyz
  1  'x, y, z'
loop_
 _atom_site_type_symbol
 _atom_site_label
 _atom_site_symmetry_multiplicity
 _atom_site_fract_x
 _atom_site_fract_y
 _atom_site_fract_z
 _atom_site_occupancy
  La  La0  1  0.373317  0.194216  0.146617  1
  La  La1  1  0.021883  0.895166  0.690729  1
  La  La2  1  0.122116  0.765132  0.043772  1
  La  La3  1  0.626683  0.805784  0.853383  1
  La  La4  1  0.877884  0.234868  0.956228  1
  La  La5  1  0.978117  0.104834  0.309271  1
  Co  Co6  1  0.000000  0.000000  0.000000  1
  Br  Br7  1  0.448664  0.079261  0.826966  1
  Br  Br8  1  0.744605  0.537967  0.917954  1
  Br  Br9  1  0.255395  0.462033  0.082046  1
  Br  Br10  1  0.911968  0.170446  0.633790  1
  Br  Br11  1  0.628962  0.722209  0.534058  1
  Br  Br12  1  0.551336  0.920739  0.173034  1
  Br  Br13  1  0.088032  0.829554  0.366210  1
  Br  Br14  1  0.803893  0.360453  0.264254  1
  Br  Br15  1  0.196107  0.639547  0.735746  1
  Br  Br16  1  0.371038  0.277791  0.465942  1
