# generated using pymatgen
data_YTm3(CrB4)4
_symmetry_space_group_name_H-M   'P 1'
_cell_length_a   3.42086200
_cell_length_b   5.90990119
_cell_length_c   11.41817036
_cell_angle_alpha   89.97105880
_cell_angle_beta   90.00000000
_cell_angle_gamma   90.00000000
_symmetry_Int_Tables_number   1
_chemical_formula_structural   YTm3(CrB4)4
_chemical_formula_sum   'Y1 Tm3 Cr4 B16'
_cell_volume   230.84062296
_cell_formula_units_Z   1
loop_
 _symmetry_equiv_pos_site_id
 _symmetry_equiv_pos_as_xyz
  1  'x, y, z'
loop_
 _atom_site_type_symbol
 _atom_site_label
 _atom_site_symmetry_multiplicity
 _atom_site_fract_x
 _atom_site_fract_y
 _atom_site_fract_z
 _atom_site_occupancy
  Y  Y0  1  0.000000  0.624767  0.349179  1
  Tm  Tm1  1  0.000000  0.374907  0.650819  1
  Tm  Tm2  1  0.000000  0.125049  0.150463  1
  Tm  Tm3  1  0.000000  0.875014  0.849273  1
  Cr  Cr4  1  0.000000  0.624711  0.080545  1
  Cr  Cr5  1  0.000000  0.375210  0.918729  1
  Cr  Cr6  1  0.000000  0.124641  0.419343  1
  Cr  Cr7  1  0.000000  0.875709  0.581505  1
  B  B8  1  0.500000  0.783134  0.183691  1
  B  B9  1  0.500000  0.217384  0.815410  1
  B  B10  1  0.500000  0.280954  0.315337  1
  B  B11  1  0.500000  0.717460  0.684794  1
  B  B12  1  0.500000  0.863901  0.031919  1
  B  B13  1  0.500000  0.136257  0.967556  1
  B  B14  1  0.500000  0.362956  0.468382  1
  B  B15  1  0.500000  0.636611  0.533136  1
  B  B16  1  0.500000  0.887447  0.453473  1
  B  B17  1  0.500000  0.114154  0.547779  1
  B  B18  1  0.500000  0.385830  0.046860  1
  B  B19  1  0.500000  0.613815  0.952560  1
  B  B20  1  0.500000  0.976544  0.307777  1
  B  B21  1  0.500000  0.024516  0.692468  1
  B  B22  1  0.500000  0.474429  0.191322  1
  B  B23  1  0.500000  0.524600  0.807680  1
