# generated using pymatgen
data_SrIn2(SeO3)4
_symmetry_space_group_name_H-M   'P 1'
_cell_length_a   5.35151000
_cell_length_b   10.32157712
_cell_length_c   14.55163604
_cell_angle_alpha   49.65179095
_cell_angle_beta   90.00000000
_cell_angle_gamma   90.00000000
_symmetry_Int_Tables_number   1
_chemical_formula_structural   SrIn2(SeO3)4
_chemical_formula_sum   'Sr2 In4 Se8 O24'
_cell_volume   612.57571781
_cell_formula_units_Z   2
loop_
 _symmetry_equiv_pos_site_id
 _symmetry_equiv_pos_as_xyz
  1  'x, y, z'
loop_
 _atom_site_type_symbol
 _atom_site_label
 _atom_site_symmetry_multiplicity
 _atom_site_fract_x
 _atom_site_fract_y
 _atom_site_fract_z
 _atom_site_occupancy
  Sr  Sr0  1  0.040042  0.000000  0.750000  1
  Sr  Sr1  1  0.959958  0.000000  0.250000  1
  In  In2  1  0.000000  0.500000  0.500000  1
  In  In3  1  0.500000  0.000000  0.000000  1
  In  In4  1  0.500000  0.000000  0.500000  1
  In  In5  1  0.000000  0.500000  0.000000  1
  Se  Se6  1  0.506506  0.312673  0.189783  1
  Se  Se7  1  0.015348  0.736963  0.602407  1
  Se  Se8  1  0.015348  0.263037  0.897593  1
  Se  Se9  1  0.984652  0.263037  0.397593  1
  Se  Se10  1  0.493494  0.312673  0.689783  1
  Se  Se11  1  0.493494  0.687327  0.810217  1
  Se  Se12  1  0.506506  0.687327  0.310217  1
  Se  Se13  1  0.984652  0.736963  0.102407  1
  O  O14  1  0.218333  0.728656  0.340964  1
  O  O15  1  0.301102  0.771907  0.069487  1
  O  O16  1  0.781667  0.728656  0.840964  1
  O  O17  1  0.845748  0.906589  0.965399  1
  O  O18  1  0.698898  0.771907  0.569487  1
  O  O19  1  0.306320  0.322602  0.587960  1
  O  O20  1  0.154252  0.093411  0.034601  1
  O  O21  1  0.693680  0.322602  0.087960  1
  O  O22  1  0.781667  0.271344  0.659036  1
  O  O23  1  0.603538  0.108879  0.315327  1
  O  O24  1  0.693680  0.677398  0.412040  1
  O  O25  1  0.301102  0.228093  0.430513  1
  O  O26  1  0.603538  0.891121  0.184673  1
  O  O27  1  0.845748  0.093411  0.534601  1
  O  O28  1  0.396462  0.108879  0.815327  1
  O  O29  1  0.065601  0.436418  0.887566  1
  O  O30  1  0.698898  0.228093  0.930513  1
  O  O31  1  0.934399  0.436418  0.387566  1
  O  O32  1  0.065601  0.563582  0.612434  1
  O  O33  1  0.396462  0.891121  0.684673  1
  O  O34  1  0.306320  0.677398  0.912040  1
  O  O35  1  0.154252  0.906589  0.465399  1
  O  O36  1  0.934399  0.563582  0.112434  1
  O  O37  1  0.218333  0.271344  0.159036  1
