# generated using pymatgen
data_Sc11FeIrOs2
_symmetry_space_group_name_H-M   'P 1'
_cell_length_a   9.41793884
_cell_length_b   9.41793904
_cell_length_c   9.42247000
_cell_angle_alpha   59.98408408
_cell_angle_beta   59.98408341
_cell_angle_gamma   60.03182701
_symmetry_Int_Tables_number   1
_chemical_formula_structural   Sc11FeIrOs2
_chemical_formula_sum   'Sc22 Fe2 Ir2 Os4'
_cell_volume   590.96435608
_cell_formula_units_Z   2
loop_
 _symmetry_equiv_pos_site_id
 _symmetry_equiv_pos_as_xyz
  1  'x, y, z'
loop_
 _atom_site_type_symbol
 _atom_site_label
 _atom_site_symmetry_multiplicity
 _atom_site_fract_x
 _atom_site_fract_y
 _atom_site_fract_z
 _atom_site_occupancy
  Sc  Sc0  1  0.806801  0.806801  0.193199  1
  Sc  Sc1  1  0.193161  0.806839  0.193161  1
  Sc  Sc2  1  0.806839  0.193161  0.193161  1
  Sc  Sc3  1  0.193199  0.193199  0.806801  1
  Sc  Sc4  1  0.806839  0.193161  0.806839  1
  Sc  Sc5  1  0.193161  0.806839  0.806839  1
  Sc  Sc6  1  0.615572  0.615572  0.155304  1
  Sc  Sc7  1  0.613550  0.155304  0.615572  1
  Sc  Sc8  1  0.155304  0.613550  0.615572  1
  Sc  Sc9  1  0.615572  0.615572  0.613550  1
  Sc  Sc10  1  0.384428  0.384428  0.844696  1
  Sc  Sc11  1  0.386450  0.844696  0.384428  1
  Sc  Sc12  1  0.844696  0.386450  0.384428  1
  Sc  Sc13  1  0.384428  0.384428  0.386450  1
  Sc  Sc14  1  0.843045  0.843045  0.470652  1
  Sc  Sc15  1  0.843256  0.470652  0.843045  1
  Sc  Sc16  1  0.470652  0.843256  0.843045  1
  Sc  Sc17  1  0.843045  0.843045  0.843256  1
  Sc  Sc18  1  0.156955  0.156955  0.529348  1
  Sc  Sc19  1  0.156744  0.529348  0.156955  1
  Sc  Sc20  1  0.529348  0.156744  0.156955  1
  Sc  Sc21  1  0.156955  0.156955  0.156744  1
  Fe  Fe22  1  0.000000  0.000000  0.000000  1
  Fe  Fe23  1  0.500000  0.500000  0.500000  1
  Ir  Ir24  1  0.000000  0.000000  0.500000  1
  Ir  Ir25  1  0.500000  0.500000  0.000000  1
  Os  Os26  1  0.500000  0.000000  0.500000  1
  Os  Os27  1  0.000000  0.500000  0.500000  1
  Os  Os28  1  0.000000  0.500000  0.000000  1
  Os  Os29  1  0.500000  0.000000  0.000000  1
