# generated using pymatgen
data_Y6TiCo17P12
_symmetry_space_group_name_H-M   'P 1'
_cell_length_a   3.69039900
_cell_length_b   10.54463000
_cell_length_c   12.21563200
_cell_angle_alpha   90.00000000
_cell_angle_beta   90.00000000
_cell_angle_gamma   90.00000000
_symmetry_Int_Tables_number   1
_chemical_formula_structural   Y6TiCo17P12
_chemical_formula_sum   'Y6 Ti1 Co17 P12'
_cell_volume   475.35778445
_cell_formula_units_Z   1
loop_
 _symmetry_equiv_pos_site_id
 _symmetry_equiv_pos_as_xyz
  1  'x, y, z'
loop_
 _atom_site_type_symbol
 _atom_site_label
 _atom_site_symmetry_multiplicity
 _atom_site_fract_x
 _atom_site_fract_y
 _atom_site_fract_z
 _atom_site_occupancy
  Y  Y0  1  0.000000  0.500000  0.524974  1
  Y  Y1  1  0.500000  0.000000  0.477844  1
  Y  Y2  1  0.500000  0.819605  0.206702  1
  Y  Y3  1  0.500000  0.180395  0.206702  1
  Y  Y4  1  0.000000  0.682252  0.796375  1
  Y  Y5  1  0.000000  0.317748  0.796375  1
  Ti  Ti6  1  0.500000  0.500000  0.151118  1
  Co  Co7  1  0.000000  0.000000  0.839246  1
  Co  Co8  1  0.500000  0.500000  0.702684  1
  Co  Co9  1  0.000000  0.000000  0.297143  1
  Co  Co10  1  0.000000  0.500000  0.986344  1
  Co  Co11  1  0.500000  0.000000  0.013845  1
  Co  Co12  1  0.500000  0.329711  0.991676  1
  Co  Co13  1  0.500000  0.670289  0.991676  1
  Co  Co14  1  0.000000  0.163979  0.003762  1
  Co  Co15  1  0.000000  0.836021  0.003762  1
  Co  Co16  1  0.500000  0.295707  0.432600  1
  Co  Co17  1  0.500000  0.704293  0.432600  1
  Co  Co18  1  0.000000  0.202440  0.570138  1
  Co  Co19  1  0.000000  0.797560  0.570138  1
  Co  Co20  1  0.500000  0.879977  0.708455  1
  Co  Co21  1  0.500000  0.120023  0.708455  1
  Co  Co22  1  0.000000  0.621622  0.292531  1
  Co  Co23  1  0.000000  0.378378  0.292531  1
  P  P24  1  0.500000  0.500000  0.882465  1
  P  P25  1  0.000000  0.000000  0.117057  1
  P  P26  1  0.500000  0.500000  0.352069  1
  P  P27  1  0.000000  0.000000  0.656232  1
  P  P28  1  0.500000  0.309764  0.617161  1
  P  P29  1  0.500000  0.690236  0.617161  1
  P  P30  1  0.000000  0.189220  0.385645  1
  P  P31  1  0.000000  0.810780  0.385645  1
  P  P32  1  0.500000  0.850755  0.890385  1
  P  P33  1  0.500000  0.149245  0.890385  1
  P  P34  1  0.000000  0.659113  0.104058  1
  P  P35  1  0.000000  0.340887  0.104058  1
