# generated using pymatgen
data_Dy3Y3VB14W
_symmetry_space_group_name_H-M   'P 1'
_cell_length_a   8.17016714
_cell_length_b   8.17016704
_cell_length_c   9.46784809
_cell_angle_alpha   89.98472703
_cell_angle_beta   90.01527291
_cell_angle_gamma   155.59337305
_symmetry_Int_Tables_number   1
_chemical_formula_structural   Dy3Y3VB14W
_chemical_formula_sum   'Dy3 Y3 V1 B14 W1'
_cell_volume   261.14620043
_cell_formula_units_Z   1
loop_
 _symmetry_equiv_pos_site_id
 _symmetry_equiv_pos_as_xyz
  1  'x, y, z'
loop_
 _atom_site_type_symbol
 _atom_site_label
 _atom_site_symmetry_multiplicity
 _atom_site_fract_x
 _atom_site_fract_y
 _atom_site_fract_z
 _atom_site_occupancy
  Dy  Dy0  1  0.893818  0.106182  0.937853  1
  Dy  Dy1  1  0.106745  0.893255  0.057597  1
  Dy  Dy2  1  0.893857  0.106143  0.562085  1
  Y  Y3  1  0.755053  0.244947  0.249824  1
  Y  Y4  1  0.241820  0.758180  0.750071  1
  Y  Y5  1  0.106788  0.893212  0.442153  1
  V  V6  1  0.052942  0.947058  0.750145  1
  B  B7  1  0.544179  0.455821  0.249841  1
  B  B8  1  0.459526  0.540474  0.750083  1
  B  B9  1  0.521275  0.478725  0.904566  1
  B  B10  1  0.480450  0.519550  0.090948  1
  B  B11  1  0.480294  0.519706  0.409054  1
  B  B12  1  0.521191  0.478809  0.595648  1
  B  B13  1  0.632330  0.367670  0.849783  1
  B  B14  1  0.365388  0.634612  0.146107  1
  B  B15  1  0.727300  0.272700  0.966742  1
  B  B16  1  0.272620  0.727380  0.031471  1
  B  B17  1  0.272681  0.727319  0.468563  1
  B  B18  1  0.727382  0.272618  0.533266  1
  B  B19  1  0.632304  0.367696  0.650399  1
  B  B20  1  0.365387  0.634613  0.353862  1
  W  W21  1  0.946669  0.053331  0.249939  1
