# generated using pymatgen
data_Tb4TmB4P8Ir19
_symmetry_space_group_name_H-M   'P 1'
_cell_length_a   12.43679317
_cell_length_b   12.40299344
_cell_length_c   3.96399500
_cell_angle_alpha   90.00000000
_cell_angle_beta   90.00000000
_cell_angle_gamma   119.67049588
_symmetry_Int_Tables_number   1
_chemical_formula_structural   Tb4TmB4P8Ir19
_chemical_formula_sum   'Tb4 Tm1 B4 P8 Ir19'
_cell_volume   531.28932501
_cell_formula_units_Z   1
loop_
 _symmetry_equiv_pos_site_id
 _symmetry_equiv_pos_as_xyz
  1  'x, y, z'
loop_
 _atom_site_type_symbol
 _atom_site_label
 _atom_site_symmetry_multiplicity
 _atom_site_fract_x
 _atom_site_fract_y
 _atom_site_fract_z
 _atom_site_occupancy
  Tb  Tb0  1  0.332640  0.666496  0.500000  1
  Tb  Tb1  1  0.182968  0.187741  0.000000  1
  Tb  Tb2  1  0.814720  0.002830  0.000000  1
  Tb  Tb3  1  0.001550  0.815392  0.000000  1
  Tm  Tm4  1  0.674999  0.331139  0.500000  1
  B  B5  1  0.304763  0.816209  0.000000  1
  B  B6  1  0.177805  0.486260  0.000000  1
  B  B7  1  0.511282  0.692817  0.000000  1
  B  B8  1  0.823091  0.303032  0.000000  1
  P  P9  1  0.487210  0.174523  0.000000  1
  P  P10  1  0.692868  0.513267  0.000000  1
  P  P11  1  0.359091  0.365129  0.500000  1
  P  P12  1  0.639299  0.000719  0.500000  1
  P  P13  1  0.006356  0.639553  0.500000  1
  P  P14  1  0.816210  0.819360  0.500000  1
  P  P15  1  0.181004  0.998885  0.500000  1
  P  P16  1  0.001759  0.186186  0.500000  1
  Ir  Ir17  1  0.200316  0.818527  0.500000  1
  Ir  Ir18  1  0.181428  0.382542  0.500000  1
  Ir  Ir19  1  0.619082  0.803202  0.500000  1
  Ir  Ir20  1  0.821410  0.202034  0.500000  1
  Ir  Ir21  1  0.377119  0.181769  0.500000  1
  Ir  Ir22  1  0.806041  0.622240  0.500000  1
  Ir  Ir23  1  0.134095  0.637473  0.000000  1
  Ir  Ir24  1  0.359851  0.499526  0.000000  1
  Ir  Ir25  1  0.498084  0.860004  0.000000  1
  Ir  Ir26  1  0.642723  0.130586  0.000000  1
  Ir  Ir27  1  0.491778  0.363807  0.000000  1
  Ir  Ir28  1  0.868705  0.496743  0.000000  1
  Ir  Ir29  1  0.539508  0.549053  0.500000  1
  Ir  Ir30  1  0.453830  0.995046  0.500000  1
  Ir  Ir31  1  0.003036  0.455553  0.500000  1
  Ir  Ir32  1  0.701057  0.706570  0.000000  1
  Ir  Ir33  1  0.293324  0.994534  0.000000  1
  Ir  Ir34  1  0.001736  0.300404  0.000000  1
  Ir  Ir35  1  0.999262  0.000850  0.500000  1
