# generated using pymatgen
data_La2Y2Ho16Si15Os
_symmetry_space_group_name_H-M   'P 1'
_cell_length_a   7.41206107
_cell_length_b   7.76427758
_cell_length_c   14.61195104
_cell_angle_alpha   89.67194308
_cell_angle_beta   89.99462008
_cell_angle_gamma   89.95582138
_symmetry_Int_Tables_number   1
_chemical_formula_structural   La2Y2Ho16Si15Os
_chemical_formula_sum   'La2 Y2 Ho16 Si15 Os1'
_cell_volume   840.89351019
_cell_formula_units_Z   1
loop_
 _symmetry_equiv_pos_site_id
 _symmetry_equiv_pos_as_xyz
  1  'x, y, z'
loop_
 _atom_site_type_symbol
 _atom_site_label
 _atom_site_symmetry_multiplicity
 _atom_site_fract_x
 _atom_site_fract_y
 _atom_site_fract_z
 _atom_site_occupancy
  La  La0  1  0.522382  0.569390  0.342458  1
  La  La1  1  0.024148  0.428166  0.657777  1
  Y  Y2  1  0.528532  0.565151  0.652112  1
  Y  Y3  1  0.027205  0.433328  0.347402  1
  Ho  Ho4  1  0.806119  0.576882  0.877837  1
  Ho  Ho5  1  0.324482  0.432030  0.122982  1
  Ho  Ho6  1  0.183405  0.928523  0.372855  1
  Ho  Ho7  1  0.682680  0.069151  0.626803  1
  Ho  Ho8  1  0.183539  0.927599  0.628604  1
  Ho  Ho9  1  0.682295  0.070275  0.371845  1
  Ho  Ho10  1  0.809402  0.574042  0.123078  1
  Ho  Ho11  1  0.327377  0.436849  0.875826  1
  Ho  Ho12  1  0.643785  0.239134  0.999679  1
  Ho  Ho13  1  0.159080  0.761398  0.000385  1
  Ho  Ho14  1  0.350494  0.263455  0.499760  1
  Ho  Ho15  1  0.849228  0.734653  0.499942  1
  Ho  Ho16  1  0.477385  0.924509  0.849436  1
  Ho  Ho17  1  0.973005  0.065824  0.151087  1
  Ho  Ho18  1  0.475741  0.924852  0.150050  1
  Ho  Ho19  1  0.971608  0.066435  0.849761  1
  Si  Si20  1  0.018333  0.350361  0.999595  1
  Si  Si21  1  0.476123  0.859344  0.501082  1
  Si  Si22  1  0.978976  0.139275  0.499047  1
  Si  Si23  1  0.652954  0.275402  0.789727  1
  Si  Si24  1  0.147108  0.721568  0.209802  1
  Si  Si25  1  0.352241  0.215521  0.286830  1
  Si  Si26  1  0.850217  0.784324  0.713086  1
  Si  Si27  1  0.362151  0.218868  0.711715  1
  Si  Si28  1  0.859006  0.781057  0.288344  1
  Si  Si29  1  0.649247  0.267921  0.207172  1
  Si  Si30  1  0.141614  0.728677  0.792886  1
  Si  Si31  1  0.767659  0.883431  0.000319  1
  Si  Si32  1  0.258235  0.126046  0.999562  1
  Si  Si33  1  0.232443  0.626516  0.502023  1
  Si  Si34  1  0.733779  0.373660  0.498786  1
  Os  Os35  1  0.518023  0.656382  0.000340  1
