# generated using pymatgen
data_SrYb2Tl3(OsO6)2
_symmetry_space_group_name_H-M   'P 1'
_cell_length_a   5.88864320
_cell_length_b   5.87846325
_cell_length_c   10.19129540
_cell_angle_alpha   89.64925062
_cell_angle_beta   125.20353716
_cell_angle_gamma   90.03426576
_symmetry_Int_Tables_number   1
_chemical_formula_structural   SrYb2Tl3(OsO6)2
_chemical_formula_sum   'Sr1 Yb2 Tl3 Os2 O12'
_cell_volume   288.25554215
_cell_formula_units_Z   1
loop_
 _symmetry_equiv_pos_site_id
 _symmetry_equiv_pos_as_xyz
  1  'x, y, z'
loop_
 _atom_site_type_symbol
 _atom_site_label
 _atom_site_symmetry_multiplicity
 _atom_site_fract_x
 _atom_site_fract_y
 _atom_site_fract_z
 _atom_site_occupancy
  Sr  Sr0  1  0.751272  0.528119  0.751173  1
  Yb  Yb1  1  0.995023  0.497529  0.492131  1
  Yb  Yb2  1  0.005742  0.003499  0.009167  1
  Tl  Tl3  1  0.248356  0.012492  0.749593  1
  Tl  Tl4  1  0.256168  0.497095  0.251146  1
  Tl  Tl5  1  0.743365  0.988648  0.250612  1
  Os  Os6  1  0.509908  0.998805  0.509116  1
  Os  Os7  1  0.489403  0.499446  0.990073  1
  O  O8  1  0.207035  0.493671  0.764672  1
  O  O9  1  0.237562  0.002464  0.285996  1
  O  O10  1  0.757462  0.506885  0.213967  1
  O  O11  1  0.784337  0.988355  0.735635  1
  O  O12  1  0.735610  0.197535  0.484897  1
  O  O13  1  0.711026  0.298971  0.961044  1
  O  O14  1  0.291378  0.790555  0.536815  1
  O  O15  1  0.260577  0.704736  0.009788  1
  O  O16  1  0.687453  0.742047  0.489585  1
  O  O17  1  0.669560  0.744194  0.960941  1
  O  O18  1  0.343928  0.253903  0.537467  1
  O  O19  1  0.314837  0.251051  0.016182  1
