# generated using pymatgen
data_Eu4GaAg4Sn3
_symmetry_space_group_name_H-M   'P 1'
_cell_length_a   4.86474600
_cell_length_b   7.98653765
_cell_length_c   8.21637700
_cell_angle_alpha   89.87955487
_cell_angle_beta   90.00000000
_cell_angle_gamma   90.00000000
_symmetry_Int_Tables_number   1
_chemical_formula_structural   Eu4GaAg4Sn3
_chemical_formula_sum   'Eu4 Ga1 Ag4 Sn3'
_cell_volume   319.22589365
_cell_formula_units_Z   1
loop_
 _symmetry_equiv_pos_site_id
 _symmetry_equiv_pos_as_xyz
  1  'x, y, z'
loop_
 _atom_site_type_symbol
 _atom_site_label
 _atom_site_symmetry_multiplicity
 _atom_site_fract_x
 _atom_site_fract_y
 _atom_site_fract_z
 _atom_site_occupancy
  Eu  Eu0  1  0.250000  0.492846  0.207160  1
  Eu  Eu1  1  0.750000  0.498682  0.791539  1
  Eu  Eu2  1  0.250000  0.996228  0.298683  1
  Eu  Eu3  1  0.750000  0.007881  0.706989  1
  Ga  Ga4  1  0.250000  0.303592  0.586760  1
  Ag  Ag5  1  0.750000  0.308088  0.428536  1
  Ag  Ag6  1  0.250000  0.201890  0.906044  1
  Ag  Ag7  1  0.750000  0.811502  0.082367  1
  Ag  Ag8  1  0.250000  0.686451  0.581858  1
  Sn  Sn9  1  0.750000  0.196382  0.093082  1
  Sn  Sn10  1  0.250000  0.800655  0.907441  1
  Sn  Sn11  1  0.750000  0.695802  0.409538  1
