# generated using pymatgen
data_Ho4PPt11Rh
_symmetry_space_group_name_H-M   'P 1'
_cell_length_a   7.28631130
_cell_length_b   7.28267064
_cell_length_c   7.28267000
_cell_angle_alpha   109.36009222
_cell_angle_beta   109.52155132
_cell_angle_gamma   109.52156136
_symmetry_Int_Tables_number   1
_chemical_formula_structural   Ho4PPt11Rh
_chemical_formula_sum   'Ho4 P1 Pt11 Rh1'
_cell_volume   297.52420551
_cell_formula_units_Z   1
loop_
 _symmetry_equiv_pos_site_id
 _symmetry_equiv_pos_as_xyz
  1  'x, y, z'
loop_
 _atom_site_type_symbol
 _atom_site_label
 _atom_site_symmetry_multiplicity
 _atom_site_fract_x
 _atom_site_fract_y
 _atom_site_fract_z
 _atom_site_occupancy
  Ho  Ho0  1  0.000002  0.998308  0.501048  1
  Ho  Ho1  1  0.000002  0.501048  0.998308  1
  Ho  Ho2  1  0.497276  0.998308  0.998308  1
  Ho  Ho3  1  0.502715  0.501025  0.501025  1
  P  P4  1  0.000003  0.998516  0.998516  1
  Pt  Pt5  1  0.751915  0.252937  0.501055  1
  Pt  Pt6  1  0.751915  0.501055  0.252937  1
  Pt  Pt7  1  0.500003  0.248879  0.748880  1
  Pt  Pt8  1  0.248084  0.501020  0.749138  1
  Pt  Pt9  1  0.248084  0.749138  0.501020  1
  Pt  Pt10  1  0.500003  0.748880  0.248879  1
  Pt  Pt11  1  0.725766  0.724755  0.998847  1
  Pt  Pt12  1  0.274237  0.998974  0.273068  1
  Pt  Pt13  1  0.999984  0.271823  0.271823  1
  Pt  Pt14  1  0.274237  0.273068  0.998974  1
  Pt  Pt15  1  0.725766  0.998847  0.724755  1
  Rh  Rh16  1  0.000008  0.733419  0.733419  1
