# generated using pymatgen
data_TmPu3O12
_symmetry_space_group_name_H-M   'P 1'
_cell_length_a   6.95933332
_cell_length_b   7.06771833
_cell_length_c   6.95191600
_cell_angle_alpha   109.78629925
_cell_angle_beta   109.41998925
_cell_angle_gamma   109.75537094
_symmetry_Int_Tables_number   1
_chemical_formula_structural   TmPu3O12
_chemical_formula_sum   'Tm1 Pu3 O12'
_cell_volume   261.42861755
_cell_formula_units_Z   1
loop_
 _symmetry_equiv_pos_site_id
 _symmetry_equiv_pos_as_xyz
  1  'x, y, z'
loop_
 _atom_site_type_symbol
 _atom_site_label
 _atom_site_symmetry_multiplicity
 _atom_site_fract_x
 _atom_site_fract_y
 _atom_site_fract_z
 _atom_site_occupancy
  Tm  Tm0  1  0.499839  0.996506  0.996351  1
  Pu  Pu1  1  0.500021  0.496475  0.496499  1
  Pu  Pu2  1  0.000121  0.496732  0.996758  1
  Pu  Pu3  1  0.999897  0.996682  0.496555  1
  O  O4  1  0.231076  0.402536  0.216460  1
  O  O5  1  0.769064  0.590475  0.776655  1
  O  O6  1  0.188946  0.997514  0.765607  1
  O  O7  1  0.810814  0.995775  0.227584  1
  O  O8  1  0.279559  0.196809  0.520259  1
  O  O9  1  0.720175  0.796356  0.472835  1
  O  O10  1  0.731144  0.239756  0.930496  1
  O  O11  1  0.269042  0.753663  0.063006  1
  O  O12  1  0.007707  0.686234  0.270660  1
  O  O13  1  0.992471  0.307206  0.722846  1
  O  O14  1  0.571102  0.297346  0.309246  1
  O  O15  1  0.429021  0.695657  0.683905  1
