# generated using pymatgen
data_FeP6Pt
_symmetry_space_group_name_H-M   'P 1'
_cell_length_a   6.90126613
_cell_length_b   6.90126486
_cell_length_c   7.94790341
_cell_angle_alpha   54.37101655
_cell_angle_beta   54.37102558
_cell_angle_gamma   70.06697485
_symmetry_Int_Tables_number   1
_chemical_formula_structural   FeP6Pt
_chemical_formula_sum   'Fe2 P12 Pt2'
_cell_volume   250.08224853
_cell_formula_units_Z   2
loop_
 _symmetry_equiv_pos_site_id
 _symmetry_equiv_pos_as_xyz
  1  'x, y, z'
loop_
 _atom_site_type_symbol
 _atom_site_label
 _atom_site_symmetry_multiplicity
 _atom_site_fract_x
 _atom_site_fract_y
 _atom_site_fract_z
 _atom_site_occupancy
  Fe  Fe0  1  0.000000  0.500000  0.000000  1
  Fe  Fe1  1  0.500000  0.000000  0.000000  1
  P  P2  1  0.657509  0.657509  0.194555  1
  P  P3  1  0.342491  0.342491  0.805445  1
  P  P4  1  0.637683  0.637683  0.498022  1
  P  P5  1  0.362317  0.362317  0.501978  1
  P  P6  1  0.870885  0.155530  0.339638  1
  P  P7  1  0.129115  0.844470  0.660362  1
  P  P8  1  0.155530  0.870885  0.339638  1
  P  P9  1  0.844470  0.129115  0.660362  1
  P  P10  1  0.493949  0.789550  0.872372  1
  P  P11  1  0.506051  0.210450  0.127628  1
  P  P12  1  0.210450  0.506051  0.127628  1
  P  P13  1  0.789550  0.493949  0.872372  1
  Pt  Pt14  1  0.500000  0.000000  0.500000  1
  Pt  Pt15  1  0.000000  0.500000  0.500000  1
