# generated using pymatgen
data_La4Al13Ga5Ir6
_symmetry_space_group_name_H-M   'P 1'
_cell_length_a   7.63966208
_cell_length_b   7.63942014
_cell_length_c   9.74708000
_cell_angle_alpha   90.00000000
_cell_angle_beta   90.00000000
_cell_angle_gamma   119.33093422
_symmetry_Int_Tables_number   1
_chemical_formula_structural   La4Al13Ga5Ir6
_chemical_formula_sum   'La4 Al13 Ga5 Ir6'
_cell_volume   495.93915044
_cell_formula_units_Z   1
loop_
 _symmetry_equiv_pos_site_id
 _symmetry_equiv_pos_as_xyz
  1  'x, y, z'
loop_
 _atom_site_type_symbol
 _atom_site_label
 _atom_site_symmetry_multiplicity
 _atom_site_fract_x
 _atom_site_fract_y
 _atom_site_fract_z
 _atom_site_occupancy
  La  La0  1  0.995675  0.669621  0.250000  1
  La  La1  1  0.999986  0.326492  0.750000  1
  La  La2  1  0.669434  0.996700  0.250000  1
  La  La3  1  0.330202  0.005754  0.750000  1
  Al  Al4  1  0.005538  0.335640  0.070756  1
  Al  Al5  1  0.997470  0.664943  0.928236  1
  Al  Al6  1  0.997470  0.664943  0.571764  1
  Al  Al7  1  0.335396  0.005112  0.429253  1
  Al  Al8  1  0.005538  0.335640  0.429244  1
  Al  Al9  1  0.663738  0.995191  0.571966  1
  Al  Al10  1  0.663738  0.995191  0.928034  1
  Al  Al11  1  0.335396  0.005112  0.070747  1
  Al  Al12  1  0.334783  0.335424  0.549747  1
  Al  Al13  1  0.665639  0.665296  0.457423  1
  Al  Al14  1  0.665639  0.665296  0.042577  1
  Al  Al15  1  0.334783  0.335424  0.950253  1
  Al  Al16  1  0.453343  0.660585  0.750000  1
  Ga  Ga17  1  0.130294  0.130551  0.250000  1
  Ga  Ga18  1  0.867099  0.866517  0.750000  1
  Ga  Ga19  1  0.338019  0.543273  0.250000  1
  Ga  Ga20  1  0.661333  0.457073  0.750000  1
  Ga  Ga21  1  0.543880  0.339017  0.250000  1
  Ir  Ir22  1  0.671337  0.329938  0.000526  1
  Ir  Ir23  1  0.331352  0.670737  0.998175  1
  Ir  Ir24  1  0.331352  0.670737  0.501825  1
  Ir  Ir25  1  0.671337  0.329938  0.499474  1
  Ir  Ir26  1  0.000114  0.999928  0.999960  1
  Ir  Ir27  1  0.000114  0.999928  0.500040  1
