# generated using pymatgen
data_Gd3CuSn3Rh2
_symmetry_space_group_name_H-M   'P 1'
_cell_length_a   7.48135500
_cell_length_b   7.48135520
_cell_length_c   4.01664000
_cell_angle_alpha   90.00000000
_cell_angle_beta   90.00000000
_cell_angle_gamma   119.99999471
_symmetry_Int_Tables_number   1
_chemical_formula_structural   Gd3CuSn3Rh2
_chemical_formula_sum   'Gd3 Cu1 Sn3 Rh2'
_cell_volume   194.69468745
_cell_formula_units_Z   1
loop_
 _symmetry_equiv_pos_site_id
 _symmetry_equiv_pos_as_xyz
  1  'x, y, z'
loop_
 _atom_site_type_symbol
 _atom_site_label
 _atom_site_symmetry_multiplicity
 _atom_site_fract_x
 _atom_site_fract_y
 _atom_site_fract_z
 _atom_site_occupancy
  Gd  Gd0  1  0.589053  0.000000  0.500001  1
  Gd  Gd1  1  0.410947  0.410947  0.500001  1
  Gd  Gd2  1  0.000000  0.589053  0.500001  1
  Cu  Cu3  1  0.000000  0.000000  0.500001  1
  Sn  Sn4  1  0.253226  0.000000  0.000000  1
  Sn  Sn5  1  0.000000  0.253227  0.000000  1
  Sn  Sn6  1  0.746774  0.746774  0.000000  1
  Rh  Rh7  1  0.666667  0.333333  0.000000  1
  Rh  Rh8  1  0.333334  0.666667  0.000000  1
