# generated using pymatgen
data_DyHo3SiI6
_symmetry_space_group_name_H-M   'P 1'
_cell_length_a   4.21811100
_cell_length_b   13.87961214
_cell_length_c   14.70820721
_cell_angle_alpha   90.07200366
_cell_angle_beta   90.00000000
_cell_angle_gamma   90.00000000
_symmetry_Int_Tables_number   1
_chemical_formula_structural   DyHo3SiI6
_chemical_formula_sum   'Dy2 Ho6 Si2 I12'
_cell_volume   861.10226386
_cell_formula_units_Z   2
loop_
 _symmetry_equiv_pos_site_id
 _symmetry_equiv_pos_as_xyz
  1  'x, y, z'
loop_
 _atom_site_type_symbol
 _atom_site_label
 _atom_site_symmetry_multiplicity
 _atom_site_fract_x
 _atom_site_fract_y
 _atom_site_fract_z
 _atom_site_occupancy
  Dy  Dy0  1  0.000000  0.610307  0.925931  1
  Dy  Dy1  1  0.000000  0.389693  0.074069  1
  Ho  Ho2  1  0.500000  0.113985  0.347382  1
  Ho  Ho3  1  0.500000  0.886015  0.652618  1
  Ho  Ho4  1  0.500000  0.613967  0.152533  1
  Ho  Ho5  1  0.500000  0.386033  0.847467  1
  Ho  Ho6  1  0.000000  0.109940  0.573788  1
  Ho  Ho7  1  0.000000  0.890060  0.426212  1
  Si  Si8  1  0.500000  0.000000  0.500000  1
  Si  Si9  1  0.500000  0.500000  0.000000  1
  I  I10  1  0.500000  0.246406  0.164098  1
  I  I11  1  0.500000  0.753594  0.835902  1
  I  I12  1  0.500000  0.748045  0.336737  1
  I  I13  1  0.500000  0.251955  0.663263  1
  I  I14  1  0.000000  0.258605  0.415604  1
  I  I15  1  0.000000  0.741395  0.584396  1
  I  I16  1  0.000000  0.758844  0.085589  1
  I  I17  1  0.000000  0.241156  0.914411  1
  I  I18  1  0.000000  0.998817  0.240586  1
  I  I19  1  0.000000  0.001183  0.759414  1
  I  I20  1  0.000000  0.500124  0.260258  1
  I  I21  1  0.000000  0.499876  0.739742  1
