# generated using pymatgen
data_Tb5Tm3Sc12(GaSi3)4
_symmetry_space_group_name_H-M   'P 1'
_cell_length_a   7.11989519
_cell_length_b   7.41224855
_cell_length_c   14.15409001
_cell_angle_alpha   89.94023933
_cell_angle_beta   89.90470955
_cell_angle_gamma   90.19212312
_symmetry_Int_Tables_number   1
_chemical_formula_structural   Tb5Tm3Sc12(GaSi3)4
_chemical_formula_sum   'Tb5 Tm3 Sc12 Ga4 Si12'
_cell_volume   746.96842855
_cell_formula_units_Z   1
loop_
 _symmetry_equiv_pos_site_id
 _symmetry_equiv_pos_as_xyz
  1  'x, y, z'
loop_
 _atom_site_type_symbol
 _atom_site_label
 _atom_site_symmetry_multiplicity
 _atom_site_fract_x
 _atom_site_fract_y
 _atom_site_fract_z
 _atom_site_occupancy
  Tb  Tb0  1  0.013350  0.174704  0.097029  1
  Tb  Tb1  1  0.988572  0.825108  0.901779  1
  Tb  Tb2  1  0.487293  0.676784  0.901974  1
  Tb  Tb3  1  0.987985  0.827479  0.599673  1
  Tb  Tb4  1  0.510567  0.321399  0.097333  1
  Tm  Tm5  1  0.009535  0.175883  0.399762  1
  Tm  Tm6  1  0.510552  0.323397  0.400042  1
  Tm  Tm7  1  0.490795  0.676288  0.600700  1
  Sc  Sc8  1  0.162993  0.500820  0.751289  1
  Sc  Sc9  1  0.836424  0.498144  0.250573  1
  Sc  Sc10  1  0.335962  0.002139  0.248868  1
  Sc  Sc11  1  0.663572  0.998300  0.749759  1
  Sc  Sc12  1  0.334102  0.174765  0.627815  1
  Sc  Sc13  1  0.668871  0.826550  0.373637  1
  Sc  Sc14  1  0.170121  0.673263  0.372966  1
  Sc  Sc15  1  0.668514  0.826578  0.126086  1
  Sc  Sc16  1  0.828909  0.324917  0.626499  1
  Sc  Sc17  1  0.330824  0.175558  0.874373  1
  Sc  Sc18  1  0.829298  0.323755  0.874166  1
  Sc  Sc19  1  0.173220  0.674992  0.124849  1
  Ga  Ga20  1  0.163286  0.460518  0.539285  1
  Ga  Ga21  1  0.837908  0.536707  0.460905  1
  Ga  Ga22  1  0.338323  0.962249  0.461193  1
  Ga  Ga23  1  0.839834  0.538982  0.038732  1
  Si  Si24  1  0.033796  0.117356  0.751216  1
  Si  Si25  1  0.967226  0.884272  0.249646  1
  Si  Si26  1  0.467489  0.613970  0.249101  1
  Si  Si27  1  0.533715  0.385905  0.750739  1
  Si  Si28  1  0.287581  0.872467  0.750237  1
  Si  Si29  1  0.714414  0.127934  0.250152  1
  Si  Si30  1  0.213431  0.371844  0.250136  1
  Si  Si31  1  0.785937  0.627504  0.750741  1
  Si  Si32  1  0.657060  0.036987  0.538707  1
  Si  Si33  1  0.157206  0.462726  0.960953  1
  Si  Si34  1  0.655901  0.036786  0.961524  1
  Si  Si35  1  0.345437  0.962971  0.037562  1
