# generated using pymatgen
data_GeAs2(O3F)2
_symmetry_space_group_name_H-M   'P 1'
_cell_length_a   5.08136700
_cell_length_b   5.08136683
_cell_length_c   6.71648200
_cell_angle_alpha   90.00000000
_cell_angle_beta   90.00000000
_cell_angle_gamma   120.00000587
_symmetry_Int_Tables_number   1
_chemical_formula_structural   GeAs2(O3F)2
_chemical_formula_sum   'Ge1 As2 O6 F2'
_cell_volume   150.18742534
_cell_formula_units_Z   1
loop_
 _symmetry_equiv_pos_site_id
 _symmetry_equiv_pos_as_xyz
  1  'x, y, z'
loop_
 _atom_site_type_symbol
 _atom_site_label
 _atom_site_symmetry_multiplicity
 _atom_site_fract_x
 _atom_site_fract_y
 _atom_site_fract_z
 _atom_site_occupancy
  Ge  Ge0  1  0.000000  0.000000  0.000000  1
  As  As1  1  0.333333  0.666667  0.221360  1
  As  As2  1  0.666666  0.333333  0.778640  1
  O  O3  1  0.286820  0.317980  0.166804  1
  O  O4  1  0.031159  0.713179  0.166804  1
  O  O5  1  0.682020  0.968839  0.166804  1
  O  O6  1  0.317980  0.031159  0.833197  1
  O  O7  1  0.968841  0.286821  0.833197  1
  O  O8  1  0.713179  0.682020  0.833197  1
  F  F9  1  0.666666  0.333333  0.521936  1
  F  F10  1  0.333333  0.666667  0.478064  1
