# generated using pymatgen
data_DyHo(ZnPb)2
_symmetry_space_group_name_H-M   'P 1'
_cell_length_a   4.60972800
_cell_length_b   4.60972839
_cell_length_c   15.86132800
_cell_angle_alpha   90.00000000
_cell_angle_beta   90.00000000
_cell_angle_gamma   119.99999722
_symmetry_Int_Tables_number   1
_chemical_formula_structural   DyHo(ZnPb)2
_chemical_formula_sum   'Dy2 Ho2 Zn4 Pb4'
_cell_volume   291.89108246
_cell_formula_units_Z   2
loop_
 _symmetry_equiv_pos_site_id
 _symmetry_equiv_pos_as_xyz
  1  'x, y, z'
loop_
 _atom_site_type_symbol
 _atom_site_label
 _atom_site_symmetry_multiplicity
 _atom_site_fract_x
 _atom_site_fract_y
 _atom_site_fract_z
 _atom_site_occupancy
  Dy  Dy0  1  0.000000  0.000000  0.000000  1
  Dy  Dy1  1  0.000000  0.000000  0.500000  1
  Ho  Ho2  1  0.000000  0.000000  0.250000  1
  Ho  Ho3  1  0.000000  0.000000  0.750000  1
  Zn  Zn4  1  0.333334  0.666667  0.165368  1
  Zn  Zn5  1  0.333334  0.666667  0.334632  1
  Zn  Zn6  1  0.666666  0.333334  0.665368  1
  Zn  Zn7  1  0.666666  0.333334  0.834632  1
  Pb  Pb8  1  0.666666  0.333334  0.109904  1
  Pb  Pb9  1  0.666666  0.333334  0.390096  1
  Pb  Pb10  1  0.333334  0.666667  0.609904  1
  Pb  Pb11  1  0.333334  0.666667  0.890096  1
