# generated using pymatgen
data_Dy7Th(InNi)2
_symmetry_space_group_name_H-M   'P 1'
_cell_length_a   9.61781140
_cell_length_b   9.61781194
_cell_length_c   9.68112900
_cell_angle_alpha   59.78198234
_cell_angle_beta   59.78198047
_cell_angle_gamma   59.94059336
_symmetry_Int_Tables_number   1
_chemical_formula_structural   Dy7Th(InNi)2
_chemical_formula_sum   'Dy14 Th2 In4 Ni4'
_cell_volume   630.85629166
_cell_formula_units_Z   2
loop_
 _symmetry_equiv_pos_site_id
 _symmetry_equiv_pos_as_xyz
  1  'x, y, z'
loop_
 _atom_site_type_symbol
 _atom_site_label
 _atom_site_symmetry_multiplicity
 _atom_site_fract_x
 _atom_site_fract_y
 _atom_site_fract_z
 _atom_site_occupancy
  Dy  Dy0  1  0.597993  0.200701  0.600654  1
  Dy  Dy1  1  0.200701  0.597993  0.600654  1
  Dy  Dy2  1  0.061984  0.439875  0.437697  1
  Dy  Dy3  1  0.439875  0.061984  0.060446  1
  Dy  Dy4  1  0.439875  0.061984  0.437697  1
  Dy  Dy5  1  0.061984  0.439875  0.060446  1
  Dy  Dy6  1  0.439447  0.439447  0.060553  1
  Dy  Dy7  1  0.061199  0.061199  0.438801  1
  Dy  Dy8  1  0.187119  0.812738  0.814448  1
  Dy  Dy9  1  0.812738  0.187119  0.185695  1
  Dy  Dy10  1  0.812738  0.187119  0.814448  1
  Dy  Dy11  1  0.187119  0.812738  0.185695  1
  Dy  Dy12  1  0.811351  0.811351  0.188649  1
  Dy  Dy13  1  0.186698  0.186698  0.813302  1
  Th  Th14  1  0.593513  0.593513  0.600367  1
  Th  Th15  1  0.593513  0.593513  0.212607  1
  In  In16  1  0.834834  0.834834  0.831911  1
  In  In17  1  0.834834  0.834834  0.498421  1
  In  In18  1  0.834906  0.503367  0.830864  1
  In  In19  1  0.503367  0.834906  0.830864  1
  Ni  Ni20  1  0.393598  0.393598  0.390656  1
  Ni  Ni21  1  0.393598  0.393598  0.822150  1
  Ni  Ni22  1  0.396298  0.820727  0.391488  1
  Ni  Ni23  1  0.820727  0.396298  0.391488  1
