# generated using pymatgen
data_Sc5Nb3Si5P7Ir16
_symmetry_space_group_name_H-M   'P 1'
_cell_length_a   12.78414774
_cell_length_b   12.70565824
_cell_length_c   3.94254100
_cell_angle_alpha   90.00000000
_cell_angle_beta   90.00000000
_cell_angle_gamma   120.16513740
_symmetry_Int_Tables_number   1
_chemical_formula_structural   Sc5Nb3Si5P7Ir16
_chemical_formula_sum   'Sc5 Nb3 Si5 P7 Ir16'
_cell_volume   553.66964255
_cell_formula_units_Z   1
loop_
 _symmetry_equiv_pos_site_id
 _symmetry_equiv_pos_as_xyz
  1  'x, y, z'
loop_
 _atom_site_type_symbol
 _atom_site_label
 _atom_site_symmetry_multiplicity
 _atom_site_fract_x
 _atom_site_fract_y
 _atom_site_fract_z
 _atom_site_occupancy
  Sc  Sc0  1  0.333484  0.666173  0.000000  1
  Sc  Sc1  1  0.667424  0.333858  0.000000  1
  Sc  Sc2  1  0.807966  0.999214  0.500000  1
  Sc  Sc3  1  0.001516  0.812258  0.500000  1
  Sc  Sc4  1  0.187623  0.187839  0.500000  1
  Nb  Nb5  1  0.445303  0.002423  0.000000  1
  Nb  Nb6  1  0.000227  0.444603  0.000000  1
  Nb  Nb7  1  0.555149  0.552487  0.000000  1
  Si  Si8  1  0.170964  0.481824  0.500000  1
  Si  Si9  1  0.516889  0.685984  0.500000  1
  Si  Si10  1  0.313708  0.830613  0.500000  1
  Si  Si11  1  0.690294  0.518696  0.500000  1
  Si  Si12  1  0.830633  0.313717  0.500000  1
  P  P13  1  0.175404  0.000363  0.000000  1
  P  P14  1  0.997024  0.173695  0.000000  1
  P  P15  1  0.823275  0.824804  0.000000  1
  P  P16  1  0.482243  0.169587  0.500000  1
  P  P17  1  0.635841  0.997993  0.000000  1
  P  P18  1  0.000830  0.639122  0.000000  1
  P  P19  1  0.358957  0.361637  0.000000  1
  Ir  Ir20  1  0.358567  0.483589  0.500000  1
  Ir  Ir21  1  0.513106  0.872147  0.500000  1
  Ir  Ir22  1  0.131499  0.641691  0.500000  1
  Ir  Ir23  1  0.873706  0.514628  0.500000  1
  Ir  Ir24  1  0.639224  0.134130  0.500000  1
  Ir  Ir25  1  0.493405  0.356063  0.500000  1
  Ir  Ir26  1  0.177902  0.367224  0.000000  1
  Ir  Ir27  1  0.630089  0.809927  0.000000  1
  Ir  Ir28  1  0.188614  0.821431  0.000000  1
  Ir  Ir29  1  0.813017  0.632780  0.000000  1
  Ir  Ir30  1  0.816953  0.186307  0.000000  1
  Ir  Ir31  1  0.366287  0.181615  0.000000  1
  Ir  Ir32  1  0.278205  0.003227  0.500000  1
  Ir  Ir33  1  0.997934  0.272082  0.500000  1
  Ir  Ir34  1  0.726479  0.726870  0.500000  1
  Ir  Ir35  1  0.000262  0.999400  0.000000  1
