# generated using pymatgen
data_MoSe2Cl3
_symmetry_space_group_name_H-M   'P 1'
_cell_length_a   6.38737297
_cell_length_b   7.72510200
_cell_length_c   14.35889695
_cell_angle_alpha   90.00000000
_cell_angle_beta   114.14536027
_cell_angle_gamma   90.00000000
_symmetry_Int_Tables_number   1
_chemical_formula_structural   MoSe2Cl3
_chemical_formula_sum   'Mo4 Se8 Cl12'
_cell_volume   646.52527206
_cell_formula_units_Z   4
loop_
 _symmetry_equiv_pos_site_id
 _symmetry_equiv_pos_as_xyz
  1  'x, y, z'
loop_
 _atom_site_type_symbol
 _atom_site_label
 _atom_site_symmetry_multiplicity
 _atom_site_fract_x
 _atom_site_fract_y
 _atom_site_fract_z
 _atom_site_occupancy
  Mo  Mo0  1  0.294985  0.092386  0.494615  1
  Mo  Mo1  1  0.705034  0.592394  0.005369  1
  Mo  Mo2  1  0.705035  0.907608  0.505369  1
  Mo  Mo3  1  0.294985  0.407614  0.994616  1
  Se  Se4  1  0.314511  0.762550  0.455905  1
  Se  Se5  1  0.685622  0.262597  0.044130  1
  Se  Se6  1  0.685624  0.237403  0.544130  1
  Se  Se7  1  0.314511  0.737451  0.955904  1
  Se  Se8  1  0.337775  0.955732  0.339824  1
  Se  Se9  1  0.662192  0.455817  0.160150  1
  Se  Se10  1  0.662192  0.044183  0.660149  1
  Se  Se11  1  0.337775  0.544270  0.839824  1
  Cl  Cl12  1  0.862575  0.067137  0.389150  1
  Cl  Cl13  1  0.137389  0.567147  0.110841  1
  Cl  Cl14  1  0.137391  0.932855  0.610842  1
  Cl  Cl15  1  0.862574  0.432863  0.889149  1
  Cl  Cl16  1  0.217624  0.334140  0.582064  1
  Cl  Cl17  1  0.782507  0.834138  0.917975  1
  Cl  Cl18  1  0.782505  0.665862  0.417975  1
  Cl  Cl19  1  0.217624  0.165860  0.082064  1
  Cl  Cl20  1  0.223599  0.324111  0.362279  1
  Cl  Cl21  1  0.776187  0.824148  0.137697  1
  Cl  Cl22  1  0.776186  0.675853  0.637697  1
  Cl  Cl23  1  0.223597  0.175889  0.862279  1
