# generated using pymatgen
data_LaDy4Ni19
_symmetry_space_group_name_H-M   'P 1'
_cell_length_a   4.94211001
_cell_length_b   4.94210976
_cell_length_c   16.32159808
_cell_angle_alpha   81.29204388
_cell_angle_beta   81.29204291
_cell_angle_gamma   59.99999231
_symmetry_Int_Tables_number   1
_chemical_formula_structural   LaDy4Ni19
_chemical_formula_sum   'La1 Dy4 Ni19'
_cell_volume   339.92110305
_cell_formula_units_Z   1
loop_
 _symmetry_equiv_pos_site_id
 _symmetry_equiv_pos_as_xyz
  1  'x, y, z'
loop_
 _atom_site_type_symbol
 _atom_site_label
 _atom_site_symmetry_multiplicity
 _atom_site_fract_x
 _atom_site_fract_y
 _atom_site_fract_z
 _atom_site_occupancy
  La  La0  1  0.000000  0.000000  0.000000  1
  Dy  Dy1  1  0.921162  0.921162  0.236514  1
  Dy  Dy2  1  0.078838  0.078838  0.763486  1
  Dy  Dy3  1  0.848093  0.848093  0.455722  1
  Dy  Dy4  1  0.151907  0.151907  0.544278  1
  Ni  Ni5  1  0.500000  0.500000  0.500000  1
  Ni  Ni6  1  0.749540  0.749541  0.751379  1
  Ni  Ni7  1  0.250459  0.250459  0.248622  1
  Ni  Ni8  1  0.666768  0.666768  0.999695  1
  Ni  Ni9  1  0.333232  0.333232  0.000305  1
  Ni  Ni10  1  0.583960  0.583960  0.248122  1
  Ni  Ni11  1  0.416040  0.416040  0.751878  1
  Ni  Ni12  1  0.375855  0.375855  0.371180  1
  Ni  Ni13  1  0.877107  0.375855  0.371180  1
  Ni  Ni14  1  0.375855  0.877107  0.371180  1
  Ni  Ni15  1  0.624145  0.624145  0.628820  1
  Ni  Ni16  1  0.122893  0.624145  0.628820  1
  Ni  Ni17  1  0.624145  0.122893  0.628820  1
  Ni  Ni18  1  0.458448  0.458448  0.124764  1
  Ni  Ni19  1  0.958338  0.458448  0.124764  1
  Ni  Ni20  1  0.458448  0.958338  0.124764  1
  Ni  Ni21  1  0.541552  0.541552  0.875236  1
  Ni  Ni22  1  0.041662  0.541552  0.875236  1
  Ni  Ni23  1  0.541552  0.041662  0.875236  1
