# generated using pymatgen
data_YSi2Tc3Os
_symmetry_space_group_name_H-M   'P 1'
_cell_length_a   7.61698600
_cell_length_b   7.24291300
_cell_length_c   4.06985200
_cell_angle_alpha   90.00000000
_cell_angle_beta   90.00000000
_cell_angle_gamma   90.00000000
_symmetry_Int_Tables_number   1
_chemical_formula_structural   YSi2Tc3Os
_chemical_formula_sum   'Y2 Si4 Tc6 Os2'
_cell_volume   224.53034433
_cell_formula_units_Z   2
loop_
 _symmetry_equiv_pos_site_id
 _symmetry_equiv_pos_as_xyz
  1  'x, y, z'
loop_
 _atom_site_type_symbol
 _atom_site_label
 _atom_site_symmetry_multiplicity
 _atom_site_fract_x
 _atom_site_fract_y
 _atom_site_fract_z
 _atom_site_occupancy
  Y  Y0  1  0.499274  0.501345  0.000000  1
  Y  Y1  1  0.999274  0.998655  0.500000  1
  Si  Si2  1  0.197968  0.777060  0.000000  1
  Si  Si3  1  0.799826  0.220593  0.000000  1
  Si  Si4  1  0.697968  0.722940  0.500000  1
  Si  Si5  1  0.299826  0.279407  0.500000  1
  Tc  Tc6  1  0.099291  0.343342  0.000000  1
  Tc  Tc7  1  0.902054  0.652211  0.000000  1
  Tc  Tc8  1  0.402054  0.847789  0.500000  1
  Tc  Tc9  1  0.599291  0.156658  0.500000  1
  Tc  Tc10  1  0.341539  0.077505  0.000000  1
  Tc  Tc11  1  0.841539  0.422495  0.500000  1
  Os  Os12  1  0.660048  0.919541  0.000000  1
  Os  Os13  1  0.160048  0.580459  0.500000  1
