# generated using pymatgen
data_Tb5CoAuO12
_symmetry_space_group_name_H-M   'P 1'
_cell_length_a   6.87768023
_cell_length_b   6.87768109
_cell_length_c   7.25858213
_cell_angle_alpha   74.56698694
_cell_angle_beta   74.56698482
_cell_angle_gamma   50.73947073
_symmetry_Int_Tables_number   1
_chemical_formula_structural   Tb5CoAuO12
_chemical_formula_sum   'Tb5 Co1 Au1 O12'
_cell_volume   254.05595666
_cell_formula_units_Z   1
loop_
 _symmetry_equiv_pos_site_id
 _symmetry_equiv_pos_as_xyz
  1  'x, y, z'
loop_
 _atom_site_type_symbol
 _atom_site_label
 _atom_site_symmetry_multiplicity
 _atom_site_fract_x
 _atom_site_fract_y
 _atom_site_fract_z
 _atom_site_occupancy
  Tb  Tb0  1  0.695496  0.693451  0.665952  1
  Tb  Tb1  1  0.690553  0.706880  0.140682  1
  Tb  Tb2  1  0.001515  0.998485  0.000000  1
  Tb  Tb3  1  0.293120  0.309447  0.859318  1
  Tb  Tb4  1  0.306549  0.304504  0.334048  1
  Co  Co5  1  0.249757  0.750243  0.500000  1
  Au  Au6  1  0.756621  0.243379  0.500000  1
  O  O7  1  0.399149  0.906158  0.925185  1
  O  O8  1  0.567985  0.094030  0.584032  1
  O  O9  1  0.905970  0.432015  0.415968  1
  O  O10  1  0.093842  0.600851  0.074815  1
  O  O11  1  0.020033  0.981190  0.320585  1
  O  O12  1  0.489870  0.509557  0.682471  1
  O  O13  1  0.898869  0.403815  0.925796  1
  O  O14  1  0.104601  0.579368  0.579156  1
  O  O15  1  0.420632  0.895399  0.420844  1
  O  O16  1  0.596185  0.101131  0.074204  1
  O  O17  1  0.490443  0.510130  0.317529  1
  O  O18  1  0.018810  0.979967  0.679415  1
