# generated using pymatgen
data_Tm10InHg2Ru
_symmetry_space_group_name_H-M   'P 1'
_cell_length_a   9.50599900
_cell_length_b   9.49623563
_cell_length_c   9.69261100
_cell_angle_alpha   90.00000000
_cell_angle_beta   90.00000000
_cell_angle_gamma   119.96602945
_symmetry_Int_Tables_number   1
_chemical_formula_structural   Tm10InHg2Ru
_chemical_formula_sum   'Tm20 In2 Hg4 Ru2'
_cell_volume   758.00003026
_cell_formula_units_Z   2
loop_
 _symmetry_equiv_pos_site_id
 _symmetry_equiv_pos_as_xyz
  1  'x, y, z'
loop_
 _atom_site_type_symbol
 _atom_site_label
 _atom_site_symmetry_multiplicity
 _atom_site_fract_x
 _atom_site_fract_y
 _atom_site_fract_z
 _atom_site_occupancy
  Tm  Tm0  1  0.005841  0.002920  0.508141  1
  Tm  Tm1  1  0.005841  0.002920  0.991859  1
  Tm  Tm2  1  0.208803  0.789143  0.439227  1
  Tm  Tm3  1  0.208803  0.419661  0.439227  1
  Tm  Tm4  1  0.581416  0.790708  0.438691  1
  Tm  Tm5  1  0.789762  0.209080  0.559954  1
  Tm  Tm6  1  0.789762  0.580680  0.559954  1
  Tm  Tm7  1  0.420284  0.210141  0.561428  1
  Tm  Tm8  1  0.789762  0.209080  0.940046  1
  Tm  Tm9  1  0.789762  0.580680  0.940046  1
  Tm  Tm10  1  0.420284  0.210141  0.938572  1
  Tm  Tm11  1  0.208803  0.789143  0.060773  1
  Tm  Tm12  1  0.208803  0.419661  0.060773  1
  Tm  Tm13  1  0.581416  0.790708  0.061309  1
  Tm  Tm14  1  0.532303  0.455378  0.250000  1
  Tm  Tm15  1  0.532303  0.076923  0.250000  1
  Tm  Tm16  1  0.918267  0.459133  0.250000  1
  Tm  Tm17  1  0.459697  0.541692  0.750000  1
  Tm  Tm18  1  0.459697  0.918007  0.750000  1
  Tm  Tm19  1  0.079987  0.539994  0.750000  1
  In  In20  1  0.885351  0.114080  0.250000  1
  In  In21  1  0.885351  0.771272  0.250000  1
  Hg  Hg22  1  0.231857  0.115929  0.250000  1
  Hg  Hg23  1  0.119395  0.881667  0.750000  1
  Hg  Hg24  1  0.119395  0.237726  0.750000  1
  Hg  Hg25  1  0.764896  0.882447  0.750000  1
  Ru  Ru26  1  0.334505  0.667254  0.250000  1
  Ru  Ru27  1  0.667654  0.333827  0.750000  1
