# generated using pymatgen
data_Al2B28H
_symmetry_space_group_name_H-M   'P 1'
_cell_length_a   7.13401942
_cell_length_b   7.13401842
_cell_length_c   5.87783610
_cell_angle_alpha   65.89208904
_cell_angle_beta   65.89210144
_cell_angle_gamma   91.97706331
_symmetry_Int_Tables_number   1
_chemical_formula_structural   Al2B28H
_chemical_formula_sum   'Al2 B28 H1'
_cell_volume   241.85235145
_cell_formula_units_Z   1
loop_
 _symmetry_equiv_pos_site_id
 _symmetry_equiv_pos_as_xyz
  1  'x, y, z'
loop_
 _atom_site_type_symbol
 _atom_site_label
 _atom_site_symmetry_multiplicity
 _atom_site_fract_x
 _atom_site_fract_y
 _atom_site_fract_z
 _atom_site_occupancy
  Al  Al0  1  0.509587  0.509587  0.489787  1
  Al  Al1  1  0.143595  0.143595  0.456479  1
  B  B2  1  0.415626  0.744166  0.165911  1
  B  B3  1  0.591564  0.265677  0.828368  1
  B  B4  1  0.265677  0.591564  0.828368  1
  B  B5  1  0.744166  0.415626  0.165911  1
  B  B6  1  0.698255  0.863712  0.967422  1
  B  B7  1  0.311390  0.142915  0.026231  1
  B  B8  1  0.142915  0.311390  0.026231  1
  B  B9  1  0.863712  0.698255  0.967422  1
  B  B10  1  0.542672  0.880079  0.284252  1
  B  B11  1  0.477931  0.131062  0.197330  1
  B  B12  1  0.131062  0.477931  0.197330  1
  B  B13  1  0.880079  0.542672  0.284252  1
  B  B14  1  0.470715  0.131355  0.706457  1
  B  B15  1  0.536040  0.882163  0.793543  1
  B  B16  1  0.882163  0.536040  0.793543  1
  B  B17  1  0.131355  0.470715  0.706457  1
  B  B18  1  0.738259  0.105397  0.988536  1
  B  B19  1  0.280119  0.901442  0.315884  1
  B  B20  1  0.901442  0.280119  0.315884  1
  B  B21  1  0.105397  0.738259  0.988536  1
  B  B22  1  0.274808  0.904458  0.003287  1
  B  B23  1  0.734248  0.106886  0.679688  1
  B  B24  1  0.106886  0.734248  0.679688  1
  B  B25  1  0.904458  0.274808  0.003287  1
  B  B26  1  0.274581  0.462680  0.380662  1
  B  B27  1  0.741327  0.532714  0.617345  1
  B  B28  1  0.532714  0.741327  0.617345  1
  B  B29  1  0.462680  0.274581  0.380662  1
  H  H30  1  0.704578  0.704578  0.643901  1
