# generated using pymatgen
data_K2Fe2F7
_symmetry_space_group_name_H-M   'P 1'
_cell_length_a   7.78462778
_cell_length_b   7.78462684
_cell_length_c   7.78462755
_cell_angle_alpha   120.11452263
_cell_angle_beta   116.82943874
_cell_angle_gamma   92.69010315
_symmetry_Int_Tables_number   1
_chemical_formula_structural   K2Fe2F7
_chemical_formula_sum   'K4 Fe4 F14'
_cell_volume   340.54582358
_cell_formula_units_Z   2
loop_
 _symmetry_equiv_pos_site_id
 _symmetry_equiv_pos_as_xyz
  1  'x, y, z'
loop_
 _atom_site_type_symbol
 _atom_site_label
 _atom_site_symmetry_multiplicity
 _atom_site_fract_x
 _atom_site_fract_y
 _atom_site_fract_z
 _atom_site_occupancy
  K  K0  1  0.500000  0.500000  0.000000  1
  K  K1  1  0.000000  0.000000  0.000000  1
  K  K2  1  0.000000  0.500000  0.000000  1
  K  K3  1  0.000000  0.000000  0.500000  1
  Fe  Fe4  1  0.500000  0.500000  0.500000  1
  Fe  Fe5  1  0.500000  0.000000  0.000000  1
  Fe  Fe6  1  0.000000  0.500000  0.500000  1
  Fe  Fe7  1  0.500000  0.000000  0.500000  1
  F  F8  1  0.878398  0.586841  0.291558  1
  F  F9  1  0.204716  0.913159  0.291558  1
  F  F10  1  0.187020  0.799541  0.756837  1
  F  F11  1  0.457296  0.700459  0.387478  1
  F  F12  1  0.457296  0.069818  0.756837  1
  F  F13  1  0.187020  0.430182  0.387478  1
  F  F14  1  0.812980  0.569818  0.612522  1
  F  F15  1  0.542704  0.930182  0.243163  1
  F  F16  1  0.542704  0.299541  0.612522  1
  F  F17  1  0.812980  0.200459  0.243163  1
  F  F18  1  0.391709  0.250000  0.141709  1
  F  F19  1  0.121602  0.413159  0.708442  1
  F  F20  1  0.795284  0.086841  0.708442  1
  F  F21  1  0.608291  0.750000  0.858291  1
