# generated using pymatgen
data_Tb15Y3(LuPb8)2
_symmetry_space_group_name_H-M   'P 1'
_cell_length_a   8.20980410
_cell_length_b   8.30123413
_cell_length_c   15.69929406
_cell_angle_alpha   89.99027673
_cell_angle_beta   89.99629401
_cell_angle_gamma   90.01767683
_symmetry_Int_Tables_number   1
_chemical_formula_structural   Tb15Y3(LuPb8)2
_chemical_formula_sum   'Tb15 Y3 Lu2 Pb16'
_cell_volume   1069.93046509
_cell_formula_units_Z   1
loop_
 _symmetry_equiv_pos_site_id
 _symmetry_equiv_pos_as_xyz
  1  'x, y, z'
loop_
 _atom_site_type_symbol
 _atom_site_label
 _atom_site_symmetry_multiplicity
 _atom_site_fract_x
 _atom_site_fract_y
 _atom_site_fract_z
 _atom_site_occupancy
  Tb  Tb0  1  0.468024  0.823463  0.400383  1
  Tb  Tb1  1  0.031906  0.323406  0.900397  1
  Tb  Tb2  1  0.031942  0.323415  0.599577  1
  Tb  Tb3  1  0.875136  0.840211  0.879510  1
  Tb  Tb4  1  0.468086  0.823420  0.099606  1
  Tb  Tb5  1  0.376541  0.658882  0.879122  1
  Tb  Tb6  1  0.624889  0.340213  0.120520  1
  Tb  Tb7  1  0.624821  0.340199  0.379498  1
  Tb  Tb8  1  0.532612  0.177739  0.599293  1
  Tb  Tb9  1  0.376505  0.658876  0.620849  1
  Tb  Tb10  1  0.532615  0.177699  0.900724  1
  Tb  Tb11  1  0.967409  0.677767  0.400733  1
  Tb  Tb12  1  0.967400  0.677699  0.099289  1
  Tb  Tb13  1  0.123450  0.158874  0.120908  1
  Tb  Tb14  1  0.875110  0.840150  0.620520  1
  Y  Y15  1  0.292653  0.496634  0.250033  1
  Y  Y16  1  0.207308  0.996701  0.749990  1
  Y  Y17  1  0.123581  0.158794  0.379035  1
  Lu  Lu18  1  0.791984  0.003973  0.250009  1
  Lu  Lu19  1  0.708057  0.503972  0.750000  1
  Pb  Pb20  1  0.843384  0.153873  0.750007  1
  Pb  Pb21  1  0.717623  0.532488  0.543646  1
  Pb  Pb22  1  0.928178  0.373566  0.250018  1
  Pb  Pb23  1  0.217916  0.966883  0.957080  1
  Pb  Pb24  1  0.282092  0.466880  0.042923  1
  Pb  Pb25  1  0.571917  0.873731  0.750012  1
  Pb  Pb26  1  0.345370  0.347876  0.750012  1
  Pb  Pb27  1  0.069841  0.624713  0.750003  1
  Pb  Pb28  1  0.782599  0.032569  0.456331  1
  Pb  Pb29  1  0.281941  0.466709  0.457068  1
  Pb  Pb30  1  0.154631  0.848005  0.250043  1
  Pb  Pb31  1  0.217859  0.967051  0.542799  1
  Pb  Pb32  1  0.782357  0.032500  0.043630  1
  Pb  Pb33  1  0.656578  0.653880  0.250013  1
  Pb  Pb34  1  0.717629  0.532490  0.956366  1
  Pb  Pb35  1  0.430058  0.124705  0.250052  1
