# generated using pymatgen
data_Y5TmAl24Os7Pt
_symmetry_space_group_name_H-M   'P 1'
_cell_length_a   8.84068987
_cell_length_b   8.84068914
_cell_length_c   9.55545585
_cell_angle_alpha   89.65479802
_cell_angle_beta   90.34521077
_cell_angle_gamma   119.92951832
_symmetry_Int_Tables_number   1
_chemical_formula_structural   Y5TmAl24Os7Pt
_chemical_formula_sum   'Y5 Tm1 Al24 Os7 Pt1'
_cell_volume   647.21981759
_cell_formula_units_Z   1
loop_
 _symmetry_equiv_pos_site_id
 _symmetry_equiv_pos_as_xyz
  1  'x, y, z'
loop_
 _atom_site_type_symbol
 _atom_site_label
 _atom_site_symmetry_multiplicity
 _atom_site_fract_x
 _atom_site_fract_y
 _atom_site_fract_z
 _atom_site_occupancy
  Y  Y0  1  0.190212  0.385763  0.251242  1
  Y  Y1  1  0.809915  0.614189  0.748727  1
  Y  Y2  1  0.614237  0.809788  0.251242  1
  Y  Y3  1  0.385811  0.190085  0.748727  1
  Y  Y4  1  0.194318  0.805682  0.251746  1
  Tm  Tm5  1  0.804271  0.195729  0.747964  1
  Al  Al6  1  0.331605  0.668395  0.019940  1
  Al  Al7  1  0.668666  0.331334  0.979149  1
  Al  Al8  1  0.666519  0.333481  0.517253  1
  Al  Al9  1  0.333731  0.666269  0.483447  1
  Al  Al10  1  0.163274  0.325472  0.577357  1
  Al  Al11  1  0.836080  0.673889  0.423448  1
  Al  Al12  1  0.674528  0.836726  0.577357  1
  Al  Al13  1  0.841758  0.674934  0.076848  1
  Al  Al14  1  0.326111  0.163920  0.423448  1
  Al  Al15  1  0.157380  0.324441  0.922358  1
  Al  Al16  1  0.163600  0.836400  0.575358  1
  Al  Al17  1  0.325066  0.158242  0.076848  1
  Al  Al18  1  0.836530  0.163470  0.425827  1
  Al  Al19  1  0.675559  0.842620  0.922358  1
  Al  Al20  1  0.836657  0.163343  0.073952  1
  Al  Al21  1  0.163425  0.836575  0.924750  1
  Al  Al22  1  0.560684  0.122240  0.249063  1
  Al  Al23  1  0.440546  0.878367  0.750984  1
  Al  Al24  1  0.877760  0.439316  0.249063  1
  Al  Al25  1  0.121633  0.559454  0.750984  1
  Al  Al26  1  0.561686  0.438314  0.252052  1
  Al  Al27  1  0.438314  0.561686  0.748086  1
  Al  Al28  1  0.999746  0.000254  0.250103  1
  Al  Al29  1  0.998972  0.001028  0.749905  1
  Os  Os30  1  0.500561  0.000305  0.999498  1
  Os  Os31  1  0.999695  0.499439  0.999498  1
  Os  Os32  1  0.500751  0.000319  0.500632  1
  Os  Os33  1  0.999681  0.499249  0.500632  1
  Os  Os34  1  0.500172  0.499828  0.500087  1
  Os  Os35  1  0.000140  0.999860  0.999979  1
  Os  Os36  1  0.000171  0.999829  0.500049  1
  Pt  Pt37  1  0.500238  0.499762  0.000040  1
