# generated using pymatgen
data_Dy3(In2Pt)2
_symmetry_space_group_name_H-M   'P 1'
_cell_length_a   7.84255700
_cell_length_b   7.84255724
_cell_length_c   3.91256200
_cell_angle_alpha   90.00000000
_cell_angle_beta   90.00000000
_cell_angle_gamma   120.00001166
_symmetry_Int_Tables_number   1
_chemical_formula_structural   Dy3(In2Pt)2
_chemical_formula_sum   'Dy3 In4 Pt2'
_cell_volume   208.40454886
_cell_formula_units_Z   1
loop_
 _symmetry_equiv_pos_site_id
 _symmetry_equiv_pos_as_xyz
  1  'x, y, z'
loop_
 _atom_site_type_symbol
 _atom_site_label
 _atom_site_symmetry_multiplicity
 _atom_site_fract_x
 _atom_site_fract_y
 _atom_site_fract_z
 _atom_site_occupancy
  Dy  Dy0  1  0.047421  0.303686  0.500000  1
  Dy  Dy1  1  0.696314  0.743733  0.500000  1
  Dy  Dy2  1  0.256267  0.952579  0.500000  1
  In  In3  1  0.663428  0.075142  0.000000  1
  In  In4  1  0.924858  0.588286  0.000000  1
  In  In5  1  0.411714  0.336572  0.000000  1
  In  In6  1  0.333333  0.666667  0.000000  1
  Pt  Pt7  1  0.666667  0.333333  0.500000  1
  Pt  Pt8  1  0.000000  0.000000  0.000000  1
