# generated using pymatgen
data_Tb12ZnNi4Bi
_symmetry_space_group_name_H-M   'P 1'
_cell_length_a   8.45363658
_cell_length_b   8.45363714
_cell_length_c   8.45363600
_cell_angle_alpha   112.75275497
_cell_angle_beta   109.05810926
_cell_angle_gamma   106.66156215
_symmetry_Int_Tables_number   1
_chemical_formula_structural   Tb12ZnNi4Bi
_chemical_formula_sum   'Tb12 Zn1 Ni4 Bi1'
_cell_volume   463.71741204
_cell_formula_units_Z   1
loop_
 _symmetry_equiv_pos_site_id
 _symmetry_equiv_pos_as_xyz
  1  'x, y, z'
loop_
 _atom_site_type_symbol
 _atom_site_label
 _atom_site_symmetry_multiplicity
 _atom_site_fract_x
 _atom_site_fract_y
 _atom_site_fract_z
 _atom_site_occupancy
  Tb  Tb0  1  0.821760  0.708040  0.529830  1
  Tb  Tb1  1  0.178240  0.291960  0.470170  1
  Tb  Tb2  1  0.178209  0.708040  0.886281  1
  Tb  Tb3  1  0.821791  0.291960  0.113719  1
  Tb  Tb4  1  0.678368  0.368913  0.690543  1
  Tb  Tb5  1  0.321632  0.631087  0.309457  1
  Tb  Tb6  1  0.678307  0.987656  0.309350  1
  Tb  Tb7  1  0.321693  0.012344  0.690650  1
  Tb  Tb8  1  0.578444  0.779519  0.798936  1
  Tb  Tb9  1  0.421556  0.220481  0.201064  1
  Tb  Tb10  1  0.980583  0.779519  0.201075  1
  Tb  Tb11  1  0.019417  0.220481  0.798925  1
  Zn  Zn12  1  0.000000  0.000000  0.000000  1
  Ni  Ni13  1  0.642653  0.000000  0.642653  1
  Ni  Ni14  1  0.357347  0.000000  0.357347  1
  Ni  Ni15  1  0.124357  0.624620  0.500263  1
  Ni  Ni16  1  0.875643  0.375380  0.499737  1
  Bi  Bi17  1  0.500000  0.500000  0.000000  1
