# generated using pymatgen
data_NdTl(SeO4)2
_symmetry_space_group_name_H-M   'P 1'
_cell_length_a   5.01821379
_cell_length_b   5.01821390
_cell_length_c   9.11748600
_cell_angle_alpha   89.93962391
_cell_angle_beta   89.93962391
_cell_angle_gamma   64.37959406
_symmetry_Int_Tables_number   1
_chemical_formula_structural   NdTl(SeO4)2
_chemical_formula_sum   'Nd1 Tl1 Se2 O8'
_cell_volume   207.02598074
_cell_formula_units_Z   1
loop_
 _symmetry_equiv_pos_site_id
 _symmetry_equiv_pos_as_xyz
  1  'x, y, z'
loop_
 _atom_site_type_symbol
 _atom_site_label
 _atom_site_symmetry_multiplicity
 _atom_site_fract_x
 _atom_site_fract_y
 _atom_site_fract_z
 _atom_site_occupancy
  Nd  Nd0  1  0.994585  0.005414  0.500000  1
  Tl  Tl1  1  0.959194  0.040805  0.000000  1
  Se  Se2  1  0.305441  0.304878  0.272381  1
  Se  Se3  1  0.695121  0.694558  0.727618  1
  O  O4  1  0.200214  0.455842  0.110035  1
  O  O5  1  0.283590  0.980001  0.283325  1
  O  O6  1  0.655056  0.242649  0.307773  1
  O  O7  1  0.088897  0.503554  0.413944  1
  O  O8  1  0.496447  0.911103  0.586055  1
  O  O9  1  0.757351  0.344945  0.692228  1
  O  O10  1  0.019998  0.716409  0.716674  1
  O  O11  1  0.544158  0.799787  0.889965  1
