# generated using pymatgen
data_Li2La3MgPd2Ru
_symmetry_space_group_name_H-M   'P 1'
_cell_length_a   7.48673064
_cell_length_b   7.51338625
_cell_length_c   4.17762800
_cell_angle_alpha   90.00000000
_cell_angle_beta   90.00000000
_cell_angle_gamma   120.05680795
_symmetry_Int_Tables_number   1
_chemical_formula_structural   Li2La3MgPd2Ru
_chemical_formula_sum   'Li2 La3 Mg1 Pd2 Ru1'
_cell_volume   203.39460596
_cell_formula_units_Z   1
loop_
 _symmetry_equiv_pos_site_id
 _symmetry_equiv_pos_as_xyz
  1  'x, y, z'
loop_
 _atom_site_type_symbol
 _atom_site_label
 _atom_site_symmetry_multiplicity
 _atom_site_fract_x
 _atom_site_fract_y
 _atom_site_fract_z
 _atom_site_occupancy
  Li  Li0  1  0.769157  0.770476  0.000000  1
  Li  Li1  1  0.230368  0.999926  0.000000  1
  La  La2  1  0.432089  0.414696  0.500000  1
  La  La3  1  0.584087  0.015837  0.500000  1
  La  La4  1  0.983674  0.577154  0.500000  1
  Mg  Mg5  1  0.001060  0.232686  0.000000  1
  Pd  Pd6  1  0.328863  0.658532  0.000000  1
  Pd  Pd7  1  0.999760  0.002210  0.500000  1
  Ru  Ru8  1  0.670944  0.328483  0.000000  1
