# generated using pymatgen
data_Ti3Zn2Co10GeB4
_symmetry_space_group_name_H-M   'P 1'
_cell_length_a   8.47025107
_cell_length_b   8.47016093
_cell_length_c   2.94994400
_cell_angle_alpha   90.00000000
_cell_angle_beta   90.00000000
_cell_angle_gamma   90.40918560
_symmetry_Int_Tables_number   1
_chemical_formula_structural   Ti3Zn2Co10GeB4
_chemical_formula_sum   'Ti3 Zn2 Co10 Ge1 B4'
_cell_volume   211.63653474
_cell_formula_units_Z   1
loop_
 _symmetry_equiv_pos_site_id
 _symmetry_equiv_pos_as_xyz
  1  'x, y, z'
loop_
 _atom_site_type_symbol
 _atom_site_label
 _atom_site_symmetry_multiplicity
 _atom_site_fract_x
 _atom_site_fract_y
 _atom_site_fract_z
 _atom_site_occupancy
  Ti  Ti0  1  0.328164  0.178776  0.000000  1
  Ti  Ti1  1  0.675235  0.823735  0.000000  1
  Ti  Ti2  1  0.174401  0.670729  0.000000  1
  Zn  Zn3  1  0.498339  0.501667  0.000000  1
  Zn  Zn4  1  0.819397  0.325584  0.000000  1
  Co  Co5  1  0.500264  0.999379  0.500000  1
  Co  Co6  1  0.999446  0.499828  0.500000  1
  Co  Co7  1  0.074563  0.216001  0.500000  1
  Co  Co8  1  0.218544  0.930055  0.500000  1
  Co  Co9  1  0.781916  0.063926  0.500000  1
  Co  Co10  1  0.932905  0.782307  0.500000  1
  Co  Co11  1  0.426383  0.720954  0.500000  1
  Co  Co12  1  0.566846  0.278483  0.500000  1
  Co  Co13  1  0.718821  0.579217  0.500000  1
  Co  Co14  1  0.279213  0.429362  0.500000  1
  Ge  Ge15  1  0.001959  0.997906  0.000000  1
  B  B16  1  0.621915  0.124055  0.000000  1
  B  B17  1  0.124548  0.379734  0.000000  1
  B  B18  1  0.877722  0.621569  0.000000  1
  B  B19  1  0.379419  0.876731  0.000000  1
