# generated using pymatgen
data_Zr6Ga3(Ni2P)10
_symmetry_space_group_name_H-M   'P 1'
_cell_length_a   12.55078198
_cell_length_b   12.64276132
_cell_length_c   3.64390500
_cell_angle_alpha   90.00000000
_cell_angle_beta   90.00000000
_cell_angle_gamma   120.12075762
_symmetry_Int_Tables_number   1
_chemical_formula_structural   Zr6Ga3(Ni2P)10
_chemical_formula_sum   'Zr6 Ga3 Ni20 P10'
_cell_volume   500.12740313
_cell_formula_units_Z   1
loop_
 _symmetry_equiv_pos_site_id
 _symmetry_equiv_pos_as_xyz
  1  'x, y, z'
loop_
 _atom_site_type_symbol
 _atom_site_label
 _atom_site_symmetry_multiplicity
 _atom_site_fract_x
 _atom_site_fract_y
 _atom_site_fract_z
 _atom_site_occupancy
  Zr  Zr0  1  0.807604  0.281348  0.500000  1
  Zr  Zr1  1  0.716768  0.518551  0.500000  1
  Zr  Zr2  1  0.480803  0.196954  0.500000  1
  Zr  Zr3  1  0.193006  0.713798  0.000000  1
  Zr  Zr4  1  0.282742  0.477431  0.000000  1
  Zr  Zr5  1  0.522422  0.806975  0.000000  1
  Ga  Ga6  1  0.001003  0.999572  0.000000  1
  Ga  Ga7  1  0.774193  0.716871  0.000000  1
  Ga  Ga8  1  0.283521  0.056963  0.000000  1
  Ni  Ni9  1  0.419888  0.975693  0.000000  1
  Ni  Ni10  1  0.019656  0.435768  0.000000  1
  Ni  Ni11  1  0.584298  0.019948  0.500000  1
  Ni  Ni12  1  0.556022  0.578841  0.000000  1
  Ni  Ni13  1  0.981232  0.560270  0.500000  1
  Ni  Ni14  1  0.917886  0.090324  0.500000  1
  Ni  Ni15  1  0.163488  0.083738  0.500000  1
  Ni  Ni16  1  0.919806  0.837510  0.500000  1
  Ni  Ni17  1  0.091216  0.879192  0.000000  1
  Ni  Ni18  1  0.789067  0.909148  0.000000  1
  Ni  Ni19  1  0.110357  0.211602  0.000000  1
  Ni  Ni20  1  0.333802  0.666825  0.500000  1
  Ni  Ni21  1  0.667235  0.331919  0.000000  1
  Ni  Ni22  1  0.669204  0.752123  0.500000  1
  Ni  Ni23  1  0.248285  0.916385  0.500000  1
  Ni  Ni24  1  0.928099  0.665786  0.000000  1
  Ni  Ni25  1  0.327772  0.259806  0.000000  1
  Ni  Ni26  1  0.754230  0.084171  0.000000  1
  Ni  Ni27  1  0.437620  0.419241  0.500000  1
  Ni  Ni28  1  0.072707  0.325846  0.500000  1
  P  P29  1  0.233552  0.286955  0.500000  1
  P  P30  1  0.713995  0.949172  0.500000  1
  P  P31  1  0.050707  0.762515  0.500000  1
  P  P32  1  0.472650  0.613385  0.500000  1
  P  P33  1  0.387346  0.858899  0.500000  1
  P  P34  1  0.859259  0.469698  0.000000  1
  P  P35  1  0.528695  0.387503  0.000000  1
  P  P36  1  0.611787  0.139859  0.000000  1
  P  P37  1  0.946959  0.232624  0.000000  1
  P  P38  1  0.141115  0.526791  0.500000  1
