# generated using pymatgen
data_Eu6NpSbO12
_symmetry_space_group_name_H-M   'P 1'
_cell_length_a   6.88655556
_cell_length_b   6.88655472
_cell_length_c   6.88655600
_cell_angle_alpha   92.70345537
_cell_angle_beta   92.70346337
_cell_angle_gamma   92.70345931
_symmetry_Int_Tables_number   1
_chemical_formula_structural   Eu6NpSbO12
_chemical_formula_sum   'Eu6 Np1 Sb1 O12'
_cell_volume   325.46638272
_cell_formula_units_Z   1
loop_
 _symmetry_equiv_pos_site_id
 _symmetry_equiv_pos_as_xyz
  1  'x, y, z'
loop_
 _atom_site_type_symbol
 _atom_site_label
 _atom_site_symmetry_multiplicity
 _atom_site_fract_x
 _atom_site_fract_y
 _atom_site_fract_z
 _atom_site_occupancy
  Eu  Eu0  1  0.934504  0.436385  0.742720  1
  Eu  Eu1  1  0.742720  0.934504  0.436385  1
  Eu  Eu2  1  0.563615  0.257280  0.065496  1
  Eu  Eu3  1  0.436385  0.742720  0.934504  1
  Eu  Eu4  1  0.257280  0.065496  0.563615  1
  Eu  Eu5  1  0.065496  0.563615  0.257280  1
  Np  Np6  1  0.000000  0.000000  0.000000  1
  Sb  Sb7  1  0.500000  0.500000  0.500000  1
  O  O8  1  0.925094  0.298200  0.062627  1
  O  O9  1  0.937373  0.074906  0.701800  1
  O  O10  1  0.782754  0.581102  0.456724  1
  O  O11  1  0.701800  0.937373  0.074906  1
  O  O12  1  0.581102  0.456724  0.782754  1
  O  O13  1  0.543276  0.217246  0.418898  1
  O  O14  1  0.456724  0.782754  0.581102  1
  O  O15  1  0.418898  0.543276  0.217246  1
  O  O16  1  0.298200  0.062627  0.925094  1
  O  O17  1  0.217246  0.418898  0.543276  1
  O  O18  1  0.062627  0.925094  0.298200  1
  O  O19  1  0.074906  0.701800  0.937373  1
