# generated using pymatgen
data_Y7Tm13Si15Sb
_symmetry_space_group_name_H-M   'P 1'
_cell_length_a   7.60715672
_cell_length_b   7.56838916
_cell_length_c   13.99324500
_cell_angle_alpha   90.43994333
_cell_angle_beta   89.62640373
_cell_angle_gamma   90.21122493
_symmetry_Int_Tables_number   1
_chemical_formula_structural   Y7Tm13Si15Sb
_chemical_formula_sum   'Y7 Tm13 Si15 Sb1'
_cell_volume   805.59979846
_cell_formula_units_Z   1
loop_
 _symmetry_equiv_pos_site_id
 _symmetry_equiv_pos_as_xyz
  1  'x, y, z'
loop_
 _atom_site_type_symbol
 _atom_site_label
 _atom_site_symmetry_multiplicity
 _atom_site_fract_x
 _atom_site_fract_y
 _atom_site_fract_z
 _atom_site_occupancy
  Y  Y0  1  0.006818  0.349081  0.543266  1
  Y  Y1  1  0.646336  0.994676  0.960616  1
  Y  Y2  1  0.146631  0.507735  0.790020  1
  Y  Y3  1  0.842199  0.485231  0.281825  1
  Y  Y4  1  0.503057  0.140696  0.206276  1
  Y  Y5  1  0.498165  0.859016  0.712968  1
  Y  Y6  1  0.358773  0.007824  0.459156  1
  Tm  Tm7  1  0.361929  0.488736  0.375874  1
  Tm  Tm8  1  0.845347  0.016799  0.366721  1
  Tm  Tm9  1  0.993674  0.140716  0.123850  1
  Tm  Tm10  1  0.011570  0.859990  0.630419  1
  Tm  Tm11  1  0.643604  0.508813  0.877966  1
  Tm  Tm12  1  0.497577  0.354660  0.626442  1
  Tm  Tm13  1  0.506384  0.642502  0.122671  1
  Tm  Tm14  1  0.141465  0.992588  0.874798  1
  Tm  Tm15  1  0.997191  0.640339  0.040104  1
  Tm  Tm16  1  0.667728  0.684124  0.503444  1
  Tm  Tm17  1  0.820415  0.181320  0.751804  1
  Tm  Tm18  1  0.180111  0.819854  0.243141  1
  Tm  Tm19  1  0.319959  0.319938  0.999711  1
  Si  Si20  1  0.944682  0.296402  0.937989  1
  Si  Si21  1  0.710067  0.056793  0.562258  1
  Si  Si22  1  0.202945  0.443129  0.187014  1
  Si  Si23  1  0.798927  0.557592  0.688635  1
  Si  Si24  1  0.444787  0.207228  0.813825  1
  Si  Si25  1  0.549936  0.793438  0.311991  1
  Si  Si26  1  0.296508  0.942844  0.060068  1
  Si  Si27  1  0.850472  0.795960  0.815303  1
  Si  Si28  1  0.149359  0.202452  0.313808  1
  Si  Si29  1  0.797785  0.846541  0.179843  1
  Si  Si30  1  0.306043  0.648009  0.577461  1
  Si  Si31  1  0.706364  0.350974  0.066097  1
  Si  Si32  1  0.653834  0.301871  0.438465  1
  Si  Si33  1  0.349270  0.704861  0.935637  1
  Si  Si34  1  0.205696  0.153112  0.688315  1
  Sb  Sb35  1  0.044392  0.704161  0.432224  1
