# generated using pymatgen
data_Li3Ho4Si8Pd
_symmetry_space_group_name_H-M   'P 1'
_cell_length_a   3.80495200
_cell_length_b   7.48339085
_cell_length_c   10.07406218
_cell_angle_alpha   89.99528033
_cell_angle_beta   90.00000000
_cell_angle_gamma   90.00000000
_symmetry_Int_Tables_number   1
_chemical_formula_structural   Li3Ho4Si8Pd
_chemical_formula_sum   'Li3 Ho4 Si8 Pd1'
_cell_volume   286.84827133
_cell_formula_units_Z   1
loop_
 _symmetry_equiv_pos_site_id
 _symmetry_equiv_pos_as_xyz
  1  'x, y, z'
loop_
 _atom_site_type_symbol
 _atom_site_label
 _atom_site_symmetry_multiplicity
 _atom_site_fract_x
 _atom_site_fract_y
 _atom_site_fract_z
 _atom_site_occupancy
  Li  Li0  1  0.750000  0.008549  0.605425  1
  Li  Li1  1  0.250000  0.490373  0.108937  1
  Li  Li2  1  0.750000  0.507226  0.890830  1
  Ho  Ho3  1  0.250000  0.138333  0.865127  1
  Ho  Ho4  1  0.750000  0.862051  0.134896  1
  Ho  Ho5  1  0.250000  0.641630  0.632616  1
  Ho  Ho6  1  0.750000  0.365729  0.364757  1
  Si  Si7  1  0.750000  0.266426  0.070603  1
  Si  Si8  1  0.250000  0.729727  0.930306  1
  Si  Si9  1  0.750000  0.770642  0.434987  1
  Si  Si10  1  0.250000  0.227689  0.565041  1
  Si  Si11  1  0.750000  0.844592  0.819956  1
  Si  Si12  1  0.250000  0.154944  0.184294  1
  Si  Si13  1  0.750000  0.340619  0.677222  1
  Si  Si14  1  0.250000  0.659777  0.320335  1
  Pd  Pd15  1  0.250000  0.991691  0.394669  1
