# generated using pymatgen
data_Pr2LuRh9
_symmetry_space_group_name_H-M   'P 1'
_cell_length_a   5.31550300
_cell_length_b   5.31550307
_cell_length_c   17.57450500
_cell_angle_alpha   90.00000000
_cell_angle_beta   90.00000000
_cell_angle_gamma   119.99999335
_symmetry_Int_Tables_number   1
_chemical_formula_structural   Pr2LuRh9
_chemical_formula_sum   'Pr4 Lu2 Rh18'
_cell_volume   430.03371229
_cell_formula_units_Z   2
loop_
 _symmetry_equiv_pos_site_id
 _symmetry_equiv_pos_as_xyz
  1  'x, y, z'
loop_
 _atom_site_type_symbol
 _atom_site_label
 _atom_site_symmetry_multiplicity
 _atom_site_fract_x
 _atom_site_fract_y
 _atom_site_fract_z
 _atom_site_occupancy
  Pr  Pr0  1  0.333333  0.666667  0.957185  1
  Pr  Pr1  1  0.666667  0.333333  0.042815  1
  Pr  Pr2  1  0.333333  0.666667  0.746414  1
  Pr  Pr3  1  0.666667  0.333333  0.253586  1
  Lu  Lu4  1  0.666667  0.333333  0.459987  1
  Lu  Lu5  1  0.333333  0.666667  0.540013  1
  Rh  Rh6  1  0.168072  0.831928  0.377988  1
  Rh  Rh7  1  0.168072  0.336143  0.377988  1
  Rh  Rh8  1  0.663857  0.831928  0.377988  1
  Rh  Rh9  1  0.831928  0.168072  0.622012  1
  Rh  Rh10  1  0.831928  0.663857  0.622012  1
  Rh  Rh11  1  0.336143  0.168072  0.622012  1
  Rh  Rh12  1  0.833448  0.166552  0.870449  1
  Rh  Rh13  1  0.833448  0.666898  0.870449  1
  Rh  Rh14  1  0.333102  0.166552  0.870449  1
  Rh  Rh15  1  0.166552  0.833448  0.129551  1
  Rh  Rh16  1  0.166552  0.333102  0.129551  1
  Rh  Rh17  1  0.666898  0.833448  0.129551  1
  Rh  Rh18  1  0.333333  0.666667  0.252630  1
  Rh  Rh19  1  0.666667  0.333333  0.747370  1
  Rh  Rh20  1  0.000000  0.000000  0.253823  1
  Rh  Rh21  1  0.000000  0.000000  0.746177  1
  Rh  Rh22  1  0.000000  0.000000  0.500000  1
  Rh  Rh23  1  0.000000  0.000000  0.000000  1
