# generated using pymatgen
data_Yb2GaNiO5
_symmetry_space_group_name_H-M   'P 1'
_cell_length_a   5.21494700
_cell_length_b   5.62618300
_cell_length_c   14.50897300
_cell_angle_alpha   90.00000000
_cell_angle_beta   90.00000000
_cell_angle_gamma   90.00000000
_symmetry_Int_Tables_number   1
_chemical_formula_structural   Yb2GaNiO5
_chemical_formula_sum   'Yb8 Ga4 Ni4 O20'
_cell_volume   425.69683931
_cell_formula_units_Z   4
loop_
 _symmetry_equiv_pos_site_id
 _symmetry_equiv_pos_as_xyz
  1  'x, y, z'
loop_
 _atom_site_type_symbol
 _atom_site_label
 _atom_site_symmetry_multiplicity
 _atom_site_fract_x
 _atom_site_fract_y
 _atom_site_fract_z
 _atom_site_occupancy
  Yb  Yb0  1  0.984661  0.031099  0.105058  1
  Yb  Yb1  1  0.515339  0.531099  0.605058  1
  Yb  Yb2  1  0.515339  0.531099  0.894942  1
  Yb  Yb3  1  0.484661  0.468901  0.105058  1
  Yb  Yb4  1  0.484661  0.468901  0.394942  1
  Yb  Yb5  1  0.015339  0.968901  0.605058  1
  Yb  Yb6  1  0.015339  0.968901  0.894942  1
  Yb  Yb7  1  0.984661  0.031099  0.394942  1
  Ga  Ga8  1  0.451711  0.928106  0.250000  1
  Ga  Ga9  1  0.048289  0.428106  0.750000  1
  Ga  Ga10  1  0.951711  0.571894  0.250000  1
  Ga  Ga11  1  0.548289  0.071894  0.750000  1
  Ni  Ni12  1  0.500000  0.000000  0.000000  1
  Ni  Ni13  1  0.500000  0.000000  0.500000  1
  Ni  Ni14  1  0.000000  0.500000  0.500000  1
  Ni  Ni15  1  0.000000  0.500000  0.000000  1
  O  O16  1  0.411664  0.383785  0.750000  1
  O  O17  1  0.258326  0.259006  0.518602  1
  O  O18  1  0.241674  0.759006  0.018602  1
  O  O19  1  0.536400  0.076890  0.141477  1
  O  O20  1  0.741674  0.740994  0.018602  1
  O  O21  1  0.758326  0.240994  0.981398  1
  O  O22  1  0.758326  0.240994  0.518602  1
  O  O23  1  0.963600  0.576890  0.858523  1
  O  O24  1  0.911664  0.116215  0.750000  1
  O  O25  1  0.088336  0.883785  0.250000  1
  O  O26  1  0.741674  0.740994  0.481398  1
  O  O27  1  0.463600  0.923110  0.858523  1
  O  O28  1  0.536400  0.076890  0.358523  1
  O  O29  1  0.588336  0.616215  0.250000  1
  O  O30  1  0.241674  0.759006  0.481398  1
  O  O31  1  0.963600  0.576890  0.641477  1
  O  O32  1  0.036400  0.423110  0.141477  1
  O  O33  1  0.258326  0.259006  0.981398  1
  O  O34  1  0.463600  0.923110  0.641477  1
  O  O35  1  0.036400  0.423110  0.358523  1
