# generated using pymatgen
data_LiAlFeH6
_symmetry_space_group_name_H-M   'P 1'
_cell_length_a   6.33315900
_cell_length_b   6.33315900
_cell_length_c   6.33315900
_cell_angle_alpha   90.00000000
_cell_angle_beta   90.00000000
_cell_angle_gamma   90.00000000
_symmetry_Int_Tables_number   1
_chemical_formula_structural   LiAlFeH6
_chemical_formula_sum   'Li4 Al4 Fe4 H24'
_cell_volume   254.01605950
_cell_formula_units_Z   4
loop_
 _symmetry_equiv_pos_site_id
 _symmetry_equiv_pos_as_xyz
  1  'x, y, z'
loop_
 _atom_site_type_symbol
 _atom_site_label
 _atom_site_symmetry_multiplicity
 _atom_site_fract_x
 _atom_site_fract_y
 _atom_site_fract_z
 _atom_site_occupancy
  Li  Li0  1  0.000000  0.000000  0.500000  1
  Li  Li1  1  0.000000  0.500000  0.000000  1
  Li  Li2  1  0.500000  0.000000  0.000000  1
  Li  Li3  1  0.000000  0.000000  0.000000  1
  Al  Al4  1  0.500000  0.500000  0.500000  1
  Al  Al5  1  0.000000  0.500000  0.500000  1
  Al  Al6  1  0.500000  0.000000  0.500000  1
  Al  Al7  1  0.500000  0.500000  0.000000  1
  Fe  Fe8  1  0.271966  0.728034  0.728034  1
  Fe  Fe9  1  0.728034  0.271966  0.728034  1
  Fe  Fe10  1  0.728034  0.728034  0.271966  1
  Fe  Fe11  1  0.271966  0.271966  0.271966  1
  H  H12  1  0.750364  0.750364  0.512556  1
  H  H13  1  0.249636  0.249636  0.512556  1
  H  H14  1  0.026274  0.741928  0.741928  1
  H  H15  1  0.258072  0.973726  0.741928  1
  H  H16  1  0.741928  0.026274  0.741928  1
  H  H17  1  0.973726  0.258072  0.741928  1
  H  H18  1  0.750364  0.512556  0.750364  1
  H  H19  1  0.512556  0.750364  0.750364  1
  H  H20  1  0.487444  0.249636  0.750364  1
  H  H21  1  0.249636  0.487444  0.750364  1
  H  H22  1  0.258072  0.741928  0.973726  1
  H  H23  1  0.741928  0.258072  0.973726  1
  H  H24  1  0.741928  0.741928  0.026274  1
  H  H25  1  0.258072  0.258072  0.026274  1
  H  H26  1  0.249636  0.512556  0.249636  1
  H  H27  1  0.487444  0.750364  0.249636  1
  H  H28  1  0.512556  0.249636  0.249636  1
  H  H29  1  0.750364  0.487444  0.249636  1
  H  H30  1  0.973726  0.741928  0.258072  1
  H  H31  1  0.741928  0.973726  0.258072  1
  H  H32  1  0.258072  0.026274  0.258072  1
  H  H33  1  0.026274  0.258072  0.258072  1
  H  H34  1  0.249636  0.750364  0.487444  1
  H  H35  1  0.750364  0.249636  0.487444  1
