# generated using pymatgen
data_La4ZnCuSi6
_symmetry_space_group_name_H-M   'P 1'
_cell_length_a   8.40990396
_cell_length_b   8.23924635
_cell_length_c   6.03517122
_cell_angle_alpha   70.26469476
_cell_angle_beta   67.24425367
_cell_angle_gamma   42.49105776
_symmetry_Int_Tables_number   1
_chemical_formula_structural   La4ZnCuSi6
_chemical_formula_sum   'La4 Zn1 Cu1 Si6'
_cell_volume   259.56104270
_cell_formula_units_Z   1
loop_
 _symmetry_equiv_pos_site_id
 _symmetry_equiv_pos_as_xyz
  1  'x, y, z'
loop_
 _atom_site_type_symbol
 _atom_site_label
 _atom_site_symmetry_multiplicity
 _atom_site_fract_x
 _atom_site_fract_y
 _atom_site_fract_z
 _atom_site_occupancy
  La  La0  1  0.750665  0.750665  0.749335  1
  La  La1  1  0.756021  0.244080  0.755920  1
  La  La2  1  0.250665  0.250665  0.249335  1
  La  La3  1  0.244080  0.756021  0.243979  1
  Zn  Zn4  1  0.666215  0.666215  0.333785  1
  Cu  Cu5  1  0.332717  0.332717  0.667283  1
  Si  Si6  1  0.833459  0.330003  0.166541  1
  Si  Si7  1  0.658730  0.172310  0.341270  1
  Si  Si8  1  0.172310  0.658730  0.827690  1
  Si  Si9  1  0.330003  0.833459  0.669997  1
  Si  Si10  1  0.170371  0.170371  0.829629  1
  Si  Si11  1  0.834764  0.834764  0.165236  1
