# generated using pymatgen
data_Sr5PrCrCo4O15
_symmetry_space_group_name_H-M   'P 1'
_cell_length_a   6.86909037
_cell_length_b   6.91519297
_cell_length_c   6.91519278
_cell_angle_alpha   87.25215589
_cell_angle_beta   87.47817575
_cell_angle_gamma   87.47817090
_symmetry_Int_Tables_number   1
_chemical_formula_structural   Sr5PrCrCo4O15
_chemical_formula_sum   'Sr5 Pr1 Cr1 Co4 O15'
_cell_volume   327.49476930
_cell_formula_units_Z   1
loop_
 _symmetry_equiv_pos_site_id
 _symmetry_equiv_pos_as_xyz
  1  'x, y, z'
loop_
 _atom_site_type_symbol
 _atom_site_label
 _atom_site_symmetry_multiplicity
 _atom_site_fract_x
 _atom_site_fract_y
 _atom_site_fract_z
 _atom_site_occupancy
  Sr  Sr0  1  0.137626  0.500297  0.860184  1
  Sr  Sr1  1  0.862374  0.139816  0.499703  1
  Sr  Sr2  1  0.000000  0.666292  0.333708  1
  Sr  Sr3  1  0.324269  0.998400  0.672154  1
  Sr  Sr4  1  0.675731  0.327846  0.001600  1
  Pr  Pr5  1  0.500000  0.858615  0.141385  1
  Cr  Cr6  1  0.500000  0.496733  0.503267  1
  Co  Co7  1  0.704562  0.711805  0.707731  1
  Co  Co8  1  0.295438  0.292269  0.288195  1
  Co  Co9  1  0.905975  0.905504  0.908061  1
  Co  Co10  1  0.094025  0.091939  0.094496  1
  O  O11  1  0.379640  0.554801  0.244089  1
  O  O12  1  0.249979  0.379940  0.544624  1
  O  O13  1  0.554370  0.249994  0.369083  1
  O  O14  1  0.620360  0.755911  0.445199  1
  O  O15  1  0.445630  0.630917  0.750006  1
  O  O16  1  0.750021  0.455376  0.620060  1
  O  O17  1  0.209102  0.025581  0.338153  1
  O  O18  1  0.345106  0.191133  0.028251  1
  O  O19  1  0.029327  0.338608  0.198024  1
  O  O20  1  0.790898  0.661847  0.974419  1
  O  O21  1  0.970673  0.801976  0.661392  1
  O  O22  1  0.160656  0.841513  0.003943  1
  O  O23  1  0.839344  0.996057  0.158487  1
  O  O24  1  0.000000  0.155081  0.844919  1
  O  O25  1  0.654894  0.971749  0.808867  1
