# generated using pymatgen
data_La8Mo3SeO24
_symmetry_space_group_name_H-M   'P 1'
_cell_length_a   5.75496804
_cell_length_b   5.75496830
_cell_length_c   16.37133600
_cell_angle_alpha   100.12309850
_cell_angle_beta   100.12309897
_cell_angle_gamma   90.00000147
_symmetry_Int_Tables_number   1
_chemical_formula_structural   La8Mo3SeO24
_chemical_formula_sum   'La8 Mo3 Se1 O24'
_cell_volume   525.19550283
_cell_formula_units_Z   1
loop_
 _symmetry_equiv_pos_site_id
 _symmetry_equiv_pos_as_xyz
  1  'x, y, z'
loop_
 _atom_site_type_symbol
 _atom_site_label
 _atom_site_symmetry_multiplicity
 _atom_site_fract_x
 _atom_site_fract_y
 _atom_site_fract_z
 _atom_site_occupancy
  La  La0  1  0.039537  0.289537  0.079073  1
  La  La1  1  0.539605  0.789605  0.079209  1
  La  La2  1  0.210395  0.460395  0.420791  1
  La  La3  1  0.710463  0.960464  0.420927  1
  La  La4  1  0.287894  0.037893  0.575787  1
  La  La5  1  0.788012  0.538012  0.576022  1
  La  La6  1  0.461989  0.211988  0.923978  1
  La  La7  1  0.962107  0.712107  0.924213  1
  Mo  Mo8  1  0.125000  0.875000  0.250000  1
  Mo  Mo9  1  0.875000  0.125000  0.750000  1
  Mo  Mo10  1  0.375000  0.625000  0.750000  1
  Se  Se11  1  0.625000  0.375000  0.250000  1
  O  O12  1  0.750079  0.006766  0.000452  1
  O  O13  1  0.250373  0.493688  0.000452  1
  O  O14  1  0.751792  0.507530  0.002905  1
  O  O15  1  0.251113  0.995376  0.002905  1
  O  O16  1  0.918050  0.004162  0.176084  1
  O  O17  1  0.429536  0.182686  0.182963  1
  O  O18  1  0.753427  0.500277  0.182963  1
  O  O19  1  0.258033  0.671923  0.176084  1
  O  O20  1  0.328077  0.081949  0.323916  1
  O  O21  1  0.817314  0.246573  0.317037  1
  O  O22  1  0.499723  0.570464  0.317037  1
  O  O23  1  0.995839  0.741966  0.323916  1
  O  O24  1  0.004624  0.248208  0.497095  1
  O  O25  1  0.506313  0.249921  0.499548  1
  O  O26  1  0.492470  0.748887  0.497095  1
  O  O27  1  0.993235  0.749627  0.499548  1
  O  O28  1  0.007904  0.261732  0.677317  1
  O  O29  1  0.508170  0.415282  0.677600  1
  O  O30  1  0.169430  0.762318  0.677600  1
  O  O31  1  0.669412  0.915584  0.677317  1
  O  O32  1  0.738268  0.330588  0.822683  1
  O  O33  1  0.237682  0.491830  0.822400  1
  O  O34  1  0.584718  0.830570  0.822400  1
  O  O35  1  0.084415  0.992096  0.822683  1
