# generated using pymatgen
data_Ho10Tl7In(IrPt)2
_symmetry_space_group_name_H-M   'P 1'
_cell_length_a   3.62012700
_cell_length_b   8.20865495
_cell_length_c   18.35682168
_cell_angle_alpha   89.86187775
_cell_angle_beta   90.00000000
_cell_angle_gamma   90.00000000
_symmetry_Int_Tables_number   1
_chemical_formula_structural   Ho10Tl7In(IrPt)2
_chemical_formula_sum   'Ho10 Tl7 In1 Ir2 Pt2'
_cell_volume   545.49658317
_cell_formula_units_Z   1
loop_
 _symmetry_equiv_pos_site_id
 _symmetry_equiv_pos_as_xyz
  1  'x, y, z'
loop_
 _atom_site_type_symbol
 _atom_site_label
 _atom_site_symmetry_multiplicity
 _atom_site_fract_x
 _atom_site_fract_y
 _atom_site_fract_z
 _atom_site_occupancy
  Ho  Ho0  1  0.000000  0.113213  0.410832  1
  Ho  Ho1  1  0.000000  0.886939  0.588719  1
  Ho  Ho2  1  0.000000  0.385962  0.910976  1
  Ho  Ho3  1  0.000000  0.613737  0.089021  1
  Ho  Ho4  1  0.000000  0.234955  0.222963  1
  Ho  Ho5  1  0.000000  0.765039  0.777460  1
  Ho  Ho6  1  0.000000  0.247100  0.720141  1
  Ho  Ho7  1  0.000000  0.751191  0.279869  1
  Ho  Ho8  1  0.000000  0.000101  0.000014  1
  Ho  Ho9  1  0.000000  0.502146  0.499794  1
  Tl  Tl10  1  0.500000  0.423613  0.353274  1
  Tl  Tl11  1  0.500000  0.579209  0.647133  1
  Tl  Tl12  1  0.500000  0.076538  0.852737  1
  Tl  Tl13  1  0.500000  0.923743  0.147531  1
  Tl  Tl14  1  0.500000  0.292229  0.064383  1
  Tl  Tl15  1  0.500000  0.707636  0.935707  1
  Tl  Tl16  1  0.500000  0.206692  0.564770  1
  In  In17  1  0.500000  0.795157  0.433300  1
  Ir  Ir18  1  0.500000  0.017514  0.305212  1
  Ir  Ir19  1  0.500000  0.978251  0.696309  1
  Pt  Pt20  1  0.500000  0.476689  0.802270  1
  Pt  Pt21  1  0.500000  0.522346  0.197587  1
