# generated using pymatgen
data_Y2Sc2B12MoIr
_symmetry_space_group_name_H-M   'P 1'
_cell_length_a   3.57140200
_cell_length_b   9.03753335
_cell_length_c   11.45987050
_cell_angle_alpha   90.15545048
_cell_angle_beta   90.00000000
_cell_angle_gamma   90.00000000
_symmetry_Int_Tables_number   1
_chemical_formula_structural   Y2Sc2B12MoIr
_chemical_formula_sum   'Y4 Sc4 B24 Mo2 Ir2'
_cell_volume   369.88503608
_cell_formula_units_Z   2
loop_
 _symmetry_equiv_pos_site_id
 _symmetry_equiv_pos_as_xyz
  1  'x, y, z'
loop_
 _atom_site_type_symbol
 _atom_site_label
 _atom_site_symmetry_multiplicity
 _atom_site_fract_x
 _atom_site_fract_y
 _atom_site_fract_z
 _atom_site_occupancy
  Y  Y0  1  0.500000  0.317630  0.412580  1
  Y  Y1  1  0.500000  0.682370  0.587420  1
  Y  Y2  1  0.500000  0.177567  0.915776  1
  Y  Y3  1  0.500000  0.822433  0.084224  1
  Sc  Sc4  1  0.500000  0.443233  0.125425  1
  Sc  Sc5  1  0.500000  0.556767  0.874575  1
  Sc  Sc6  1  0.500000  0.052056  0.626661  1
  Sc  Sc7  1  0.500000  0.947944  0.373339  1
  B  B8  1  0.000000  0.099508  0.474332  1
  B  B9  1  0.000000  0.900492  0.525668  1
  B  B10  1  0.000000  0.401718  0.972523  1
  B  B11  1  0.000000  0.598282  0.027477  1
  B  B12  1  0.000000  0.129679  0.319215  1
  B  B13  1  0.000000  0.870321  0.680785  1
  B  B14  1  0.000000  0.370880  0.817647  1
  B  B15  1  0.000000  0.629120  0.182353  1
  B  B16  1  0.000000  0.053194  0.066424  1
  B  B17  1  0.000000  0.946806  0.933576  1
  B  B18  1  0.000000  0.444782  0.566832  1
  B  B19  1  0.000000  0.555218  0.433168  1
  B  B20  1  0.000000  0.482407  0.285922  1
  B  B21  1  0.000000  0.517593  0.714078  1
  B  B22  1  0.000000  0.020855  0.784185  1
  B  B23  1  0.000000  0.979145  0.215815  1
  B  B24  1  0.000000  0.254999  0.079955  1
  B  B25  1  0.000000  0.745001  0.920045  1
  B  B26  1  0.000000  0.245482  0.580788  1
  B  B27  1  0.000000  0.754518  0.419212  1
  B  B28  1  0.000000  0.298222  0.235525  1
  B  B29  1  0.000000  0.701778  0.764475  1
  B  B30  1  0.000000  0.206297  0.734618  1
  B  B31  1  0.000000  0.793703  0.265382  1
  Mo  Mo32  1  0.500000  0.141489  0.182865  1
  Mo  Mo33  1  0.500000  0.858511  0.817135  1
  Ir  Ir34  1  0.500000  0.359706  0.680653  1
  Ir  Ir35  1  0.500000  0.640294  0.319347  1
