# generated using pymatgen
data_Th3AgGe2Rh3
_symmetry_space_group_name_H-M   'P 1'
_cell_length_a   7.25433961
_cell_length_b   7.46664257
_cell_length_c   4.06485000
_cell_angle_alpha   90.00000000
_cell_angle_beta   90.00000000
_cell_angle_gamma   120.97159277
_symmetry_Int_Tables_number   1
_chemical_formula_structural   Th3AgGe2Rh3
_chemical_formula_sum   'Th3 Ag1 Ge2 Rh3'
_cell_volume   188.78290784
_cell_formula_units_Z   1
loop_
 _symmetry_equiv_pos_site_id
 _symmetry_equiv_pos_as_xyz
  1  'x, y, z'
loop_
 _atom_site_type_symbol
 _atom_site_label
 _atom_site_symmetry_multiplicity
 _atom_site_fract_x
 _atom_site_fract_y
 _atom_site_fract_z
 _atom_site_occupancy
  Th  Th0  1  0.000003  0.410430  0.500000  1
  Th  Th1  1  0.592614  0.591201  0.500000  1
  Th  Th2  1  0.407413  0.998613  0.500000  1
  Ag  Ag3  1  0.999941  0.753911  0.000000  1
  Ge  Ge4  1  0.247678  0.244163  0.000000  1
  Ge  Ge5  1  0.752352  0.996502  0.000000  1
  Rh  Rh6  1  0.347735  0.658349  0.000000  1
  Rh  Rh7  1  0.652284  0.310647  0.000000  1
  Rh  Rh8  1  0.999979  0.036184  0.500000  1
