# generated using pymatgen
data_Sr4TbY(MoO6)2
_symmetry_space_group_name_H-M   'P 1'
_cell_length_a   5.84295123
_cell_length_b   8.33928240
_cell_length_c   5.92119218
_cell_angle_alpha   90.01022596
_cell_angle_beta   89.98530123
_cell_angle_gamma   90.66402080
_symmetry_Int_Tables_number   1
_chemical_formula_structural   Sr4TbY(MoO6)2
_chemical_formula_sum   'Sr4 Tb1 Y1 Mo2 O12'
_cell_volume   288.49674115
_cell_formula_units_Z   1
loop_
 _symmetry_equiv_pos_site_id
 _symmetry_equiv_pos_as_xyz
  1  'x, y, z'
loop_
 _atom_site_type_symbol
 _atom_site_label
 _atom_site_symmetry_multiplicity
 _atom_site_fract_x
 _atom_site_fract_y
 _atom_site_fract_z
 _atom_site_occupancy
  Sr  Sr0  1  0.492708  0.252185  0.538895  1
  Sr  Sr1  1  0.007349  0.248636  0.039130  1
  Sr  Sr2  1  0.992661  0.751365  0.960866  1
  Sr  Sr3  1  0.507282  0.747813  0.461109  1
  Tb  Tb4  1  0.499991  0.000008  0.999997  1
  Y  Y5  1  0.000011  0.499994  0.500005  1
  Mo  Mo6  1  0.999977  0.999991  0.499997  1
  Mo  Mo7  1  0.500019  0.500008  0.000005  1
  O  O8  1  0.769452  0.537891  0.192254  1
  O  O9  1  0.230570  0.462123  0.807756  1
  O  O10  1  0.269682  0.038027  0.308699  1
  O  O11  1  0.730304  0.961960  0.691304  1
  O  O12  1  0.582138  0.264269  0.977808  1
  O  O13  1  0.918178  0.236356  0.477556  1
  O  O14  1  0.081814  0.763637  0.522438  1
  O  O15  1  0.417870  0.735740  0.022192  1
  O  O16  1  0.302812  0.453786  0.278357  1
  O  O17  1  0.803901  0.953463  0.221686  1
  O  O18  1  0.196087  0.046519  0.778306  1
  O  O19  1  0.697197  0.546231  0.721639  1
