# generated using pymatgen
data_YEr2Ir7Rh2
_symmetry_space_group_name_H-M   'P 1'
_cell_length_a   5.29983100
_cell_length_b   5.29983137
_cell_length_c   17.44386900
_cell_angle_alpha   90.00000000
_cell_angle_beta   90.00000000
_cell_angle_gamma   119.99999144
_symmetry_Int_Tables_number   1
_chemical_formula_structural   YEr2Ir7Rh2
_chemical_formula_sum   'Y2 Er4 Ir14 Rh4'
_cell_volume   424.32396292
_cell_formula_units_Z   2
loop_
 _symmetry_equiv_pos_site_id
 _symmetry_equiv_pos_as_xyz
  1  'x, y, z'
loop_
 _atom_site_type_symbol
 _atom_site_label
 _atom_site_symmetry_multiplicity
 _atom_site_fract_x
 _atom_site_fract_y
 _atom_site_fract_z
 _atom_site_occupancy
  Y  Y0  1  0.333333  0.666667  0.750000  1
  Y  Y1  1  0.666667  0.333333  0.250000  1
  Er  Er2  1  0.333333  0.666667  0.958587  1
  Er  Er3  1  0.666667  0.333333  0.041413  1
  Er  Er4  1  0.666667  0.333333  0.458587  1
  Er  Er5  1  0.333333  0.666667  0.541413  1
  Ir  Ir6  1  0.167720  0.832280  0.374758  1
  Ir  Ir7  1  0.167720  0.335438  0.374758  1
  Ir  Ir8  1  0.664562  0.832280  0.374758  1
  Ir  Ir9  1  0.832280  0.167720  0.625242  1
  Ir  Ir10  1  0.832280  0.664562  0.625242  1
  Ir  Ir11  1  0.335438  0.167720  0.625242  1
  Ir  Ir12  1  0.832280  0.167720  0.874758  1
  Ir  Ir13  1  0.832280  0.664562  0.874758  1
  Ir  Ir14  1  0.335438  0.167720  0.874758  1
  Ir  Ir15  1  0.167720  0.832280  0.125242  1
  Ir  Ir16  1  0.167720  0.335438  0.125242  1
  Ir  Ir17  1  0.664562  0.832280  0.125242  1
  Ir  Ir18  1  0.000000  0.000000  0.500000  1
  Ir  Ir19  1  0.000000  0.000000  0.000000  1
  Rh  Rh20  1  0.333333  0.666667  0.250000  1
  Rh  Rh21  1  0.666667  0.333333  0.750000  1
  Rh  Rh22  1  0.000000  0.000000  0.250000  1
  Rh  Rh23  1  0.000000  0.000000  0.750000  1
