# generated using pymatgen
data_La3PrNd2(SiPd5)2
_symmetry_space_group_name_H-M   'P 1'
_cell_length_a   8.50341751
_cell_length_b   8.48540503
_cell_length_c   8.48540536
_cell_angle_alpha   127.46575615
_cell_angle_beta   126.21775022
_cell_angle_gamma   78.46464508
_symmetry_Int_Tables_number   1
_chemical_formula_structural   La3PrNd2(SiPd5)2
_chemical_formula_sum   'La3 Pr1 Nd2 Si2 Pd10'
_cell_volume   379.71795570
_cell_formula_units_Z   1
loop_
 _symmetry_equiv_pos_site_id
 _symmetry_equiv_pos_as_xyz
  1  'x, y, z'
loop_
 _atom_site_type_symbol
 _atom_site_label
 _atom_site_symmetry_multiplicity
 _atom_site_fract_x
 _atom_site_fract_y
 _atom_site_fract_z
 _atom_site_occupancy
  La  La0  1  0.384562  0.249602  0.134960  1
  La  La1  1  0.778307  0.549246  0.229060  1
  La  La2  1  0.614957  0.749966  0.864992  1
  Pr  Pr3  1  0.820929  0.048974  0.771954  1
  Nd  Nd4  1  0.220572  0.450491  0.770083  1
  Nd  Nd5  1  0.180093  0.950874  0.229220  1
  Si  Si6  1  0.211613  0.750592  0.461020  1
  Si  Si7  1  0.789873  0.249989  0.539884  1
  Pd  Pd8  1  0.830599  0.591717  0.638125  1
  Pd  Pd9  1  0.545142  0.307251  0.636496  1
  Pd  Pd10  1  0.452877  0.091065  0.760418  1
  Pd  Pd11  1  0.830599  0.192474  0.238882  1
  Pd  Pd12  1  0.170247  0.408433  0.362699  1
  Pd  Pd13  1  0.452877  0.692458  0.361811  1
  Pd  Pd14  1  0.545142  0.908646  0.237892  1
  Pd  Pd15  1  0.170247  0.807549  0.761815  1
  Pd  Pd16  1  0.000682  0.000624  0.500632  1
  Pd  Pd17  1  0.000682  0.500051  0.000058  1
