# generated using pymatgen
data_Er12GaSi4Hg
_symmetry_space_group_name_H-M   'P 1'
_cell_length_a   8.40403659
_cell_length_b   8.40403560
_cell_length_c   8.40403700
_cell_angle_alpha   111.03895030
_cell_angle_beta   111.52831834
_cell_angle_gamma   105.90459865
_symmetry_Int_Tables_number   1
_chemical_formula_structural   Er12GaSi4Hg
_chemical_formula_sum   'Er12 Ga1 Si4 Hg1'
_cell_volume   455.59565253
_cell_formula_units_Z   1
loop_
 _symmetry_equiv_pos_site_id
 _symmetry_equiv_pos_as_xyz
  1  'x, y, z'
loop_
 _atom_site_type_symbol
 _atom_site_label
 _atom_site_symmetry_multiplicity
 _atom_site_fract_x
 _atom_site_fract_y
 _atom_site_fract_z
 _atom_site_occupancy
  Er  Er0  1  0.951917  0.256391  0.695617  1
  Er  Er1  1  0.048083  0.743609  0.304383  1
  Er  Er2  1  0.677278  0.878663  0.201384  1
  Er  Er3  1  0.322693  0.524047  0.201355  1
  Er  Er4  1  0.322722  0.121337  0.798616  1
  Er  Er5  1  0.677307  0.475953  0.798645  1
  Er  Er6  1  0.560775  0.256391  0.304474  1
  Er  Er7  1  0.439225  0.743609  0.695526  1
  Er  Er8  1  0.178319  0.768384  0.946742  1
  Er  Er9  1  0.821641  0.768384  0.590066  1
  Er  Er10  1  0.178359  0.231616  0.409934  1
  Er  Er11  1  0.821681  0.231616  0.053258  1
  Ga  Ga12  1  0.000000  0.500000  0.500000  1
  Si  Si13  1  0.117735  0.117737  0.000003  1
  Si  Si14  1  0.882265  0.882263  0.999997  1
  Si  Si15  1  0.637876  0.500000  0.137876  1
  Si  Si16  1  0.362124  0.500000  0.862124  1
  Hg  Hg17  1  0.500000  0.000000  0.500000  1
