# generated using pymatgen
data_Hf2TcNi5P4
_symmetry_space_group_name_H-M   'P 1'
_cell_length_a   3.64624200
_cell_length_b   10.42684643
_cell_length_c   12.16858503
_cell_angle_alpha   89.66869531
_cell_angle_beta   90.00037704
_cell_angle_gamma   90.00010264
_symmetry_Int_Tables_number   1
_chemical_formula_structural   Hf2TcNi5P4
_chemical_formula_sum   'Hf6 Tc3 Ni15 P12'
_cell_volume   462.62733184
_cell_formula_units_Z   3
loop_
 _symmetry_equiv_pos_site_id
 _symmetry_equiv_pos_as_xyz
  1  'x, y, z'
loop_
 _atom_site_type_symbol
 _atom_site_label
 _atom_site_symmetry_multiplicity
 _atom_site_fract_x
 _atom_site_fract_y
 _atom_site_fract_z
 _atom_site_occupancy
  Hf  Hf0  1  0.751889  0.993144  0.469148  1
  Hf  Hf1  1  0.251894  0.502114  0.529403  1
  Hf  Hf2  1  0.251866  0.679486  0.792105  1
  Hf  Hf3  1  0.251895  0.321555  0.795814  1
  Hf  Hf4  1  0.751824  0.818785  0.207354  1
  Hf  Hf5  1  0.751840  0.180184  0.204034  1
  Tc  Tc6  1  0.251927  0.198716  0.565138  1
  Tc  Tc7  1  0.251845  0.999105  0.839829  1
  Tc  Tc8  1  0.751715  0.499905  0.162364  1
  Ni  Ni9  1  0.751828  0.999932  0.016341  1
  Ni  Ni10  1  0.251734  0.501218  0.983460  1
  Ni  Ni11  1  0.251783  0.802136  0.567971  1
  Ni  Ni12  1  0.751900  0.305863  0.429648  1
  Ni  Ni13  1  0.751789  0.697945  0.432277  1
  Ni  Ni14  1  0.251733  0.625954  0.295186  1
  Ni  Ni15  1  0.251709  0.372288  0.294635  1
  Ni  Ni16  1  0.751748  0.872746  0.706053  1
  Ni  Ni17  1  0.751889  0.125347  0.710176  1
  Ni  Ni18  1  0.251780  0.170533  0.012795  1
  Ni  Ni19  1  0.251832  0.829616  0.013686  1
  Ni  Ni20  1  0.751750  0.331779  0.988426  1
  Ni  Ni21  1  0.751779  0.670168  0.987123  1
  Ni  Ni22  1  0.251839  0.998261  0.296721  1
  Ni  Ni23  1  0.751867  0.500469  0.701144  1
  P  P24  1  0.251909  0.179793  0.376719  1
  P  P25  1  0.251812  0.817592  0.383103  1
  P  P26  1  0.751947  0.321470  0.618946  1
  P  P27  1  0.751827  0.682701  0.617298  1
  P  P28  1  0.251844  0.998995  0.122817  1
  P  P29  1  0.751784  0.501756  0.876073  1
  P  P30  1  0.251768  0.653637  0.112813  1
  P  P31  1  0.251774  0.346443  0.112011  1
  P  P32  1  0.751840  0.845895  0.887582  1
  P  P33  1  0.751841  0.155604  0.889605  1
  P  P34  1  0.251847  0.995958  0.645870  1
  P  P35  1  0.751759  0.502908  0.356333  1
