# generated using pymatgen
data_Er16Sc4Ir7Ru5
_symmetry_space_group_name_H-M   'P 1'
_cell_length_a   10.64131158
_cell_length_b   10.64131158
_cell_length_c   6.28499608
_cell_angle_alpha   89.98708655
_cell_angle_beta   89.98708655
_cell_angle_gamma   90.03565396
_symmetry_Int_Tables_number   1
_chemical_formula_structural   Er16Sc4Ir7Ru5
_chemical_formula_sum   'Er16 Sc4 Ir7 Ru5'
_cell_volume   711.69714630
_cell_formula_units_Z   1
loop_
 _symmetry_equiv_pos_site_id
 _symmetry_equiv_pos_as_xyz
  1  'x, y, z'
loop_
 _atom_site_type_symbol
 _atom_site_label
 _atom_site_symmetry_multiplicity
 _atom_site_fract_x
 _atom_site_fract_y
 _atom_site_fract_z
 _atom_site_occupancy
  Er  Er0  1  0.290343  0.085201  0.376313  1
  Er  Er1  1  0.289943  0.914785  0.876470  1
  Er  Er2  1  0.710484  0.085264  0.876626  1
  Er  Er3  1  0.710181  0.914930  0.375363  1
  Er  Er4  1  0.585105  0.790339  0.876286  1
  Er  Er5  1  0.585707  0.209849  0.376352  1
  Er  Er6  1  0.414751  0.790485  0.376381  1
  Er  Er7  1  0.414585  0.209566  0.875791  1
  Er  Er8  1  0.209661  0.414895  0.623714  1
  Er  Er9  1  0.209515  0.585249  0.123619  1
  Er  Er10  1  0.790151  0.414293  0.123648  1
  Er  Er11  1  0.790434  0.585415  0.624209  1
  Er  Er12  1  0.914799  0.709657  0.123687  1
  Er  Er13  1  0.914736  0.289516  0.623374  1
  Er  Er14  1  0.085215  0.710057  0.623530  1
  Er  Er15  1  0.085070  0.289819  0.124637  1
  Sc  Sc16  1  0.999369  0.000960  0.498377  1
  Sc  Sc17  1  0.999040  0.000631  0.001623  1
  Sc  Sc18  1  0.500009  0.500005  0.000041  1
  Sc  Sc19  1  0.499995  0.499991  0.499959  1
  Ir  Ir20  1  0.851953  0.851697  0.749848  1
  Ir  Ir21  1  0.148303  0.148047  0.750152  1
  Ir  Ir22  1  0.148276  0.851724  0.250000  1
  Ir  Ir23  1  0.647115  0.352885  0.750000  1
  Ir  Ir24  1  0.647797  0.647630  0.249837  1
  Ir  Ir25  1  0.352370  0.352203  0.250163  1
  Ir  Ir26  1  0.352448  0.647552  0.750000  1
  Ru  Ru27  1  0.852830  0.147170  0.250000  1
  Ru  Ru28  1  0.500194  0.000105  0.123756  1
  Ru  Ru29  1  0.499803  0.000077  0.623816  1
  Ru  Ru30  1  0.999923  0.500197  0.876184  1
  Ru  Ru31  1  0.999895  0.499806  0.376244  1
