# generated using pymatgen
data_Ho2Er3Tm3(ReB6)4
_symmetry_space_group_name_H-M   'P 1'
_cell_length_a   3.65310300
_cell_length_b   9.12118701
_cell_length_c   11.49566900
_cell_angle_alpha   90.00252043
_cell_angle_beta   90.00000000
_cell_angle_gamma   90.00000000
_symmetry_Int_Tables_number   1
_chemical_formula_structural   Ho2Er3Tm3(ReB6)4
_chemical_formula_sum   'Ho2 Er3 Tm3 Re4 B24'
_cell_volume   383.04299766
_cell_formula_units_Z   1
loop_
 _symmetry_equiv_pos_site_id
 _symmetry_equiv_pos_as_xyz
  1  'x, y, z'
loop_
 _atom_site_type_symbol
 _atom_site_label
 _atom_site_symmetry_multiplicity
 _atom_site_fract_x
 _atom_site_fract_y
 _atom_site_fract_z
 _atom_site_occupancy
  Ho  Ho0  1  0.000000  0.323380  0.413879  1
  Ho  Ho1  1  0.000000  0.676552  0.586214  1
  Er  Er2  1  0.000000  0.823432  0.086027  1
  Er  Er3  1  0.000000  0.176601  0.913848  1
  Er  Er4  1  0.000000  0.943408  0.370301  1
  Tm  Tm5  1  0.000000  0.056722  0.630046  1
  Tm  Tm6  1  0.000000  0.443379  0.129594  1
  Tm  Tm7  1  0.000000  0.556643  0.870300  1
  Re  Re8  1  0.000000  0.638765  0.320375  1
  Re  Re9  1  0.000000  0.360911  0.679651  1
  Re  Re10  1  0.000000  0.139141  0.179062  1
  Re  Re11  1  0.000000  0.861064  0.820750  1
  B  B12  1  0.500000  0.553240  0.433021  1
  B  B13  1  0.500000  0.446527  0.567049  1
  B  B14  1  0.500000  0.053378  0.066714  1
  B  B15  1  0.500000  0.946670  0.933132  1
  B  B16  1  0.500000  0.749718  0.418877  1
  B  B17  1  0.500000  0.249886  0.581221  1
  B  B18  1  0.500000  0.250211  0.080888  1
  B  B19  1  0.500000  0.749875  0.919015  1
  B  B20  1  0.500000  0.792620  0.265165  1
  B  B21  1  0.500000  0.207085  0.734748  1
  B  B22  1  0.500000  0.293019  0.234469  1
  B  B23  1  0.500000  0.707130  0.765469  1
  B  B24  1  0.500000  0.630678  0.184901  1
  B  B25  1  0.500000  0.369238  0.815033  1
  B  B26  1  0.500000  0.131023  0.314696  1
  B  B27  1  0.500000  0.869298  0.685221  1
  B  B28  1  0.500000  0.981981  0.211899  1
  B  B29  1  0.500000  0.018176  0.787888  1
  B  B30  1  0.500000  0.481835  0.287663  1
  B  B31  1  0.500000  0.518075  0.712297  1
  B  B32  1  0.500000  0.599350  0.027701  1
  B  B33  1  0.500000  0.400663  0.972220  1
  B  B34  1  0.500000  0.099697  0.472551  1
  B  B35  1  0.500000  0.900631  0.528114  1
