# generated using pymatgen
data_SrTb2Y4FeI12
_symmetry_space_group_name_H-M   'P 1'
_cell_length_a   9.77644679
_cell_length_b   9.83268180
_cell_length_c   9.78105793
_cell_angle_alpha   106.43188940
_cell_angle_beta   106.09614534
_cell_angle_gamma   106.19844606
_symmetry_Int_Tables_number   1
_chemical_formula_structural   SrTb2Y4FeI12
_chemical_formula_sum   'Sr1 Tb2 Y4 Fe1 I12'
_cell_volume   798.67065973
_cell_formula_units_Z   1
loop_
 _symmetry_equiv_pos_site_id
 _symmetry_equiv_pos_as_xyz
  1  'x, y, z'
loop_
 _atom_site_type_symbol
 _atom_site_label
 _atom_site_symmetry_multiplicity
 _atom_site_fract_x
 _atom_site_fract_y
 _atom_site_fract_z
 _atom_site_occupancy
  Sr  Sr0  1  0.500032  0.499964  0.500080  1
  Tb  Tb1  1  0.718200  0.980611  0.910817  1
  Tb  Tb2  1  0.980563  0.911173  0.716432  1
  Y  Y3  1  0.094405  0.298417  0.019403  1
  Y  Y4  1  0.281881  0.019633  0.089194  1
  Y  Y5  1  0.905806  0.701902  0.980678  1
  Y  Y6  1  0.019371  0.088643  0.283565  1
  Fe  Fe7  1  0.999271  0.999902  0.998948  1
  I  I8  1  0.074037  0.223146  0.678714  1
  I  I9  1  0.366853  0.134984  0.445834  1
  I  I10  1  0.632643  0.864543  0.553363  1
  I  I11  1  0.225598  0.680513  0.074992  1
  I  I12  1  0.774894  0.320029  0.925363  1
  I  I13  1  0.681318  0.074511  0.224315  1
  I  I14  1  0.553138  0.634569  0.866225  1
  I  I15  1  0.866749  0.554626  0.633780  1
  I  I16  1  0.926203  0.777424  0.320983  1
  I  I17  1  0.319043  0.925798  0.776980  1
  I  I18  1  0.447054  0.365109  0.133952  1
  I  I19  1  0.132942  0.444503  0.366384  1
