# generated using pymatgen
data_Yb8Hg4PtAu7
_symmetry_space_group_name_H-M   'P 1'
_cell_length_a   8.01828748
_cell_length_b   8.01828814
_cell_length_c   7.43492500
_cell_angle_alpha   90.14158380
_cell_angle_beta   90.14158381
_cell_angle_gamma   90.11289392
_symmetry_Int_Tables_number   1
_chemical_formula_structural   Yb8Hg4PtAu7
_chemical_formula_sum   'Yb8 Hg4 Pt1 Au7'
_cell_volume   478.00933016
_cell_formula_units_Z   1
loop_
 _symmetry_equiv_pos_site_id
 _symmetry_equiv_pos_as_xyz
  1  'x, y, z'
loop_
 _atom_site_type_symbol
 _atom_site_label
 _atom_site_symmetry_multiplicity
 _atom_site_fract_x
 _atom_site_fract_y
 _atom_site_fract_z
 _atom_site_occupancy
  Yb  Yb0  1  0.171951  0.171951  0.005150  1
  Yb  Yb1  1  0.834691  0.834691  0.000273  1
  Yb  Yb2  1  0.659225  0.332046  0.496987  1
  Yb  Yb3  1  0.332046  0.659225  0.496987  1
  Yb  Yb4  1  0.666615  0.321653  0.002952  1
  Yb  Yb5  1  0.321653  0.666615  0.002952  1
  Yb  Yb6  1  0.824829  0.824829  0.498779  1
  Yb  Yb7  1  0.180396  0.180396  0.495261  1
  Hg  Hg8  1  0.495027  0.010682  0.250197  1
  Hg  Hg9  1  0.500719  0.995328  0.749177  1
  Hg  Hg10  1  0.010682  0.495027  0.250197  1
  Hg  Hg11  1  0.995328  0.500719  0.749177  1
  Pt  Pt12  1  0.373590  0.373590  0.243953  1
  Au  Au13  1  0.627628  0.627628  0.758724  1
  Au  Au14  1  0.626192  0.626192  0.240145  1
  Au  Au15  1  0.874875  0.129906  0.741593  1
  Au  Au16  1  0.873684  0.128244  0.258766  1
  Au  Au17  1  0.372716  0.372716  0.758368  1
  Au  Au18  1  0.128244  0.873684  0.258766  1
  Au  Au19  1  0.129906  0.874875  0.741593  1
