# generated using pymatgen
data_Hg2Bi2PtRh3O14
_symmetry_space_group_name_H-M   'P 1'
_cell_length_a   7.30322104
_cell_length_b   7.15059212
_cell_length_c   7.30579480
_cell_angle_alpha   60.70028574
_cell_angle_beta   61.48882171
_cell_angle_gamma   60.68895286
_symmetry_Int_Tables_number   1
_chemical_formula_structural   Hg2Bi2PtRh3O14
_chemical_formula_sum   'Hg2 Bi2 Pt1 Rh3 O14'
_cell_volume   275.57634774
_cell_formula_units_Z   1
loop_
 _symmetry_equiv_pos_site_id
 _symmetry_equiv_pos_as_xyz
  1  'x, y, z'
loop_
 _atom_site_type_symbol
 _atom_site_label
 _atom_site_symmetry_multiplicity
 _atom_site_fract_x
 _atom_site_fract_y
 _atom_site_fract_z
 _atom_site_occupancy
  Hg  Hg0  1  0.125000  0.125000  0.125000  1
  Hg  Hg1  1  0.125000  0.625000  0.125000  1
  Bi  Bi2  1  0.625000  0.125000  0.125000  1
  Bi  Bi3  1  0.125000  0.125000  0.625000  1
  Pt  Pt4  1  0.625000  0.625000  0.125000  1
  Rh  Rh5  1  0.625000  0.625000  0.625000  1
  Rh  Rh6  1  0.125000  0.625000  0.625000  1
  Rh  Rh7  1  0.625000  0.125000  0.625000  1
  O  O8  1  0.248854  0.249801  0.251544  1
  O  O9  1  0.297155  0.701814  0.299218  1
  O  O10  1  0.952116  0.956699  0.554389  1
  O  O11  1  0.542108  0.957203  0.543485  1
  O  O12  1  0.700985  0.712199  0.296270  1
  O  O13  1  0.952116  0.536797  0.554389  1
  O  O14  1  0.707892  0.292797  0.706515  1
  O  O15  1  0.297884  0.293301  0.695611  1
  O  O16  1  0.700985  0.290545  0.296270  1
  O  O17  1  0.297884  0.713203  0.695611  1
  O  O18  1  0.952845  0.548186  0.950782  1
  O  O19  1  0.549015  0.537801  0.953730  1
  O  O20  1  0.001146  0.000199  0.998456  1
  O  O21  1  0.549015  0.959455  0.953730  1
