# generated using pymatgen
data_Er4Hf3GaIr3Pt
_symmetry_space_group_name_H-M   'P 1'
_cell_length_a   4.43141000
_cell_length_b   7.04902774
_cell_length_c   8.17803291
_cell_angle_alpha   93.51461858
_cell_angle_beta   90.00000000
_cell_angle_gamma   90.00000000
_symmetry_Int_Tables_number   1
_chemical_formula_structural   Er4Hf3GaIr3Pt
_chemical_formula_sum   'Er4 Hf3 Ga1 Ir3 Pt1'
_cell_volume   254.97782499
_cell_formula_units_Z   1
loop_
 _symmetry_equiv_pos_site_id
 _symmetry_equiv_pos_as_xyz
  1  'x, y, z'
loop_
 _atom_site_type_symbol
 _atom_site_label
 _atom_site_symmetry_multiplicity
 _atom_site_fract_x
 _atom_site_fract_y
 _atom_site_fract_z
 _atom_site_occupancy
  Er  Er0  1  0.250000  0.983150  0.315346  1
  Er  Er1  1  0.250000  0.462144  0.167306  1
  Er  Er2  1  0.750000  0.030291  0.684328  1
  Er  Er3  1  0.750000  0.509621  0.836377  1
  Hf  Hf4  1  0.250000  0.367566  0.568830  1
  Hf  Hf5  1  0.250000  0.856601  0.938910  1
  Hf  Hf6  1  0.750000  0.641374  0.428239  1
  Ga  Ga7  1  0.750000  0.141106  0.074224  1
  Ir  Ir8  1  0.250000  0.744283  0.602763  1
  Ir  Ir9  1  0.750000  0.765768  0.111507  1
  Ir  Ir10  1  0.750000  0.267966  0.396746  1
  Pt  Pt11  1  0.250000  0.230130  0.875426  1
