# generated using pymatgen
data_Lu2Pa2ReB12Mo
_symmetry_space_group_name_H-M   'P 1'
_cell_length_a   3.70963300
_cell_length_b   9.11087607
_cell_length_c   11.47722608
_cell_angle_alpha   89.98605680
_cell_angle_beta   90.00000000
_cell_angle_gamma   90.00000000
_symmetry_Int_Tables_number   1
_chemical_formula_structural   Lu2Pa2ReB12Mo
_chemical_formula_sum   'Lu4 Pa4 Re2 B24 Mo2'
_cell_volume   387.90735055
_cell_formula_units_Z   2
loop_
 _symmetry_equiv_pos_site_id
 _symmetry_equiv_pos_as_xyz
  1  'x, y, z'
loop_
 _atom_site_type_symbol
 _atom_site_label
 _atom_site_symmetry_multiplicity
 _atom_site_fract_x
 _atom_site_fract_y
 _atom_site_fract_z
 _atom_site_occupancy
  Lu  Lu0  1  0.000000  0.945031  0.374103  1
  Lu  Lu1  1  0.000000  0.054969  0.625897  1
  Lu  Lu2  1  0.000000  0.445810  0.126148  1
  Lu  Lu3  1  0.000000  0.554190  0.873852  1
  Pa  Pa4  1  0.000000  0.322115  0.414047  1
  Pa  Pa5  1  0.000000  0.677885  0.585953  1
  Pa  Pa6  1  0.000000  0.820788  0.087110  1
  Pa  Pa7  1  0.000000  0.179212  0.912890  1
  Re  Re8  1  0.000000  0.138601  0.178267  1
  Re  Re9  1  0.000000  0.861399  0.821733  1
  B  B10  1  0.500000  0.553609  0.433012  1
  B  B11  1  0.500000  0.446391  0.566988  1
  B  B12  1  0.500000  0.054016  0.067174  1
  B  B13  1  0.500000  0.945984  0.932826  1
  B  B14  1  0.500000  0.749983  0.420381  1
  B  B15  1  0.500000  0.250017  0.579619  1
  B  B16  1  0.500000  0.250384  0.080437  1
  B  B17  1  0.500000  0.749616  0.919563  1
  B  B18  1  0.500000  0.794514  0.264681  1
  B  B19  1  0.500000  0.205486  0.735319  1
  B  B20  1  0.500000  0.292919  0.234616  1
  B  B21  1  0.500000  0.707081  0.765384  1
  B  B22  1  0.500000  0.632431  0.183729  1
  B  B23  1  0.500000  0.367569  0.816271  1
  B  B24  1  0.500000  0.131383  0.315317  1
  B  B25  1  0.500000  0.868617  0.684683  1
  B  B26  1  0.500000  0.982749  0.213611  1
  B  B27  1  0.500000  0.017251  0.786389  1
  B  B28  1  0.500000  0.481660  0.286069  1
  B  B29  1  0.500000  0.518340  0.713931  1
  B  B30  1  0.500000  0.606539  0.028803  1
  B  B31  1  0.500000  0.393461  0.971197  1
  B  B32  1  0.500000  0.105996  0.469908  1
  B  B33  1  0.500000  0.894004  0.530092  1
  Mo  Mo34  1  0.000000  0.639401  0.320494  1
  Mo  Mo35  1  0.000000  0.360599  0.679506  1
