# generated using pymatgen
data_NaBeAsO4
_symmetry_space_group_name_H-M   'P 1'
_cell_length_a   5.10699900
_cell_length_b   8.60505900
_cell_length_c   7.90497100
_cell_angle_alpha   90.00000000
_cell_angle_beta   90.00000000
_cell_angle_gamma   90.00000000
_symmetry_Int_Tables_number   1
_chemical_formula_structural   NaBeAsO4
_chemical_formula_sum   'Na4 Be4 As4 O16'
_cell_volume   347.39207460
_cell_formula_units_Z   4
loop_
 _symmetry_equiv_pos_site_id
 _symmetry_equiv_pos_as_xyz
  1  'x, y, z'
loop_
 _atom_site_type_symbol
 _atom_site_label
 _atom_site_symmetry_multiplicity
 _atom_site_fract_x
 _atom_site_fract_y
 _atom_site_fract_z
 _atom_site_occupancy
  Na  Na0  1  0.502311  0.288978  0.481769  1
  Na  Na1  1  0.002311  0.711022  0.518231  1
  Na  Na2  1  0.502311  0.211022  0.981769  1
  Na  Na3  1  0.002311  0.788978  0.018231  1
  Be  Be4  1  0.002329  0.101581  0.301885  1
  Be  Be5  1  0.502329  0.601581  0.198115  1
  Be  Be6  1  0.002329  0.398419  0.801885  1
  Be  Be7  1  0.502329  0.898419  0.698115  1
  As  As8  1  0.502008  0.942359  0.287836  1
  As  As9  1  0.002008  0.057641  0.712164  1
  As  As10  1  0.502008  0.557641  0.787836  1
  As  As11  1  0.002008  0.442359  0.212164  1
  O  O12  1  0.959883  0.062190  0.500177  1
  O  O13  1  0.459883  0.562190  0.999823  1
  O  O14  1  0.959883  0.437810  0.000177  1
  O  O15  1  0.459883  0.937810  0.499823  1
  O  O16  1  0.697025  0.476532  0.298415  1
  O  O17  1  0.197025  0.523468  0.701585  1
  O  O18  1  0.697025  0.023468  0.798415  1
  O  O19  1  0.197025  0.976532  0.201585  1
  O  O20  1  0.638959  0.773085  0.215023  1
  O  O21  1  0.138959  0.226915  0.784977  1
  O  O22  1  0.638959  0.726915  0.715023  1
  O  O23  1  0.138959  0.273085  0.284977  1
  O  O24  1  0.703484  0.406859  0.722591  1
  O  O25  1  0.203484  0.593141  0.277409  1
  O  O26  1  0.703484  0.093141  0.222591  1
  O  O27  1  0.203484  0.906859  0.777409  1
