# generated using pymatgen
data_Rb6V(IrBr6)3
_symmetry_space_group_name_H-M   'P 1'
_cell_length_a   7.55804900
_cell_length_b   7.55804924
_cell_length_c   19.15340800
_cell_angle_alpha   90.00000000
_cell_angle_beta   90.00000000
_cell_angle_gamma   119.99999458
_symmetry_Int_Tables_number   1
_chemical_formula_structural   Rb6V(IrBr6)3
_chemical_formula_sum   'Rb6 V1 Ir3 Br18'
_cell_volume   947.53690799
_cell_formula_units_Z   1
loop_
 _symmetry_equiv_pos_site_id
 _symmetry_equiv_pos_as_xyz
  1  'x, y, z'
loop_
 _atom_site_type_symbol
 _atom_site_label
 _atom_site_symmetry_multiplicity
 _atom_site_fract_x
 _atom_site_fract_y
 _atom_site_fract_z
 _atom_site_occupancy
  Rb  Rb0  1  0.666667  0.333333  0.560940  1
  Rb  Rb1  1  0.333333  0.666667  0.064030  1
  Rb  Rb2  1  0.333333  0.666667  0.432993  1
  Rb  Rb3  1  0.666667  0.333333  0.940594  1
  Rb  Rb4  1  0.000000  0.000000  0.249792  1
  Rb  Rb5  1  0.000000  0.000000  0.750197  1
  V  V6  1  0.666667  0.333333  0.167830  1
  Ir  Ir7  1  0.333333  0.666667  0.663652  1
  Ir  Ir8  1  0.666667  0.333333  0.328677  1
  Ir  Ir9  1  0.333333  0.666667  0.836006  1
  Br  Br10  1  0.822412  0.644824  0.404217  1
  Br  Br11  1  0.176407  0.823593  0.590280  1
  Br  Br12  1  0.647186  0.823593  0.590280  1
  Br  Br13  1  0.822412  0.177588  0.404217  1
  Br  Br14  1  0.355176  0.177588  0.404217  1
  Br  Br15  1  0.176556  0.353112  0.909399  1
  Br  Br16  1  0.035405  0.517703  0.749792  1
  Br  Br17  1  0.646888  0.823444  0.909399  1
  Br  Br18  1  0.826055  0.652110  0.095486  1
  Br  Br19  1  0.176407  0.352814  0.590280  1
  Br  Br20  1  0.482297  0.964595  0.749792  1
  Br  Br21  1  0.508344  0.491656  0.252589  1
  Br  Br22  1  0.482297  0.517703  0.749792  1
  Br  Br23  1  0.176556  0.823444  0.909399  1
  Br  Br24  1  0.347890  0.173945  0.095486  1
  Br  Br25  1  0.983313  0.491656  0.252589  1
  Br  Br26  1  0.508344  0.016687  0.252589  1
  Br  Br27  1  0.826055  0.173945  0.095486  1
