# generated using pymatgen
data_TbCe2Ho7(Al2Ru3)2
_symmetry_space_group_name_H-M   'P 1'
_cell_length_a   8.44420357
_cell_length_b   8.35725080
_cell_length_c   8.31502551
_cell_angle_alpha   110.06002880
_cell_angle_beta   109.30806447
_cell_angle_gamma   110.25130514
_symmetry_Int_Tables_number   1
_chemical_formula_structural   TbCe2Ho7(Al2Ru3)2
_chemical_formula_sum   'Tb1 Ce2 Ho7 Al4 Ru6'
_cell_volume   444.84060904
_cell_formula_units_Z   1
loop_
 _symmetry_equiv_pos_site_id
 _symmetry_equiv_pos_as_xyz
  1  'x, y, z'
loop_
 _atom_site_type_symbol
 _atom_site_label
 _atom_site_symmetry_multiplicity
 _atom_site_fract_x
 _atom_site_fract_y
 _atom_site_fract_z
 _atom_site_occupancy
  Tb  Tb0  1  0.253944  0.187994  0.932412  1
  Ce  Ce1  1  0.943983  0.251568  0.195537  1
  Ce  Ce2  1  0.197190  0.941931  0.251574  1
  Ho  Ho3  1  0.781183  0.785543  0.778772  1
  Ho  Ho4  1  0.317952  0.566910  0.754155  1
  Ho  Ho5  1  0.750829  0.317435  0.568684  1
  Ho  Ho6  1  0.567635  0.748302  0.313399  1
  Ho  Ho7  1  0.720632  0.503229  0.998617  1
  Ho  Ho8  1  0.998575  0.719083  0.505698  1
  Ho  Ho9  1  0.501578  0.992611  0.716155  1
  Al  Al10  1  0.415969  0.411640  0.409625  1
  Al  Al11  1  0.092027  0.492173  0.996551  1
  Al  Al12  1  0.997484  0.091007  0.501836  1
  Al  Al13  1  0.502973  0.009530  0.094846  1
  Ru  Ru14  1  0.867464  0.116278  0.740503  1
  Ru  Ru15  1  0.753524  0.900958  0.121708  1
  Ru  Ru16  1  0.126551  0.762494  0.907029  1
  Ru  Ru17  1  0.225087  0.593408  0.364448  1
  Ru  Ru18  1  0.358723  0.222769  0.596324  1
  Ru  Ru19  1  0.626694  0.385137  0.252128  1
