# generated using pymatgen
data_CsRb3Al2Ga2(SiSe4)4
_symmetry_space_group_name_H-M   'P 1'
_cell_length_a   16.99710108
_cell_length_b   7.27464330
_cell_length_c   8.04462212
_cell_angle_alpha   70.02058669
_cell_angle_beta   90.27851539
_cell_angle_gamma   89.99565381
_symmetry_Int_Tables_number   1
_chemical_formula_structural   CsRb3Al2Ga2(SiSe4)4
_chemical_formula_sum   'Cs1 Rb3 Al2 Ga2 Si4 Se16'
_cell_volume   934.82198359
_cell_formula_units_Z   1
loop_
 _symmetry_equiv_pos_site_id
 _symmetry_equiv_pos_as_xyz
  1  'x, y, z'
loop_
 _atom_site_type_symbol
 _atom_site_label
 _atom_site_symmetry_multiplicity
 _atom_site_fract_x
 _atom_site_fract_y
 _atom_site_fract_z
 _atom_site_occupancy
  Cs  Cs0  1  0.102564  0.471081  0.165208  1
  Rb  Rb1  1  0.395708  0.950990  0.183760  1
  Rb  Rb2  1  0.895173  0.049152  0.816319  1
  Rb  Rb3  1  0.603632  0.526635  0.827811  1
  Al  Al4  1  0.582837  0.166213  0.481071  1
  Al  Al5  1  0.082935  0.833318  0.520205  1
  Ga  Ga6  1  0.272531  0.587712  0.698982  1
  Ga  Ga7  1  0.770906  0.412181  0.302333  1
  Si  Si8  1  0.421305  0.315735  0.540611  1
  Si  Si9  1  0.920723  0.684984  0.458947  1
  Si  Si10  1  0.725429  0.916801  0.279115  1
  Si  Si11  1  0.226560  0.083329  0.719621  1
  Se  Se12  1  0.598863  0.888119  0.383755  1
  Se  Se13  1  0.098698  0.108801  0.621055  1
  Se  Se14  1  0.412055  0.587963  0.622180  1
  Se  Se15  1  0.910412  0.411188  0.380203  1
  Se  Se16  1  0.802104  0.793184  0.534411  1
  Se  Se17  1  0.302203  0.207747  0.464477  1
  Se  Se18  1  0.200067  0.720178  0.429409  1
  Se  Se19  1  0.699450  0.282888  0.572278  1
  Se  Se20  1  0.762922  0.223660  0.100362  1
  Se  Se21  1  0.265758  0.777963  0.898968  1
  Se  Se22  1  0.237609  0.261353  0.904588  1
  Se  Se23  1  0.736041  0.738474  0.094190  1
  Se  Se24  1  0.995848  0.922482  0.261525  1
  Se  Se25  1  0.496801  0.077850  0.739047  1
  Se  Se26  1  0.990596  0.606909  0.719289  1
  Se  Se27  1  0.490268  0.393111  0.280281  1
