# generated using pymatgen
data_LuFe3NiP3Ru
_symmetry_space_group_name_H-M   'P 1'
_cell_length_a   3.69672000
_cell_length_b   10.16727900
_cell_length_c   11.96090600
_cell_angle_alpha   90.00000000
_cell_angle_beta   90.00000000
_cell_angle_gamma   90.00000000
_symmetry_Int_Tables_number   1
_chemical_formula_structural   LuFe3NiP3Ru
_chemical_formula_sum   'Lu4 Fe12 Ni4 P12 Ru4'
_cell_volume   449.55763269
_cell_formula_units_Z   4
loop_
 _symmetry_equiv_pos_site_id
 _symmetry_equiv_pos_as_xyz
  1  'x, y, z'
loop_
 _atom_site_type_symbol
 _atom_site_label
 _atom_site_symmetry_multiplicity
 _atom_site_fract_x
 _atom_site_fract_y
 _atom_site_fract_z
 _atom_site_occupancy
  Lu  Lu0  1  0.250000  0.581843  0.708182  1
  Lu  Lu1  1  0.250000  0.918157  0.208182  1
  Lu  Lu2  1  0.750000  0.418157  0.291818  1
  Lu  Lu3  1  0.750000  0.081843  0.791818  1
  Fe  Fe4  1  0.250000  0.221145  0.170264  1
  Fe  Fe5  1  0.250000  0.278855  0.670264  1
  Fe  Fe6  1  0.750000  0.778855  0.829736  1
  Fe  Fe7  1  0.750000  0.721145  0.329736  1
  Fe  Fe8  1  0.250000  0.883378  0.700938  1
  Fe  Fe9  1  0.250000  0.616622  0.200938  1
  Fe  Fe10  1  0.750000  0.116622  0.299062  1
  Fe  Fe11  1  0.750000  0.383378  0.799062  1
  Fe  Fe12  1  0.250000  0.463165  0.934486  1
  Fe  Fe13  1  0.250000  0.036835  0.434486  1
  Fe  Fe14  1  0.750000  0.536835  0.065514  1
  Fe  Fe15  1  0.750000  0.963165  0.565514  1
  Ni  Ni16  1  0.250000  0.408664  0.483081  1
  Ni  Ni17  1  0.250000  0.091336  0.983081  1
  Ni  Ni18  1  0.750000  0.591336  0.516919  1
  Ni  Ni19  1  0.750000  0.908664  0.016919  1
  P  P20  1  0.250000  0.423597  0.113504  1
  P  P21  1  0.250000  0.076403  0.613504  1
  P  P22  1  0.750000  0.576403  0.886496  1
  P  P23  1  0.750000  0.923597  0.386496  1
  P  P24  1  0.250000  0.272544  0.855559  1
  P  P25  1  0.250000  0.227456  0.355559  1
  P  P26  1  0.750000  0.727456  0.144441  1
  P  P27  1  0.750000  0.772544  0.644441  1
  P  P28  1  0.250000  0.601789  0.384285  1
  P  P29  1  0.250000  0.898211  0.884285  1
  P  P30  1  0.750000  0.398211  0.615715  1
  P  P31  1  0.750000  0.101789  0.115715  1
  Ru  Ru32  1  0.250000  0.710342  0.992672  1
  Ru  Ru33  1  0.250000  0.789658  0.492672  1
  Ru  Ru34  1  0.750000  0.289658  0.007328  1
  Ru  Ru35  1  0.750000  0.210342  0.507328  1
