# generated using pymatgen
data_Mn8Nb3Ga
_symmetry_space_group_name_H-M   'P 1'
_cell_length_a   4.77975600
_cell_length_b   4.77975503
_cell_length_c   7.89066000
_cell_angle_alpha   90.00000000
_cell_angle_beta   90.00000000
_cell_angle_gamma   120.00000671
_symmetry_Int_Tables_number   1
_chemical_formula_structural   Mn8Nb3Ga
_chemical_formula_sum   'Mn8 Nb3 Ga1'
_cell_volume   156.11883392
_cell_formula_units_Z   1
loop_
 _symmetry_equiv_pos_site_id
 _symmetry_equiv_pos_as_xyz
  1  'x, y, z'
loop_
 _atom_site_type_symbol
 _atom_site_label
 _atom_site_symmetry_multiplicity
 _atom_site_fract_x
 _atom_site_fract_y
 _atom_site_fract_z
 _atom_site_occupancy
  Mn  Mn0  1  0.173895  0.347791  0.749088  1
  Mn  Mn1  1  0.829228  0.170772  0.251111  1
  Mn  Mn2  1  0.341543  0.170772  0.251111  1
  Mn  Mn3  1  0.652209  0.826105  0.749088  1
  Mn  Mn4  1  0.000000  0.000000  0.988059  1
  Mn  Mn5  1  0.000000  0.000000  0.501241  1
  Mn  Mn6  1  0.829228  0.658457  0.251111  1
  Mn  Mn7  1  0.173895  0.826105  0.749088  1
  Nb  Nb8  1  0.666667  0.333333  0.933681  1
  Nb  Nb9  1  0.666667  0.333333  0.556593  1
  Nb  Nb10  1  0.333333  0.666667  0.079643  1
  Ga  Ga11  1  0.333333  0.666667  0.440184  1
