# generated using pymatgen
data_Tb10(InBi)3
_symmetry_space_group_name_H-M   'P 1'
_cell_length_a   9.13998500
_cell_length_b   9.10349562
_cell_length_c   6.65398600
_cell_angle_alpha   90.00000000
_cell_angle_beta   90.00000000
_cell_angle_gamma   120.13267808
_symmetry_Int_Tables_number   1
_chemical_formula_structural   Tb10(InBi)3
_chemical_formula_sum   'Tb10 In3 Bi3'
_cell_volume   478.83291940
_cell_formula_units_Z   1
loop_
 _symmetry_equiv_pos_site_id
 _symmetry_equiv_pos_as_xyz
  1  'x, y, z'
loop_
 _atom_site_type_symbol
 _atom_site_label
 _atom_site_symmetry_multiplicity
 _atom_site_fract_x
 _atom_site_fract_y
 _atom_site_fract_z
 _atom_site_occupancy
  Tb  Tb0  1  0.006157  0.766467  0.750000  1
  Tb  Tb1  1  0.007391  0.242130  0.250000  1
  Tb  Tb2  1  0.765262  0.757870  0.250000  1
  Tb  Tb3  1  0.760217  0.000000  0.750000  1
  Tb  Tb4  1  0.239690  0.233533  0.750000  1
  Tb  Tb5  1  0.235863  0.000000  0.250000  1
  Tb  Tb6  1  0.328690  0.665874  0.498204  1
  Tb  Tb7  1  0.662818  0.334126  0.001796  1
  Tb  Tb8  1  0.662818  0.334126  0.498204  1
  Tb  Tb9  1  0.328690  0.665874  0.001796  1
  In  In10  1  0.397967  0.000000  0.750000  1
  In  In11  1  0.395417  0.397118  0.250000  1
  In  In12  1  0.998298  0.602882  0.250000  1
  Bi  Bi13  1  0.997704  0.392838  0.750000  1
  Bi  Bi14  1  0.604867  0.607162  0.750000  1
  Bi  Bi15  1  0.608153  0.000000  0.250000  1
