# generated using pymatgen
data_Er6Al24Co3Os5
_symmetry_space_group_name_H-M   'P 1'
_cell_length_a   8.75391200
_cell_length_b   8.71767155
_cell_length_c   9.42618617
_cell_angle_alpha   90.34844940
_cell_angle_beta   90.00000000
_cell_angle_gamma   120.13760453
_symmetry_Int_Tables_number   1
_chemical_formula_structural   Er6Al24Co3Os5
_chemical_formula_sum   'Er6 Al24 Co3 Os5'
_cell_volume   622.09215276
_cell_formula_units_Z   1
loop_
 _symmetry_equiv_pos_site_id
 _symmetry_equiv_pos_as_xyz
  1  'x, y, z'
loop_
 _atom_site_type_symbol
 _atom_site_label
 _atom_site_symmetry_multiplicity
 _atom_site_fract_x
 _atom_site_fract_y
 _atom_site_fract_z
 _atom_site_occupancy
  Er  Er0  1  0.195549  0.391099  0.247457  1
  Er  Er1  1  0.804451  0.608901  0.752543  1
  Er  Er2  1  0.610864  0.802376  0.250466  1
  Er  Er3  1  0.389136  0.197624  0.749534  1
  Er  Er4  1  0.191511  0.802376  0.250466  1
  Er  Er5  1  0.808489  0.197624  0.749534  1
  Al  Al6  1  0.336768  0.673538  0.015258  1
  Al  Al7  1  0.663232  0.326462  0.984742  1
  Al  Al8  1  0.666615  0.333228  0.514780  1
  Al  Al9  1  0.333385  0.666772  0.485220  1
  Al  Al10  1  0.159343  0.318687  0.575264  1
  Al  Al11  1  0.840657  0.681313  0.424736  1
  Al  Al12  1  0.681277  0.841222  0.576660  1
  Al  Al13  1  0.839539  0.679078  0.075568  1
  Al  Al14  1  0.318723  0.158778  0.423340  1
  Al  Al15  1  0.160461  0.320922  0.924432  1
  Al  Al16  1  0.159945  0.841222  0.576660  1
  Al  Al17  1  0.320179  0.158083  0.075424  1
  Al  Al18  1  0.840055  0.158778  0.423340  1
  Al  Al19  1  0.679821  0.841917  0.924576  1
  Al  Al20  1  0.837904  0.158083  0.075424  1
  Al  Al21  1  0.162096  0.841917  0.924576  1
  Al  Al22  1  0.558438  0.116877  0.244076  1
  Al  Al23  1  0.441562  0.883123  0.755924  1
  Al  Al24  1  0.875855  0.436754  0.248860  1
  Al  Al25  1  0.124145  0.563246  0.751140  1
  Al  Al26  1  0.560899  0.436754  0.248860  1
  Al  Al27  1  0.439101  0.563246  0.751140  1
  Al  Al28  1  0.999722  0.999444  0.250170  1
  Al  Al29  1  0.000278  0.000556  0.749830  1
  Co  Co30  1  0.500000  0.000000  0.000000  1
  Co  Co31  1  0.000000  0.000000  0.000000  1
  Co  Co32  1  0.000000  0.000000  0.500000  1
  Os  Os33  1  0.000000  0.500000  0.000000  1
  Os  Os34  1  0.500000  0.000000  0.500000  1
  Os  Os35  1  0.500000  0.500000  0.000000  1
  Os  Os36  1  0.000000  0.500000  0.500000  1
  Os  Os37  1  0.500000  0.500000  0.500000  1
