# generated using pymatgen
data_Ho3Tm5B24IrRu3
_symmetry_space_group_name_H-M   'P 1'
_cell_length_a   3.63021600
_cell_length_b   9.09196493
_cell_length_c   11.44178501
_cell_angle_alpha   90.02317420
_cell_angle_beta   90.00000000
_cell_angle_gamma   90.00000000
_symmetry_Int_Tables_number   1
_chemical_formula_structural   Ho3Tm5B24IrRu3
_chemical_formula_sum   'Ho3 Tm5 B24 Ir1 Ru3'
_cell_volume   377.64519770
_cell_formula_units_Z   1
loop_
 _symmetry_equiv_pos_site_id
 _symmetry_equiv_pos_as_xyz
  1  'x, y, z'
loop_
 _atom_site_type_symbol
 _atom_site_label
 _atom_site_symmetry_multiplicity
 _atom_site_fract_x
 _atom_site_fract_y
 _atom_site_fract_z
 _atom_site_occupancy
  Ho  Ho0  1  0.000000  0.318706  0.414411  1
  Ho  Ho1  1  0.000000  0.679300  0.589078  1
  Ho  Ho2  1  0.000000  0.823159  0.084164  1
  Tm  Tm3  1  0.000000  0.179105  0.913212  1
  Tm  Tm4  1  0.000000  0.945799  0.373275  1
  Tm  Tm5  1  0.000000  0.055967  0.626968  1
  Tm  Tm6  1  0.000000  0.441721  0.125334  1
  Tm  Tm7  1  0.000000  0.555725  0.873423  1
  B  B8  1  0.500000  0.553913  0.433868  1
  B  B9  1  0.500000  0.445840  0.566929  1
  B  B10  1  0.500000  0.054487  0.066516  1
  B  B11  1  0.500000  0.946463  0.932849  1
  B  B12  1  0.500000  0.750079  0.421241  1
  B  B13  1  0.500000  0.250846  0.580123  1
  B  B14  1  0.500000  0.248366  0.079343  1
  B  B15  1  0.500000  0.751518  0.920009  1
  B  B16  1  0.500000  0.792667  0.265451  1
  B  B17  1  0.500000  0.208257  0.734196  1
  B  B18  1  0.500000  0.291865  0.234252  1
  B  B19  1  0.500000  0.708279  0.766178  1
  B  B20  1  0.500000  0.631463  0.183378  1
  B  B21  1  0.500000  0.368476  0.815280  1
  B  B22  1  0.500000  0.131399  0.315264  1
  B  B23  1  0.500000  0.868564  0.685085  1
  B  B24  1  0.500000  0.982716  0.213105  1
  B  B25  1  0.500000  0.017695  0.786844  1
  B  B26  1  0.500000  0.481504  0.286321  1
  B  B27  1  0.500000  0.517095  0.713572  1
  B  B28  1  0.500000  0.608046  0.029925  1
  B  B29  1  0.500000  0.391397  0.970142  1
  B  B30  1  0.500000  0.107348  0.470548  1
  B  B31  1  0.500000  0.892035  0.529365  1
  Ir  Ir32  1  0.000000  0.637683  0.321299  1
  Ru  Ru33  1  0.000000  0.362033  0.678946  1
  Ru  Ru34  1  0.000000  0.138089  0.179282  1
  Ru  Ru35  1  0.000000  0.862393  0.820824  1
