# generated using pymatgen
data_TbDy7(CuP)12
_symmetry_space_group_name_H-M   'P 1'
_cell_length_a   3.85795900
_cell_length_b   10.67699400
_cell_length_c   12.95934700
_cell_angle_alpha   90.00305376
_cell_angle_beta   90.00000000
_cell_angle_gamma   90.00000000
_symmetry_Int_Tables_number   1
_chemical_formula_structural   TbDy7(CuP)12
_chemical_formula_sum   'Tb1 Dy7 Cu12 P12'
_cell_volume   533.81371167
_cell_formula_units_Z   1
loop_
 _symmetry_equiv_pos_site_id
 _symmetry_equiv_pos_as_xyz
  1  'x, y, z'
loop_
 _atom_site_type_symbol
 _atom_site_label
 _atom_site_symmetry_multiplicity
 _atom_site_fract_x
 _atom_site_fract_y
 _atom_site_fract_z
 _atom_site_occupancy
  Tb  Tb0  1  0.250000  0.930524  0.793013  1
  Dy  Dy1  1  0.750000  0.430360  0.707245  1
  Dy  Dy2  1  0.250000  0.569649  0.292773  1
  Dy  Dy3  1  0.750000  0.069673  0.207219  1
  Dy  Dy4  1  0.250000  0.841113  0.502802  1
  Dy  Dy5  1  0.750000  0.341257  0.997071  1
  Dy  Dy6  1  0.250000  0.658701  0.003002  1
  Dy  Dy7  1  0.750000  0.158773  0.497010  1
  Cu  Cu8  1  0.250000  0.403041  0.513774  1
  Cu  Cu9  1  0.750000  0.902932  0.986545  1
  Cu  Cu10  1  0.250000  0.097055  0.013835  1
  Cu  Cu11  1  0.750000  0.596956  0.486220  1
  Cu  Cu12  1  0.250000  0.272779  0.332322  1
  Cu  Cu13  1  0.750000  0.772776  0.167682  1
  Cu  Cu14  1  0.250000  0.227412  0.832399  1
  Cu  Cu15  1  0.750000  0.727171  0.667615  1
  Cu  Cu16  1  0.250000  0.860420  0.280000  1
  Cu  Cu17  1  0.750000  0.360399  0.219985  1
  Cu  Cu18  1  0.250000  0.639356  0.780045  1
  Cu  Cu19  1  0.750000  0.139995  0.719842  1
  P  P20  1  0.250000  0.241013  0.643525  1
  P  P21  1  0.750000  0.740256  0.856727  1
  P  P22  1  0.250000  0.258992  0.143500  1
  P  P23  1  0.750000  0.758970  0.356464  1
  P  P24  1  0.250000  0.604042  0.600991  1
  P  P25  1  0.750000  0.104390  0.899237  1
  P  P26  1  0.250000  0.896006  0.100928  1
  P  P27  1  0.750000  0.395976  0.399040  1
  P  P28  1  0.250000  0.057130  0.368784  1
  P  P29  1  0.750000  0.557108  0.131207  1
  P  P30  1  0.250000  0.442847  0.868810  1
  P  P31  1  0.750000  0.942927  0.630389  1
