# generated using pymatgen
data_PrI28
_symmetry_space_group_name_H-M   'P 1'
_cell_length_a   10.67681737
_cell_length_b   14.33344904
_cell_length_c   12.98270300
_cell_angle_alpha   108.44914254
_cell_angle_beta   105.43469067
_cell_angle_gamma   86.57346759
_symmetry_Int_Tables_number   1
_chemical_formula_structural   PrI28
_chemical_formula_sum   'Pr1 I28'
_cell_volume   1816.08072199
_cell_formula_units_Z   1
loop_
 _symmetry_equiv_pos_site_id
 _symmetry_equiv_pos_as_xyz
  1  'x, y, z'
loop_
 _atom_site_type_symbol
 _atom_site_label
 _atom_site_symmetry_multiplicity
 _atom_site_fract_x
 _atom_site_fract_y
 _atom_site_fract_z
 _atom_site_occupancy
  Pr  Pr0  1  0.500000  0.000000  0.000000  1
  I  I1  1  0.097328  0.097780  0.405293  1
  I  I2  1  0.569491  0.152748  0.456487  1
  I  I3  1  0.290638  0.274541  0.845266  1
  I  I4  1  0.781179  0.290403  0.868902  1
  I  I5  1  0.194816  0.507475  0.640027  1
  I  I6  1  0.767466  0.582829  0.739530  1
  I  I7  1  0.430509  0.847252  0.543513  1
  I  I8  1  0.902672  0.902220  0.594707  1
  I  I9  1  0.218821  0.709597  0.131098  1
  I  I10  1  0.709362  0.725459  0.154734  1
  I  I11  1  0.232534  0.417171  0.260470  1
  I  I12  1  0.805184  0.492525  0.359973  1
  I  I13  1  0.849053  0.090395  0.741122  1
  I  I14  1  0.309022  0.947025  0.771525  1
  I  I15  1  0.993384  0.642899  0.942625  1
  I  I16  1  0.509988  0.775570  0.963187  1
  I  I17  1  0.714625  0.358243  0.440729  1
  I  I18  1  0.173015  0.256726  0.332865  1
  I  I19  1  0.690978  0.052975  0.228475  1
  I  I20  1  0.150947  0.909605  0.258878  1
  I  I21  1  0.490012  0.224430  0.036813  1
  I  I22  1  0.006616  0.357101  0.057375  1
  I  I23  1  0.826985  0.743274  0.667135  1
  I  I24  1  0.285375  0.641757  0.559271  1
  I  I25  1  0.083432  0.329237  0.686843  1
  I  I26  1  0.460923  0.213852  0.637736  1
  I  I27  1  0.539077  0.786148  0.362264  1
  I  I28  1  0.916568  0.670763  0.313157  1
