# generated using pymatgen
data_DyCo3SiB
_symmetry_space_group_name_H-M   'P 1'
_cell_length_a   5.14605900
_cell_length_b   5.14708048
_cell_length_c   6.44936700
_cell_angle_alpha   90.00000000
_cell_angle_beta   90.00000000
_cell_angle_gamma   119.99344170
_symmetry_Int_Tables_number   1
_chemical_formula_structural   DyCo3SiB
_chemical_formula_sum   'Dy2 Co6 Si2 B2'
_cell_volume   147.94903602
_cell_formula_units_Z   2
loop_
 _symmetry_equiv_pos_site_id
 _symmetry_equiv_pos_as_xyz
  1  'x, y, z'
loop_
 _atom_site_type_symbol
 _atom_site_label
 _atom_site_symmetry_multiplicity
 _atom_site_fract_x
 _atom_site_fract_y
 _atom_site_fract_z
 _atom_site_occupancy
  Dy  Dy0  1  0.999974  0.000000  0.000000  1
  Dy  Dy1  1  0.999993  0.000000  0.500000  1
  Co  Co2  1  0.499994  0.000000  0.283556  1
  Co  Co3  1  0.499990  0.500004  0.283588  1
  Co  Co4  1  0.999986  0.499996  0.283588  1
  Co  Co5  1  0.499994  0.000000  0.716444  1
  Co  Co6  1  0.499990  0.500004  0.716412  1
  Co  Co7  1  0.999986  0.499996  0.716412  1
  Si  Si8  1  0.333218  0.666493  0.000000  1
  Si  Si9  1  0.666725  0.333507  0.000000  1
  B  B10  1  0.333262  0.666575  0.500000  1
  B  B11  1  0.666687  0.333425  0.500000  1
