# generated using pymatgen
data_Nb6Zn4Cu2O
_symmetry_space_group_name_H-M   'P 1'
_cell_length_a   8.13789542
_cell_length_b   8.13789491
_cell_length_c   8.13789500
_cell_angle_alpha   59.99999556
_cell_angle_beta   59.99999764
_cell_angle_gamma   59.99999634
_symmetry_Int_Tables_number   1
_chemical_formula_structural   Nb6Zn4Cu2O
_chemical_formula_sum   'Nb12 Zn8 Cu4 O2'
_cell_volume   381.08445304
_cell_formula_units_Z   2
loop_
 _symmetry_equiv_pos_site_id
 _symmetry_equiv_pos_as_xyz
  1  'x, y, z'
loop_
 _atom_site_type_symbol
 _atom_site_label
 _atom_site_symmetry_multiplicity
 _atom_site_fract_x
 _atom_site_fract_y
 _atom_site_fract_z
 _atom_site_occupancy
  Nb  Nb0  1  0.055892  0.055892  0.444108  1
  Nb  Nb1  1  0.444108  0.055892  0.444108  1
  Nb  Nb2  1  0.055892  0.444108  0.444108  1
  Nb  Nb3  1  0.444108  0.444108  0.055892  1
  Nb  Nb4  1  0.055892  0.444108  0.055892  1
  Nb  Nb5  1  0.444108  0.055892  0.055892  1
  Nb  Nb6  1  0.194108  0.194108  0.805892  1
  Nb  Nb7  1  0.805892  0.194108  0.805892  1
  Nb  Nb8  1  0.194108  0.805892  0.805892  1
  Nb  Nb9  1  0.805892  0.805892  0.194108  1
  Nb  Nb10  1  0.194108  0.805892  0.194108  1
  Nb  Nb11  1  0.805892  0.194108  0.194108  1
  Zn  Zn12  1  0.418056  0.418056  0.745833  1
  Zn  Zn13  1  0.418056  0.745833  0.418056  1
  Zn  Zn14  1  0.745833  0.418056  0.418056  1
  Zn  Zn15  1  0.418056  0.418056  0.418056  1
  Zn  Zn16  1  0.831944  0.831944  0.504167  1
  Zn  Zn17  1  0.831944  0.504167  0.831944  1
  Zn  Zn18  1  0.504167  0.831944  0.831944  1
  Zn  Zn19  1  0.831944  0.831944  0.831944  1
  Cu  Cu20  1  0.625000  0.625000  0.125000  1
  Cu  Cu21  1  0.625000  0.125000  0.625000  1
  Cu  Cu22  1  0.125000  0.625000  0.625000  1
  Cu  Cu23  1  0.625000  0.625000  0.625000  1
  O  O24  1  0.250000  0.250000  0.250000  1
  O  O25  1  0.000000  0.000000  0.000000  1
