# generated using pymatgen
data_U8CuSe17
_symmetry_space_group_name_H-M   'P 1'
_cell_length_a   8.23210017
_cell_length_b   8.23210005
_cell_length_c   10.86268901
_cell_angle_alpha   79.88273787
_cell_angle_beta   79.88274045
_cell_angle_gamma   64.12190201
_symmetry_Int_Tables_number   1
_chemical_formula_structural   U8CuSe17
_chemical_formula_sum   'U8 Cu1 Se17'
_cell_volume   647.93662547
_cell_formula_units_Z   1
loop_
 _symmetry_equiv_pos_site_id
 _symmetry_equiv_pos_as_xyz
  1  'x, y, z'
loop_
 _atom_site_type_symbol
 _atom_site_label
 _atom_site_symmetry_multiplicity
 _atom_site_fract_x
 _atom_site_fract_y
 _atom_site_fract_z
 _atom_site_occupancy
  U  U0  1  0.819048  0.303542  0.298444  1
  U  U1  1  0.303542  0.819048  0.298444  1
  U  U2  1  0.180952  0.696458  0.701556  1
  U  U3  1  0.696458  0.180952  0.701556  1
  U  U4  1  0.801039  0.801039  0.457082  1
  U  U5  1  0.198961  0.198961  0.542918  1
  U  U6  1  0.320338  0.320338  0.010690  1
  U  U7  1  0.679662  0.679662  0.989310  1
  Cu  Cu8  1  0.000000  0.000000  0.000000  1
  Se  Se9  1  0.182131  0.564079  0.464538  1
  Se  Se10  1  0.564079  0.182131  0.464538  1
  Se  Se11  1  0.817869  0.435921  0.535462  1
  Se  Se12  1  0.435921  0.817869  0.535462  1
  Se  Se13  1  0.945598  0.327119  0.032593  1
  Se  Se14  1  0.327119  0.945598  0.032593  1
  Se  Se15  1  0.054402  0.672881  0.967407  1
  Se  Se16  1  0.672881  0.054402  0.967407  1
  Se  Se17  1  0.944712  0.944712  0.226655  1
  Se  Se18  1  0.055288  0.055288  0.773345  1
  Se  Se19  1  0.784999  0.784999  0.722775  1
  Se  Se20  1  0.215001  0.215001  0.277225  1
  Se  Se21  1  0.701369  0.701369  0.246316  1
  Se  Se22  1  0.298631  0.298631  0.753684  1
  Se  Se23  1  0.479130  0.479130  0.170470  1
  Se  Se24  1  0.520870  0.520870  0.829530  1
  Se  Se25  1  0.000000  0.000000  0.500000  1
