# generated using pymatgen
data_Sc8Nb9Si16W3
_symmetry_space_group_name_H-M   'P 1'
_cell_length_a   6.64206904
_cell_length_b   6.87669751
_cell_length_c   13.10075000
_cell_angle_alpha   90.00000000
_cell_angle_beta   90.00000000
_cell_angle_gamma   90.05417489
_symmetry_Int_Tables_number   1
_chemical_formula_structural   Sc8Nb9Si16W3
_chemical_formula_sum   'Sc8 Nb9 Si16 W3'
_cell_volume   598.38303438
_cell_formula_units_Z   1
loop_
 _symmetry_equiv_pos_site_id
 _symmetry_equiv_pos_as_xyz
  1  'x, y, z'
loop_
 _atom_site_type_symbol
 _atom_site_label
 _atom_site_symmetry_multiplicity
 _atom_site_fract_x
 _atom_site_fract_y
 _atom_site_fract_z
 _atom_site_occupancy
  Sc  Sc0  1  0.499430  0.325667  0.092926  1
  Sc  Sc1  1  0.999452  0.174395  0.406723  1
  Sc  Sc2  1  0.500247  0.674294  0.593691  1
  Sc  Sc3  1  0.999228  0.826151  0.906452  1
  Sc  Sc4  1  0.500247  0.674294  0.906309  1
  Sc  Sc5  1  0.999228  0.826151  0.593548  1
  Sc  Sc6  1  0.499430  0.325667  0.407074  1
  Sc  Sc7  1  0.999452  0.174395  0.093277  1
  Nb  Nb8  1  0.835008  0.330369  0.625079  1
  Nb  Nb9  1  0.333878  0.170702  0.875392  1
  Nb  Nb10  1  0.165443  0.668851  0.125940  1
  Nb  Nb11  1  0.666490  0.830558  0.373757  1
  Nb  Nb12  1  0.165443  0.668851  0.374060  1
  Nb  Nb13  1  0.666490  0.830558  0.126243  1
  Nb  Nb14  1  0.835008  0.330369  0.874921  1
  Nb  Nb15  1  0.333878  0.170702  0.624608  1
  Nb  Nb16  1  0.659654  0.005764  0.750000  1
  Si  Si17  1  0.669370  0.033839  0.539850  1
  Si  Si18  1  0.169302  0.466170  0.958618  1
  Si  Si19  1  0.330784  0.965526  0.041720  1
  Si  Si20  1  0.830637  0.534340  0.458540  1
  Si  Si21  1  0.330784  0.965526  0.458280  1
  Si  Si22  1  0.830637  0.534340  0.041460  1
  Si  Si23  1  0.669370  0.033839  0.960150  1
  Si  Si24  1  0.169302  0.466170  0.541382  1
  Si  Si25  1  0.532591  0.390331  0.750000  1
  Si  Si26  1  0.037317  0.112249  0.750000  1
  Si  Si27  1  0.466816  0.609782  0.250000  1
  Si  Si28  1  0.967387  0.890666  0.250000  1
  Si  Si29  1  0.796711  0.639515  0.750000  1
  Si  Si30  1  0.291316  0.855072  0.750000  1
  Si  Si31  1  0.204022  0.355775  0.250000  1
  Si  Si32  1  0.704357  0.144744  0.250000  1
  W  W33  1  0.158996  0.494223  0.750000  1
  W  W34  1  0.341149  0.994503  0.250000  1
  W  W35  1  0.841149  0.505655  0.250000  1
