# generated using pymatgen
data_Nd16Cd4Co3Pd
_symmetry_space_group_name_H-M   'P 1'
_cell_length_a   9.85593420
_cell_length_b   9.85382273
_cell_length_c   9.85382300
_cell_angle_alpha   60.00000244
_cell_angle_beta   60.00708897
_cell_angle_gamma   60.00709229
_symmetry_Int_Tables_number   1
_chemical_formula_structural   Nd16Cd4Co3Pd
_chemical_formula_sum   'Nd16 Cd4 Co3 Pd1'
_cell_volume   676.76648666
_cell_formula_units_Z   1
loop_
 _symmetry_equiv_pos_site_id
 _symmetry_equiv_pos_as_xyz
  1  'x, y, z'
loop_
 _atom_site_type_symbol
 _atom_site_label
 _atom_site_symmetry_multiplicity
 _atom_site_fract_x
 _atom_site_fract_y
 _atom_site_fract_z
 _atom_site_occupancy
  Nd  Nd0  1  0.338690  0.351938  0.351938  1
  Nd  Nd1  1  0.338690  0.351938  0.957434  1
  Nd  Nd2  1  0.338690  0.957434  0.351938  1
  Nd  Nd3  1  0.964402  0.345199  0.345199  1
  Nd  Nd4  1  0.820551  0.189565  0.189565  1
  Nd  Nd5  1  0.189739  0.811123  0.811123  1
  Nd  Nd6  1  0.189739  0.811123  0.188015  1
  Nd  Nd7  1  0.820551  0.189565  0.800319  1
  Nd  Nd8  1  0.189739  0.188015  0.811123  1
  Nd  Nd9  1  0.820551  0.800319  0.189565  1
  Nd  Nd10  1  0.935179  0.563236  0.563236  1
  Nd  Nd11  1  0.560617  0.938343  0.938343  1
  Nd  Nd12  1  0.560617  0.938343  0.562696  1
  Nd  Nd13  1  0.935179  0.563236  0.938348  1
  Nd  Nd14  1  0.560617  0.562696  0.938343  1
  Nd  Nd15  1  0.935179  0.938348  0.563236  1
  Cd  Cd16  1  0.579589  0.578995  0.578995  1
  Cd  Cd17  1  0.579589  0.578995  0.262423  1
  Cd  Cd18  1  0.579589  0.262423  0.578995  1
  Cd  Cd19  1  0.260660  0.579780  0.579780  1
  Co  Co20  1  0.141878  0.141132  0.141132  1
  Co  Co21  1  0.141878  0.141132  0.575856  1
  Co  Co22  1  0.141878  0.575856  0.141132  1
  Pd  Pd23  1  0.576210  0.141263  0.141263  1
