# generated using pymatgen
data_Ho2CoOs3
_symmetry_space_group_name_H-M   'P 1'
_cell_length_a   5.30328327
_cell_length_b   5.30328283
_cell_length_c   5.30328240
_cell_angle_alpha   59.14330699
_cell_angle_beta   59.14330905
_cell_angle_gamma   59.14332139
_symmetry_Int_Tables_number   1
_chemical_formula_structural   Ho2CoOs3
_chemical_formula_sum   'Ho2 Co1 Os3'
_cell_volume   103.40841715
_cell_formula_units_Z   1
loop_
 _symmetry_equiv_pos_site_id
 _symmetry_equiv_pos_as_xyz
  1  'x, y, z'
loop_
 _atom_site_type_symbol
 _atom_site_label
 _atom_site_symmetry_multiplicity
 _atom_site_fract_x
 _atom_site_fract_y
 _atom_site_fract_z
 _atom_site_occupancy
  Ho  Ho0  1  0.249229  0.249229  0.249229  1
  Ho  Ho1  1  0.000771  0.000771  0.000771  1
  Co  Co2  1  0.625000  0.625000  0.625000  1
  Os  Os3  1  0.625000  0.625000  0.125000  1
  Os  Os4  1  0.625000  0.125000  0.625000  1
  Os  Os5  1  0.125000  0.625000  0.625000  1
