# generated using pymatgen
data_Ho11Er6Tm3Pb16
_symmetry_space_group_name_H-M   'P 1'
_cell_length_a   8.16240302
_cell_length_b   8.23223932
_cell_length_c   15.56440300
_cell_angle_alpha   90.00241153
_cell_angle_beta   89.99977348
_cell_angle_gamma   90.02011577
_symmetry_Int_Tables_number   1
_chemical_formula_structural   Ho11Er6Tm3Pb16
_chemical_formula_sum   'Ho11 Er6 Tm3 Pb16'
_cell_volume   1045.84773879
_cell_formula_units_Z   1
loop_
 _symmetry_equiv_pos_site_id
 _symmetry_equiv_pos_as_xyz
  1  'x, y, z'
loop_
 _atom_site_type_symbol
 _atom_site_label
 _atom_site_symmetry_multiplicity
 _atom_site_fract_x
 _atom_site_fract_y
 _atom_site_fract_z
 _atom_site_occupancy
  Ho  Ho0  1  0.122724  0.341039  0.378952  1
  Ho  Ho1  1  0.377375  0.841114  0.620999  1
  Ho  Ho2  1  0.877133  0.659053  0.879027  1
  Ho  Ho3  1  0.536883  0.323250  0.900173  1
  Ho  Ho4  1  0.036735  0.176561  0.599886  1
  Ho  Ho5  1  0.463198  0.676671  0.400086  1
  Ho  Ho6  1  0.963169  0.823371  0.099885  1
  Ho  Ho7  1  0.463150  0.676645  0.099869  1
  Ho  Ho8  1  0.963168  0.823396  0.400156  1
  Ho  Ho9  1  0.536892  0.323330  0.599840  1
  Ho  Ho10  1  0.036784  0.176534  0.900144  1
  Er  Er11  1  0.377279  0.841162  0.878968  1
  Er  Er12  1  0.877070  0.659016  0.620973  1
  Er  Er13  1  0.622774  0.158914  0.379000  1
  Er  Er14  1  0.122783  0.341118  0.121024  1
  Er  Er15  1  0.622752  0.158933  0.121072  1
  Er  Er16  1  0.208686  0.504169  0.749994  1
  Tm  Tm17  1  0.708684  0.995707  0.749996  1
  Tm  Tm18  1  0.791296  0.495635  0.249975  1
  Tm  Tm19  1  0.291391  0.004293  0.249958  1
  Pb  Pb20  1  0.280838  0.032579  0.042657  1
  Pb  Pb21  1  0.780670  0.467488  0.457356  1
  Pb  Pb22  1  0.719317  0.967474  0.542591  1
  Pb  Pb23  1  0.219367  0.532550  0.957563  1
  Pb  Pb24  1  0.719041  0.967610  0.957418  1
  Pb  Pb25  1  0.219120  0.532547  0.542546  1
  Pb  Pb26  1  0.280863  0.032517  0.457250  1
  Pb  Pb27  1  0.780785  0.467314  0.042783  1
  Pb  Pb28  1  0.571823  0.626801  0.750020  1
  Pb  Pb29  1  0.071370  0.873594  0.749985  1
  Pb  Pb30  1  0.428640  0.373259  0.249962  1
  Pb  Pb31  1  0.928467  0.126640  0.249939  1
  Pb  Pb32  1  0.348449  0.153718  0.750031  1
  Pb  Pb33  1  0.848234  0.345765  0.749962  1
  Pb  Pb34  1  0.651552  0.845975  0.249995  1
  Pb  Pb35  1  0.151541  0.654257  0.249964  1
