# generated using pymatgen
data_LaYb2Pr(CuSn)4
_symmetry_space_group_name_H-M   'P 1'
_cell_length_a   4.61822500
_cell_length_b   7.53350925
_cell_length_c   7.84210047
_cell_angle_alpha   90.36777412
_cell_angle_beta   90.00000000
_cell_angle_gamma   90.00000000
_symmetry_Int_Tables_number   1
_chemical_formula_structural   LaYb2Pr(CuSn)4
_chemical_formula_sum   'La1 Yb2 Pr1 Cu4 Sn4'
_cell_volume   272.83235310
_cell_formula_units_Z   1
loop_
 _symmetry_equiv_pos_site_id
 _symmetry_equiv_pos_as_xyz
  1  'x, y, z'
loop_
 _atom_site_type_symbol
 _atom_site_label
 _atom_site_symmetry_multiplicity
 _atom_site_fract_x
 _atom_site_fract_y
 _atom_site_fract_z
 _atom_site_occupancy
  La  La0  1  0.250000  0.508563  0.211090  1
  Yb  Yb1  1  0.750000  0.989919  0.708261  1
  Yb  Yb2  1  0.250000  0.009816  0.292106  1
  Pr  Pr3  1  0.750000  0.491474  0.786533  1
  Cu  Cu4  1  0.250000  0.821579  0.916387  1
  Cu  Cu5  1  0.750000  0.180234  0.083053  1
  Cu  Cu6  1  0.750000  0.699783  0.420602  1
  Cu  Cu7  1  0.250000  0.299145  0.580346  1
  Sn  Sn8  1  0.250000  0.703467  0.592250  1
  Sn  Sn9  1  0.750000  0.295273  0.410798  1
  Sn  Sn10  1  0.750000  0.804229  0.089463  1
  Sn  Sn11  1  0.250000  0.196517  0.909111  1
