# generated using pymatgen
data_SmEr3Mo4F28
_symmetry_space_group_name_H-M   'P 1'
_cell_length_a   5.71392339
_cell_length_b   9.04232273
_cell_length_c   12.14451500
_cell_angle_alpha   62.36940257
_cell_angle_beta   89.97882214
_cell_angle_gamma   90.02063744
_symmetry_Int_Tables_number   1
_chemical_formula_structural   SmEr3Mo4F28
_chemical_formula_sum   'Sm1 Er3 Mo4 F28'
_cell_volume   555.91277961
_cell_formula_units_Z   1
loop_
 _symmetry_equiv_pos_site_id
 _symmetry_equiv_pos_as_xyz
  1  'x, y, z'
loop_
 _atom_site_type_symbol
 _atom_site_label
 _atom_site_symmetry_multiplicity
 _atom_site_fract_x
 _atom_site_fract_y
 _atom_site_fract_z
 _atom_site_occupancy
  Sm  Sm0  1  0.753388  0.815374  0.767857  1
  Er  Er1  1  0.747445  0.816136  0.268158  1
  Er  Er2  1  0.248281  0.185428  0.231991  1
  Er  Er3  1  0.253128  0.189656  0.731178  1
  Mo  Mo4  1  0.743621  0.275690  0.452759  1
  Mo  Mo5  1  0.244599  0.726430  0.049198  1
  Mo  Mo6  1  0.254628  0.726422  0.541716  1
  Mo  Mo7  1  0.755496  0.269796  0.956262  1
  F  F8  1  0.465037  0.707443  0.924028  1
  F  F9  1  0.970574  0.291516  0.577152  1
  F  F10  1  0.528504  0.289443  0.078379  1
  F  F11  1  0.030045  0.707408  0.420254  1
  F  F12  1  0.460765  0.282053  0.547531  1
  F  F13  1  0.962784  0.716178  0.956529  1
  F  F14  1  0.543550  0.719446  0.449267  1
  F  F15  1  0.039825  0.278886  0.050122  1
  F  F16  1  0.771398  0.515510  0.860170  1
  F  F17  1  0.267787  0.479144  0.639319  1
  F  F18  1  0.231821  0.479142  0.143267  1
  F  F19  1  0.731302  0.522021  0.357392  1
  F  F20  1  0.759501  0.024459  0.054613  1
  F  F21  1  0.259912  0.972399  0.444993  1
  F  F22  1  0.238711  0.971050  0.948129  1
  F  F23  1  0.737819  0.030287  0.550425  1
  F  F24  1  0.981657  0.732511  0.641356  1
  F  F25  1  0.483593  0.265537  0.855291  1
  F  F26  1  0.011975  0.264983  0.352466  1
  F  F27  1  0.513502  0.735835  0.149025  1
  F  F28  1  0.028013  0.747718  0.175990  1
  F  F29  1  0.524181  0.254269  0.326844  1
  F  F30  1  0.973760  0.250478  0.829432  1
  F  F31  1  0.465794  0.744547  0.668965  1
  F  F32  1  0.434909  0.975293  0.235871  1
  F  F33  1  0.935292  0.025526  0.264544  1
  F  F34  1  0.567331  0.035561  0.764998  1
  F  F35  1  0.080074  0.976421  0.734526  1
