# generated using pymatgen
data_Dy3Mg2ScPt3
_symmetry_space_group_name_H-M   'P 1'
_cell_length_a   7.32440100
_cell_length_b   7.40498513
_cell_length_c   4.17568200
_cell_angle_alpha   90.00000000
_cell_angle_beta   90.00000000
_cell_angle_gamma   119.64065632
_symmetry_Int_Tables_number   1
_chemical_formula_structural   Dy3Mg2ScPt3
_chemical_formula_sum   'Dy3 Mg2 Sc1 Pt3'
_cell_volume   196.84100156
_cell_formula_units_Z   1
loop_
 _symmetry_equiv_pos_site_id
 _symmetry_equiv_pos_as_xyz
  1  'x, y, z'
loop_
 _atom_site_type_symbol
 _atom_site_label
 _atom_site_symmetry_multiplicity
 _atom_site_fract_x
 _atom_site_fract_y
 _atom_site_fract_z
 _atom_site_occupancy
  Dy  Dy0  1  0.397331  0.000000  0.500001  1
  Dy  Dy1  1  0.007689  0.421545  0.500001  1
  Dy  Dy2  1  0.586144  0.578456  0.500001  1
  Mg  Mg3  1  0.248949  0.248139  0.000000  1
  Mg  Mg4  1  0.000810  0.751862  0.000000  1
  Sc  Sc5  1  0.758032  0.000000  0.000000  1
  Pt  Pt6  1  0.668125  0.325051  0.000000  1
  Pt  Pt7  1  0.343073  0.674949  0.000000  1
  Pt  Pt8  1  0.989848  0.000000  0.500001  1
