# generated using pymatgen
data_Dy2Y3Cr3(P3Ir4)4
_symmetry_space_group_name_H-M   'P 1'
_cell_length_a   12.64641400
_cell_length_b   12.64641418
_cell_length_c   3.96245600
_cell_angle_alpha   90.00000000
_cell_angle_beta   90.00000000
_cell_angle_gamma   119.99999953
_symmetry_Int_Tables_number   1
_chemical_formula_structural   Dy2Y3Cr3(P3Ir4)4
_chemical_formula_sum   'Dy2 Y3 Cr3 P12 Ir16'
_cell_volume   548.81994099
_cell_formula_units_Z   1
loop_
 _symmetry_equiv_pos_site_id
 _symmetry_equiv_pos_as_xyz
  1  'x, y, z'
loop_
 _atom_site_type_symbol
 _atom_site_label
 _atom_site_symmetry_multiplicity
 _atom_site_fract_x
 _atom_site_fract_y
 _atom_site_fract_z
 _atom_site_occupancy
  Dy  Dy0  1  0.333333  0.666667  0.500000  1
  Dy  Dy1  1  0.666667  0.333333  0.500000  1
  Y  Y2  1  0.000000  0.810644  0.000000  1
  Y  Y3  1  0.189356  0.189356  0.000000  1
  Y  Y4  1  0.810644  0.000000  0.000000  1
  Cr  Cr5  1  0.000000  0.453407  0.500000  1
  Cr  Cr6  1  0.546593  0.546593  0.500000  1
  Cr  Cr7  1  0.453407  0.000000  0.500000  1
  P  P8  1  0.000000  0.632180  0.500000  1
  P  P9  1  0.367820  0.367820  0.500000  1
  P  P10  1  0.632180  0.000000  0.500000  1
  P  P11  1  0.516283  0.684218  0.000000  1
  P  P12  1  0.315782  0.832065  0.000000  1
  P  P13  1  0.167935  0.483717  0.000000  1
  P  P14  1  0.483717  0.167935  0.000000  1
  P  P15  1  0.684218  0.516283  0.000000  1
  P  P16  1  0.832065  0.315782  0.000000  1
  P  P17  1  0.000000  0.177708  0.500000  1
  P  P18  1  0.822292  0.822292  0.500000  1
  P  P19  1  0.177708  0.000000  0.500000  1
  Ir  Ir20  1  0.509315  0.868573  0.000000  1
  Ir  Ir21  1  0.131427  0.640743  0.000000  1
  Ir  Ir22  1  0.359257  0.490685  0.000000  1
  Ir  Ir23  1  0.490685  0.359257  0.000000  1
  Ir  Ir24  1  0.868573  0.509315  0.000000  1
  Ir  Ir25  1  0.640743  0.131427  0.000000  1
  Ir  Ir26  1  0.000000  0.287372  0.000000  1
  Ir  Ir27  1  0.712628  0.712628  0.000000  1
  Ir  Ir28  1  0.287372  0.000000  0.000000  1
  Ir  Ir29  1  0.623587  0.802552  0.500000  1
  Ir  Ir30  1  0.197448  0.821035  0.500000  1
  Ir  Ir31  1  0.178965  0.376413  0.500000  1
  Ir  Ir32  1  0.376413  0.178965  0.500000  1
  Ir  Ir33  1  0.802552  0.623587  0.500000  1
  Ir  Ir34  1  0.821035  0.197448  0.500000  1
  Ir  Ir35  1  0.000000  0.000000  0.500000  1
