# generated using pymatgen
data_SrThPt10
_symmetry_space_group_name_H-M   'P 1'
_cell_length_a   4.45380400
_cell_length_b   5.46932200
_cell_length_c   9.40381600
_cell_angle_alpha   90.00000000
_cell_angle_beta   90.00000000
_cell_angle_gamma   90.00000000
_symmetry_Int_Tables_number   1
_chemical_formula_structural   SrThPt10
_chemical_formula_sum   'Sr1 Th1 Pt10'
_cell_volume   229.07026413
_cell_formula_units_Z   1
loop_
 _symmetry_equiv_pos_site_id
 _symmetry_equiv_pos_as_xyz
  1  'x, y, z'
loop_
 _atom_site_type_symbol
 _atom_site_label
 _atom_site_symmetry_multiplicity
 _atom_site_fract_x
 _atom_site_fract_y
 _atom_site_fract_z
 _atom_site_occupancy
  Sr  Sr0  1  0.000000  0.500000  0.500000  1
  Th  Th1  1  0.000000  0.000000  0.000000  1
  Pt  Pt2  1  0.000000  0.000000  0.326236  1
  Pt  Pt3  1  0.000000  0.500000  0.837568  1
  Pt  Pt4  1  0.000000  0.500000  0.162432  1
  Pt  Pt5  1  0.000000  0.000000  0.673764  1
  Pt  Pt6  1  0.500000  0.000000  0.500000  1
  Pt  Pt7  1  0.500000  0.500000  0.000000  1
  Pt  Pt8  1  0.500000  0.245088  0.243063  1
  Pt  Pt9  1  0.500000  0.754912  0.756937  1
  Pt  Pt10  1  0.500000  0.754912  0.243063  1
  Pt  Pt11  1  0.500000  0.245088  0.756937  1
