# generated using pymatgen
data_ErTm7ReTc3C8
_symmetry_space_group_name_H-M   'P 1'
_cell_length_a   5.01883800
_cell_length_b   6.50828501
_cell_length_c   9.75087504
_cell_angle_alpha   90.02916795
_cell_angle_beta   90.00000000
_cell_angle_gamma   90.00000000
_symmetry_Int_Tables_number   1
_chemical_formula_structural   ErTm7ReTc3C8
_chemical_formula_sum   'Er1 Tm7 Re1 Tc3 C8'
_cell_volume   318.50281501
_cell_formula_units_Z   1
loop_
 _symmetry_equiv_pos_site_id
 _symmetry_equiv_pos_as_xyz
  1  'x, y, z'
loop_
 _atom_site_type_symbol
 _atom_site_label
 _atom_site_symmetry_multiplicity
 _atom_site_fract_x
 _atom_site_fract_y
 _atom_site_fract_z
 _atom_site_occupancy
  Er  Er0  1  0.750000  0.033854  0.716846  1
  Tm  Tm1  1  0.750000  0.533655  0.782998  1
  Tm  Tm2  1  0.250000  0.965601  0.282821  1
  Tm  Tm3  1  0.750000  0.675506  0.441700  1
  Tm  Tm4  1  0.250000  0.823688  0.941503  1
  Tm  Tm5  1  0.750000  0.177045  0.059070  1
  Tm  Tm6  1  0.250000  0.324354  0.558743  1
  Tm  Tm7  1  0.250000  0.465150  0.217567  1
  Re  Re8  1  0.750000  0.716174  0.131447  1
  Tc  Tc9  1  0.250000  0.283688  0.868857  1
  Tc  Tc10  1  0.250000  0.783696  0.631413  1
  Tc  Tc11  1  0.750000  0.217129  0.368768  1
  C  C12  1  0.250000  0.674795  0.447345  1
  C  C13  1  0.250000  0.550909  0.758726  1
  C  C14  1  0.750000  0.450218  0.240384  1
  C  C15  1  0.750000  0.824391  0.946638  1
  C  C16  1  0.250000  0.050773  0.741701  1
  C  C17  1  0.250000  0.174491  0.052787  1
  C  C18  1  0.750000  0.325951  0.552417  1
  C  C19  1  0.750000  0.948933  0.258268  1
