# generated using pymatgen
data_DyYGa5Co3
_symmetry_space_group_name_H-M   'P 1'
_cell_length_a   8.31343711
_cell_length_b   8.31343606
_cell_length_c   5.50771634
_cell_angle_alpha   70.64630257
_cell_angle_beta   70.64630038
_cell_angle_gamma   96.51826203
_symmetry_Int_Tables_number   1
_chemical_formula_structural   DyYGa5Co3
_chemical_formula_sum   'Dy2 Y2 Ga10 Co6'
_cell_volume   328.01161882
_cell_formula_units_Z   2
loop_
 _symmetry_equiv_pos_site_id
 _symmetry_equiv_pos_as_xyz
  1  'x, y, z'
loop_
 _atom_site_type_symbol
 _atom_site_label
 _atom_site_symmetry_multiplicity
 _atom_site_fract_x
 _atom_site_fract_y
 _atom_site_fract_z
 _atom_site_occupancy
  Dy  Dy0  1  0.131506  0.422055  0.222387  1
  Dy  Dy1  1  0.577945  0.868494  0.277613  1
  Y  Y2  1  0.421467  0.131425  0.722708  1
  Y  Y3  1  0.868575  0.578533  0.777292  1
  Ga  Ga4  1  0.500494  0.499506  0.750000  1
  Ga  Ga5  1  0.500011  0.499989  0.250000  1
  Ga  Ga6  1  0.796870  0.203130  0.750000  1
  Ga  Ga7  1  0.203387  0.796613  0.250000  1
  Ga  Ga8  1  0.098014  0.263885  0.818340  1
  Ga  Ga9  1  0.736115  0.901986  0.681660  1
  Ga  Ga10  1  0.796998  0.203002  0.250000  1
  Ga  Ga11  1  0.202808  0.797192  0.750000  1
  Ga  Ga12  1  0.263664  0.098461  0.318634  1
  Ga  Ga13  1  0.901539  0.736336  0.181366  1
  Co  Co14  1  0.999950  0.000050  0.750000  1
  Co  Co15  1  0.000117  0.999883  0.250000  1
  Co  Co16  1  0.265870  0.566094  0.584587  1
  Co  Co17  1  0.566063  0.265298  0.084669  1
  Co  Co18  1  0.734702  0.433937  0.415331  1
  Co  Co19  1  0.433906  0.734130  0.915413  1
