# generated using pymatgen
data_Ca2La7TbSi8O3
_symmetry_space_group_name_H-M   'P 1'
_cell_length_a   10.75885275
_cell_length_b   10.81134079
_cell_length_c   4.58996900
_cell_angle_alpha   90.00000000
_cell_angle_beta   90.00000000
_cell_angle_gamma   120.16151351
_symmetry_Int_Tables_number   1
_chemical_formula_structural   Ca2La7TbSi8O3
_chemical_formula_sum   'Ca2 La7 Tb1 Si8 O3'
_cell_volume   461.61167016
_cell_formula_units_Z   1
loop_
 _symmetry_equiv_pos_site_id
 _symmetry_equiv_pos_as_xyz
  1  'x, y, z'
loop_
 _atom_site_type_symbol
 _atom_site_label
 _atom_site_symmetry_multiplicity
 _atom_site_fract_x
 _atom_site_fract_y
 _atom_site_fract_z
 _atom_site_occupancy
  Ca  Ca0  1  0.500000  0.500000  0.500000  1
  Ca  Ca1  1  0.500000  0.000000  0.500000  1
  La  La2  1  0.217657  0.793230  0.000000  1
  La  La3  1  0.573301  0.786650  0.000000  1
  La  La4  1  0.782343  0.575574  0.000000  1
  La  La5  1  0.000000  0.000000  0.000000  1
  La  La6  1  0.217657  0.424426  0.000000  1
  La  La7  1  0.426699  0.213350  0.000000  1
  La  La8  1  0.782343  0.206770  0.000000  1
  Tb  Tb9  1  0.000000  0.500000  0.500000  1
  Si  Si10  1  0.000000  0.777725  0.500000  1
  Si  Si11  1  0.000000  0.222275  0.500000  1
  Si  Si12  1  0.218764  0.218719  0.500000  1
  Si  Si13  1  0.781236  0.999954  0.500000  1
  Si  Si14  1  0.327125  0.663563  0.500000  1
  Si  Si15  1  0.218764  0.000046  0.500000  1
  Si  Si16  1  0.672875  0.336437  0.500000  1
  Si  Si17  1  0.781236  0.781281  0.500000  1
  O  O18  1  0.000000  0.500000  0.000000  1
  O  O19  1  0.500000  0.500000  0.000000  1
  O  O20  1  0.500000  0.000000  0.000000  1
