# generated using pymatgen
data_Cs8Nb3AsBr24
_symmetry_space_group_name_H-M   'P 1'
_cell_length_a   13.26785529
_cell_length_b   13.26785576
_cell_length_c   13.27992700
_cell_angle_alpha   131.43262481
_cell_angle_beta   131.43262086
_cell_angle_gamma   71.06091358
_symmetry_Int_Tables_number   1
_chemical_formula_structural   Cs8Nb3AsBr24
_chemical_formula_sum   'Cs8 Nb3 As1 Br24'
_cell_volume   1287.06267338
_cell_formula_units_Z   1
loop_
 _symmetry_equiv_pos_site_id
 _symmetry_equiv_pos_as_xyz
  1  'x, y, z'
loop_
 _atom_site_type_symbol
 _atom_site_label
 _atom_site_symmetry_multiplicity
 _atom_site_fract_x
 _atom_site_fract_y
 _atom_site_fract_z
 _atom_site_occupancy
  Cs  Cs0  1  0.119368  0.637881  0.000200  1
  Cs  Cs1  1  0.362119  0.880632  0.999800  1
  Cs  Cs2  1  0.637812  0.637946  0.518559  1
  Cs  Cs3  1  0.362054  0.362188  0.481441  1
  Cs  Cs4  1  0.880792  0.362258  0.000069  1
  Cs  Cs5  1  0.880792  0.880650  0.518665  1
  Cs  Cs6  1  0.119350  0.119208  0.481335  1
  Cs  Cs7  1  0.637742  0.119208  0.999931  1
  Nb  Nb8  1  0.749978  0.250022  0.500000  1
  Nb  Nb9  1  0.499995  0.500005  0.000000  1
  Nb  Nb10  1  0.249972  0.750028  0.500000  1
  As  As11  1  0.999996  0.000004  0.000000  1
  Br  Br12  1  0.244872  0.999686  0.244841  1
  Br  Br13  1  0.000314  0.755128  0.755159  1
  Br  Br14  1  0.251700  0.988389  0.736129  1
  Br  Br15  1  0.747902  0.485127  0.736750  1
  Br  Br16  1  0.484402  0.747764  0.736096  1
  Br  Br17  1  0.123812  0.123811  0.000022  1
  Br  Br18  1  0.499661  0.736228  0.236200  1
  Br  Br19  1  0.869417  0.369404  0.500116  1
  Br  Br20  1  0.999957  0.245143  0.244848  1
  Br  Br21  1  0.380433  0.380388  0.999974  1
  Br  Br22  1  0.619612  0.619567  0.000026  1
  Br  Br23  1  0.500111  0.263407  0.763815  1
  Br  Br24  1  0.263772  0.500339  0.763800  1
  Br  Br25  1  0.514873  0.252098  0.263250  1
  Br  Br26  1  0.369321  0.869298  0.500112  1
  Br  Br27  1  0.630596  0.130583  0.499884  1
  Br  Br28  1  0.252236  0.515598  0.263904  1
  Br  Br29  1  0.130702  0.630679  0.499888  1
  Br  Br30  1  0.011611  0.748300  0.263871  1
  Br  Br31  1  0.988847  0.251757  0.736811  1
  Br  Br32  1  0.754857  0.000043  0.755152  1
  Br  Br33  1  0.736593  0.499889  0.236185  1
  Br  Br34  1  0.748243  0.011153  0.263189  1
  Br  Br35  1  0.876189  0.876188  0.999978  1
