# generated using pymatgen
data_Pr5NdOsI10
_symmetry_space_group_name_H-M   'P 1'
_cell_length_a   8.05361237
_cell_length_b   10.08297915
_cell_length_c   10.10959456
_cell_angle_alpha   107.48454486
_cell_angle_beta   97.20153903
_cell_angle_gamma   105.36821602
_symmetry_Int_Tables_number   1
_chemical_formula_structural   Pr5NdOsI10
_chemical_formula_sum   'Pr5 Nd1 Os1 I10'
_cell_volume   736.02331229
_cell_formula_units_Z   1
loop_
 _symmetry_equiv_pos_site_id
 _symmetry_equiv_pos_as_xyz
  1  'x, y, z'
loop_
 _atom_site_type_symbol
 _atom_site_label
 _atom_site_symmetry_multiplicity
 _atom_site_fract_x
 _atom_site_fract_y
 _atom_site_fract_z
 _atom_site_occupancy
  Pr  Pr0  1  0.469320  0.783825  0.583888  1
  Pr  Pr1  1  0.144433  0.369156  0.328817  1
  Pr  Pr2  1  0.855672  0.630338  0.671144  1
  Pr  Pr3  1  0.616433  0.542324  0.256909  1
  Pr  Pr4  1  0.383433  0.457269  0.742929  1
  Nd  Nd5  1  0.530265  0.217292  0.416255  1
  Os  Os6  1  0.499922  0.499687  0.499905  1
  I  I7  1  0.148123  0.045153  0.226741  1
  I  I8  1  0.854098  0.955237  0.774143  1
  I  I9  1  0.237046  0.410576  0.039046  1
  I  I10  1  0.762858  0.589411  0.960984  1
  I  I11  1  0.706787  0.238514  0.151628  1
  I  I12  1  0.292259  0.760944  0.849635  1
  I  I13  1  0.047333  0.682472  0.409620  1
  I  I14  1  0.951370  0.317034  0.589728  1
  I  I15  1  0.413763  0.131380  0.678221  1
  I  I16  1  0.586884  0.869388  0.320407  1
