# generated using pymatgen
data_Er4Cd2Cu3Ni
_symmetry_space_group_name_H-M   'P 1'
_cell_length_a   7.45938717
_cell_length_b   7.45938717
_cell_length_c   3.66114000
_cell_angle_alpha   90.00000000
_cell_angle_beta   90.00000000
_cell_angle_gamma   90.82040250
_symmetry_Int_Tables_number   1
_chemical_formula_structural   Er4Cd2Cu3Ni
_chemical_formula_sum   'Er4 Cd2 Cu3 Ni1'
_cell_volume   203.69394180
_cell_formula_units_Z   1
loop_
 _symmetry_equiv_pos_site_id
 _symmetry_equiv_pos_as_xyz
  1  'x, y, z'
loop_
 _atom_site_type_symbol
 _atom_site_label
 _atom_site_symmetry_multiplicity
 _atom_site_fract_x
 _atom_site_fract_y
 _atom_site_fract_z
 _atom_site_occupancy
  Er  Er0  1  0.670854  0.170854  0.500000  1
  Er  Er1  1  0.317798  0.817798  0.500000  1
  Er  Er2  1  0.176241  0.339378  0.500000  1
  Er  Er3  1  0.839378  0.676241  0.500000  1
  Cd  Cd4  1  0.000505  0.003339  0.000000  1
  Cd  Cd5  1  0.503339  0.500505  0.000000  1
  Cu  Cu6  1  0.878620  0.378620  0.000000  1
  Cu  Cu7  1  0.617544  0.876416  0.000000  1
  Cu  Cu8  1  0.376416  0.117544  0.000000  1
  Ni  Ni9  1  0.119303  0.619303  0.000000  1
