# generated using pymatgen
data_CaY3(OsO4)4
_symmetry_space_group_name_H-M   'P 1'
_cell_length_a   5.39541526
_cell_length_b   7.75112305
_cell_length_c   7.45241352
_cell_angle_alpha   79.18020755
_cell_angle_beta   91.16966379
_cell_angle_gamma   94.06374592
_symmetry_Int_Tables_number   1
_chemical_formula_structural   CaY3(OsO4)4
_chemical_formula_sum   'Ca1 Y3 Os4 O16'
_cell_volume   305.34556058
_cell_formula_units_Z   1
loop_
 _symmetry_equiv_pos_site_id
 _symmetry_equiv_pos_as_xyz
  1  'x, y, z'
loop_
 _atom_site_type_symbol
 _atom_site_label
 _atom_site_symmetry_multiplicity
 _atom_site_fract_x
 _atom_site_fract_y
 _atom_site_fract_z
 _atom_site_occupancy
  Ca  Ca0  1  0.258560  0.119975  0.607990  1
  Y  Y1  1  0.736409  0.886282  0.391522  1
  Y  Y2  1  0.188893  0.169463  0.101127  1
  Y  Y3  1  0.803812  0.831445  0.895566  1
  Os  Os4  1  0.247188  0.662730  0.207298  1
  Os  Os5  1  0.750997  0.335501  0.793738  1
  Os  Os6  1  0.716261  0.334067  0.298450  1
  Os  Os7  1  0.282364  0.666079  0.701767  1
  O  O8  1  0.050739  0.469394  0.717339  1
  O  O9  1  0.950770  0.529289  0.287015  1
  O  O10  1  0.639856  0.328388  0.548996  1
  O  O11  1  0.378591  0.671172  0.450925  1
  O  O12  1  0.845305  0.331070  0.051234  1
  O  O13  1  0.160922  0.680848  0.947941  1
  O  O14  1  0.410317  0.441849  0.199549  1
  O  O15  1  0.585781  0.556741  0.800451  1
  O  O16  1  0.053853  0.882314  0.180080  1
  O  O17  1  0.940679  0.115800  0.830759  1
  O  O18  1  0.497843  0.114875  0.310525  1
  O  O19  1  0.507753  0.884695  0.676455  1
  O  O20  1  0.456186  0.201961  0.873839  1
  O  O21  1  0.551075  0.799207  0.133640  1
  O  O22  1  0.971291  0.161171  0.372728  1
  O  O23  1  0.014554  0.825686  0.621063  1
