# generated using pymatgen
data_Ce3Nd13Mg2(Co2Hg)2
_symmetry_space_group_name_H-M   'P 1'
_cell_length_a   9.73004714
_cell_length_b   9.77749106
_cell_length_c   9.87796400
_cell_angle_alpha   59.65948834
_cell_angle_beta   59.49583240
_cell_angle_gamma   60.46270730
_symmetry_Int_Tables_number   1
_chemical_formula_structural   Ce3Nd13Mg2(Co2Hg)2
_chemical_formula_sum   'Ce3 Nd13 Mg2 Co4 Hg2'
_cell_volume   662.47085182
_cell_formula_units_Z   1
loop_
 _symmetry_equiv_pos_site_id
 _symmetry_equiv_pos_as_xyz
  1  'x, y, z'
loop_
 _atom_site_type_symbol
 _atom_site_label
 _atom_site_symmetry_multiplicity
 _atom_site_fract_x
 _atom_site_fract_y
 _atom_site_fract_z
 _atom_site_occupancy
  Ce  Ce0  1  0.582266  0.589483  0.595865  1
  Ce  Ce1  1  0.582266  0.589483  0.232386  1
  Ce  Ce2  1  0.594235  0.226397  0.589684  1
  Nd  Nd3  1  0.205429  0.600429  0.597070  1
  Nd  Nd4  1  0.191585  0.810180  0.815669  1
  Nd  Nd5  1  0.805884  0.191472  0.190016  1
  Nd  Nd6  1  0.805884  0.191472  0.812628  1
  Nd  Nd7  1  0.191585  0.810180  0.182565  1
  Nd  Nd8  1  0.803624  0.809798  0.193289  1
  Nd  Nd9  1  0.187468  0.185662  0.813435  1
  Nd  Nd10  1  0.057309  0.437646  0.439932  1
  Nd  Nd11  1  0.438310  0.060023  0.059710  1
  Nd  Nd12  1  0.438310  0.060023  0.441956  1
  Nd  Nd13  1  0.057309  0.437646  0.065114  1
  Nd  Nd14  1  0.439702  0.437961  0.061169  1
  Nd  Nd15  1  0.052457  0.053658  0.446943  1
  Mg  Mg16  1  0.827558  0.525309  0.823567  1
  Mg  Mg17  1  0.526152  0.834329  0.819760  1
  Co  Co18  1  0.416762  0.393237  0.382133  1
  Co  Co19  1  0.416762  0.393237  0.807868  1
  Co  Co20  1  0.415575  0.809207  0.387609  1
  Co  Co21  1  0.804161  0.392545  0.401647  1
  Hg  Hg22  1  0.829703  0.830312  0.839365  1
  Hg  Hg23  1  0.829703  0.830312  0.500621  1
