# generated using pymatgen
data_Tm4AlOs7
_symmetry_space_group_name_H-M   'P 1'
_cell_length_a   5.34482700
_cell_length_b   5.34482765
_cell_length_c   8.62436900
_cell_angle_alpha   90.00000000
_cell_angle_beta   90.00000000
_cell_angle_gamma   119.99998979
_symmetry_Int_Tables_number   1
_chemical_formula_structural   Tm4AlOs7
_chemical_formula_sum   'Tm4 Al1 Os7'
_cell_volume   213.36607311
_cell_formula_units_Z   1
loop_
 _symmetry_equiv_pos_site_id
 _symmetry_equiv_pos_as_xyz
  1  'x, y, z'
loop_
 _atom_site_type_symbol
 _atom_site_label
 _atom_site_symmetry_multiplicity
 _atom_site_fract_x
 _atom_site_fract_y
 _atom_site_fract_z
 _atom_site_occupancy
  Tm  Tm0  1  0.333333  0.666667  0.429915  1
  Tm  Tm1  1  0.666667  0.333333  0.570085  1
  Tm  Tm2  1  0.666667  0.333333  0.935324  1
  Tm  Tm3  1  0.333333  0.666667  0.064676  1
  Al  Al4  1  0.000000  0.000000  0.500000  1
  Os  Os5  1  0.000000  0.000000  0.000000  1
  Os  Os6  1  0.828452  0.171548  0.250831  1
  Os  Os7  1  0.828452  0.656904  0.250831  1
  Os  Os8  1  0.343096  0.171548  0.250831  1
  Os  Os9  1  0.171548  0.828452  0.749169  1
  Os  Os10  1  0.171548  0.343096  0.749169  1
  Os  Os11  1  0.656904  0.828452  0.749169  1
