# generated using pymatgen
data_Eu10CoRe3N14
_symmetry_space_group_name_H-M   'P 1'
_cell_length_a   6.27640272
_cell_length_b   8.91896736
_cell_length_c   9.14039900
_cell_angle_alpha   113.89819709
_cell_angle_beta   98.63486345
_cell_angle_gamma   89.68268266
_symmetry_Int_Tables_number   1
_chemical_formula_structural   Eu10CoRe3N14
_chemical_formula_sum   'Eu10 Co1 Re3 N14'
_cell_volume   461.63515076
_cell_formula_units_Z   1
loop_
 _symmetry_equiv_pos_site_id
 _symmetry_equiv_pos_as_xyz
  1  'x, y, z'
loop_
 _atom_site_type_symbol
 _atom_site_label
 _atom_site_symmetry_multiplicity
 _atom_site_fract_x
 _atom_site_fract_y
 _atom_site_fract_z
 _atom_site_occupancy
  Eu  Eu0  1  0.861806  0.575753  0.338804  1
  Eu  Eu1  1  0.261732  0.983464  0.557403  1
  Eu  Eu2  1  0.684669  0.398156  0.831869  1
  Eu  Eu3  1  0.298075  0.586657  0.143241  1
  Eu  Eu4  1  0.394635  0.789201  0.912966  1
  Eu  Eu5  1  0.611508  0.213433  0.107240  1
  Eu  Eu6  1  0.138854  0.404285  0.650540  1
  Eu  Eu7  1  0.874981  0.837027  0.754221  1
  Eu  Eu8  1  0.145530  0.166864  0.259316  1
  Eu  Eu9  1  0.727784  0.047209  0.439430  1
  Co  Co10  1  0.589868  0.367991  0.476465  1
  Re  Re11  1  0.424680  0.632748  0.521070  1
  Re  Re12  1  0.117992  0.216872  0.915472  1
  Re  Re13  1  0.877379  0.776531  0.083304  1
  N  N14  1  0.559885  0.576468  0.689693  1
  N  N15  1  0.437714  0.447981  0.319931  1
  N  N16  1  0.153365  0.699301  0.582352  1
  N  N17  1  0.857464  0.292821  0.399852  1
  N  N18  1  0.415053  0.201382  0.514227  1
  N  N19  1  0.584337  0.804787  0.513494  1
  N  N20  1  0.949810  0.144366  0.709869  1
  N  N21  1  0.050287  0.851381  0.285461  1
  N  N22  1  0.226815  0.046548  0.965398  1
  N  N23  1  0.764490  0.947187  0.035174  1
  N  N24  1  0.359105  0.332731  0.913198  1
  N  N25  1  0.964030  0.351458  0.073234  1
  N  N26  1  0.030902  0.648462  0.920549  1
  N  N27  1  0.637249  0.658941  0.086227  1
