# generated using pymatgen
data_GaSb(PO3)6
_symmetry_space_group_name_H-M   'P 1'
_cell_length_a   5.25942703
_cell_length_b   6.90814800
_cell_length_c   10.87110000
_cell_angle_alpha   98.47130158
_cell_angle_beta   92.43014907
_cell_angle_gamma   93.21299140
_symmetry_Int_Tables_number   1
_chemical_formula_structural   GaSb(PO3)6
_chemical_formula_sum   'Ga1 Sb1 P6 O18'
_cell_volume   389.54164748
_cell_formula_units_Z   1
loop_
 _symmetry_equiv_pos_site_id
 _symmetry_equiv_pos_as_xyz
  1  'x, y, z'
loop_
 _atom_site_type_symbol
 _atom_site_label
 _atom_site_symmetry_multiplicity
 _atom_site_fract_x
 _atom_site_fract_y
 _atom_site_fract_z
 _atom_site_occupancy
  Ga  Ga0  1  0.000000  0.000000  0.000000  1
  Sb  Sb1  1  0.000000  0.500000  0.500000  1
  P  P2  1  0.519209  0.966112  0.167686  1
  P  P3  1  0.240714  0.311927  0.219291  1
  P  P4  1  0.501117  0.320015  0.656409  1
  P  P5  1  0.480791  0.033888  0.832314  1
  P  P6  1  0.759286  0.688073  0.780709  1
  P  P7  1  0.498883  0.679985  0.343591  1
  O  O8  1  0.501040  0.196279  0.213538  1
  O  O9  1  0.089741  0.262196  0.097052  1
  O  O10  1  0.304224  0.889736  0.074016  1
  O  O11  1  0.223873  0.362552  0.647059  1
  O  O12  1  0.648924  0.316643  0.540383  1
  O  O13  1  0.211776  0.072264  0.864754  1
  O  O14  1  0.643107  0.467349  0.772388  1
  O  O15  1  0.910259  0.737804  0.902948  1
  O  O16  1  0.532223  0.114830  0.703730  1
  O  O17  1  0.776127  0.637448  0.352941  1
  O  O18  1  0.887720  0.718407  0.663005  1
  O  O19  1  0.788224  0.927736  0.135246  1
  O  O20  1  0.498960  0.803721  0.786462  1
  O  O21  1  0.695776  0.110264  0.925984  1
  O  O22  1  0.467777  0.885170  0.296270  1
  O  O23  1  0.112280  0.281593  0.336995  1
  O  O24  1  0.356893  0.532651  0.227612  1
  O  O25  1  0.351076  0.683357  0.459617  1
