# generated using pymatgen
data_Zr4Ti2Fe3Co7B4
_symmetry_space_group_name_H-M   'P 1'
_cell_length_a   8.82098612
_cell_length_b   8.80047512
_cell_length_c   3.06385700
_cell_angle_alpha   90.00000000
_cell_angle_beta   90.00000000
_cell_angle_gamma   90.01879368
_symmetry_Int_Tables_number   1
_chemical_formula_structural   Zr4Ti2Fe3Co7B4
_chemical_formula_sum   'Zr4 Ti2 Fe3 Co7 B4'
_cell_volume   237.84374045
_cell_formula_units_Z   1
loop_
 _symmetry_equiv_pos_site_id
 _symmetry_equiv_pos_as_xyz
  1  'x, y, z'
loop_
 _atom_site_type_symbol
 _atom_site_label
 _atom_site_symmetry_multiplicity
 _atom_site_fract_x
 _atom_site_fract_y
 _atom_site_fract_z
 _atom_site_occupancy
  Zr  Zr0  1  0.825696  0.321249  0.000000  1
  Zr  Zr1  1  0.321293  0.174624  0.000000  1
  Zr  Zr2  1  0.676607  0.825239  0.000000  1
  Zr  Zr3  1  0.176385  0.677302  0.000000  1
  Ti  Ti4  1  0.999828  0.000456  0.000000  1
  Ti  Ti5  1  0.500411  0.499645  0.000000  1
  Fe  Fe6  1  0.069414  0.224721  0.500000  1
  Fe  Fe7  1  0.223156  0.929143  0.500000  1
  Fe  Fe8  1  0.775788  0.068507  0.500000  1
  Co  Co9  1  0.499556  0.999884  0.500000  1
  Co  Co10  1  0.999951  0.501616  0.500000  1
  Co  Co11  1  0.930039  0.775277  0.500000  1
  Co  Co12  1  0.433952  0.722567  0.500000  1
  Co  Co13  1  0.566799  0.277078  0.500000  1
  Co  Co14  1  0.724120  0.568280  0.500000  1
  Co  Co15  1  0.276828  0.433681  0.500000  1
  B  B16  1  0.619007  0.119030  0.000000  1
  B  B17  1  0.119162  0.381408  0.000000  1
  B  B18  1  0.881275  0.619282  0.000000  1
  B  B19  1  0.380734  0.881010  0.000000  1
