# generated using pymatgen
data_GdTh2(BN2)2
_symmetry_space_group_name_H-M   'P 1'
_cell_length_a   6.45108419
_cell_length_b   6.45108538
_cell_length_c   6.45108339
_cell_angle_alpha   148.06206130
_cell_angle_beta   121.83487011
_cell_angle_gamma   67.90801369
_symmetry_Int_Tables_number   1
_chemical_formula_structural   GdTh2(BN2)2
_chemical_formula_sum   'Gd1 Th2 B2 N4'
_cell_volume   119.11943265
_cell_formula_units_Z   1
loop_
 _symmetry_equiv_pos_site_id
 _symmetry_equiv_pos_as_xyz
  1  'x, y, z'
loop_
 _atom_site_type_symbol
 _atom_site_label
 _atom_site_symmetry_multiplicity
 _atom_site_fract_x
 _atom_site_fract_y
 _atom_site_fract_z
 _atom_site_occupancy
  Gd  Gd0  1  0.695289  0.195289  0.500000  1
  Th  Th1  1  0.300812  0.800812  0.500000  1
  Th  Th2  1  0.998774  0.998774  0.000000  1
  B  B3  1  0.361766  0.501316  0.860449  1
  B  B4  1  0.640867  0.501316  0.139551  1
  N  N5  1  0.360306  0.621297  0.739009  1
  N  N6  1  0.882286  0.621297  0.260991  1
  N  N7  1  0.116962  0.379949  0.737010  1
  N  N8  1  0.642939  0.379949  0.262990  1
