# generated using pymatgen
data_Y3HfAl14(Ga2Ir3)2
_symmetry_space_group_name_H-M   'P 1'
_cell_length_a   7.51203802
_cell_length_b   7.50617013
_cell_length_c   9.47359100
_cell_angle_alpha   90.00000000
_cell_angle_beta   90.00000000
_cell_angle_gamma   119.59311340
_symmetry_Int_Tables_number   1
_chemical_formula_structural   Y3HfAl14(Ga2Ir3)2
_chemical_formula_sum   'Y3 Hf1 Al14 Ga4 Ir6'
_cell_volume   464.50192229
_cell_formula_units_Z   1
loop_
 _symmetry_equiv_pos_site_id
 _symmetry_equiv_pos_as_xyz
  1  'x, y, z'
loop_
 _atom_site_type_symbol
 _atom_site_label
 _atom_site_symmetry_multiplicity
 _atom_site_fract_x
 _atom_site_fract_y
 _atom_site_fract_z
 _atom_site_occupancy
  Y  Y0  1  0.004895  0.327453  0.750000  1
  Y  Y1  1  0.674529  0.997201  0.250000  1
  Y  Y2  1  0.328984  0.006008  0.750000  1
  Hf  Hf3  1  0.998791  0.674387  0.250000  1
  Al  Al4  1  0.000023  0.338437  0.078474  1
  Al  Al5  1  0.997959  0.664863  0.931298  1
  Al  Al6  1  0.997959  0.664863  0.568702  1
  Al  Al7  1  0.332660  0.998267  0.420989  1
  Al  Al8  1  0.000023  0.338437  0.421526  1
  Al  Al9  1  0.664171  0.996681  0.572832  1
  Al  Al10  1  0.664171  0.996681  0.927168  1
  Al  Al11  1  0.332660  0.998267  0.079011  1
  Al  Al12  1  0.334400  0.334632  0.548006  1
  Al  Al13  1  0.669057  0.666508  0.436563  1
  Al  Al14  1  0.669057  0.666508  0.063437  1
  Al  Al15  1  0.334400  0.334632  0.951994  1
  Al  Al16  1  0.333407  0.549917  0.250000  1
  Al  Al17  1  0.556356  0.342865  0.250000  1
  Ga  Ga18  1  0.131440  0.129085  0.250000  1
  Ga  Ga19  1  0.869907  0.868227  0.750000  1
  Ga  Ga20  1  0.659438  0.452333  0.750000  1
  Ga  Ga21  1  0.450267  0.657539  0.750000  1
  Ir  Ir22  1  0.671703  0.328084  0.003408  1
  Ir  Ir23  1  0.327197  0.671686  0.004134  1
  Ir  Ir24  1  0.327197  0.671686  0.495866  1
  Ir  Ir25  1  0.671703  0.328084  0.496592  1
  Ir  Ir26  1  0.998824  0.998336  0.001527  1
  Ir  Ir27  1  0.998824  0.998336  0.498473  1
