# generated using pymatgen
data_NdY3(TmBi)6
_symmetry_space_group_name_H-M   'P 1'
_cell_length_a   8.25149100
_cell_length_b   9.46093600
_cell_length_c   12.08057500
_cell_angle_alpha   90.00000000
_cell_angle_beta   90.00000000
_cell_angle_gamma   90.00000000
_symmetry_Int_Tables_number   1
_chemical_formula_structural   NdY3(TmBi)6
_chemical_formula_sum   'Nd2 Y6 Tm12 Bi12'
_cell_volume   943.09217375
_cell_formula_units_Z   2
loop_
 _symmetry_equiv_pos_site_id
 _symmetry_equiv_pos_as_xyz
  1  'x, y, z'
loop_
 _atom_site_type_symbol
 _atom_site_label
 _atom_site_symmetry_multiplicity
 _atom_site_fract_x
 _atom_site_fract_y
 _atom_site_fract_z
 _atom_site_occupancy
  Nd  Nd0  1  0.184092  0.750000  0.720255  1
  Nd  Nd1  1  0.684092  0.750000  0.779745  1
  Y  Y2  1  0.814052  0.250000  0.281550  1
  Y  Y3  1  0.314052  0.250000  0.218450  1
  Y  Y4  1  0.353206  0.750000  0.217493  1
  Y  Y5  1  0.853206  0.750000  0.282507  1
  Y  Y6  1  0.647431  0.250000  0.784128  1
  Y  Y7  1  0.147431  0.250000  0.715872  1
  Tm  Tm8  1  0.023779  0.750000  0.989711  1
  Tm  Tm9  1  0.523779  0.750000  0.510289  1
  Tm  Tm10  1  0.975877  0.250000  0.011992  1
  Tm  Tm11  1  0.475877  0.250000  0.488008  1
  Tm  Tm12  1  0.308155  0.434504  0.940889  1
  Tm  Tm13  1  0.808155  0.065496  0.559111  1
  Tm  Tm14  1  0.692423  0.934597  0.060015  1
  Tm  Tm15  1  0.192423  0.565403  0.439985  1
  Tm  Tm16  1  0.692423  0.565403  0.060015  1
  Tm  Tm17  1  0.192423  0.934597  0.439985  1
  Tm  Tm18  1  0.308155  0.065496  0.940889  1
  Tm  Tm19  1  0.808155  0.434504  0.559111  1
  Bi  Bi20  1  0.434614  0.008547  0.670374  1
  Bi  Bi21  1  0.934614  0.491453  0.829626  1
  Bi  Bi22  1  0.566370  0.503768  0.327803  1
  Bi  Bi23  1  0.066370  0.996232  0.172197  1
  Bi  Bi24  1  0.566370  0.996232  0.327803  1
  Bi  Bi25  1  0.066370  0.503768  0.172197  1
  Bi  Bi26  1  0.434614  0.491453  0.670374  1
  Bi  Bi27  1  0.934614  0.008547  0.829626  1
  Bi  Bi28  1  0.404403  0.750000  0.962043  1
  Bi  Bi29  1  0.904403  0.750000  0.537957  1
  Bi  Bi30  1  0.594038  0.250000  0.042451  1
  Bi  Bi31  1  0.094038  0.250000  0.457549  1
