# generated using pymatgen
data_Ba6BiPb8I
_symmetry_space_group_name_H-M   'P 1'
_cell_length_a   9.60643939
_cell_length_b   9.60643828
_cell_length_c   9.60643958
_cell_angle_alpha   120.04277105
_cell_angle_beta   120.04276834
_cell_angle_gamma   89.92594025
_symmetry_Int_Tables_number   1
_chemical_formula_structural   Ba6BiPb8I
_chemical_formula_sum   'Ba6 Bi1 Pb8 I1'
_cell_volume   626.45668573
_cell_formula_units_Z   1
loop_
 _symmetry_equiv_pos_site_id
 _symmetry_equiv_pos_as_xyz
  1  'x, y, z'
loop_
 _atom_site_type_symbol
 _atom_site_label
 _atom_site_symmetry_multiplicity
 _atom_site_fract_x
 _atom_site_fract_y
 _atom_site_fract_z
 _atom_site_occupancy
  Ba  Ba0  1  0.252395  0.252395  0.000000  1
  Ba  Ba1  1  0.747605  0.747605  0.000000  1
  Ba  Ba2  1  0.170957  0.655867  0.826826  1
  Ba  Ba3  1  0.829043  0.344133  0.173174  1
  Ba  Ba4  1  0.655867  0.829043  0.484909  1
  Ba  Ba5  1  0.344133  0.170957  0.515091  1
  Bi  Bi6  1  0.500000  0.500000  0.000000  1
  Pb  Pb7  1  0.833201  0.334067  0.784640  1
  Pb  Pb8  1  0.166799  0.665933  0.215360  1
  Pb  Pb9  1  0.549428  0.048562  0.215360  1
  Pb  Pb10  1  0.334067  0.549428  0.500866  1
  Pb  Pb11  1  0.951438  0.166799  0.500866  1
  Pb  Pb12  1  0.450572  0.951438  0.784640  1
  Pb  Pb13  1  0.665933  0.450572  0.499134  1
  Pb  Pb14  1  0.048562  0.833201  0.499134  1
  I  I15  1  0.000000  0.000000  0.000000  1
