# generated using pymatgen
data_Cs4Mn2S5
_symmetry_space_group_name_H-M   'P 1'
_cell_length_a   7.89906076
_cell_length_b   8.80396228
_cell_length_c   10.76602147
_cell_angle_alpha   80.14598655
_cell_angle_beta   83.72517639
_cell_angle_gamma   79.52010629
_symmetry_Int_Tables_number   1
_chemical_formula_structural   Cs4Mn2S5
_chemical_formula_sum   'Cs8 Mn4 S10'
_cell_volume   722.98626825
_cell_formula_units_Z   2
loop_
 _symmetry_equiv_pos_site_id
 _symmetry_equiv_pos_as_xyz
  1  'x, y, z'
loop_
 _atom_site_type_symbol
 _atom_site_label
 _atom_site_symmetry_multiplicity
 _atom_site_fract_x
 _atom_site_fract_y
 _atom_site_fract_z
 _atom_site_occupancy
  Cs  Cs0  1  0.933233  0.897199  0.245235  1
  Cs  Cs1  1  0.066767  0.102801  0.754765  1
  Cs  Cs2  1  0.579270  0.174985  0.911953  1
  Cs  Cs3  1  0.420730  0.825015  0.088047  1
  Cs  Cs4  1  0.405753  0.785517  0.485851  1
  Cs  Cs5  1  0.594247  0.214483  0.514149  1
  Cs  Cs6  1  0.209361  0.573108  0.871044  1
  Cs  Cs7  1  0.790639  0.426892  0.128956  1
  Mn  Mn8  1  0.740636  0.754252  0.767468  1
  Mn  Mn9  1  0.259364  0.245748  0.232532  1
  Mn  Mn10  1  0.914085  0.580096  0.590800  1
  Mn  Mn11  1  0.085915  0.419904  0.409200  1
  S  S12  1  0.833545  0.802806  0.944726  1
  S  S13  1  0.166455  0.197194  0.055274  1
  S  S14  1  0.472382  0.893146  0.761223  1
  S  S15  1  0.527618  0.106854  0.238777  1
  S  S16  1  0.904620  0.828973  0.595257  1
  S  S17  1  0.095380  0.171027  0.404743  1
  S  S18  1  0.757784  0.499080  0.763813  1
  S  S19  1  0.242216  0.500920  0.236187  1
  S  S20  1  0.816697  0.544231  0.416124  1
  S  S21  1  0.183303  0.455769  0.583876  1
