# generated using pymatgen
data_Dy7Ho(Ge4Mo3)4
_symmetry_space_group_name_H-M   'P 1'
_cell_length_a   6.94884920
_cell_length_b   7.05994938
_cell_length_c   13.15282069
_cell_angle_alpha   89.98118952
_cell_angle_beta   90.13674114
_cell_angle_gamma   90.00575180
_symmetry_Int_Tables_number   1
_chemical_formula_structural   Dy7Ho(Ge4Mo3)4
_chemical_formula_sum   'Dy7 Ho1 Ge16 Mo12'
_cell_volume   645.25608830
_cell_formula_units_Z   1
loop_
 _symmetry_equiv_pos_site_id
 _symmetry_equiv_pos_as_xyz
  1  'x, y, z'
loop_
 _atom_site_type_symbol
 _atom_site_label
 _atom_site_symmetry_multiplicity
 _atom_site_fract_x
 _atom_site_fract_y
 _atom_site_fract_z
 _atom_site_occupancy
  Dy  Dy0  1  0.488804  0.669635  0.592224  1
  Dy  Dy1  1  0.988994  0.830465  0.907903  1
  Dy  Dy2  1  0.511245  0.330482  0.092259  1
  Dy  Dy3  1  0.011025  0.169572  0.407928  1
  Dy  Dy4  1  0.510992  0.330407  0.407902  1
  Dy  Dy5  1  0.011153  0.169681  0.092228  1
  Dy  Dy6  1  0.488828  0.669657  0.907644  1
  Ho  Ho7  1  0.988478  0.829886  0.592182  1
  Ge  Ge8  1  0.669802  0.952877  0.451877  1
  Ge  Ge9  1  0.169703  0.547304  0.048273  1
  Ge  Ge10  1  0.330544  0.047326  0.951650  1
  Ge  Ge11  1  0.830265  0.453109  0.548324  1
  Ge  Ge12  1  0.329642  0.046691  0.548330  1
  Ge  Ge13  1  0.830374  0.452873  0.951712  1
  Ge  Ge14  1  0.669614  0.952734  0.048326  1
  Ge  Ge15  1  0.169560  0.547319  0.451810  1
  Ge  Ge16  1  0.469382  0.366691  0.749934  1
  Ge  Ge17  1  0.969479  0.132685  0.749735  1
  Ge  Ge18  1  0.530744  0.633340  0.250026  1
  Ge  Ge19  1  0.030694  0.866917  0.250037  1
  Ge  Ge20  1  0.688750  0.855434  0.749895  1
  Ge  Ge21  1  0.188044  0.644711  0.749800  1
  Ge  Ge22  1  0.311609  0.144411  0.250031  1
  Ge  Ge23  1  0.811656  0.355794  0.250107  1
  Mo  Mo24  1  0.669307  0.155101  0.627047  1
  Mo  Mo25  1  0.169068  0.344716  0.872696  1
  Mo  Mo26  1  0.330801  0.844835  0.127147  1
  Mo  Mo27  1  0.830756  0.655605  0.373006  1
  Mo  Mo28  1  0.330761  0.844577  0.372890  1
  Mo  Mo29  1  0.830953  0.655305  0.127262  1
  Mo  Mo30  1  0.669538  0.155250  0.872799  1
  Mo  Mo31  1  0.169269  0.344685  0.627066  1
  Mo  Mo32  1  0.833287  0.494254  0.749951  1
  Mo  Mo33  1  0.333198  0.005448  0.749913  1
  Mo  Mo34  1  0.166834  0.505742  0.250016  1
  Mo  Mo35  1  0.666845  0.994481  0.250069  1
