# generated using pymatgen
data_Ba2HgSb2Pt
_symmetry_space_group_name_H-M   'P 1'
_cell_length_a   4.85212700
_cell_length_b   8.90494908
_cell_length_c   8.62873800
_cell_angle_alpha   92.65794196
_cell_angle_beta   90.00000000
_cell_angle_gamma   90.00000000
_symmetry_Int_Tables_number   1
_chemical_formula_structural   Ba2HgSb2Pt
_chemical_formula_sum   'Ba4 Hg2 Sb4 Pt2'
_cell_volume   372.42893090
_cell_formula_units_Z   2
loop_
 _symmetry_equiv_pos_site_id
 _symmetry_equiv_pos_as_xyz
  1  'x, y, z'
loop_
 _atom_site_type_symbol
 _atom_site_label
 _atom_site_symmetry_multiplicity
 _atom_site_fract_x
 _atom_site_fract_y
 _atom_site_fract_z
 _atom_site_occupancy
  Ba  Ba0  1  0.750000  0.496770  0.752814  1
  Ba  Ba1  1  0.250000  0.503230  0.247186  1
  Ba  Ba2  1  0.750000  0.997393  0.786385  1
  Ba  Ba3  1  0.250000  0.002607  0.213615  1
  Hg  Hg4  1  0.750000  0.773481  0.415448  1
  Hg  Hg5  1  0.250000  0.226519  0.584552  1
  Sb  Sb6  1  0.750000  0.732260  0.075400  1
  Sb  Sb7  1  0.250000  0.267740  0.924600  1
  Sb  Sb8  1  0.750000  0.244465  0.392829  1
  Sb  Sb9  1  0.250000  0.755535  0.607171  1
  Pt  Pt10  1  0.750000  0.255299  0.077456  1
  Pt  Pt11  1  0.250000  0.744701  0.922544  1
