# generated using pymatgen
data_LaTbDyIrO7
_symmetry_space_group_name_H-M   'P 1'
_cell_length_a   6.50798204
_cell_length_b   6.50798257
_cell_length_c   7.53525300
_cell_angle_alpha   90.00000000
_cell_angle_beta   90.00000000
_cell_angle_gamma   109.70253025
_symmetry_Int_Tables_number   1
_chemical_formula_structural   LaTbDyIrO7
_chemical_formula_sum   'La2 Tb2 Dy2 Ir2 O14'
_cell_volume   300.46260947
_cell_formula_units_Z   2
loop_
 _symmetry_equiv_pos_site_id
 _symmetry_equiv_pos_as_xyz
  1  'x, y, z'
loop_
 _atom_site_type_symbol
 _atom_site_label
 _atom_site_symmetry_multiplicity
 _atom_site_fract_x
 _atom_site_fract_y
 _atom_site_fract_z
 _atom_site_occupancy
  La  La0  1  0.000032  0.999968  0.500000  1
  La  La1  1  0.000032  0.999968  0.000000  1
  Tb  Tb2  1  0.516874  0.065984  0.250000  1
  Tb  Tb3  1  0.934016  0.483126  0.750000  1
  Dy  Dy4  1  0.483465  0.934786  0.750000  1
  Dy  Dy5  1  0.065214  0.516535  0.250000  1
  Ir  Ir6  1  0.500074  0.499926  0.500000  1
  Ir  Ir7  1  0.500074  0.499926  0.000000  1
  O  O8  1  0.443026  0.182329  0.535706  1
  O  O9  1  0.817671  0.556974  0.464294  1
  O  O10  1  0.443026  0.182329  0.964294  1
  O  O11  1  0.817671  0.556974  0.035706  1
  O  O12  1  0.556884  0.817467  0.465292  1
  O  O13  1  0.182533  0.443116  0.534708  1
  O  O14  1  0.556884  0.817467  0.034708  1
  O  O15  1  0.182533  0.443116  0.965292  1
  O  O16  1  0.160675  0.878879  0.250000  1
  O  O17  1  0.121121  0.839325  0.750000  1
  O  O18  1  0.837908  0.119108  0.750000  1
  O  O19  1  0.880892  0.162092  0.250000  1
  O  O20  1  0.407754  0.408358  0.250000  1
  O  O21  1  0.591642  0.592246  0.750000  1
