# generated using pymatgen
data_Ho5Th3(MgTc)2
_symmetry_space_group_name_H-M   'P 1'
_cell_length_a   9.73833688
_cell_length_b   9.80710734
_cell_length_c   9.80710811
_cell_angle_alpha   59.53659715
_cell_angle_beta   60.23170757
_cell_angle_gamma   60.23169876
_symmetry_Int_Tables_number   1
_chemical_formula_structural   Ho5Th3(MgTc)2
_chemical_formula_sum   'Ho10 Th6 Mg4 Tc4'
_cell_volume   662.23065598
_cell_formula_units_Z   2
loop_
 _symmetry_equiv_pos_site_id
 _symmetry_equiv_pos_as_xyz
  1  'x, y, z'
loop_
 _atom_site_type_symbol
 _atom_site_label
 _atom_site_symmetry_multiplicity
 _atom_site_fract_x
 _atom_site_fract_y
 _atom_site_fract_z
 _atom_site_occupancy
  Ho  Ho0  1  0.189392  0.810608  0.189392  1
  Ho  Ho1  1  0.810608  0.189392  0.810608  1
  Ho  Ho2  1  0.189392  0.189392  0.810608  1
  Ho  Ho3  1  0.810608  0.810608  0.189392  1
  Ho  Ho4  1  0.934647  0.565353  0.565353  1
  Ho  Ho5  1  0.565353  0.934647  0.934647  1
  Ho  Ho6  1  0.562363  0.937637  0.562363  1
  Ho  Ho7  1  0.937637  0.562363  0.937637  1
  Ho  Ho8  1  0.562363  0.562363  0.937637  1
  Ho  Ho9  1  0.937637  0.937637  0.562363  1
  Th  Th10  1  0.344819  0.347250  0.347250  1
  Th  Th11  1  0.347250  0.344819  0.960681  1
  Th  Th12  1  0.347250  0.960681  0.344819  1
  Th  Th13  1  0.960681  0.347250  0.347250  1
  Th  Th14  1  0.816011  0.183989  0.183989  1
  Th  Th15  1  0.183989  0.816011  0.816011  1
  Mg  Mg16  1  0.582106  0.579288  0.579288  1
  Mg  Mg17  1  0.579288  0.582106  0.259319  1
  Mg  Mg18  1  0.579288  0.259319  0.582106  1
  Mg  Mg19  1  0.259319  0.579288  0.579288  1
  Tc  Tc20  1  0.124056  0.148111  0.148111  1
  Tc  Tc21  1  0.148111  0.124056  0.579720  1
  Tc  Tc22  1  0.148111  0.579720  0.124056  1
  Tc  Tc23  1  0.579720  0.148111  0.148111  1
