# generated using pymatgen
data_Yb(Ga3Se5)2
_symmetry_space_group_name_H-M   'P 1'
_cell_length_a   9.76723296
_cell_length_b   9.76739014
_cell_length_c   9.64716835
_cell_angle_alpha   90.07685773
_cell_angle_beta   90.07690734
_cell_angle_gamma   89.13424314
_symmetry_Int_Tables_number   1
_chemical_formula_structural   Yb(Ga3Se5)2
_chemical_formula_sum   'Yb2 Ga12 Se20'
_cell_volume   920.23678064
_cell_formula_units_Z   2
loop_
 _symmetry_equiv_pos_site_id
 _symmetry_equiv_pos_as_xyz
  1  'x, y, z'
loop_
 _atom_site_type_symbol
 _atom_site_label
 _atom_site_symmetry_multiplicity
 _atom_site_fract_x
 _atom_site_fract_y
 _atom_site_fract_z
 _atom_site_occupancy
  Yb  Yb0  1  0.997225  0.743896  0.252905  1
  Yb  Yb1  1  0.256107  0.002780  0.747105  1
  Ga  Ga2  1  0.157867  0.429451  0.122262  1
  Ga  Ga3  1  0.433611  0.128417  0.159361  1
  Ga  Ga4  1  0.347513  0.746164  0.167855  1
  Ga  Ga5  1  0.657969  0.832981  0.254959  1
  Ga  Ga6  1  0.746171  0.169358  0.333906  1
  Ga  Ga7  1  0.123243  0.161893  0.425992  1
  Ga  Ga8  1  0.838128  0.876698  0.573985  1
  Ga  Ga9  1  0.830624  0.253826  0.666108  1
  Ga  Ga10  1  0.167068  0.342034  0.745026  1
  Ga  Ga11  1  0.253803  0.652484  0.832175  1
  Ga  Ga12  1  0.871647  0.566361  0.840605  1
  Ga  Ga13  1  0.570553  0.842121  0.877764  1
  Se  Se14  1  0.174699  0.825307  0.000009  1
  Se  Se15  1  0.571301  0.675388  0.070753  1
  Se  Se16  1  0.921460  0.501685  0.081903  1
  Se  Se17  1  0.823390  0.993393  0.170932  1
  Se  Se18  1  0.178735  0.177375  0.173967  1
  Se  Se19  1  0.563010  0.310443  0.254755  1
  Se  Se20  1  0.245865  0.572410  0.310171  1
  Se  Se21  1  0.431210  0.929688  0.322293  1
  Se  Se22  1  0.927229  0.319417  0.431208  1
  Se  Se23  1  0.756802  0.688279  0.432626  1
  Se  Se24  1  0.078566  0.921423  0.500010  1
  Se  Se25  1  0.311686  0.243190  0.567341  1
  Se  Se26  1  0.680585  0.072749  0.568785  1
  Se  Se27  1  0.070316  0.568802  0.677700  1
  Se  Se28  1  0.427573  0.754136  0.689846  1
  Se  Se29  1  0.689568  0.436995  0.745245  1
  Se  Se30  1  0.006619  0.176632  0.829066  1
  Se  Se31  1  0.822633  0.821257  0.826028  1
  Se  Se32  1  0.498326  0.078544  0.918095  1
  Se  Se33  1  0.324616  0.428700  0.929260  1
