# generated using pymatgen
data_Y3TiIn2Rh3
_symmetry_space_group_name_H-M   'P 1'
_cell_length_a   7.30194300
_cell_length_b   7.10114665
_cell_length_c   4.20371500
_cell_angle_alpha   90.00000000
_cell_angle_beta   90.00000000
_cell_angle_gamma   119.09444184
_symmetry_Int_Tables_number   1
_chemical_formula_structural   Y3TiIn2Rh3
_chemical_formula_sum   'Y3 Ti1 In2 Rh3'
_cell_volume   190.46793140
_cell_formula_units_Z   1
loop_
 _symmetry_equiv_pos_site_id
 _symmetry_equiv_pos_as_xyz
  1  'x, y, z'
loop_
 _atom_site_type_symbol
 _atom_site_label
 _atom_site_symmetry_multiplicity
 _atom_site_fract_x
 _atom_site_fract_y
 _atom_site_fract_z
 _atom_site_occupancy
  Y  Y0  1  0.000000  0.594551  0.500000  1
  Y  Y1  1  0.418004  0.413742  0.500000  1
  Y  Y2  1  0.581996  0.995739  0.500000  1
  Ti  Ti3  1  0.000000  0.243866  0.000000  1
  In  In4  1  0.248177  0.001079  0.000000  1
  In  In5  1  0.751823  0.752902  0.000000  1
  Rh  Rh6  1  0.310213  0.633508  0.000000  1
  Rh  Rh7  1  0.000000  0.041319  0.500000  1
  Rh  Rh8  1  0.689787  0.323293  0.000000  1
