# generated using pymatgen
data_Dy2HoEr2(ReO6)2
_symmetry_space_group_name_H-M   'P 1'
_cell_length_a   6.81505073
_cell_length_b   6.81505176
_cell_length_c   7.51784417
_cell_angle_alpha   73.84715063
_cell_angle_beta   73.84715791
_cell_angle_gamma   49.09975220
_symmetry_Int_Tables_number   1
_chemical_formula_structural   Dy2HoEr2(ReO6)2
_chemical_formula_sum   'Dy2 Ho1 Er2 Re2 O12'
_cell_volume   251.27017217
_cell_formula_units_Z   1
loop_
 _symmetry_equiv_pos_site_id
 _symmetry_equiv_pos_as_xyz
  1  'x, y, z'
loop_
 _atom_site_type_symbol
 _atom_site_label
 _atom_site_symmetry_multiplicity
 _atom_site_fract_x
 _atom_site_fract_y
 _atom_site_fract_z
 _atom_site_occupancy
  Dy  Dy0  1  0.696761  0.696761  0.641691  1
  Dy  Dy1  1  0.303226  0.303226  0.358552  1
  Ho  Ho2  1  0.685608  0.685608  0.175467  1
  Er  Er3  1  0.314364  0.314364  0.824344  1
  Er  Er4  1  0.999968  0.999968  0.500121  1
  Re  Re5  1  0.785952  0.214110  0.999899  1
  Re  Re6  1  0.214110  0.785952  0.999899  1
  O  O7  1  0.000617  0.000617  0.207667  1
  O  O8  1  0.999378  0.999378  0.792374  1
  O  O9  1  0.581370  0.087265  0.083798  1
  O  O10  1  0.417888  0.913921  0.915606  1
  O  O11  1  0.913921  0.417888  0.915606  1
  O  O12  1  0.087265  0.581370  0.083798  1
  O  O13  1  0.499342  0.499342  0.177774  1
  O  O14  1  0.500289  0.500289  0.822048  1
  O  O15  1  0.404767  0.901465  0.425475  1
  O  O16  1  0.594708  0.099000  0.575204  1
  O  O17  1  0.099000  0.594708  0.575204  1
  O  O18  1  0.901465  0.404767  0.425475  1
