# generated using pymatgen
data_YbNpTcB6
_symmetry_space_group_name_H-M   'P 1'
_cell_length_a   3.61568100
_cell_length_b   9.22067600
_cell_length_c   11.30820500
_cell_angle_alpha   90.00000000
_cell_angle_beta   90.00000000
_cell_angle_gamma   90.00000000
_symmetry_Int_Tables_number   1
_chemical_formula_structural   YbNpTcB6
_chemical_formula_sum   'Yb4 Np4 Tc4 B24'
_cell_volume   377.00450681
_cell_formula_units_Z   4
loop_
 _symmetry_equiv_pos_site_id
 _symmetry_equiv_pos_as_xyz
  1  'x, y, z'
loop_
 _atom_site_type_symbol
 _atom_site_label
 _atom_site_symmetry_multiplicity
 _atom_site_fract_x
 _atom_site_fract_y
 _atom_site_fract_z
 _atom_site_occupancy
  Yb  Yb0  1  0.000000  0.339890  0.408437  1
  Yb  Yb1  1  0.000000  0.660110  0.591563  1
  Yb  Yb2  1  0.000000  0.839890  0.091563  1
  Yb  Yb3  1  0.000000  0.160110  0.908437  1
  Np  Np4  1  0.000000  0.958775  0.399527  1
  Np  Np5  1  0.000000  0.041225  0.600473  1
  Np  Np6  1  0.000000  0.458775  0.100473  1
  Np  Np7  1  0.000000  0.541225  0.899527  1
  Tc  Tc8  1  0.000000  0.648128  0.316866  1
  Tc  Tc9  1  0.000000  0.351872  0.683134  1
  Tc  Tc10  1  0.000000  0.148128  0.183134  1
  Tc  Tc11  1  0.000000  0.851872  0.816866  1
  B  B12  1  0.500000  0.553218  0.431081  1
  B  B13  1  0.500000  0.446782  0.568919  1
  B  B14  1  0.500000  0.053218  0.068919  1
  B  B15  1  0.500000  0.946782  0.931081  1
  B  B16  1  0.500000  0.745252  0.421642  1
  B  B17  1  0.500000  0.254748  0.578358  1
  B  B18  1  0.500000  0.245252  0.078358  1
  B  B19  1  0.500000  0.754748  0.921642  1
  B  B20  1  0.500000  0.805375  0.274195  1
  B  B21  1  0.500000  0.194625  0.725805  1
  B  B22  1  0.500000  0.305375  0.225805  1
  B  B23  1  0.500000  0.694625  0.774195  1
  B  B24  1  0.500000  0.644121  0.188357  1
  B  B25  1  0.500000  0.355879  0.811643  1
  B  B26  1  0.500000  0.144121  0.311643  1
  B  B27  1  0.500000  0.855879  0.688357  1
  B  B28  1  0.500000  0.990078  0.219826  1
  B  B29  1  0.500000  0.009922  0.780174  1
  B  B30  1  0.500000  0.490078  0.280174  1
  B  B31  1  0.500000  0.509922  0.719826  1
  B  B32  1  0.500000  0.637713  0.037990  1
  B  B33  1  0.500000  0.362287  0.962010  1
  B  B34  1  0.500000  0.137713  0.462010  1
  B  B35  1  0.500000  0.862287  0.537990  1
