# generated using pymatgen
data_La3Pr2Nd(RuI3)2
_symmetry_space_group_name_H-M   'P 1'
_cell_length_a   4.37347500
_cell_length_b   9.59820344
_cell_length_c   12.55103809
_cell_angle_alpha   87.68712287
_cell_angle_beta   90.00000000
_cell_angle_gamma   90.00000000
_symmetry_Int_Tables_number   1
_chemical_formula_structural   La3Pr2Nd(RuI3)2
_chemical_formula_sum   'La3 Pr2 Nd1 Ru2 I6'
_cell_volume   526.43202915
_cell_formula_units_Z   1
loop_
 _symmetry_equiv_pos_site_id
 _symmetry_equiv_pos_as_xyz
  1  'x, y, z'
loop_
 _atom_site_type_symbol
 _atom_site_label
 _atom_site_symmetry_multiplicity
 _atom_site_fract_x
 _atom_site_fract_y
 _atom_site_fract_z
 _atom_site_occupancy
  La  La0  1  0.250000  0.313855  0.882172  1
  La  La1  1  0.250000  0.884107  0.328075  1
  La  La2  1  0.750000  0.114717  0.670998  1
  Pr  Pr3  1  0.250000  0.901363  0.897240  1
  Pr  Pr4  1  0.750000  0.095473  0.104198  1
  Nd  Nd5  1  0.750000  0.687866  0.118645  1
  Ru  Ru6  1  0.250000  0.886294  0.129543  1
  Ru  Ru7  1  0.750000  0.115537  0.869139  1
  I  I8  1  0.250000  0.864954  0.620314  1
  I  I9  1  0.750000  0.133858  0.379803  1
  I  I10  1  0.750000  0.633167  0.373889  1
  I  I11  1  0.250000  0.365049  0.622639  1
  I  I12  1  0.250000  0.396293  0.137028  1
  I  I13  1  0.750000  0.607466  0.866317  1
