# generated using pymatgen
data_Y5Tm5Sn5Sb
_symmetry_space_group_name_H-M   'P 1'
_cell_length_a   6.47552900
_cell_length_b   8.92784295
_cell_length_c   8.91983532
_cell_angle_alpha   120.03888340
_cell_angle_beta   90.00018507
_cell_angle_gamma   90.00001828
_symmetry_Int_Tables_number   1
_chemical_formula_structural   Y5Tm5Sn5Sb
_chemical_formula_sum   'Y5 Tm5 Sn5 Sb1'
_cell_volume   446.41519295
_cell_formula_units_Z   1
loop_
 _symmetry_equiv_pos_site_id
 _symmetry_equiv_pos_as_xyz
  1  'x, y, z'
loop_
 _atom_site_type_symbol
 _atom_site_label
 _atom_site_symmetry_multiplicity
 _atom_site_fract_x
 _atom_site_fract_y
 _atom_site_fract_z
 _atom_site_occupancy
  Y  Y0  1  0.750009  0.759505  0.760153  1
  Y  Y1  1  0.750008  0.000169  0.240941  1
  Y  Y2  1  0.249998  0.757976  0.997740  1
  Y  Y3  1  0.250003  0.241833  0.239292  1
  Y  Y4  1  0.250003  0.000146  0.759977  1
  Tm  Tm5  1  0.500354  0.334295  0.667627  1
  Tm  Tm6  1  0.500352  0.665526  0.333128  1
  Tm  Tm7  1  0.999642  0.665532  0.333129  1
  Tm  Tm8  1  0.999647  0.334294  0.667625  1
  Tm  Tm9  1  0.750003  0.240936  0.000895  1
  Sn  Sn10  1  0.749999  0.605124  0.000962  1
  Sn  Sn11  1  0.750002  0.394220  0.394613  1
  Sn  Sn12  1  0.750001  0.000473  0.606705  1
  Sn  Sn13  1  0.249975  0.395356  0.999764  1
  Sn  Sn14  1  0.250001  0.604612  0.604340  1
  Sb  Sb15  1  0.250003  0.000003  0.393111  1
