# generated using pymatgen
data_TaNb7Si2(B2W)2
_symmetry_space_group_name_H-M   'P 1'
_cell_length_a   7.29636444
_cell_length_b   7.29636340
_cell_length_c   7.29452825
_cell_angle_alpha   129.63443493
_cell_angle_beta   129.63442885
_cell_angle_gamma   73.98882637
_symmetry_Int_Tables_number   1
_chemical_formula_structural   TaNb7Si2(B2W)2
_chemical_formula_sum   'Ta1 Nb7 Si2 B4 W2'
_cell_volume   224.62853379
_cell_formula_units_Z   1
loop_
 _symmetry_equiv_pos_site_id
 _symmetry_equiv_pos_as_xyz
  1  'x, y, z'
loop_
 _atom_site_type_symbol
 _atom_site_label
 _atom_site_symmetry_multiplicity
 _atom_site_fract_x
 _atom_site_fract_y
 _atom_site_fract_z
 _atom_site_occupancy
  Ta  Ta0  1  0.806110  0.306110  0.835845  1
  Nb  Nb1  1  0.193217  0.693217  0.163236  1
  Nb  Nb2  1  0.470341  0.970341  0.163495  1
  Nb  Nb3  1  0.306694  0.469905  0.499682  1
  Nb  Nb4  1  0.029557  0.193232  0.500256  1
  Nb  Nb5  1  0.529986  0.029986  0.836853  1
  Nb  Nb6  1  0.693232  0.529557  0.500256  1
  Nb  Nb7  1  0.969905  0.806694  0.499682  1
  Si  Si8  1  0.249769  0.250122  0.000000  1
  Si  Si9  1  0.750122  0.749769  0.000000  1
  B  B10  1  0.117678  0.617678  0.735356  1
  B  B11  1  0.881876  0.381876  0.263228  1
  B  B12  1  0.618274  0.883124  0.500788  1
  B  B13  1  0.383124  0.118274  0.500788  1
  W  W14  1  0.000076  0.000038  0.000267  1
  W  W15  1  0.500038  0.500076  0.000267  1
