# generated using pymatgen
data_La2SmTm3Ta2O14
_symmetry_space_group_name_H-M   'P 1'
_cell_length_a   6.51070407
_cell_length_b   6.51378964
_cell_length_c   7.61879800
_cell_angle_alpha   90.00000000
_cell_angle_beta   90.00000000
_cell_angle_gamma   108.96563658
_symmetry_Int_Tables_number   1
_chemical_formula_structural   La2SmTm3Ta2O14
_chemical_formula_sum   'La2 Sm1 Tm3 Ta2 O14'
_cell_volume   305.56795585
_cell_formula_units_Z   1
loop_
 _symmetry_equiv_pos_site_id
 _symmetry_equiv_pos_as_xyz
  1  'x, y, z'
loop_
 _atom_site_type_symbol
 _atom_site_label
 _atom_site_symmetry_multiplicity
 _atom_site_fract_x
 _atom_site_fract_y
 _atom_site_fract_z
 _atom_site_occupancy
  La  La0  1  0.503500  0.502825  0.498357  1
  La  La1  1  0.503500  0.502825  0.001643  1
  Sm  Sm2  1  0.000628  0.465352  0.750000  1
  Tm  Tm3  1  0.529676  0.002311  0.750000  1
  Tm  Tm4  1  0.001729  0.533213  0.250000  1
  Tm  Tm5  1  0.468590  0.998539  0.250000  1
  Ta  Ta6  1  0.000021  0.000529  0.497869  1
  Ta  Ta7  1  0.000021  0.000529  0.002131  1
  O  O8  1  0.680652  0.938040  0.465731  1
  O  O9  1  0.927454  0.677783  0.523751  1
  O  O10  1  0.680652  0.938040  0.034269  1
  O  O11  1  0.927454  0.677783  0.976249  1
  O  O12  1  0.317196  0.061680  0.535263  1
  O  O13  1  0.067292  0.317292  0.460779  1
  O  O14  1  0.317196  0.061680  0.964737  1
  O  O15  1  0.067292  0.317292  0.039221  1
  O  O16  1  0.935777  0.060053  0.750000  1
  O  O17  1  0.069050  0.937750  0.250000  1
  O  O18  1  0.372645  0.645832  0.750000  1
  O  O19  1  0.639556  0.358885  0.250000  1
  O  O20  1  0.637093  0.352969  0.750000  1
  O  O21  1  0.353026  0.648798  0.250000  1
