# generated using pymatgen
data_Ba8AgP5
_symmetry_space_group_name_H-M   'P 1'
_cell_length_a   8.61036714
_cell_length_b   8.61036663
_cell_length_c   8.61036711
_cell_angle_alpha   109.18448852
_cell_angle_beta   109.18448615
_cell_angle_gamma   110.04622215
_symmetry_Int_Tables_number   1
_chemical_formula_structural   Ba8AgP5
_chemical_formula_sum   'Ba8 Ag1 P5'
_cell_volume   491.37181983
_cell_formula_units_Z   1
loop_
 _symmetry_equiv_pos_site_id
 _symmetry_equiv_pos_as_xyz
  1  'x, y, z'
loop_
 _atom_site_type_symbol
 _atom_site_label
 _atom_site_symmetry_multiplicity
 _atom_site_fract_x
 _atom_site_fract_y
 _atom_site_fract_z
 _atom_site_occupancy
  Ba  Ba0  1  0.736746  0.367973  0.243358  1
  Ba  Ba1  1  0.980005  0.736492  0.092090  1
  Ba  Ba2  1  0.644403  0.887914  0.907910  1
  Ba  Ba3  1  0.124615  0.493388  0.756642  1
  Ba  Ba4  1  0.632027  0.875385  0.368774  1
  Ba  Ba5  1  0.506612  0.263254  0.631226  1
  Ba  Ba6  1  0.263508  0.355597  0.243511  1
  Ba  Ba7  1  0.112086  0.019995  0.756489  1
  Ag  Ag8  1  0.250000  0.750000  0.500000  1
  P  P9  1  0.745727  0.631565  0.625220  1
  P  P10  1  0.368435  0.993655  0.114162  1
  P  P11  1  0.006345  0.120507  0.374780  1
  P  P12  1  0.500000  0.500000  0.000000  1
  P  P13  1  0.879493  0.254273  0.885838  1
