# generated using pymatgen
data_Pr3NdScSn15Rh8
_symmetry_space_group_name_H-M   'P 1'
_cell_length_a   4.55144200
_cell_length_b   7.24401835
_cell_length_c   18.62972080
_cell_angle_alpha   89.98612717
_cell_angle_beta   90.00000000
_cell_angle_gamma   90.00000000
_symmetry_Int_Tables_number   1
_chemical_formula_structural   Pr3NdScSn15Rh8
_chemical_formula_sum   'Pr3 Nd1 Sc1 Sn15 Rh8'
_cell_volume   614.23546488
_cell_formula_units_Z   1
loop_
 _symmetry_equiv_pos_site_id
 _symmetry_equiv_pos_as_xyz
  1  'x, y, z'
loop_
 _atom_site_type_symbol
 _atom_site_label
 _atom_site_symmetry_multiplicity
 _atom_site_fract_x
 _atom_site_fract_y
 _atom_site_fract_z
 _atom_site_occupancy
  Pr  Pr0  1  0.500000  0.000189  0.857085  1
  Pr  Pr1  1  0.500000  0.502169  0.357443  1
  Pr  Pr2  1  0.000000  0.001161  0.140924  1
  Nd  Nd3  1  0.000000  0.499440  0.642762  1
  Sc  Sc4  1  0.500000  0.484611  0.931774  1
  Sn  Sn5  1  0.000000  0.718356  0.808122  1
  Sn  Sn6  1  0.000000  0.781825  0.305237  1
  Sn  Sn7  1  0.500000  0.279548  0.193396  1
  Sn  Sn8  1  0.500000  0.220897  0.694806  1
  Sn  Sn9  1  0.000000  0.850448  0.967829  1
  Sn  Sn10  1  0.000000  0.633169  0.468807  1
  Sn  Sn11  1  0.500000  0.137426  0.029755  1
  Sn  Sn12  1  0.500000  0.365427  0.531584  1
  Sn  Sn13  1  0.000000  0.308912  0.822621  1
  Sn  Sn14  1  0.000000  0.201045  0.317302  1
  Sn  Sn15  1  0.500000  0.699148  0.182719  1
  Sn  Sn16  1  0.500000  0.803624  0.680872  1
  Sn  Sn17  1  0.500000  0.019578  0.433145  1
  Sn  Sn18  1  0.000000  0.511425  0.064218  1
  Sn  Sn19  1  0.000000  0.980613  0.568739  1
  Rh  Rh20  1  0.000000  0.237245  0.964904  1
  Rh  Rh21  1  0.000000  0.248046  0.465366  1
  Rh  Rh22  1  0.500000  0.752785  0.037540  1
  Rh  Rh23  1  0.500000  0.749768  0.534069  1
  Rh  Rh24  1  0.000000  0.019722  0.716321  1
  Rh  Rh25  1  0.000000  0.485705  0.211827  1
  Rh  Rh26  1  0.500000  0.988377  0.288229  1
  Rh  Rh27  1  0.500000  0.519339  0.782607  1
