# generated using pymatgen
data_TcNi2P2Pd
_symmetry_space_group_name_H-M   'P 1'
_cell_length_a   3.68003600
_cell_length_b   5.84428800
_cell_length_c   6.86039700
_cell_angle_alpha   90.00000000
_cell_angle_beta   90.00000000
_cell_angle_gamma   90.00000000
_symmetry_Int_Tables_number   1
_chemical_formula_structural   TcNi2P2Pd
_chemical_formula_sum   'Tc2 Ni4 P4 Pd2'
_cell_volume   147.54786336
_cell_formula_units_Z   2
loop_
 _symmetry_equiv_pos_site_id
 _symmetry_equiv_pos_as_xyz
  1  'x, y, z'
loop_
 _atom_site_type_symbol
 _atom_site_label
 _atom_site_symmetry_multiplicity
 _atom_site_fract_x
 _atom_site_fract_y
 _atom_site_fract_z
 _atom_site_occupancy
  Tc  Tc0  1  0.750000  0.964268  0.176420  1
  Tc  Tc1  1  0.750000  0.464268  0.323580  1
  Ni  Ni2  1  0.750000  0.359498  0.926990  1
  Ni  Ni3  1  0.250000  0.133392  0.439743  1
  Ni  Ni4  1  0.750000  0.859498  0.573010  1
  Ni  Ni5  1  0.250000  0.633392  0.060257  1
  P  P6  1  0.250000  0.762938  0.364791  1
  P  P7  1  0.250000  0.262938  0.135209  1
  P  P8  1  0.750000  0.241959  0.614159  1
  P  P9  1  0.750000  0.741959  0.885841  1
  Pd  Pd10  1  0.250000  0.537945  0.661089  1
  Pd  Pd11  1  0.250000  0.037945  0.838911  1
