# generated using pymatgen
data_Nb2Rh2Se7S
_symmetry_space_group_name_H-M   'P 1'
_cell_length_a   3.60876400
_cell_length_b   11.84675100
_cell_length_c   13.01764100
_cell_angle_alpha   90.00000000
_cell_angle_beta   90.00000000
_cell_angle_gamma   90.00000000
_symmetry_Int_Tables_number   1
_chemical_formula_structural   Nb2Rh2Se7S
_chemical_formula_sum   'Nb4 Rh4 Se14 S2'
_cell_volume   556.53186113
_cell_formula_units_Z   2
loop_
 _symmetry_equiv_pos_site_id
 _symmetry_equiv_pos_as_xyz
  1  'x, y, z'
loop_
 _atom_site_type_symbol
 _atom_site_label
 _atom_site_symmetry_multiplicity
 _atom_site_fract_x
 _atom_site_fract_y
 _atom_site_fract_z
 _atom_site_occupancy
  Nb  Nb0  1  0.500000  0.954987  0.496350  1
  Nb  Nb1  1  0.000000  0.045013  0.996350  1
  Nb  Nb2  1  0.500000  0.737148  0.994017  1
  Nb  Nb3  1  0.000000  0.262852  0.494017  1
  Rh  Rh4  1  0.500000  0.467627  0.498284  1
  Rh  Rh5  1  0.000000  0.532373  0.998284  1
  Rh  Rh6  1  0.500000  0.251267  0.992330  1
  Rh  Rh7  1  0.000000  0.748733  0.492330  1
  Se  Se8  1  0.500000  0.806341  0.362463  1
  Se  Se9  1  0.000000  0.193659  0.862463  1
  Se  Se10  1  0.500000  0.653131  0.593030  1
  Se  Se11  1  0.000000  0.346869  0.093030  1
  Se  Se12  1  0.500000  0.588314  0.127347  1
  Se  Se13  1  0.000000  0.411686  0.627347  1
  Se  Se14  1  0.500000  0.436499  0.897303  1
  Se  Se15  1  0.000000  0.563501  0.397303  1
  Se  Se16  1  0.500000  0.316858  0.359774  1
  Se  Se17  1  0.000000  0.683142  0.859774  1
  Se  Se18  1  0.500000  0.153926  0.606277  1
  Se  Se19  1  0.000000  0.846074  0.106277  1
  Se  Se20  1  0.500000  0.103052  0.131230  1
  Se  Se21  1  0.000000  0.896948  0.631230  1
  S  S22  1  0.500000  0.936074  0.905593  1
  S  S23  1  0.000000  0.063926  0.405593  1
