# generated using pymatgen
data_Tb3Y7Ru4
_symmetry_space_group_name_H-M   'P 1'
_cell_length_a   6.38494642
_cell_length_b   7.32287116
_cell_length_c   8.54244294
_cell_angle_alpha   96.76837704
_cell_angle_beta   112.08157781
_cell_angle_gamma   90.02475669
_symmetry_Int_Tables_number   1
_chemical_formula_structural   Tb3Y7Ru4
_chemical_formula_sum   'Tb3 Y7 Ru4'
_cell_volume   367.10057788
_cell_formula_units_Z   1
loop_
 _symmetry_equiv_pos_site_id
 _symmetry_equiv_pos_as_xyz
  1  'x, y, z'
loop_
 _atom_site_type_symbol
 _atom_site_label
 _atom_site_symmetry_multiplicity
 _atom_site_fract_x
 _atom_site_fract_y
 _atom_site_fract_z
 _atom_site_occupancy
  Tb  Tb0  1  0.793446  0.314549  0.434329  1
  Tb  Tb1  1  0.420702  0.749596  0.999724  1
  Tb  Tb2  1  0.579030  0.250394  0.999968  1
  Y  Y3  1  0.979067  0.915199  0.186476  1
  Y  Y4  1  0.791932  0.584635  0.813074  1
  Y  Y5  1  0.021216  0.084641  0.813360  1
  Y  Y6  1  0.207558  0.415648  0.186859  1
  Y  Y7  1  0.640772  0.814361  0.435052  1
  Y  Y8  1  0.206448  0.685666  0.565440  1
  Y  Y9  1  0.359241  0.185574  0.565154  1
  Ru  Ru10  1  0.823123  0.575119  0.220508  1
  Ru  Ru11  1  0.603004  0.924991  0.779720  1
  Ru  Ru12  1  0.176857  0.424235  0.779801  1
  Ru  Ru13  1  0.397603  0.075390  0.220536  1
