# generated using pymatgen
data_Dy2Tm14In4OsRh3
_symmetry_space_group_name_H-M   'P 1'
_cell_length_a   9.56339085
_cell_length_b   9.53869778
_cell_length_c   9.56402488
_cell_angle_alpha   59.97468317
_cell_angle_beta   60.00219266
_cell_angle_gamma   59.91432748
_symmetry_Int_Tables_number   1
_chemical_formula_structural   Dy2Tm14In4OsRh3
_chemical_formula_sum   'Dy2 Tm14 In4 Os1 Rh3'
_cell_volume   616.40881481
_cell_formula_units_Z   1
loop_
 _symmetry_equiv_pos_site_id
 _symmetry_equiv_pos_as_xyz
  1  'x, y, z'
loop_
 _atom_site_type_symbol
 _atom_site_label
 _atom_site_symmetry_multiplicity
 _atom_site_fract_x
 _atom_site_fract_y
 _atom_site_fract_z
 _atom_site_occupancy
  Dy  Dy0  1  0.058294  0.059087  0.436570  1
  Dy  Dy1  1  0.446050  0.059087  0.436570  1
  Tm  Tm2  1  0.062578  0.438805  0.060405  1
  Tm  Tm3  1  0.046746  0.650161  0.650864  1
  Tm  Tm4  1  0.438214  0.438805  0.060405  1
  Tm  Tm5  1  0.651071  0.047565  0.650294  1
  Tm  Tm6  1  0.188848  0.808927  0.193112  1
  Tm  Tm7  1  0.189902  0.191559  0.810395  1
  Tm  Tm8  1  0.809113  0.808927  0.193112  1
  Tm  Tm9  1  0.439654  0.061902  0.058790  1
  Tm  Tm10  1  0.809196  0.189223  0.192385  1
  Tm  Tm11  1  0.057676  0.447885  0.436764  1
  Tm  Tm12  1  0.808144  0.191559  0.810395  1
  Tm  Tm13  1  0.190592  0.808238  0.810578  1
  Tm  Tm14  1  0.651311  0.649610  0.047769  1
  Tm  Tm15  1  0.652229  0.650161  0.650864  1
  In  In16  1  0.416774  0.417413  0.415347  1
  In  In17  1  0.750466  0.417413  0.415347  1
  In  In18  1  0.417637  0.749150  0.415577  1
  In  In19  1  0.417059  0.417072  0.748811  1
  Os  Os20  1  0.858778  0.856621  0.425823  1
  Rh  Rh21  1  0.858624  0.858614  0.860517  1
  Rh  Rh22  1  0.422247  0.858614  0.860517  1
  Rh  Rh23  1  0.858799  0.423608  0.858795  1
