# generated using pymatgen
data_AcY2Si2GeRh6
_symmetry_space_group_name_H-M   'P 1'
_cell_length_a   5.69633200
_cell_length_b   5.69633131
_cell_length_c   15.22698000
_cell_angle_alpha   90.00000000
_cell_angle_beta   90.00000000
_cell_angle_gamma   119.99999240
_symmetry_Int_Tables_number   1
_chemical_formula_structural   AcY2Si2GeRh6
_chemical_formula_sum   'Ac2 Y4 Si4 Ge2 Rh12'
_cell_volume   427.89279762
_cell_formula_units_Z   2
loop_
 _symmetry_equiv_pos_site_id
 _symmetry_equiv_pos_as_xyz
  1  'x, y, z'
loop_
 _atom_site_type_symbol
 _atom_site_label
 _atom_site_symmetry_multiplicity
 _atom_site_fract_x
 _atom_site_fract_y
 _atom_site_fract_z
 _atom_site_occupancy
  Ac  Ac0  1  0.666667  0.333333  0.750000  1
  Ac  Ac1  1  0.333333  0.666667  0.250000  1
  Y  Y2  1  0.666667  0.333333  0.967890  1
  Y  Y3  1  0.666667  0.333333  0.532110  1
  Y  Y4  1  0.333333  0.666667  0.032110  1
  Y  Y5  1  0.333333  0.666667  0.467890  1
  Si  Si6  1  0.666667  0.333333  0.250000  1
  Si  Si7  1  0.000000  0.000000  0.250000  1
  Si  Si8  1  0.000000  0.000000  0.750000  1
  Si  Si9  1  0.333333  0.666667  0.750000  1
  Ge  Ge10  1  0.000000  0.000000  0.500000  1
  Ge  Ge11  1  0.000000  0.000000  0.000000  1
  Rh  Rh12  1  0.166442  0.332885  0.867162  1
  Rh  Rh13  1  0.166442  0.332885  0.632838  1
  Rh  Rh14  1  0.667115  0.833558  0.867162  1
  Rh  Rh15  1  0.332885  0.166442  0.367162  1
  Rh  Rh16  1  0.833558  0.667115  0.367162  1
  Rh  Rh17  1  0.833558  0.166442  0.367162  1
  Rh  Rh18  1  0.833558  0.166442  0.132838  1
  Rh  Rh19  1  0.332885  0.166442  0.132838  1
  Rh  Rh20  1  0.667115  0.833558  0.632838  1
  Rh  Rh21  1  0.166442  0.833558  0.632838  1
  Rh  Rh22  1  0.833558  0.667115  0.132838  1
  Rh  Rh23  1  0.166442  0.833558  0.867162  1
