# generated using pymatgen
data_Ca3Er5Hg8
_symmetry_space_group_name_H-M   'P 1'
_cell_length_a   7.47477800
_cell_length_b   7.47439400
_cell_length_c   7.48121000
_cell_angle_alpha   90.00000000
_cell_angle_beta   90.00200062
_cell_angle_gamma   90.00000000
_symmetry_Int_Tables_number   1
_chemical_formula_structural   Ca3Er5Hg8
_chemical_formula_sum   'Ca3 Er5 Hg8'
_cell_volume   417.97098206
_cell_formula_units_Z   1
loop_
 _symmetry_equiv_pos_site_id
 _symmetry_equiv_pos_as_xyz
  1  'x, y, z'
loop_
 _atom_site_type_symbol
 _atom_site_label
 _atom_site_symmetry_multiplicity
 _atom_site_fract_x
 _atom_site_fract_y
 _atom_site_fract_z
 _atom_site_occupancy
  Ca  Ca0  1  0.249496  0.750000  0.499998  1
  Ca  Ca1  1  0.750627  0.250000  0.500006  1
  Ca  Ca2  1  0.250487  0.750000  0.999996  1
  Er  Er3  1  0.250717  0.250000  0.999994  1
  Er  Er4  1  0.749352  0.750000  0.999994  1
  Er  Er5  1  0.750626  0.750000  0.500004  1
  Er  Er6  1  0.249378  0.250000  0.499985  1
  Er  Er7  1  0.749505  0.250000  0.000031  1
  Hg  Hg8  1  0.995693  0.495662  0.245833  1
  Hg  Hg9  1  0.995693  0.004340  0.245833  1
  Hg  Hg10  1  0.504338  0.004362  0.247664  1
  Hg  Hg11  1  0.504338  0.495638  0.247664  1
  Hg  Hg12  1  0.504259  0.495679  0.752310  1
  Hg  Hg13  1  0.504259  0.004323  0.752310  1
  Hg  Hg14  1  0.995615  0.004384  0.754190  1
  Hg  Hg15  1  0.995615  0.495616  0.754190  1
