# generated using pymatgen
data_Tb3Dy2Ta3(P3Ir4)4
_symmetry_space_group_name_H-M   'P 1'
_cell_length_a   12.77586200
_cell_length_b   12.77586283
_cell_length_c   3.99677600
_cell_angle_alpha   90.00000000
_cell_angle_beta   90.00000000
_cell_angle_gamma   119.99999786
_symmetry_Int_Tables_number   1
_chemical_formula_structural   Tb3Dy2Ta3(P3Ir4)4
_chemical_formula_sum   'Tb3 Dy2 Ta3 P12 Ir16'
_cell_volume   564.96416520
_cell_formula_units_Z   1
loop_
 _symmetry_equiv_pos_site_id
 _symmetry_equiv_pos_as_xyz
  1  'x, y, z'
loop_
 _atom_site_type_symbol
 _atom_site_label
 _atom_site_symmetry_multiplicity
 _atom_site_fract_x
 _atom_site_fract_y
 _atom_site_fract_z
 _atom_site_occupancy
  Tb  Tb0  1  0.000000  0.813700  0.000000  1
  Tb  Tb1  1  0.186300  0.186300  0.000000  1
  Tb  Tb2  1  0.813700  0.000000  0.000000  1
  Dy  Dy3  1  0.333333  0.666667  0.500000  1
  Dy  Dy4  1  0.666667  0.333333  0.500000  1
  Ta  Ta5  1  0.000000  0.452899  0.500000  1
  Ta  Ta6  1  0.547101  0.547101  0.500000  1
  Ta  Ta7  1  0.452899  0.000000  0.500000  1
  P  P8  1  0.000000  0.643204  0.500000  1
  P  P9  1  0.356796  0.356796  0.500000  1
  P  P10  1  0.643204  0.000000  0.500000  1
  P  P11  1  0.517310  0.685015  0.000000  1
  P  P12  1  0.314985  0.832294  0.000000  1
  P  P13  1  0.167706  0.482690  0.000000  1
  P  P14  1  0.482690  0.167706  0.000000  1
  P  P15  1  0.685015  0.517310  0.000000  1
  P  P16  1  0.832294  0.314985  0.000000  1
  P  P17  1  0.000000  0.176422  0.500000  1
  P  P18  1  0.823578  0.823578  0.500000  1
  P  P19  1  0.176422  0.000000  0.500000  1
  Ir  Ir20  1  0.506811  0.863910  0.000000  1
  Ir  Ir21  1  0.136090  0.642903  0.000000  1
  Ir  Ir22  1  0.357097  0.493189  0.000000  1
  Ir  Ir23  1  0.493189  0.357097  0.000000  1
  Ir  Ir24  1  0.863910  0.506811  0.000000  1
  Ir  Ir25  1  0.642903  0.136090  0.000000  1
  Ir  Ir26  1  0.000000  0.283825  0.000000  1
  Ir  Ir27  1  0.716175  0.716175  0.000000  1
  Ir  Ir28  1  0.283825  0.000000  0.000000  1
  Ir  Ir29  1  0.626758  0.804399  0.500000  1
  Ir  Ir30  1  0.195601  0.822359  0.500000  1
  Ir  Ir31  1  0.177641  0.373242  0.500000  1
  Ir  Ir32  1  0.373242  0.177641  0.500000  1
  Ir  Ir33  1  0.804399  0.626758  0.500000  1
  Ir  Ir34  1  0.822359  0.195601  0.500000  1
  Ir  Ir35  1  0.000000  0.000000  0.500000  1
