# generated using pymatgen
data_K2TiS2O
_symmetry_space_group_name_H-M   'P 1'
_cell_length_a   14.87509500
_cell_length_b   6.24010880
_cell_length_c   7.59209260
_cell_angle_alpha   66.53342463
_cell_angle_beta   90.00000000
_cell_angle_gamma   90.00000000
_symmetry_Int_Tables_number   1
_chemical_formula_structural   K2TiS2O
_chemical_formula_sum   'K8 Ti4 S8 O4'
_cell_volume   646.42964713
_cell_formula_units_Z   4
loop_
 _symmetry_equiv_pos_site_id
 _symmetry_equiv_pos_as_xyz
  1  'x, y, z'
loop_
 _atom_site_type_symbol
 _atom_site_label
 _atom_site_symmetry_multiplicity
 _atom_site_fract_x
 _atom_site_fract_y
 _atom_site_fract_z
 _atom_site_occupancy
  K  K0  1  0.362282  0.460161  0.610404  1
  K  K1  1  0.935233  0.346592  0.792436  1
  K  K2  1  0.137718  0.960161  0.610404  1
  K  K3  1  0.435233  0.153408  0.207564  1
  K  K4  1  0.564767  0.846592  0.792436  1
  K  K5  1  0.862282  0.039839  0.389596  1
  K  K6  1  0.064767  0.653408  0.207564  1
  K  K7  1  0.637718  0.539839  0.389596  1
  Ti  Ti8  1  0.312437  0.820974  0.974194  1
  Ti  Ti9  1  0.687563  0.179026  0.025806  1
  Ti  Ti10  1  0.187563  0.320974  0.974194  1
  Ti  Ti11  1  0.812437  0.679026  0.025806  1
  S  S12  1  0.571237  0.332046  0.826221  1
  S  S13  1  0.358025  0.935873  0.667513  1
  S  S14  1  0.858025  0.564127  0.332487  1
  S  S15  1  0.928763  0.832046  0.826221  1
  S  S16  1  0.641975  0.064127  0.332487  1
  S  S17  1  0.141975  0.435873  0.667513  1
  S  S18  1  0.428763  0.667954  0.173779  1
  S  S19  1  0.071237  0.167954  0.173779  1
  O  O20  1  0.725190  0.908173  0.993094  1
  O  O21  1  0.225190  0.591827  0.006906  1
  O  O22  1  0.774810  0.408173  0.993094  1
  O  O23  1  0.274810  0.091827  0.006906  1
