# generated using pymatgen
data_NdHoCuNi6
_symmetry_space_group_name_H-M   'P 1'
_cell_length_a   4.99613792
_cell_length_b   4.99613821
_cell_length_c   12.43216339
_cell_angle_alpha   78.40830570
_cell_angle_beta   78.40830732
_cell_angle_gamma   60.00000052
_symmetry_Int_Tables_number   1
_chemical_formula_structural   NdHoCuNi6
_chemical_formula_sum   'Nd2 Ho2 Cu2 Ni12'
_cell_volume   261.41466988
_cell_formula_units_Z   2
loop_
 _symmetry_equiv_pos_site_id
 _symmetry_equiv_pos_as_xyz
  1  'x, y, z'
loop_
 _atom_site_type_symbol
 _atom_site_label
 _atom_site_symmetry_multiplicity
 _atom_site_fract_x
 _atom_site_fract_y
 _atom_site_fract_z
 _atom_site_occupancy
  Nd  Nd0  1  0.948575  0.948575  0.154274  1
  Nd  Nd1  1  0.051425  0.051425  0.845726  1
  Ho  Ho2  1  0.852128  0.852128  0.443616  1
  Ho  Ho3  1  0.147872  0.147872  0.556384  1
  Cu  Cu4  1  0.722247  0.722247  0.833259  1
  Cu  Cu5  1  0.277753  0.277753  0.166741  1
  Ni  Ni6  1  0.500000  0.500000  0.500000  1
  Ni  Ni7  1  0.611254  0.611254  0.166238  1
  Ni  Ni8  1  0.388746  0.388746  0.833762  1
  Ni  Ni9  1  0.000000  0.500000  0.000000  1
  Ni  Ni10  1  0.500000  0.000000  0.000000  1
  Ni  Ni11  1  0.500000  0.500000  0.000000  1
  Ni  Ni12  1  0.388953  0.388953  0.333118  1
  Ni  Ni13  1  0.888976  0.388953  0.333118  1
  Ni  Ni14  1  0.388953  0.888976  0.333118  1
  Ni  Ni15  1  0.611047  0.611047  0.666882  1
  Ni  Ni16  1  0.111024  0.611047  0.666882  1
  Ni  Ni17  1  0.611047  0.111024  0.666882  1
