# generated using pymatgen
data_CaTm7(Ge4Mo3)4
_symmetry_space_group_name_H-M   'P 1'
_cell_length_a   6.89322334
_cell_length_b   7.03776788
_cell_length_c   13.10564989
_cell_angle_alpha   89.92155906
_cell_angle_beta   89.97355573
_cell_angle_gamma   89.94140152
_symmetry_Int_Tables_number   1
_chemical_formula_structural   CaTm7(Ge4Mo3)4
_chemical_formula_sum   'Ca1 Tm7 Ge16 Mo12'
_cell_volume   635.79216334
_cell_formula_units_Z   1
loop_
 _symmetry_equiv_pos_site_id
 _symmetry_equiv_pos_as_xyz
  1  'x, y, z'
loop_
 _atom_site_type_symbol
 _atom_site_label
 _atom_site_symmetry_multiplicity
 _atom_site_fract_x
 _atom_site_fract_y
 _atom_site_fract_z
 _atom_site_occupancy
  Ca  Ca0  1  0.989641  0.830169  0.589505  1
  Tm  Tm1  1  0.489235  0.670949  0.592307  1
  Tm  Tm2  1  0.989259  0.828863  0.907886  1
  Tm  Tm3  1  0.511926  0.328708  0.091741  1
  Tm  Tm4  1  0.011431  0.170799  0.408848  1
  Tm  Tm5  1  0.511834  0.329337  0.408566  1
  Tm  Tm6  1  0.011903  0.170754  0.091949  1
  Tm  Tm7  1  0.488683  0.671354  0.907669  1
  Ge  Ge8  1  0.670045  0.954324  0.452516  1
  Ge  Ge9  1  0.172115  0.546146  0.047171  1
  Ge  Ge10  1  0.327908  0.045753  0.952723  1
  Ge  Ge11  1  0.828435  0.454813  0.548049  1
  Ge  Ge12  1  0.329733  0.045482  0.547678  1
  Ge  Ge13  1  0.827903  0.454555  0.953034  1
  Ge  Ge14  1  0.672615  0.954050  0.047299  1
  Ge  Ge15  1  0.171483  0.545105  0.451801  1
  Ge  Ge16  1  0.468746  0.370478  0.750612  1
  Ge  Ge17  1  0.969440  0.130216  0.749675  1
  Ge  Ge18  1  0.529821  0.629996  0.249700  1
  Ge  Ge19  1  0.030232  0.868900  0.250675  1
  Ge  Ge20  1  0.689865  0.853886  0.749242  1
  Ge  Ge21  1  0.187172  0.647460  0.749142  1
  Ge  Ge22  1  0.311794  0.146920  0.250193  1
  Ge  Ge23  1  0.812018  0.352291  0.250161  1
  Mo  Mo24  1  0.666300  0.158390  0.627385  1
  Mo  Mo25  1  0.169209  0.344897  0.873886  1
  Mo  Mo26  1  0.330665  0.845177  0.126971  1
  Mo  Mo27  1  0.828532  0.653564  0.371830  1
  Mo  Mo28  1  0.331536  0.844893  0.372746  1
  Mo  Mo29  1  0.830321  0.654427  0.126768  1
  Mo  Mo30  1  0.669912  0.155581  0.873430  1
  Mo  Mo31  1  0.169460  0.343779  0.627315  1
  Mo  Mo32  1  0.832606  0.492452  0.751208  1
  Mo  Mo33  1  0.334243  0.006223  0.751058  1
  Mo  Mo34  1  0.166999  0.504923  0.249670  1
  Mo  Mo35  1  0.666981  0.994388  0.249592  1
