# generated using pymatgen
data_Er12Ni4HgPt
_symmetry_space_group_name_H-M   'P 1'
_cell_length_a   8.22841483
_cell_length_b   8.22841401
_cell_length_c   8.22841495
_cell_angle_alpha   111.67510502
_cell_angle_beta   109.85228208
_cell_angle_gamma   106.92146712
_symmetry_Int_Tables_number   1
_chemical_formula_structural   Er12Ni4HgPt
_chemical_formula_sum   'Er12 Ni4 Hg1 Pt1'
_cell_volume   428.12380613
_cell_formula_units_Z   1
loop_
 _symmetry_equiv_pos_site_id
 _symmetry_equiv_pos_as_xyz
  1  'x, y, z'
loop_
 _atom_site_type_symbol
 _atom_site_label
 _atom_site_symmetry_multiplicity
 _atom_site_fract_x
 _atom_site_fract_y
 _atom_site_fract_z
 _atom_site_occupancy
  Er  Er0  1  0.325393  0.131959  0.806566  1
  Er  Er1  1  0.674607  0.481174  0.806566  1
  Er  Er2  1  0.418278  0.726473  0.691806  1
  Er  Er3  1  0.581722  0.273527  0.308194  1
  Er  Er4  1  0.965333  0.273527  0.691806  1
  Er  Er5  1  0.034667  0.726473  0.308194  1
  Er  Er6  1  0.325393  0.518826  0.193434  1
  Er  Er7  1  0.674607  0.868041  0.193434  1
  Er  Er8  1  0.180693  0.786170  0.966863  1
  Er  Er9  1  0.819307  0.786170  0.605476  1
  Er  Er10  1  0.180693  0.213830  0.394524  1
  Er  Er11  1  0.819307  0.213830  0.033137  1
  Ni  Ni12  1  0.876666  0.876666  0.000000  1
  Ni  Ni13  1  0.123334  0.123334  0.000000  1
  Ni  Ni14  1  0.644445  0.500000  0.144445  1
  Ni  Ni15  1  0.355555  0.500000  0.855555  1
  Hg  Hg16  1  0.500000  0.000000  0.500000  1
  Pt  Pt17  1  0.000000  0.500000  0.500000  1
