# generated using pymatgen
data_LaPr3(Pt2O7)2
_symmetry_space_group_name_H-M   'P 1'
_cell_length_a   7.47515122
_cell_length_b   7.47515180
_cell_length_c   7.47515132
_cell_angle_alpha   60.08811455
_cell_angle_beta   60.08811312
_cell_angle_gamma   60.08811444
_symmetry_Int_Tables_number   1
_chemical_formula_structural   LaPr3(Pt2O7)2
_chemical_formula_sum   'La1 Pr3 Pt4 O14'
_cell_volume   295.94517238
_cell_formula_units_Z   1
loop_
 _symmetry_equiv_pos_site_id
 _symmetry_equiv_pos_as_xyz
  1  'x, y, z'
loop_
 _atom_site_type_symbol
 _atom_site_label
 _atom_site_symmetry_multiplicity
 _atom_site_fract_x
 _atom_site_fract_y
 _atom_site_fract_z
 _atom_site_occupancy
  La  La0  1  0.125000  0.125000  0.125000  1
  Pr  Pr1  1  0.625000  0.125000  0.125000  1
  Pr  Pr2  1  0.125000  0.625000  0.125000  1
  Pr  Pr3  1  0.125000  0.125000  0.625000  1
  Pt  Pt4  1  0.625000  0.625000  0.125000  1
  Pt  Pt5  1  0.625000  0.625000  0.625000  1
  Pt  Pt6  1  0.625000  0.125000  0.625000  1
  Pt  Pt7  1  0.125000  0.625000  0.625000  1
  O  O8  1  0.706650  0.291425  0.291425  1
  O  O9  1  0.709464  0.709464  0.290758  1
  O  O10  1  0.291425  0.706650  0.291425  1
  O  O11  1  0.999848  0.999848  0.999848  1
  O  O12  1  0.709464  0.290758  0.709464  1
  O  O13  1  0.959242  0.540536  0.540536  1
  O  O14  1  0.290758  0.709464  0.709464  1
  O  O15  1  0.540536  0.959242  0.540536  1
  O  O16  1  0.250152  0.250152  0.250152  1
  O  O17  1  0.958575  0.543350  0.958575  1
  O  O18  1  0.540536  0.540536  0.959242  1
  O  O19  1  0.958575  0.958575  0.543350  1
  O  O20  1  0.543350  0.958575  0.958575  1
  O  O21  1  0.291425  0.291425  0.706650  1
