# generated using pymatgen
data_BaTh2Te5
_symmetry_space_group_name_H-M   'P 1'
_cell_length_a   8.58926300
_cell_length_b   9.59108355
_cell_length_c   13.61645085
_cell_angle_alpha   89.62627972
_cell_angle_beta   90.00000000
_cell_angle_gamma   90.00000000
_symmetry_Int_Tables_number   1
_chemical_formula_structural   BaTh2Te5
_chemical_formula_sum   'Ba4 Th8 Te20'
_cell_volume   1121.70397597
_cell_formula_units_Z   4
loop_
 _symmetry_equiv_pos_site_id
 _symmetry_equiv_pos_as_xyz
  1  'x, y, z'
loop_
 _atom_site_type_symbol
 _atom_site_label
 _atom_site_symmetry_multiplicity
 _atom_site_fract_x
 _atom_site_fract_y
 _atom_site_fract_z
 _atom_site_occupancy
  Ba  Ba0  1  0.051391  0.492824  0.330671  1
  Ba  Ba1  1  0.551391  0.507176  0.169329  1
  Ba  Ba2  1  0.948609  0.507176  0.669329  1
  Ba  Ba3  1  0.448609  0.492824  0.830671  1
  Th  Th4  1  0.024055  0.997011  0.319029  1
  Th  Th5  1  0.524055  0.002989  0.180971  1
  Th  Th6  1  0.975945  0.002989  0.680971  1
  Th  Th7  1  0.475945  0.997011  0.819029  1
  Th  Th8  1  0.074820  0.752875  0.009179  1
  Th  Th9  1  0.574820  0.247125  0.490821  1
  Th  Th10  1  0.925180  0.247125  0.990821  1
  Th  Th11  1  0.425180  0.752875  0.509179  1
  Te  Te12  1  0.664863  0.955661  0.399304  1
  Te  Te13  1  0.164863  0.044339  0.100696  1
  Te  Te14  1  0.335137  0.044339  0.600696  1
  Te  Te15  1  0.835137  0.955661  0.899304  1
  Te  Te16  1  0.454070  0.786497  0.001970  1
  Te  Te17  1  0.954070  0.213503  0.498030  1
  Te  Te18  1  0.545930  0.213503  0.998030  1
  Te  Te19  1  0.045930  0.786497  0.501970  1
  Te  Te20  1  0.830787  0.782274  0.185355  1
  Te  Te21  1  0.330787  0.217726  0.314645  1
  Te  Te22  1  0.169213  0.217726  0.814645  1
  Te  Te23  1  0.669213  0.782274  0.685355  1
  Te  Te24  1  0.308604  0.770604  0.284428  1
  Te  Te25  1  0.808604  0.229396  0.215572  1
  Te  Te26  1  0.691396  0.229396  0.715572  1
  Te  Te27  1  0.191396  0.770604  0.784428  1
  Te  Te28  1  0.178214  0.459084  0.078813  1
  Te  Te29  1  0.678214  0.540916  0.421187  1
  Te  Te30  1  0.821786  0.540916  0.921187  1
  Te  Te31  1  0.321786  0.459084  0.578813  1
