# generated using pymatgen
data_Rb4Na2LuInP4
_symmetry_space_group_name_H-M   'P 1'
_cell_length_a   9.21496530
_cell_length_b   9.21496450
_cell_length_c   9.21496520
_cell_angle_alpha   136.18328365
_cell_angle_beta   137.36941834
_cell_angle_gamma   62.78737124
_symmetry_Int_Tables_number   1
_chemical_formula_structural   Rb4Na2LuInP4
_chemical_formula_sum   'Rb4 Na2 Lu1 In1 P4'
_cell_volume   362.37319705
_cell_formula_units_Z   1
loop_
 _symmetry_equiv_pos_site_id
 _symmetry_equiv_pos_as_xyz
  1  'x, y, z'
loop_
 _atom_site_type_symbol
 _atom_site_label
 _atom_site_symmetry_multiplicity
 _atom_site_fract_x
 _atom_site_fract_y
 _atom_site_fract_z
 _atom_site_occupancy
  Rb  Rb0  1  0.184783  0.958441  0.784807  1
  Rb  Rb1  1  0.826365  0.041559  0.226341  1
  Rb  Rb2  1  0.315217  0.600025  0.273659  1
  Rb  Rb3  1  0.673635  0.399975  0.715193  1
  Na  Na4  1  0.750000  0.000000  0.750000  1
  Na  Na5  1  0.250000  0.000000  0.250000  1
  Lu  Lu6  1  0.750000  0.500000  0.250000  1
  In  In7  1  0.250000  0.500000  0.750000  1
  P  P8  1  0.403836  0.189506  0.782020  1
  P  P9  1  0.592514  0.810494  0.214330  1
  P  P10  1  0.096164  0.378183  0.285670  1
  P  P11  1  0.907486  0.621817  0.717980  1
