# generated using pymatgen
data_In3FeP7N12
_symmetry_space_group_name_H-M   'P 1'
_cell_length_a   7.30457002
_cell_length_b   7.34117520
_cell_length_c   7.34117600
_cell_angle_alpha   109.57200209
_cell_angle_beta   109.37024609
_cell_angle_gamma   109.37024897
_symmetry_Int_Tables_number   1
_chemical_formula_structural   In3FeP7N12
_chemical_formula_sum   'In3 Fe1 P7 N12'
_cell_volume   303.41963447
_cell_formula_units_Z   1
loop_
 _symmetry_equiv_pos_site_id
 _symmetry_equiv_pos_as_xyz
  1  'x, y, z'
loop_
 _atom_site_type_symbol
 _atom_site_label
 _atom_site_symmetry_multiplicity
 _atom_site_fract_x
 _atom_site_fract_y
 _atom_site_fract_z
 _atom_site_occupancy
  In  In0  1  0.017024  0.000000  0.705857  1
  In  In1  1  0.017024  0.705857  0.000000  1
  In  In2  1  0.311168  0.294143  0.294143  1
  Fe  Fe3  1  0.605014  0.000000  0.000000  1
  P  P4  1  0.259607  0.748898  0.499559  1
  P  P5  1  0.760049  0.249340  0.500441  1
  P  P6  1  0.760049  0.500441  0.249340  1
  P  P7  1  0.259607  0.499559  0.748898  1
  P  P8  1  0.510708  0.750660  0.251102  1
  P  P9  1  0.510708  0.251102  0.750660  1
  P  P10  1  0.885643  0.000000  0.000000  1
  N  N11  1  0.719614  0.282567  0.282567  1
  N  N12  1  0.288352  0.709399  0.279368  1
  N  N13  1  0.297099  0.567090  0.567090  1
  N  N14  1  0.578952  0.569969  0.290601  1
  N  N15  1  0.437047  0.717433  0.000000  1
  N  N16  1  0.008983  0.720632  0.430031  1
  N  N17  1  0.578952  0.290601  0.569969  1
  N  N18  1  0.730009  0.000000  0.432910  1
  N  N19  1  0.437047  0.000000  0.717433  1
  N  N20  1  0.730009  0.432910  0.000000  1
  N  N21  1  0.288352  0.279368  0.709399  1
  N  N22  1  0.008983  0.430031  0.720632  1
