# generated using pymatgen
data_Dy8Ho2Ga3Bi2Pt
_symmetry_space_group_name_H-M   'P 1'
_cell_length_a   8.63615752
_cell_length_b   8.63615818
_cell_length_c   8.77337300
_cell_angle_alpha   124.42057266
_cell_angle_beta   124.42056697
_cell_angle_gamma   81.46064794
_symmetry_Int_Tables_number   1
_chemical_formula_structural   Dy8Ho2Ga3Bi2Pt
_chemical_formula_sum   'Dy8 Ho2 Ga3 Bi2 Pt1'
_cell_volume   430.97398521
_cell_formula_units_Z   1
loop_
 _symmetry_equiv_pos_site_id
 _symmetry_equiv_pos_as_xyz
  1  'x, y, z'
loop_
 _atom_site_type_symbol
 _atom_site_label
 _atom_site_symmetry_multiplicity
 _atom_site_fract_x
 _atom_site_fract_y
 _atom_site_fract_z
 _atom_site_occupancy
  Dy  Dy0  1  0.785019  0.295992  0.799453  1
  Dy  Dy1  1  0.204008  0.714981  0.200547  1
  Dy  Dy2  1  0.485567  0.996539  0.200547  1
  Dy  Dy3  1  0.299738  0.467351  0.500000  1
  Dy  Dy4  1  0.032649  0.200262  0.500000  1
  Dy  Dy5  1  0.503461  0.014433  0.799453  1
  Dy  Dy6  1  0.703704  0.515190  0.500000  1
  Dy  Dy7  1  0.984810  0.796296  0.500000  1
  Ho  Ho8  1  0.996318  0.998168  0.994485  1
  Ho  Ho9  1  0.501832  0.503682  0.005515  1
  Ga  Ga10  1  0.144497  0.645174  0.789670  1
  Ga  Ga11  1  0.854826  0.355503  0.210330  1
  Ga  Ga12  1  0.638721  0.861279  0.500000  1
  Bi  Bi13  1  0.246356  0.253644  0.000000  1
  Bi  Bi14  1  0.746356  0.753644  0.000000  1
  Pt  Pt15  1  0.372139  0.127861  0.500000  1
