# generated using pymatgen
data_Al(S8I)3
_symmetry_space_group_name_H-M   'P 1'
_cell_length_a   15.49965583
_cell_length_b   15.49965535
_cell_length_c   15.49965437
_cell_angle_alpha   118.79759041
_cell_angle_beta   118.79758973
_cell_angle_gamma   118.79758669
_symmetry_Int_Tables_number   1
_chemical_formula_structural   Al(S8I)3
_chemical_formula_sum   'Al1 S24 I3'
_cell_volume   1055.04854057
_cell_formula_units_Z   1
loop_
 _symmetry_equiv_pos_site_id
 _symmetry_equiv_pos_as_xyz
  1  'x, y, z'
loop_
 _atom_site_type_symbol
 _atom_site_label
 _atom_site_symmetry_multiplicity
 _atom_site_fract_x
 _atom_site_fract_y
 _atom_site_fract_z
 _atom_site_occupancy
  Al  Al0  1  0.942388  0.942388  0.942388  1
  S  S1  1  0.800464  0.514044  0.514044  1
  S  S2  1  0.514044  0.514044  0.800464  1
  S  S3  1  0.514044  0.800464  0.514044  1
  S  S4  1  0.240714  0.366850  0.631956  1
  S  S5  1  0.360171  0.954297  0.360171  1
  S  S6  1  0.360171  0.360171  0.954297  1
  S  S7  1  0.954297  0.360171  0.360171  1
  S  S8  1  0.132623  0.741172  0.258788  1
  S  S9  1  0.258788  0.132623  0.741172  1
  S  S10  1  0.741172  0.258788  0.132623  1
  S  S11  1  0.741172  0.132623  0.258788  1
  S  S12  1  0.258788  0.741172  0.132623  1
  S  S13  1  0.132623  0.258788  0.741172  1
  S  S14  1  0.349776  0.879345  0.528156  1
  S  S15  1  0.528156  0.349776  0.879345  1
  S  S16  1  0.879345  0.528156  0.349776  1
  S  S17  1  0.879345  0.349776  0.528156  1
  S  S18  1  0.528156  0.879345  0.349776  1
  S  S19  1  0.349776  0.528156  0.879345  1
  S  S20  1  0.240714  0.631956  0.366850  1
  S  S21  1  0.366850  0.240714  0.631956  1
  S  S22  1  0.631956  0.366850  0.240714  1
  S  S23  1  0.631956  0.240714  0.366850  1
  S  S24  1  0.366850  0.631956  0.240714  1
  I  I25  1  0.833432  0.993762  0.993762  1
  I  I26  1  0.993762  0.993762  0.833432  1
  I  I27  1  0.993762  0.833432  0.993762  1
