# generated using pymatgen
data_Dy4Ti3GaIr4
_symmetry_space_group_name_H-M   'P 1'
_cell_length_a   4.32410100
_cell_length_b   6.96431154
_cell_length_c   7.99602003
_cell_angle_alpha   92.71945219
_cell_angle_beta   90.00000000
_cell_angle_gamma   90.00000000
_symmetry_Int_Tables_number   1
_chemical_formula_structural   Dy4Ti3GaIr4
_chemical_formula_sum   'Dy4 Ti3 Ga1 Ir4'
_cell_volume   240.52405970
_cell_formula_units_Z   1
loop_
 _symmetry_equiv_pos_site_id
 _symmetry_equiv_pos_as_xyz
  1  'x, y, z'
loop_
 _atom_site_type_symbol
 _atom_site_label
 _atom_site_symmetry_multiplicity
 _atom_site_fract_x
 _atom_site_fract_y
 _atom_site_fract_z
 _atom_site_occupancy
  Dy  Dy0  1  0.250000  0.979846  0.314450  1
  Dy  Dy1  1  0.250000  0.470016  0.172639  1
  Dy  Dy2  1  0.750000  0.028438  0.688142  1
  Dy  Dy3  1  0.750000  0.512879  0.825126  1
  Ti  Ti4  1  0.250000  0.365806  0.569509  1
  Ti  Ti5  1  0.250000  0.866290  0.940040  1
  Ti  Ti6  1  0.750000  0.634085  0.431684  1
  Ga  Ga7  1  0.750000  0.145613  0.071494  1
  Ir  Ir8  1  0.250000  0.224437  0.874600  1
  Ir  Ir9  1  0.250000  0.726032  0.600135  1
  Ir  Ir10  1  0.750000  0.769200  0.111338  1
  Ir  Ir11  1  0.750000  0.277358  0.400842  1
