# generated using pymatgen
data_Er3Th(Ga3Ir)6
_symmetry_space_group_name_H-M   'P 1'
_cell_length_a   7.61988914
_cell_length_b   7.61947948
_cell_length_c   9.48666600
_cell_angle_alpha   90.00000000
_cell_angle_beta   90.00000000
_cell_angle_gamma   119.94734528
_symmetry_Int_Tables_number   1
_chemical_formula_structural   Er3Th(Ga3Ir)6
_chemical_formula_sum   'Er3 Th1 Ga18 Ir6'
_cell_volume   477.25268947
_cell_formula_units_Z   1
loop_
 _symmetry_equiv_pos_site_id
 _symmetry_equiv_pos_as_xyz
  1  'x, y, z'
loop_
 _atom_site_type_symbol
 _atom_site_label
 _atom_site_symmetry_multiplicity
 _atom_site_fract_x
 _atom_site_fract_y
 _atom_site_fract_z
 _atom_site_occupancy
  Er  Er0  1  0.003139  0.331830  0.250000  1
  Er  Er1  1  0.669127  0.997009  0.750000  1
  Er  Er2  1  0.331479  0.002624  0.250000  1
  Th  Th3  1  0.996696  0.668316  0.750000  1
  Ga  Ga4  1  0.129009  0.131649  0.750000  1
  Ga  Ga5  1  0.874123  0.874860  0.250000  1
  Ga  Ga6  1  0.998137  0.328549  0.578124  1
  Ga  Ga7  1  0.001710  0.665901  0.414609  1
  Ga  Ga8  1  0.001710  0.665901  0.085391  1
  Ga  Ga9  1  0.339689  0.003703  0.921920  1
  Ga  Ga10  1  0.998137  0.328549  0.921876  1
  Ga  Ga11  1  0.666086  0.001851  0.081224  1
  Ga  Ga12  1  0.666086  0.001851  0.418776  1
  Ga  Ga13  1  0.339689  0.003703  0.578080  1
  Ga  Ga14  1  0.331689  0.331646  0.066767  1
  Ga  Ga15  1  0.662976  0.668333  0.936992  1
  Ga  Ga16  1  0.662976  0.668333  0.563008  1
  Ga  Ga17  1  0.331689  0.331646  0.433233  1
  Ga  Ga18  1  0.342001  0.545554  0.750000  1
  Ga  Ga19  1  0.660094  0.452202  0.250000  1
  Ga  Ga20  1  0.541281  0.336075  0.750000  1
  Ga  Ga21  1  0.452561  0.660668  0.250000  1
  Ir  Ir22  1  0.673088  0.330251  0.500378  1
  Ir  Ir23  1  0.326472  0.671049  0.500718  1
  Ir  Ir24  1  0.326472  0.671049  0.999282  1
  Ir  Ir25  1  0.673088  0.330251  0.999622  1
  Ir  Ir26  1  0.000397  0.998324  0.500550  1
  Ir  Ir27  1  0.000397  0.998324  0.999450  1
