# generated using pymatgen
data_Y2Al2(GaAu)3
_symmetry_space_group_name_H-M   'P 1'
_cell_length_a   4.22697000
_cell_length_b   4.22697000
_cell_length_c   11.06165700
_cell_angle_alpha   90.00000000
_cell_angle_beta   90.00000000
_cell_angle_gamma   90.00000000
_symmetry_Int_Tables_number   1
_chemical_formula_structural   Y2Al2(GaAu)3
_chemical_formula_sum   'Y2 Al2 Ga3 Au3'
_cell_volume   197.64167179
_cell_formula_units_Z   1
loop_
 _symmetry_equiv_pos_site_id
 _symmetry_equiv_pos_as_xyz
  1  'x, y, z'
loop_
 _atom_site_type_symbol
 _atom_site_label
 _atom_site_symmetry_multiplicity
 _atom_site_fract_x
 _atom_site_fract_y
 _atom_site_fract_z
 _atom_site_occupancy
  Y  Y0  1  0.000000  0.500000  0.255826  1
  Y  Y1  1  0.500000  0.000000  0.744174  1
  Al  Al2  1  0.500000  0.500000  0.000000  1
  Al  Al3  1  0.000000  0.000000  0.000000  1
  Ga  Ga4  1  0.000000  0.500000  0.642486  1
  Ga  Ga5  1  0.500000  0.000000  0.357514  1
  Ga  Ga6  1  0.000000  0.000000  0.500000  1
  Au  Au7  1  0.000000  0.500000  0.866940  1
  Au  Au8  1  0.500000  0.000000  0.133060  1
  Au  Au9  1  0.500000  0.500000  0.500000  1
