# generated using pymatgen
data_Ca2Pr8InSi5
_symmetry_space_group_name_H-M   'P 1'
_cell_length_a   7.82962620
_cell_length_b   7.82962628
_cell_length_c   9.22113526
_cell_angle_alpha   115.12205045
_cell_angle_beta   115.12205142
_cell_angle_gamma   89.99999981
_symmetry_Int_Tables_number   1
_chemical_formula_structural   Ca2Pr8InSi5
_chemical_formula_sum   'Ca2 Pr8 In1 Si5'
_cell_volume   452.05667864
_cell_formula_units_Z   1
loop_
 _symmetry_equiv_pos_site_id
 _symmetry_equiv_pos_as_xyz
  1  'x, y, z'
loop_
 _atom_site_type_symbol
 _atom_site_label
 _atom_site_symmetry_multiplicity
 _atom_site_fract_x
 _atom_site_fract_y
 _atom_site_fract_z
 _atom_site_occupancy
  Ca  Ca0  1  0.515820  0.515820  0.031640  1
  Ca  Ca1  1  0.984180  0.984180  0.968360  1
  Pr  Pr2  1  0.973831  0.830044  0.282522  1
  Pr  Pr3  1  0.308691  0.452478  0.282522  1
  Pr  Pr4  1  0.830044  0.308691  0.282522  1
  Pr  Pr5  1  0.452478  0.973831  0.282522  1
  Pr  Pr6  1  0.047522  0.191309  0.717478  1
  Pr  Pr7  1  0.669956  0.526169  0.717478  1
  Pr  Pr8  1  0.191309  0.669956  0.717478  1
  Pr  Pr9  1  0.526169  0.047522  0.717478  1
  In  In10  1  0.750000  0.750000  0.500000  1
  Si  Si11  1  0.250000  0.250000  0.500000  1
  Si  Si12  1  0.612979  0.887021  0.000000  1
  Si  Si13  1  0.387021  0.112979  0.000000  1
  Si  Si14  1  0.887021  0.387021  0.000000  1
  Si  Si15  1  0.112979  0.612979  0.000000  1
