# generated using pymatgen
data_Cs4H11Ru2
_symmetry_space_group_name_H-M   'P 1'
_cell_length_a   6.55019292
_cell_length_b   9.51362325
_cell_length_c   11.33629287
_cell_angle_alpha   68.77282445
_cell_angle_beta   86.36475262
_cell_angle_gamma   86.15149893
_symmetry_Int_Tables_number   1
_chemical_formula_structural   Cs4H11Ru2
_chemical_formula_sum   'Cs8 H22 Ru4'
_cell_volume   656.43735631
_cell_formula_units_Z   2
loop_
 _symmetry_equiv_pos_site_id
 _symmetry_equiv_pos_as_xyz
  1  'x, y, z'
loop_
 _atom_site_type_symbol
 _atom_site_label
 _atom_site_symmetry_multiplicity
 _atom_site_fract_x
 _atom_site_fract_y
 _atom_site_fract_z
 _atom_site_occupancy
  Cs  Cs0  1  0.745022  0.354367  0.496089  1
  Cs  Cs1  1  0.255055  0.645651  0.503900  1
  Cs  Cs2  1  0.764373  0.447214  0.115389  1
  Cs  Cs3  1  0.235672  0.552757  0.884612  1
  Cs  Cs4  1  0.767137  0.967892  0.389303  1
  Cs  Cs5  1  0.232825  0.032120  0.610715  1
  Cs  Cs6  1  0.694328  0.168557  0.919934  1
  Cs  Cs7  1  0.305528  0.831440  0.080074  1
  H  H8  1  0.580789  0.778040  0.673996  1
  H  H9  1  0.419220  0.221955  0.325994  1
  H  H10  1  0.574926  0.476647  0.716473  1
  H  H11  1  0.425139  0.523346  0.283486  1
  H  H12  1  0.700837  0.012064  0.645481  1
  H  H13  1  0.299089  0.987936  0.354541  1
  H  H14  1  0.659645  0.656342  0.843031  1
  H  H15  1  0.340380  0.343637  0.156961  1
  H  H16  1  0.926381  0.753045  0.700065  1
  H  H17  1  0.073624  0.246961  0.299955  1
  H  H18  1  0.727312  0.645051  0.551607  1
  H  H19  1  0.272793  0.354955  0.448367  1
  H  H20  1  0.879878  0.969102  0.792427  1
  H  H21  1  0.120042  0.030936  0.207584  1
  H  H22  1  0.772483  0.799992  0.926753  1
  H  H23  1  0.227457  0.200030  0.073260  1
  H  H24  1  0.824321  0.469458  0.840897  1
  H  H25  1  0.175673  0.530532  0.159086  1
  H  H26  1  0.913265  0.487078  0.672957  1
  H  H27  1  0.086827  0.512938  0.327046  1
  H  H28  1  0.531375  0.940852  0.824318  1
  H  H29  1  0.468555  0.059104  0.175693  1
  Ru  Ru30  1  0.724571  0.851639  0.773531  1
  Ru  Ru31  1  0.275410  0.148357  0.226486  1
  Ru  Ru32  1  0.745757  0.603320  0.709159  1
  Ru  Ru33  1  0.254313  0.396682  0.290828  1
