# generated using pymatgen
data_Tm16Cd4Co3Rh
_symmetry_space_group_name_H-M   'P 1'
_cell_length_a   9.42184493
_cell_length_b   9.39036661
_cell_length_c   9.39036700
_cell_angle_alpha   60.00000214
_cell_angle_beta   60.11045989
_cell_angle_gamma   60.11046421
_symmetry_Int_Tables_number   1
_chemical_formula_structural   Tm16Cd4Co3Rh
_chemical_formula_sum   'Tm16 Cd4 Co3 Rh1'
_cell_volume   588.44946627
_cell_formula_units_Z   1
loop_
 _symmetry_equiv_pos_site_id
 _symmetry_equiv_pos_as_xyz
  1  'x, y, z'
loop_
 _atom_site_type_symbol
 _atom_site_label
 _atom_site_symmetry_multiplicity
 _atom_site_fract_x
 _atom_site_fract_y
 _atom_site_fract_z
 _atom_site_occupancy
  Tm  Tm0  1  0.340949  0.350450  0.350450  1
  Tm  Tm1  1  0.340949  0.350450  0.958152  1
  Tm  Tm2  1  0.340949  0.958152  0.350450  1
  Tm  Tm3  1  0.962707  0.345765  0.345765  1
  Tm  Tm4  1  0.817691  0.188086  0.188086  1
  Tm  Tm5  1  0.188143  0.812154  0.812154  1
  Tm  Tm6  1  0.188143  0.812154  0.187550  1
  Tm  Tm7  1  0.817691  0.188086  0.806135  1
  Tm  Tm8  1  0.188143  0.187550  0.812154  1
  Tm  Tm9  1  0.817691  0.806135  0.188086  1
  Tm  Tm10  1  0.936294  0.562976  0.562976  1
  Tm  Tm11  1  0.561836  0.937834  0.937834  1
  Tm  Tm12  1  0.561836  0.937834  0.562496  1
  Tm  Tm13  1  0.936294  0.562976  0.937752  1
  Tm  Tm14  1  0.561836  0.562496  0.937834  1
  Tm  Tm15  1  0.936294  0.937752  0.562976  1
  Cd  Cd16  1  0.581454  0.580384  0.580384  1
  Cd  Cd17  1  0.581454  0.580384  0.257779  1
  Cd  Cd18  1  0.581454  0.257779  0.580384  1
  Cd  Cd19  1  0.257493  0.580836  0.580836  1
  Co  Co20  1  0.141530  0.141103  0.141103  1
  Co  Co21  1  0.141530  0.141103  0.576265  1
  Co  Co22  1  0.141530  0.576265  0.141103  1
  Rh  Rh23  1  0.576107  0.141298  0.141298  1
