# generated using pymatgen
data_Sc4ZnPt11
_symmetry_space_group_name_H-M   'P 1'
_cell_length_a   4.04340100
_cell_length_b   5.64109511
_cell_length_c   11.27660665
_cell_angle_alpha   88.28443465
_cell_angle_beta   90.00000000
_cell_angle_gamma   90.00000000
_symmetry_Int_Tables_number   1
_chemical_formula_structural   Sc4ZnPt11
_chemical_formula_sum   'Sc4 Zn1 Pt11'
_cell_volume   257.09519349
_cell_formula_units_Z   1
loop_
 _symmetry_equiv_pos_site_id
 _symmetry_equiv_pos_as_xyz
  1  'x, y, z'
loop_
 _atom_site_type_symbol
 _atom_site_label
 _atom_site_symmetry_multiplicity
 _atom_site_fract_x
 _atom_site_fract_y
 _atom_site_fract_z
 _atom_site_occupancy
  Sc  Sc0  1  0.500000  0.753824  0.373683  1
  Sc  Sc1  1  0.500000  0.728215  0.868344  1
  Sc  Sc2  1  0.500000  0.271785  0.131656  1
  Sc  Sc3  1  0.500000  0.246176  0.626317  1
  Zn  Zn4  1  0.000000  0.000000  0.000000  1
  Pt  Pt5  1  0.000000  0.011038  0.245126  1
  Pt  Pt6  1  0.000000  0.988962  0.754874  1
  Pt  Pt7  1  0.000000  0.500000  0.000000  1
  Pt  Pt8  1  0.000000  0.500000  0.500000  1
  Pt  Pt9  1  0.000000  0.512782  0.248713  1
  Pt  Pt10  1  0.000000  0.487218  0.751287  1
  Pt  Pt11  1  0.500000  0.250601  0.376040  1
  Pt  Pt12  1  0.500000  0.229452  0.883172  1
  Pt  Pt13  1  0.500000  0.770548  0.116828  1
  Pt  Pt14  1  0.500000  0.749399  0.623960  1
  Pt  Pt15  1  0.000000  0.000000  0.500000  1
