# generated using pymatgen
data_Dy2Tm8(AlSb)3
_symmetry_space_group_name_H-M   'P 1'
_cell_length_a   8.74470169
_cell_length_b   8.77776427
_cell_length_c   6.39237100
_cell_angle_alpha   90.00000000
_cell_angle_beta   90.00000000
_cell_angle_gamma   119.75386101
_symmetry_Int_Tables_number   1
_chemical_formula_structural   Dy2Tm8(AlSb)3
_chemical_formula_sum   'Dy2 Tm8 Al3 Sb3'
_cell_volume   425.98405690
_cell_formula_units_Z   1
loop_
 _symmetry_equiv_pos_site_id
 _symmetry_equiv_pos_as_xyz
  1  'x, y, z'
loop_
 _atom_site_type_symbol
 _atom_site_label
 _atom_site_symmetry_multiplicity
 _atom_site_fract_x
 _atom_site_fract_y
 _atom_site_fract_z
 _atom_site_occupancy
  Dy  Dy0  1  0.759616  0.001905  0.750000  1
  Dy  Dy1  1  0.243532  0.232542  0.750000  1
  Tm  Tm2  1  0.332727  0.679027  0.002929  1
  Tm  Tm3  1  0.666703  0.326000  0.497157  1
  Tm  Tm4  1  0.666703  0.326000  0.002843  1
  Tm  Tm5  1  0.332727  0.679027  0.497071  1
  Tm  Tm6  1  0.233394  0.988936  0.250000  1
  Tm  Tm7  1  0.987573  0.233731  0.250000  1
  Tm  Tm8  1  0.764123  0.764702  0.250000  1
  Tm  Tm9  1  0.012719  0.769841  0.750000  1
  Al  Al10  1  0.599914  0.999139  0.250000  1
  Al  Al11  1  0.403596  0.003221  0.750000  1
  Al  Al12  1  0.994878  0.600175  0.250000  1
  Sb  Sb13  1  0.387730  0.391576  0.250000  1
  Sb  Sb14  1  0.609217  0.606620  0.750000  1
  Sb  Sb15  1  0.004848  0.397556  0.750000  1
