# generated using pymatgen
data_Zr12GaSe3
_symmetry_space_group_name_H-M   'P 1'
_cell_length_a   11.01761791
_cell_length_b   11.09634712
_cell_length_c   5.49873900
_cell_angle_alpha   90.00000000
_cell_angle_beta   90.00000000
_cell_angle_gamma   90.01504667
_symmetry_Int_Tables_number   1
_chemical_formula_structural   Zr12GaSe3
_chemical_formula_sum   'Zr24 Ga2 Se6'
_cell_volume   672.25003303
_cell_formula_units_Z   2
loop_
 _symmetry_equiv_pos_site_id
 _symmetry_equiv_pos_as_xyz
  1  'x, y, z'
loop_
 _atom_site_type_symbol
 _atom_site_label
 _atom_site_symmetry_multiplicity
 _atom_site_fract_x
 _atom_site_fract_y
 _atom_site_fract_z
 _atom_site_occupancy
  Zr  Zr0  1  0.915713  0.604375  0.545705  1
  Zr  Zr1  1  0.084287  0.395625  0.545705  1
  Zr  Zr2  1  0.896489  0.415666  0.037133  1
  Zr  Zr3  1  0.103511  0.584334  0.037133  1
  Zr  Zr4  1  0.583858  0.897876  0.958908  1
  Zr  Zr5  1  0.416142  0.102124  0.958908  1
  Zr  Zr6  1  0.604134  0.084063  0.460790  1
  Zr  Zr7  1  0.395866  0.915937  0.460790  1
  Zr  Zr8  1  0.859125  0.974170  0.716336  1
  Zr  Zr9  1  0.140875  0.025830  0.716336  1
  Zr  Zr10  1  0.526111  0.360914  0.215837  1
  Zr  Zr11  1  0.473889  0.639086  0.215837  1
  Zr  Zr12  1  0.638623  0.523782  0.783377  1
  Zr  Zr13  1  0.361377  0.476218  0.783377  1
  Zr  Zr14  1  0.973381  0.140841  0.282591  1
  Zr  Zr15  1  0.026619  0.859159  0.282591  1
  Zr  Zr16  1  0.815218  0.714668  0.011511  1
  Zr  Zr17  1  0.184782  0.285332  0.011511  1
  Zr  Zr18  1  0.785123  0.320383  0.512400  1
  Zr  Zr19  1  0.214877  0.679617  0.512400  1
  Zr  Zr20  1  0.681792  0.786285  0.489104  1
  Zr  Zr21  1  0.318208  0.213715  0.489104  1
  Zr  Zr22  1  0.714215  0.181632  0.987893  1
  Zr  Zr23  1  0.285785  0.818368  0.987893  1
  Ga  Ga24  1  0.960993  0.204256  0.789467  1
  Ga  Ga25  1  0.039007  0.795744  0.789467  1
  Se  Se26  1  0.793651  0.960673  0.209961  1
  Se  Se27  1  0.206349  0.039327  0.209961  1
  Se  Se28  1  0.537604  0.291725  0.710411  1
  Se  Se29  1  0.462396  0.708275  0.710411  1
  Se  Se30  1  0.707694  0.539020  0.288575  1
  Se  Se31  1  0.292306  0.460980  0.288575  1
