# generated using pymatgen
data_DyEr4VReO12
_symmetry_space_group_name_H-M   'P 1'
_cell_length_a   6.74897336
_cell_length_b   6.74545735
_cell_length_c   7.41895867
_cell_angle_alpha   73.95799148
_cell_angle_beta   73.94327686
_cell_angle_gamma   50.23422661
_symmetry_Int_Tables_number   1
_chemical_formula_structural   DyEr4VReO12
_chemical_formula_sum   'Dy1 Er4 V1 Re1 O12'
_cell_volume   247.21676077
_cell_formula_units_Z   1
loop_
 _symmetry_equiv_pos_site_id
 _symmetry_equiv_pos_as_xyz
  1  'x, y, z'
loop_
 _atom_site_type_symbol
 _atom_site_label
 _atom_site_symmetry_multiplicity
 _atom_site_fract_x
 _atom_site_fract_y
 _atom_site_fract_z
 _atom_site_occupancy
  Dy  Dy0  1  0.711483  0.678892  0.639773  1
  Er  Er1  1  0.321359  0.288709  0.359354  1
  Er  Er2  1  0.688188  0.683484  0.175728  1
  Er  Er3  1  0.316395  0.311840  0.823603  1
  Er  Er4  1  0.011459  0.989255  0.499583  1
  V  V5  1  0.764811  0.234562  0.000520  1
  Re  Re6  1  0.213653  0.785924  0.000562  1
  O  O7  1  0.992916  0.006965  0.200391  1
  O  O8  1  0.992711  0.006097  0.800519  1
  O  O9  1  0.569252  0.091851  0.083773  1
  O  O10  1  0.409021  0.908005  0.918850  1
  O  O11  1  0.909015  0.429581  0.917872  1
  O  O12  1  0.092167  0.590224  0.082801  1
  O  O13  1  0.486197  0.513060  0.183065  1
  O  O14  1  0.486131  0.512809  0.818561  1
  O  O15  1  0.410322  0.893213  0.427977  1
  O  O16  1  0.599649  0.088404  0.578507  1
  O  O17  1  0.110183  0.588190  0.569807  1
  O  O18  1  0.915086  0.398936  0.418754  1
