# generated using pymatgen
data_La13Yb3(CdCo)4
_symmetry_space_group_name_H-M   'P 1'
_cell_length_a   9.96036018
_cell_length_b   9.95185557
_cell_length_c   9.96036100
_cell_angle_alpha   59.97172746
_cell_angle_beta   60.00000060
_cell_angle_gamma   59.97172918
_symmetry_Int_Tables_number   1
_chemical_formula_structural   La13Yb3(CdCo)4
_chemical_formula_sum   'La13 Yb3 Cd4 Co4'
_cell_volume   697.83616651
_cell_formula_units_Z   1
loop_
 _symmetry_equiv_pos_site_id
 _symmetry_equiv_pos_as_xyz
  1  'x, y, z'
loop_
 _atom_site_type_symbol
 _atom_site_label
 _atom_site_symmetry_multiplicity
 _atom_site_fract_x
 _atom_site_fract_y
 _atom_site_fract_z
 _atom_site_occupancy
  La  La0  1  0.689396  0.690018  0.310293  1
  La  La1  1  0.155826  0.151196  0.537151  1
  La  La2  1  0.310293  0.690018  0.689396  1
  La  La3  1  0.155826  0.151196  0.155826  1
  La  La4  1  0.537151  0.151196  0.155826  1
  La  La5  1  0.310293  0.690018  0.310293  1
  La  La6  1  0.313964  0.307570  0.689234  1
  La  La7  1  0.689234  0.307570  0.689234  1
  La  La8  1  0.938570  0.564025  0.558836  1
  La  La9  1  0.558836  0.564025  0.938570  1
  La  La10  1  0.155481  0.533555  0.155481  1
  La  La11  1  0.689234  0.307570  0.313964  1
  La  La12  1  0.938570  0.564025  0.938570  1
  Yb  Yb13  1  0.937806  0.940220  0.560988  1
  Yb  Yb14  1  0.560988  0.940220  0.560988  1
  Yb  Yb15  1  0.560988  0.940220  0.937806  1
  Cd  Cd16  1  0.239425  0.921125  0.919725  1
  Cd  Cd17  1  0.919725  0.921125  0.919725  1
  Cd  Cd18  1  0.919725  0.921125  0.239425  1
  Cd  Cd19  1  0.921035  0.236894  0.921035  1
  Co  Co20  1  0.915426  0.363240  0.360667  1
  Co  Co21  1  0.360667  0.363240  0.915426  1
  Co  Co22  1  0.360876  0.917370  0.360876  1
  Co  Co23  1  0.360667  0.363240  0.360667  1
