# generated using pymatgen
data_La2Pr2TlHgRhAu3
_symmetry_space_group_name_H-M   'P 1'
_cell_length_a   8.13167700
_cell_length_b   8.13167650
_cell_length_c   3.91631400
_cell_angle_alpha   90.00000000
_cell_angle_beta   90.00000000
_cell_angle_gamma   90.58060020
_symmetry_Int_Tables_number   1
_chemical_formula_structural   La2Pr2TlHgRhAu3
_chemical_formula_sum   'La2 Pr2 Tl1 Hg1 Rh1 Au3'
_cell_volume   258.94970426
_cell_formula_units_Z   1
loop_
 _symmetry_equiv_pos_site_id
 _symmetry_equiv_pos_as_xyz
  1  'x, y, z'
loop_
 _atom_site_type_symbol
 _atom_site_label
 _atom_site_symmetry_multiplicity
 _atom_site_fract_x
 _atom_site_fract_y
 _atom_site_fract_z
 _atom_site_occupancy
  La  La0  1  0.689162  0.192479  0.500000  1
  La  La1  1  0.328682  0.825458  0.500000  1
  Pr  Pr2  1  0.157989  0.322189  0.500000  1
  Pr  Pr3  1  0.818942  0.655718  0.500000  1
  Tl  Tl4  1  0.998683  0.003581  0.000000  1
  Hg  Hg5  1  0.503887  0.499921  0.000000  1
  Rh  Rh6  1  0.871998  0.370274  0.000000  1
  Au  Au7  1  0.122311  0.621742  0.000000  1
  Au  Au8  1  0.629141  0.878013  0.000000  1
  Au  Au9  1  0.379205  0.130625  0.000000  1
