# generated using pymatgen
data_Tb9Dy(Zn2Bi)2
_symmetry_space_group_name_H-M   'P 1'
_cell_length_a   8.65611264
_cell_length_b   8.65611366
_cell_length_c   8.65611396
_cell_angle_alpha   123.03431021
_cell_angle_beta   123.03430668
_cell_angle_gamma   84.82015220
_symmetry_Int_Tables_number   1
_chemical_formula_structural   Tb9Dy(Zn2Bi)2
_chemical_formula_sum   'Tb9 Dy1 Zn4 Bi2'
_cell_volume   435.64222000
_cell_formula_units_Z   1
loop_
 _symmetry_equiv_pos_site_id
 _symmetry_equiv_pos_as_xyz
  1  'x, y, z'
loop_
 _atom_site_type_symbol
 _atom_site_label
 _atom_site_symmetry_multiplicity
 _atom_site_fract_x
 _atom_site_fract_y
 _atom_site_fract_z
 _atom_site_occupancy
  Tb  Tb0  1  0.500000  0.500000  0.000000  1
  Tb  Tb1  1  0.509872  0.009541  0.803964  1
  Tb  Tb2  1  0.205577  0.705908  0.196036  1
  Tb  Tb3  1  0.009541  0.205577  0.499669  1
  Tb  Tb4  1  0.705908  0.509872  0.500331  1
  Tb  Tb5  1  0.490128  0.990459  0.196036  1
  Tb  Tb6  1  0.794423  0.294092  0.803964  1
  Tb  Tb7  1  0.990459  0.794423  0.500331  1
  Tb  Tb8  1  0.294092  0.490128  0.499669  1
  Dy  Dy9  1  0.000000  0.000000  0.000000  1
  Zn  Zn10  1  0.140899  0.641569  0.782469  1
  Zn  Zn11  1  0.859101  0.358431  0.217531  1
  Zn  Zn12  1  0.641569  0.859101  0.500670  1
  Zn  Zn13  1  0.358431  0.140899  0.499330  1
  Bi  Bi14  1  0.249509  0.249509  0.000000  1
  Bi  Bi15  1  0.750491  0.750491  0.000000  1
