# generated using pymatgen
data_Dy5Y6Tm9(Cd3Ru)2
_symmetry_space_group_name_H-M   'P 1'
_cell_length_a   9.55705945
_cell_length_b   9.56022636
_cell_length_c   9.77691538
_cell_angle_alpha   89.99999780
_cell_angle_beta   90.02771884
_cell_angle_gamma   120.01096287
_symmetry_Int_Tables_number   1
_chemical_formula_structural   Dy5Y6Tm9(Cd3Ru)2
_chemical_formula_sum   'Dy5 Y6 Tm9 Cd6 Ru2'
_cell_volume   773.52952812
_cell_formula_units_Z   1
loop_
 _symmetry_equiv_pos_site_id
 _symmetry_equiv_pos_as_xyz
  1  'x, y, z'
loop_
 _atom_site_type_symbol
 _atom_site_label
 _atom_site_symmetry_multiplicity
 _atom_site_fract_x
 _atom_site_fract_y
 _atom_site_fract_z
 _atom_site_occupancy
  Dy  Dy0  1  0.209476  0.791248  0.439815  1
  Dy  Dy1  1  0.209476  0.418229  0.439815  1
  Dy  Dy2  1  0.581608  0.790805  0.439651  1
  Dy  Dy3  1  0.789921  0.209313  0.560402  1
  Dy  Dy4  1  0.789921  0.580607  0.560402  1
  Y  Y5  1  0.540374  0.458971  0.248678  1
  Y  Y6  1  0.540374  0.081404  0.248678  1
  Y  Y7  1  0.918934  0.459467  0.248295  1
  Y  Y8  1  0.459396  0.539942  0.751393  1
  Y  Y9  1  0.459396  0.919453  0.751393  1
  Y  Y10  1  0.081367  0.540683  0.751822  1
  Tm  Tm11  1  0.000715  0.000357  0.500137  1
  Tm  Tm12  1  0.000103  0.000052  0.000146  1
  Tm  Tm13  1  0.419129  0.209564  0.560299  1
  Tm  Tm14  1  0.789829  0.209870  0.940623  1
  Tm  Tm15  1  0.789829  0.579958  0.940623  1
  Tm  Tm16  1  0.420308  0.210154  0.940066  1
  Tm  Tm17  1  0.210007  0.790040  0.059392  1
  Tm  Tm18  1  0.210007  0.419968  0.059392  1
  Tm  Tm19  1  0.579994  0.789998  0.059312  1
  Cd  Cd20  1  0.886065  0.114015  0.249355  1
  Cd  Cd21  1  0.886065  0.772051  0.249355  1
  Cd  Cd22  1  0.228153  0.114077  0.249568  1
  Cd  Cd23  1  0.114095  0.886138  0.750619  1
  Cd  Cd24  1  0.114095  0.227956  0.750619  1
  Cd  Cd25  1  0.771993  0.885996  0.750705  1
  Ru  Ru26  1  0.333326  0.666664  0.248608  1
  Ru  Ru27  1  0.666046  0.333022  0.750837  1
