# generated using pymatgen
data_Tb2MnCr3Co8P7
_symmetry_space_group_name_H-M   'P 1'
_cell_length_a   8.99186005
_cell_length_b   9.01633129
_cell_length_c   3.63754400
_cell_angle_alpha   90.00000000
_cell_angle_beta   90.00000000
_cell_angle_gamma   119.86237941
_symmetry_Int_Tables_number   1
_chemical_formula_structural   Tb2MnCr3Co8P7
_chemical_formula_sum   'Tb2 Mn1 Cr3 Co8 P7'
_cell_volume   255.75190556
_cell_formula_units_Z   1
loop_
 _symmetry_equiv_pos_site_id
 _symmetry_equiv_pos_as_xyz
  1  'x, y, z'
loop_
 _atom_site_type_symbol
 _atom_site_label
 _atom_site_symmetry_multiplicity
 _atom_site_fract_x
 _atom_site_fract_y
 _atom_site_fract_z
 _atom_site_occupancy
  Tb  Tb0  1  0.667621  0.333826  0.000000  1
  Tb  Tb1  1  0.332237  0.666631  0.500000  1
  Mn  Mn2  1  0.879701  0.154643  0.000000  1
  Cr  Cr3  1  0.096627  0.879453  0.500000  1
  Cr  Cr4  1  0.782532  0.900910  0.500000  1
  Cr  Cr5  1  0.118288  0.214821  0.500000  1
  Co  Co6  1  0.060857  0.630488  0.000000  1
  Co  Co7  1  0.567652  0.938199  0.000000  1
  Co  Co8  1  0.371596  0.430502  0.000000  1
  Co  Co9  1  0.277514  0.120247  0.000000  1
  Co  Co10  1  0.843475  0.723608  0.000000  1
  Co  Co11  1  0.434219  0.050367  0.500000  1
  Co  Co12  1  0.614796  0.565593  0.500000  1
  Co  Co13  1  0.950602  0.386818  0.500000  1
  P  P14  1  0.296000  0.887856  0.000000  1
  P  P15  1  0.589573  0.701259  0.000000  1
  P  P16  1  0.110382  0.407730  0.000000  1
  P  P17  1  0.403829  0.290521  0.500000  1
  P  P18  1  0.890286  0.599873  0.500000  1
  P  P19  1  0.711147  0.117474  0.500000  1
  P  P20  1  0.001068  0.999180  0.000000  1
