# generated using pymatgen
data_Dy4Lu2MgCo17P12
_symmetry_space_group_name_H-M   'P 1'
_cell_length_a   3.70594500
_cell_length_b   10.53265400
_cell_length_c   12.20276400
_cell_angle_alpha   90.00000000
_cell_angle_beta   90.00000000
_cell_angle_gamma   90.00000000
_symmetry_Int_Tables_number   1
_chemical_formula_structural   Dy4Lu2MgCo17P12
_chemical_formula_sum   'Dy4 Lu2 Mg1 Co17 P12'
_cell_volume   476.31581284
_cell_formula_units_Z   1
loop_
 _symmetry_equiv_pos_site_id
 _symmetry_equiv_pos_as_xyz
  1  'x, y, z'
loop_
 _atom_site_type_symbol
 _atom_site_label
 _atom_site_symmetry_multiplicity
 _atom_site_fract_x
 _atom_site_fract_y
 _atom_site_fract_z
 _atom_site_occupancy
  Dy  Dy0  1  0.000000  0.500000  0.524468  1
  Dy  Dy1  1  0.500000  0.000000  0.476972  1
  Dy  Dy2  1  0.000000  0.682536  0.794894  1
  Dy  Dy3  1  0.000000  0.317464  0.794894  1
  Lu  Lu4  1  0.500000  0.822323  0.207858  1
  Lu  Lu5  1  0.500000  0.177677  0.207858  1
  Mg  Mg6  1  0.500000  0.500000  0.153519  1
  Co  Co7  1  0.000000  0.000000  0.838735  1
  Co  Co8  1  0.500000  0.500000  0.705062  1
  Co  Co9  1  0.000000  0.000000  0.294664  1
  Co  Co10  1  0.000000  0.500000  0.987942  1
  Co  Co11  1  0.500000  0.000000  0.013486  1
  Co  Co12  1  0.500000  0.328190  0.994654  1
  Co  Co13  1  0.500000  0.671810  0.994654  1
  Co  Co14  1  0.000000  0.162639  0.002863  1
  Co  Co15  1  0.000000  0.837361  0.002863  1
  Co  Co16  1  0.500000  0.295419  0.431473  1
  Co  Co17  1  0.500000  0.704581  0.431473  1
  Co  Co18  1  0.000000  0.202180  0.569363  1
  Co  Co19  1  0.000000  0.797820  0.569363  1
  Co  Co20  1  0.500000  0.880082  0.708229  1
  Co  Co21  1  0.500000  0.119918  0.708229  1
  Co  Co22  1  0.000000  0.623946  0.291885  1
  Co  Co23  1  0.000000  0.376054  0.291885  1
  P  P24  1  0.500000  0.500000  0.885003  1
  P  P25  1  0.000000  0.000000  0.117495  1
  P  P26  1  0.500000  0.500000  0.353798  1
  P  P27  1  0.000000  0.000000  0.654426  1
  P  P28  1  0.500000  0.309707  0.616671  1
  P  P29  1  0.500000  0.690293  0.616671  1
  P  P30  1  0.000000  0.188678  0.383796  1
  P  P31  1  0.000000  0.811322  0.383796  1
  P  P32  1  0.500000  0.850142  0.890245  1
  P  P33  1  0.500000  0.149858  0.890245  1
  P  P34  1  0.000000  0.664492  0.105284  1
  P  P35  1  0.000000  0.335508  0.105284  1
