# generated using pymatgen
data_Dy7Th(CdCo)2
_symmetry_space_group_name_H-M   'P 1'
_cell_length_a   9.54068783
_cell_length_b   9.53653516
_cell_length_c   9.54068820
_cell_angle_alpha   60.23791910
_cell_angle_beta   59.29135791
_cell_angle_gamma   60.23792292
_symmetry_Int_Tables_number   1
_chemical_formula_structural   Dy7Th(CdCo)2
_chemical_formula_sum   'Dy14 Th2 Cd4 Co4'
_cell_volume   612.61997392
_cell_formula_units_Z   2
loop_
 _symmetry_equiv_pos_site_id
 _symmetry_equiv_pos_as_xyz
  1  'x, y, z'
loop_
 _atom_site_type_symbol
 _atom_site_label
 _atom_site_symmetry_multiplicity
 _atom_site_fract_x
 _atom_site_fract_y
 _atom_site_fract_z
 _atom_site_occupancy
  Dy  Dy0  1  0.687231  0.314507  0.305818  1
  Dy  Dy1  1  0.937891  0.562456  0.560727  1
  Dy  Dy2  1  0.544655  0.146939  0.156945  1
  Dy  Dy3  1  0.156945  0.146939  0.544655  1
  Dy  Dy4  1  0.936507  0.941075  0.559566  1
  Dy  Dy5  1  0.311489  0.689479  0.311489  1
  Dy  Dy6  1  0.559566  0.941075  0.936507  1
  Dy  Dy7  1  0.563141  0.938063  0.563141  1
  Dy  Dy8  1  0.685697  0.693165  0.309321  1
  Dy  Dy9  1  0.560727  0.562456  0.937891  1
  Dy  Dy10  1  0.933911  0.567159  0.933911  1
  Dy  Dy11  1  0.309321  0.693165  0.685697  1
  Dy  Dy12  1  0.155292  0.152282  0.155292  1
  Dy  Dy13  1  0.305818  0.314507  0.687231  1
  Th  Th14  1  0.157076  0.526232  0.157076  1
  Th  Th15  1  0.682358  0.318267  0.682358  1
  Cd  Cd16  1  0.921798  0.241840  0.921798  1
  Cd  Cd17  1  0.921101  0.916592  0.921101  1
  Cd  Cd18  1  0.919387  0.919030  0.244001  1
  Cd  Cd19  1  0.244001  0.919030  0.919387  1
  Co  Co20  1  0.378403  0.354192  0.917929  1
  Co  Co21  1  0.357256  0.922914  0.357256  1
  Co  Co22  1  0.917929  0.354192  0.378403  1
  Co  Co23  1  0.352502  0.364446  0.352502  1
