# generated using pymatgen
data_Ho2ErIn3Ag2Au
_symmetry_space_group_name_H-M   'P 1'
_cell_length_a   7.83972906
_cell_length_b   7.85383708
_cell_length_c   3.91640700
_cell_angle_alpha   90.00000000
_cell_angle_beta   90.00000000
_cell_angle_gamma   120.04178112
_symmetry_Int_Tables_number   1
_chemical_formula_structural   Ho2ErIn3Ag2Au
_chemical_formula_sum   'Ho2 Er1 In3 Ag2 Au1'
_cell_volume   208.74611111
_cell_formula_units_Z   1
loop_
 _symmetry_equiv_pos_site_id
 _symmetry_equiv_pos_as_xyz
  1  'x, y, z'
loop_
 _atom_site_type_symbol
 _atom_site_label
 _atom_site_symmetry_multiplicity
 _atom_site_fract_x
 _atom_site_fract_y
 _atom_site_fract_z
 _atom_site_occupancy
  Ho  Ho0  1  0.590601  0.993012  0.500000  1
  Ho  Ho1  1  0.402325  0.409483  0.500000  1
  Er  Er2  1  0.007206  0.597843  0.500000  1
  In  In3  1  0.994656  0.258681  0.000000  1
  In  In4  1  0.742002  0.736019  0.000000  1
  In  In5  1  0.263520  0.004897  0.000000  1
  Ag  Ag6  1  0.667763  0.334141  0.000000  1
  Ag  Ag7  1  0.999999  0.999632  0.500000  1
  Au  Au8  1  0.331929  0.666292  0.000000  1
