# generated using pymatgen
data_Ac8Yb11HoPb16
_symmetry_space_group_name_H-M   'P 1'
_cell_length_a   8.27184766
_cell_length_b   8.85093178
_cell_length_c   16.68421200
_cell_angle_alpha   90.07324674
_cell_angle_beta   90.05389588
_cell_angle_gamma   89.94185808
_symmetry_Int_Tables_number   1
_chemical_formula_structural   Ac8Yb11HoPb16
_chemical_formula_sum   'Ac8 Yb11 Ho1 Pb16'
_cell_volume   1221.50837897
_cell_formula_units_Z   1
loop_
 _symmetry_equiv_pos_site_id
 _symmetry_equiv_pos_as_xyz
  1  'x, y, z'
loop_
 _atom_site_type_symbol
 _atom_site_label
 _atom_site_symmetry_multiplicity
 _atom_site_fract_x
 _atom_site_fract_y
 _atom_site_fract_z
 _atom_site_occupancy
  Ac  Ac0  1  0.500456  0.682029  0.594937  1
  Ac  Ac1  1  0.001566  0.815212  0.905683  1
  Ac  Ac2  1  0.498953  0.314836  0.094936  1
  Ac  Ac3  1  0.999393  0.185726  0.404987  1
  Ac  Ac4  1  0.498503  0.315216  0.404768  1
  Ac  Ac5  1  0.999025  0.185486  0.094630  1
  Ac  Ac6  1  0.501571  0.683873  0.904757  1
  Ac  Ac7  1  0.001387  0.814264  0.593241  1
  Yb  Yb8  1  0.168915  0.335046  0.876360  1
  Yb  Yb9  1  0.331597  0.835037  0.123507  1
  Yb  Yb10  1  0.832329  0.664916  0.377155  1
  Yb  Yb11  1  0.331116  0.835325  0.376816  1
  Yb  Yb12  1  0.831732  0.664951  0.123380  1
  Yb  Yb13  1  0.668354  0.164314  0.876246  1
  Yb  Yb14  1  0.168477  0.335116  0.622408  1
  Yb  Yb15  1  0.836368  0.494046  0.750289  1
  Yb  Yb16  1  0.334034  0.005310  0.750845  1
  Yb  Yb17  1  0.163943  0.507436  0.249787  1
  Yb  Yb18  1  0.663647  0.993414  0.250379  1
  Ho  Ho19  1  0.666445  0.167401  0.624877  1
  Pb  Pb20  1  0.675820  0.961433  0.461675  1
  Pb  Pb21  1  0.173825  0.540625  0.041196  1
  Pb  Pb22  1  0.327959  0.040329  0.958562  1
  Pb  Pb23  1  0.821530  0.455989  0.542261  1
  Pb  Pb24  1  0.332426  0.041870  0.543463  1
  Pb  Pb25  1  0.827018  0.458749  0.958275  1
  Pb  Pb26  1  0.672770  0.959167  0.041467  1
  Pb  Pb27  1  0.174562  0.540853  0.458543  1
  Pb  Pb28  1  0.471286  0.382612  0.749818  1
  Pb  Pb29  1  0.966156  0.116229  0.746112  1
  Pb  Pb30  1  0.530183  0.614164  0.250349  1
  Pb  Pb31  1  0.030029  0.887194  0.249801  1
  Pb  Pb32  1  0.705862  0.861279  0.748259  1
  Pb  Pb33  1  0.205910  0.640047  0.749449  1
  Pb  Pb34  1  0.293163  0.140705  0.250353  1
  Pb  Pb35  1  0.793689  0.359805  0.250430  1
