# generated using pymatgen
data_Hf3Si4TcIr4
_symmetry_space_group_name_H-M   'P 1'
_cell_length_a   3.93292700
_cell_length_b   6.40585587
_cell_length_c   7.35212876
_cell_angle_alpha   90.73707707
_cell_angle_beta   90.00000000
_cell_angle_gamma   90.00000000
_symmetry_Int_Tables_number   1
_chemical_formula_structural   Hf3Si4TcIr4
_chemical_formula_sum   'Hf3 Si4 Tc1 Ir4'
_cell_volume   185.21246629
_cell_formula_units_Z   1
loop_
 _symmetry_equiv_pos_site_id
 _symmetry_equiv_pos_as_xyz
  1  'x, y, z'
loop_
 _atom_site_type_symbol
 _atom_site_label
 _atom_site_symmetry_multiplicity
 _atom_site_fract_x
 _atom_site_fract_y
 _atom_site_fract_z
 _atom_site_occupancy
  Hf  Hf0  1  0.750000  0.478626  0.827005  1
  Hf  Hf1  1  0.250000  0.019784  0.311890  1
  Hf  Hf2  1  0.750000  0.969121  0.678380  1
  Si  Si3  1  0.250000  0.769411  0.893808  1
  Si  Si4  1  0.750000  0.245796  0.126114  1
  Si  Si5  1  0.250000  0.272127  0.621488  1
  Si  Si6  1  0.750000  0.703915  0.359257  1
  Tc  Tc7  1  0.250000  0.531548  0.178449  1
  Ir  Ir8  1  0.750000  0.859254  0.063992  1
  Ir  Ir9  1  0.250000  0.155001  0.934133  1
  Ir  Ir10  1  0.750000  0.340962  0.441629  1
  Ir  Ir11  1  0.250000  0.654455  0.563855  1
