# generated using pymatgen
data_Ta12Al8CuRu3N4
_symmetry_space_group_name_H-M   'P 1'
_cell_length_a   8.22710906
_cell_length_b   8.28401939
_cell_length_c   8.28340401
_cell_angle_alpha   59.99995503
_cell_angle_beta   59.77111929
_cell_angle_gamma   59.77392809
_symmetry_Int_Tables_number   1
_chemical_formula_structural   Ta12Al8CuRu3N4
_chemical_formula_sum   'Ta12 Al8 Cu1 Ru3 N4'
_cell_volume   397.81415809
_cell_formula_units_Z   1
loop_
 _symmetry_equiv_pos_site_id
 _symmetry_equiv_pos_as_xyz
  1  'x, y, z'
loop_
 _atom_site_type_symbol
 _atom_site_label
 _atom_site_symmetry_multiplicity
 _atom_site_fract_x
 _atom_site_fract_y
 _atom_site_fract_z
 _atom_site_occupancy
  Ta  Ta0  1  0.560514  0.939974  0.559573  1
  Ta  Ta1  1  0.312829  0.687699  0.687559  1
  Ta  Ta2  1  0.689506  0.310014  0.310036  1
  Ta  Ta3  1  0.312814  0.687712  0.311893  1
  Ta  Ta4  1  0.689376  0.690443  0.310084  1
  Ta  Ta5  1  0.312795  0.311864  0.687665  1
  Ta  Ta6  1  0.560624  0.559557  0.939916  1
  Ta  Ta7  1  0.937171  0.562301  0.562441  1
  Ta  Ta8  1  0.560494  0.939986  0.939964  1
  Ta  Ta9  1  0.937205  0.938136  0.562335  1
  Ta  Ta10  1  0.689486  0.310026  0.690427  1
  Ta  Ta11  1  0.937186  0.562288  0.938107  1
  Al  Al12  1  0.914949  0.917114  0.917230  1
  Al  Al13  1  0.998214  0.333996  0.333906  1
  Al  Al14  1  0.335079  0.999368  0.332779  1
  Al  Al15  1  0.335045  0.332876  0.999334  1
  Al  Al16  1  0.914921  0.250632  0.917221  1
  Al  Al17  1  0.914955  0.917124  0.250666  1
  Al  Al18  1  0.251786  0.916004  0.916094  1
  Al  Al19  1  0.335051  0.332886  0.332770  1
  Cu  Cu20  1  0.625000  0.125000  0.125000  1
  Ru  Ru21  1  0.125000  0.125000  0.125000  1
  Ru  Ru22  1  0.125000  0.625000  0.125000  1
  Ru  Ru23  1  0.125000  0.125000  0.625000  1
  N  N24  1  0.625000  0.625000  0.625000  1
  N  N25  1  0.125000  0.625000  0.625000  1
  N  N26  1  0.625000  0.125000  0.625000  1
  N  N27  1  0.625000  0.625000  0.125000  1
