# generated using pymatgen
data_Li2(Tb4Tc)3
_symmetry_space_group_name_H-M   'P 1'
_cell_length_a   8.49585543
_cell_length_b   8.49588645
_cell_length_c   8.49585604
_cell_angle_alpha   109.41585644
_cell_angle_beta   109.47912831
_cell_angle_gamma   109.51853310
_symmetry_Int_Tables_number   1
_chemical_formula_structural   Li2(Tb4Tc)3
_chemical_formula_sum   'Li2 Tb12 Tc3'
_cell_volume   472.06475070
_cell_formula_units_Z   1
loop_
 _symmetry_equiv_pos_site_id
 _symmetry_equiv_pos_as_xyz
  1  'x, y, z'
loop_
 _atom_site_type_symbol
 _atom_site_label
 _atom_site_symmetry_multiplicity
 _atom_site_fract_x
 _atom_site_fract_y
 _atom_site_fract_z
 _atom_site_occupancy
  Li  Li0  1  0.000000  0.500000  0.500000  1
  Li  Li1  1  0.500000  0.000000  0.500000  1
  Tb  Tb2  1  0.184779  0.428272  0.243493  1
  Tb  Tb3  1  0.815221  0.571728  0.756507  1
  Tb  Tb4  1  0.184794  0.941389  0.756595  1
  Tb  Tb5  1  0.941259  0.184920  0.756394  1
  Tb  Tb6  1  0.815206  0.058611  0.243405  1
  Tb  Tb7  1  0.058741  0.815080  0.243606  1
  Tb  Tb8  1  0.428526  0.184920  0.243661  1
  Tb  Tb9  1  0.571474  0.815080  0.756339  1
  Tb  Tb10  1  0.321967  0.321883  0.643934  1
  Tb  Tb11  1  0.678033  0.678117  0.356066  1
  Tb  Tb12  1  0.677950  0.321883  0.999916  1
  Tb  Tb13  1  0.322050  0.678117  0.000084  1
  Tc  Tc14  1  0.337255  0.337289  0.000033  1
  Tc  Tc15  1  0.662745  0.662711  0.999967  1
  Tc  Tc16  1  0.000000  0.000000  0.000000  1
