# generated using pymatgen
data_Tb2Dy4RhI10
_symmetry_space_group_name_H-M   'P 1'
_cell_length_a   7.75369539
_cell_length_b   9.70437028
_cell_length_c   9.80396838
_cell_angle_alpha   107.35006647
_cell_angle_beta   97.08945397
_cell_angle_gamma   104.70476480
_symmetry_Int_Tables_number   1
_chemical_formula_structural   Tb2Dy4RhI10
_chemical_formula_sum   'Tb2 Dy4 Rh1 I10'
_cell_volume   665.04123256
_cell_formula_units_Z   1
loop_
 _symmetry_equiv_pos_site_id
 _symmetry_equiv_pos_as_xyz
  1  'x, y, z'
loop_
 _atom_site_type_symbol
 _atom_site_label
 _atom_site_symmetry_multiplicity
 _atom_site_fract_x
 _atom_site_fract_y
 _atom_site_fract_z
 _atom_site_occupancy
  Tb  Tb0  1  0.529783  0.221036  0.417299  1
  Tb  Tb1  1  0.470217  0.778964  0.582701  1
  Dy  Dy2  1  0.148846  0.372712  0.332409  1
  Dy  Dy3  1  0.851154  0.627288  0.667591  1
  Dy  Dy4  1  0.613339  0.541302  0.258424  1
  Dy  Dy5  1  0.386661  0.458698  0.741576  1
  Rh  Rh6  1  0.500000  0.500000  0.500000  1
  I  I7  1  0.146510  0.046541  0.226093  1
  I  I8  1  0.853490  0.953459  0.773907  1
  I  I9  1  0.239381  0.411076  0.036002  1
  I  I10  1  0.760619  0.588924  0.963998  1
  I  I11  1  0.716950  0.240831  0.152972  1
  I  I12  1  0.283050  0.759169  0.847028  1
  I  I13  1  0.047013  0.683478  0.408523  1
  I  I14  1  0.952987  0.316522  0.591477  1
  I  I15  1  0.413336  0.127619  0.678558  1
  I  I16  1  0.586664  0.872381  0.321442  1
