# generated using pymatgen
data_Tb14Ho2Cd4Co3Os
_symmetry_space_group_name_H-M   'P 1'
_cell_length_a   9.59652297
_cell_length_b   9.59652449
_cell_length_c   9.59461711
_cell_angle_alpha   59.52386474
_cell_angle_beta   59.52385944
_cell_angle_gamma   59.52897711
_symmetry_Int_Tables_number   1
_chemical_formula_structural   Tb14Ho2Cd4Co3Os
_chemical_formula_sum   'Tb14 Ho2 Cd4 Co3 Os1'
_cell_volume   618.05883461
_cell_formula_units_Z   1
loop_
 _symmetry_equiv_pos_site_id
 _symmetry_equiv_pos_as_xyz
  1  'x, y, z'
loop_
 _atom_site_type_symbol
 _atom_site_label
 _atom_site_symmetry_multiplicity
 _atom_site_fract_x
 _atom_site_fract_y
 _atom_site_fract_z
 _atom_site_occupancy
  Tb  Tb0  1  0.188203  0.812229  0.812722  1
  Tb  Tb1  1  0.060951  0.060951  0.435852  1
  Tb  Tb2  1  0.436091  0.061569  0.060942  1
  Tb  Tb3  1  0.812229  0.188203  0.812722  1
  Tb  Tb4  1  0.437945  0.057390  0.437332  1
  Tb  Tb5  1  0.599974  0.211652  0.599818  1
  Tb  Tb6  1  0.812397  0.812397  0.188140  1
  Tb  Tb7  1  0.211652  0.599974  0.599818  1
  Tb  Tb8  1  0.805444  0.190503  0.190182  1
  Tb  Tb9  1  0.057390  0.437945  0.437332  1
  Tb  Tb10  1  0.190503  0.805444  0.190182  1
  Tb  Tb11  1  0.599816  0.599816  0.211233  1
  Tb  Tb12  1  0.190273  0.190273  0.805729  1
  Tb  Tb13  1  0.061569  0.436091  0.060942  1
  Ho  Ho14  1  0.437823  0.437823  0.057380  1
  Ho  Ho15  1  0.595527  0.595527  0.596421  1
  Cd  Cd16  1  0.829488  0.829488  0.508092  1
  Cd  Cd17  1  0.829845  0.829845  0.829768  1
  Cd  Cd18  1  0.508049  0.829246  0.829671  1
  Cd  Cd19  1  0.829246  0.508049  0.829671  1
  Co  Co20  1  0.829121  0.392661  0.392932  1
  Co  Co21  1  0.392661  0.829121  0.392932  1
  Co  Co22  1  0.392753  0.392753  0.829466  1
  Os  Os23  1  0.391053  0.391053  0.390723  1
