# generated using pymatgen
data_Tm4Mn9Fe2(Co3P4)3
_symmetry_space_group_name_H-M   'P 1'
_cell_length_a   3.60515900
_cell_length_b   10.32909305
_cell_length_c   12.02267378
_cell_angle_alpha   89.83344637
_cell_angle_beta   90.00000000
_cell_angle_gamma   90.00000000
_symmetry_Int_Tables_number   1
_chemical_formula_structural   Tm4Mn9Fe2(Co3P4)3
_chemical_formula_sum   'Tm4 Mn9 Fe2 Co9 P12'
_cell_volume   447.69870827
_cell_formula_units_Z   1
loop_
 _symmetry_equiv_pos_site_id
 _symmetry_equiv_pos_as_xyz
  1  'x, y, z'
loop_
 _atom_site_type_symbol
 _atom_site_label
 _atom_site_symmetry_multiplicity
 _atom_site_fract_x
 _atom_site_fract_y
 _atom_site_fract_z
 _atom_site_occupancy
  Tm  Tm0  1  0.250000  0.582633  0.709316  1
  Tm  Tm1  1  0.250000  0.914483  0.210584  1
  Tm  Tm2  1  0.750000  0.421034  0.290665  1
  Tm  Tm3  1  0.750000  0.081550  0.789740  1
  Mn  Mn4  1  0.250000  0.712122  0.991603  1
  Mn  Mn5  1  0.250000  0.788112  0.492153  1
  Mn  Mn6  1  0.750000  0.287592  0.012357  1
  Mn  Mn7  1  0.750000  0.214300  0.509598  1
  Mn  Mn8  1  0.250000  0.408590  0.491822  1
  Mn  Mn9  1  0.250000  0.091205  0.991534  1
  Mn  Mn10  1  0.750000  0.593711  0.509873  1
  Mn  Mn11  1  0.750000  0.906055  0.008694  1
  Mn  Mn12  1  0.250000  0.218104  0.173175  1
  Fe  Fe13  1  0.750000  0.536114  0.065046  1
  Fe  Fe14  1  0.750000  0.965114  0.565758  1
  Co  Co15  1  0.250000  0.276595  0.676133  1
  Co  Co16  1  0.750000  0.776635  0.823691  1
  Co  Co17  1  0.750000  0.724092  0.324540  1
  Co  Co18  1  0.250000  0.880665  0.698020  1
  Co  Co19  1  0.250000  0.620503  0.197934  1
  Co  Co20  1  0.750000  0.119693  0.301854  1
  Co  Co21  1  0.750000  0.380954  0.802907  1
  Co  Co22  1  0.250000  0.464664  0.931223  1
  Co  Co23  1  0.250000  0.036710  0.431505  1
  P  P24  1  0.250000  0.423511  0.111558  1
  P  P25  1  0.250000  0.078113  0.611205  1
  P  P26  1  0.750000  0.578654  0.887760  1
  P  P27  1  0.750000  0.922010  0.388942  1
  P  P28  1  0.250000  0.267361  0.866159  1
  P  P29  1  0.250000  0.234786  0.367405  1
  P  P30  1  0.750000  0.731024  0.133325  1
  P  P31  1  0.750000  0.769044  0.633703  1
  P  P32  1  0.250000  0.600406  0.383738  1
  P  P33  1  0.250000  0.899992  0.883052  1
  P  P34  1  0.750000  0.401339  0.617239  1
  P  P35  1  0.750000  0.092530  0.116185  1
