# generated using pymatgen
data_Tm2Fe7Co5P7
_symmetry_space_group_name_H-M   'P 1'
_cell_length_a   8.94687055
_cell_length_b   8.94604610
_cell_length_c   3.59303200
_cell_angle_alpha   90.00000000
_cell_angle_beta   90.00000000
_cell_angle_gamma   120.08267547
_symmetry_Int_Tables_number   1
_chemical_formula_structural   Tm2Fe7Co5P7
_chemical_formula_sum   'Tm2 Fe7 Co5 P7'
_cell_volume   248.84653128
_cell_formula_units_Z   1
loop_
 _symmetry_equiv_pos_site_id
 _symmetry_equiv_pos_as_xyz
  1  'x, y, z'
loop_
 _atom_site_type_symbol
 _atom_site_label
 _atom_site_symmetry_multiplicity
 _atom_site_fract_x
 _atom_site_fract_y
 _atom_site_fract_z
 _atom_site_occupancy
  Tm  Tm0  1  0.000202  0.000436  0.000000  1
  Tm  Tm1  1  0.332544  0.665905  0.500000  1
  Fe  Fe2  1  0.099426  0.392203  0.000000  1
  Fe  Fe3  1  0.785697  0.178935  0.000000  1
  Fe  Fe4  1  0.393271  0.213934  0.000000  1
  Fe  Fe5  1  0.821497  0.608857  0.000000  1
  Fe  Fe6  1  0.537507  0.101185  0.500000  1
  Fe  Fe7  1  0.565056  0.462683  0.500000  1
  Fe  Fe8  1  0.894873  0.434897  0.500000  1
  Co  Co9  1  0.293204  0.899623  0.000000  1
  Co  Co10  1  0.606610  0.707005  0.000000  1
  Co  Co11  1  0.719328  0.948755  0.500000  1
  Co  Co12  1  0.230097  0.279909  0.500000  1
  Co  Co13  1  0.052601  0.770745  0.500000  1
  P  P14  1  0.553552  0.925775  0.000000  1
  P  P15  1  0.370479  0.445687  0.000000  1
  P  P16  1  0.073525  0.625353  0.000000  1
  P  P17  1  0.957028  0.223001  0.500000  1
  P  P18  1  0.265146  0.045201  0.500000  1
  P  P19  1  0.780988  0.735585  0.500000  1
  P  P20  1  0.667371  0.334326  0.000000  1
