# generated using pymatgen
data_Zr12Si3Se
_symmetry_space_group_name_H-M   'P 1'
_cell_length_a   11.00803906
_cell_length_b   11.03640606
_cell_length_c   5.46196100
_cell_angle_alpha   90.00000000
_cell_angle_beta   90.00000000
_cell_angle_gamma   89.98818480
_symmetry_Int_Tables_number   1
_chemical_formula_structural   Zr12Si3Se
_chemical_formula_sum   'Zr24 Si6 Se2'
_cell_volume   663.56919791
_cell_formula_units_Z   2
loop_
 _symmetry_equiv_pos_site_id
 _symmetry_equiv_pos_as_xyz
  1  'x, y, z'
loop_
 _atom_site_type_symbol
 _atom_site_label
 _atom_site_symmetry_multiplicity
 _atom_site_fract_x
 _atom_site_fract_y
 _atom_site_fract_z
 _atom_site_occupancy
  Zr  Zr0  1  0.917898  0.607651  0.536009  1
  Zr  Zr1  1  0.082102  0.392349  0.536009  1
  Zr  Zr2  1  0.891416  0.416981  0.033180  1
  Zr  Zr3  1  0.108584  0.583019  0.033180  1
  Zr  Zr4  1  0.580789  0.891553  0.960036  1
  Zr  Zr5  1  0.419211  0.108447  0.960036  1
  Zr  Zr6  1  0.605484  0.084254  0.471051  1
  Zr  Zr7  1  0.394516  0.915746  0.471051  1
  Zr  Zr8  1  0.863150  0.973781  0.718390  1
  Zr  Zr9  1  0.136850  0.026219  0.718390  1
  Zr  Zr10  1  0.527294  0.360783  0.220461  1
  Zr  Zr11  1  0.472706  0.639217  0.220461  1
  Zr  Zr12  1  0.638506  0.526639  0.780502  1
  Zr  Zr13  1  0.361494  0.473361  0.780502  1
  Zr  Zr14  1  0.972884  0.140463  0.281268  1
  Zr  Zr15  1  0.027116  0.859537  0.281268  1
  Zr  Zr16  1  0.819272  0.713573  0.007230  1
  Zr  Zr17  1  0.180728  0.286427  0.007230  1
  Zr  Zr18  1  0.784280  0.320610  0.511327  1
  Zr  Zr19  1  0.215720  0.679390  0.511327  1
  Zr  Zr20  1  0.680176  0.782360  0.492334  1
  Zr  Zr21  1  0.319824  0.217640  0.492334  1
  Zr  Zr22  1  0.714689  0.180554  0.986297  1
  Zr  Zr23  1  0.285311  0.819446  0.986297  1
  Si  Si24  1  0.541253  0.295277  0.712755  1
  Si  Si25  1  0.458747  0.704723  0.712755  1
  Si  Si26  1  0.705345  0.541767  0.288236  1
  Si  Si27  1  0.294655  0.458233  0.288236  1
  Si  Si28  1  0.958719  0.205744  0.787316  1
  Si  Si29  1  0.041281  0.794256  0.787316  1
  Se  Se30  1  0.792233  0.958699  0.213608  1
  Se  Se31  1  0.207767  0.041301  0.213608  1
