# generated using pymatgen
data_La(FeCl4)3
_symmetry_space_group_name_H-M   'P 1'
_cell_length_a   11.08688600
_cell_length_b   11.08688607
_cell_length_c   16.43618100
_cell_angle_alpha   90.00000000
_cell_angle_beta   90.00000000
_cell_angle_gamma   119.99999981
_symmetry_Int_Tables_number   1
_chemical_formula_structural   La(FeCl4)3
_chemical_formula_sum   'La3 Fe9 Cl36'
_cell_volume   1749.64811896
_cell_formula_units_Z   3
loop_
 _symmetry_equiv_pos_site_id
 _symmetry_equiv_pos_as_xyz
  1  'x, y, z'
loop_
 _atom_site_type_symbol
 _atom_site_label
 _atom_site_symmetry_multiplicity
 _atom_site_fract_x
 _atom_site_fract_y
 _atom_site_fract_z
 _atom_site_occupancy
  La  La0  1  0.991619  0.495810  0.000000  1
  La  La1  1  0.504190  0.008381  0.666667  1
  La  La2  1  0.504190  0.495810  0.333333  1
  Fe  Fe3  1  0.730990  0.269010  0.833333  1
  Fe  Fe4  1  0.128686  0.764196  0.603115  1
  Fe  Fe5  1  0.235804  0.364490  0.936448  1
  Fe  Fe6  1  0.635510  0.871314  0.269781  1
  Fe  Fe7  1  0.730990  0.461981  0.166667  1
  Fe  Fe8  1  0.538019  0.269010  0.500000  1
  Fe  Fe9  1  0.128686  0.364490  0.396885  1
  Fe  Fe10  1  0.635510  0.764196  0.730219  1
  Fe  Fe11  1  0.235804  0.871314  0.063552  1
  Cl  Cl12  1  0.004549  0.837977  0.544736  1
  Cl  Cl13  1  0.833429  0.995451  0.211403  1
  Cl  Cl14  1  0.162023  0.166571  0.878069  1
  Cl  Cl15  1  0.795230  0.590824  0.278669  1
  Cl  Cl16  1  0.409176  0.204406  0.612002  1
  Cl  Cl17  1  0.795594  0.204770  0.945335  1
  Cl  Cl18  1  0.409176  0.204770  0.387998  1
  Cl  Cl19  1  0.795594  0.590824  0.054665  1
  Cl  Cl20  1  0.795230  0.204406  0.721331  1
  Cl  Cl21  1  0.222073  0.341873  0.277616  1
  Cl  Cl22  1  0.658127  0.880200  0.610949  1
  Cl  Cl23  1  0.119800  0.777927  0.944283  1
  Cl  Cl24  1  0.658127  0.777927  0.389051  1
  Cl  Cl25  1  0.119800  0.341873  0.055717  1
  Cl  Cl26  1  0.222073  0.880200  0.722384  1
  Cl  Cl27  1  0.505520  0.664462  0.202347  1
  Cl  Cl28  1  0.335538  0.841059  0.535680  1
  Cl  Cl29  1  0.158941  0.494480  0.869013  1
  Cl  Cl30  1  0.335538  0.494480  0.464320  1
  Cl  Cl31  1  0.158941  0.664462  0.130987  1
  Cl  Cl32  1  0.505520  0.841059  0.797653  1
  Cl  Cl33  1  0.664547  0.496670  0.483541  1
  Cl  Cl34  1  0.503330  0.167878  0.816875  1
  Cl  Cl35  1  0.832122  0.335453  0.150208  1
  Cl  Cl36  1  0.503330  0.335453  0.183125  1
  Cl  Cl37  1  0.832122  0.496670  0.849792  1
  Cl  Cl38  1  0.664547  0.167878  0.516459  1
  Cl  Cl39  1  0.027310  0.484614  0.377567  1
  Cl  Cl40  1  0.515386  0.542696  0.710900  1
  Cl  Cl41  1  0.457304  0.972690  0.044234  1
  Cl  Cl42  1  0.515386  0.972690  0.289100  1
  Cl  Cl43  1  0.457304  0.484614  0.955766  1
  Cl  Cl44  1  0.027310  0.542696  0.622433  1
  Cl  Cl45  1  0.004549  0.166571  0.455264  1
  Cl  Cl46  1  0.833429  0.837977  0.788597  1
  Cl  Cl47  1  0.162023  0.995451  0.121931  1
