# generated using pymatgen
data_YbDy2Ho4PtI12
_symmetry_space_group_name_H-M   'P 1'
_cell_length_a   9.77941788
_cell_length_b   9.77601016
_cell_length_c   9.77786255
_cell_angle_alpha   106.98068283
_cell_angle_beta   106.99611285
_cell_angle_gamma   106.98299714
_symmetry_Int_Tables_number   1
_chemical_formula_structural   YbDy2Ho4PtI12
_chemical_formula_sum   'Yb1 Dy2 Ho4 Pt1 I12'
_cell_volume   778.79459553
_cell_formula_units_Z   1
loop_
 _symmetry_equiv_pos_site_id
 _symmetry_equiv_pos_as_xyz
  1  'x, y, z'
loop_
 _atom_site_type_symbol
 _atom_site_label
 _atom_site_symmetry_multiplicity
 _atom_site_fract_x
 _atom_site_fract_y
 _atom_site_fract_z
 _atom_site_occupancy
  Yb  Yb0  1  0.000029  0.999980  0.000017  1
  Dy  Dy1  1  0.401468  0.472677  0.198036  1
  Dy  Dy2  1  0.198116  0.401287  0.472806  1
  Ho  Ho3  1  0.472815  0.199120  0.401855  1
  Ho  Ho4  1  0.598648  0.527505  0.801068  1
  Ho  Ho5  1  0.801056  0.598389  0.527611  1
  Ho  Ho6  1  0.527695  0.801067  0.598615  1
  Pt  Pt7  1  0.499858  0.499946  0.499892  1
  I  I8  1  0.039396  0.347507  0.117185  1
  I  I9  1  0.117625  0.039417  0.347530  1
  I  I10  1  0.347694  0.117131  0.039886  1
  I  I11  1  0.960169  0.652317  0.882496  1
  I  I12  1  0.882473  0.960124  0.652342  1
  I  I13  1  0.652358  0.882480  0.960142  1
  I  I14  1  0.723891  0.573774  0.178183  1
  I  I15  1  0.178247  0.723889  0.573796  1
  I  I16  1  0.573603  0.178064  0.723261  1
  I  I17  1  0.276850  0.426427  0.821909  1
  I  I18  1  0.821485  0.276583  0.426365  1
  I  I19  1  0.426522  0.822317  0.277008  1
