# generated using pymatgen
data_Ho2Nb3B4Ru10W
_symmetry_space_group_name_H-M   'P 1'
_cell_length_a   9.57580725
_cell_length_b   9.55537236
_cell_length_c   3.06698500
_cell_angle_alpha   90.00000000
_cell_angle_beta   90.00000000
_cell_angle_gamma   90.53268595
_symmetry_Int_Tables_number   1
_chemical_formula_structural   Ho2Nb3B4Ru10W
_chemical_formula_sum   'Ho2 Nb3 B4 Ru10 W1'
_cell_volume   280.61823807
_cell_formula_units_Z   1
loop_
 _symmetry_equiv_pos_site_id
 _symmetry_equiv_pos_as_xyz
  1  'x, y, z'
loop_
 _atom_site_type_symbol
 _atom_site_label
 _atom_site_symmetry_multiplicity
 _atom_site_fract_x
 _atom_site_fract_y
 _atom_site_fract_z
 _atom_site_occupancy
  Ho  Ho0  1  0.823842  0.676085  0.000000  1
  Ho  Ho1  1  0.176158  0.323915  0.000000  1
  Nb  Nb2  1  0.323756  0.824941  0.000000  1
  Nb  Nb3  1  0.676244  0.175059  0.000000  1
  Nb  Nb4  1  0.000000  0.000000  0.000000  1
  B  B5  1  0.620866  0.880771  0.000000  1
  B  B6  1  0.379134  0.119229  0.000000  1
  B  B7  1  0.120410  0.621993  0.000000  1
  B  B8  1  0.879590  0.378007  0.000000  1
  Ru  Ru9  1  0.560461  0.719900  0.500000  1
  Ru  Ru10  1  0.439539  0.280100  0.500000  1
  Ru  Ru11  1  0.081160  0.784087  0.500000  1
  Ru  Ru12  1  0.918840  0.215913  0.500000  1
  Ru  Ru13  1  0.287556  0.577642  0.500000  1
  Ru  Ru14  1  0.712444  0.422358  0.500000  1
  Ru  Ru15  1  0.223254  0.061889  0.500000  1
  Ru  Ru16  1  0.776746  0.938111  0.500000  1
  Ru  Ru17  1  0.500000  0.000000  0.500000  1
  Ru  Ru18  1  0.000000  0.500000  0.500000  1
  W  W19  1  0.500000  0.500000  0.000000  1
