# generated using pymatgen
data_K2(HfTe2)5
_symmetry_space_group_name_H-M   'P 1'
_cell_length_a   6.75673141
_cell_length_b   12.04606001
_cell_length_c   9.90002800
_cell_angle_alpha   55.51528438
_cell_angle_beta   70.29928053
_cell_angle_gamma   89.96678706
_symmetry_Int_Tables_number   1
_chemical_formula_structural   K2(HfTe2)5
_chemical_formula_sum   'K2 Hf5 Te10'
_cell_volume   606.22132490
_cell_formula_units_Z   1
loop_
 _symmetry_equiv_pos_site_id
 _symmetry_equiv_pos_as_xyz
  1  'x, y, z'
loop_
 _atom_site_type_symbol
 _atom_site_label
 _atom_site_symmetry_multiplicity
 _atom_site_fract_x
 _atom_site_fract_y
 _atom_site_fract_z
 _atom_site_occupancy
  K  K0  1  0.787513  0.075383  0.425028  1
  K  K1  1  0.012487  0.524617  0.974972  1
  Hf  Hf2  1  0.400000  0.800000  0.200000  1
  Hf  Hf3  1  0.804075  0.599182  0.396861  1
  Hf  Hf4  1  0.197989  0.400633  0.600390  1
  Hf  Hf5  1  0.602011  0.199367  0.799610  1
  Hf  Hf6  1  0.995925  0.000818  0.003139  1
  Te  Te7  1  0.987580  0.835839  0.360376  1
  Te  Te8  1  0.582686  0.039618  0.159078  1
  Te  Te9  1  0.188759  0.240288  0.958430  1
  Te  Te10  1  0.784782  0.439312  0.756957  1
  Te  Te11  1  0.393321  0.639964  0.554482  1
  Te  Te12  1  0.406679  0.960036  0.845518  1
  Te  Te13  1  0.015218  0.160688  0.643043  1
  Te  Te14  1  0.611241  0.359712  0.441570  1
  Te  Te15  1  0.217314  0.560382  0.240922  1
  Te  Te16  1  0.812420  0.764161  0.039624  1
