# generated using pymatgen
data_Dy9Ho(SiBi2)2
_symmetry_space_group_name_H-M   'P 1'
_cell_length_a   8.05730818
_cell_length_b   9.14091516
_cell_length_c   12.15678340
_cell_angle_alpha   89.99409825
_cell_angle_beta   89.96156704
_cell_angle_gamma   89.99949893
_symmetry_Int_Tables_number   1
_chemical_formula_structural   Dy9Ho(SiBi2)2
_chemical_formula_sum   'Dy18 Ho2 Si4 Bi8'
_cell_volume   895.36112060
_cell_formula_units_Z   2
loop_
 _symmetry_equiv_pos_site_id
 _symmetry_equiv_pos_as_xyz
  1  'x, y, z'
loop_
 _atom_site_type_symbol
 _atom_site_label
 _atom_site_symmetry_multiplicity
 _atom_site_fract_x
 _atom_site_fract_y
 _atom_site_fract_z
 _atom_site_occupancy
  Dy  Dy0  1  0.341455  0.749986  0.710280  1
  Dy  Dy1  1  0.658545  0.250014  0.289720  1
  Dy  Dy2  1  0.841884  0.249779  0.790106  1
  Dy  Dy3  1  0.158116  0.750221  0.209894  1
  Dy  Dy4  1  0.869722  0.750088  0.795124  1
  Dy  Dy5  1  0.130278  0.249912  0.204876  1
  Dy  Dy6  1  0.369858  0.250014  0.705277  1
  Dy  Dy7  1  0.630142  0.749986  0.294723  1
  Dy  Dy8  1  0.681934  0.551509  0.564291  1
  Dy  Dy9  1  0.318066  0.448491  0.435709  1
  Dy  Dy10  1  0.181612  0.448261  0.935824  1
  Dy  Dy11  1  0.318156  0.051568  0.435590  1
  Dy  Dy12  1  0.818388  0.551739  0.064176  1
  Dy  Dy13  1  0.681844  0.948432  0.564410  1
  Dy  Dy14  1  0.042940  0.750148  0.500407  1
  Dy  Dy15  1  0.957060  0.249852  0.499593  1
  Dy  Dy16  1  0.542602  0.250064  0.999615  1
  Dy  Dy17  1  0.457398  0.749936  0.000385  1
  Ho  Ho18  1  0.818375  0.947924  0.064116  1
  Ho  Ho19  1  0.181625  0.052076  0.935884  1
  Si  Si20  1  0.082691  0.751064  0.980741  1
  Si  Si21  1  0.917309  0.248936  0.019259  1
  Si  Si22  1  0.582172  0.250063  0.518891  1
  Si  Si23  1  0.417828  0.749937  0.481109  1
  Bi  Bi24  1  0.572836  0.510894  0.826973  1
  Bi  Bi25  1  0.427164  0.489106  0.173027  1
  Bi  Bi26  1  0.072744  0.488995  0.673115  1
  Bi  Bi27  1  0.427500  0.010957  0.172862  1
  Bi  Bi28  1  0.927256  0.511005  0.326885  1
  Bi  Bi29  1  0.572500  0.989043  0.827138  1
  Bi  Bi30  1  0.927097  0.989037  0.326727  1
  Bi  Bi31  1  0.072903  0.010963  0.673273  1
