# generated using pymatgen
data_Sr8Ni4Te(WO8)3
_symmetry_space_group_name_H-M   'P 1'
_cell_length_a   8.02272682
_cell_length_b   9.77114732
_cell_length_c   8.02272844
_cell_angle_alpha   114.07649226
_cell_angle_beta   89.47664444
_cell_angle_gamma   66.07081436
_symmetry_Int_Tables_number   1
_chemical_formula_structural   Sr8Ni4Te(WO8)3
_chemical_formula_sum   'Sr8 Ni4 Te1 W3 O24'
_cell_volume   513.22755741
_cell_formula_units_Z   1
loop_
 _symmetry_equiv_pos_site_id
 _symmetry_equiv_pos_as_xyz
  1  'x, y, z'
loop_
 _atom_site_type_symbol
 _atom_site_label
 _atom_site_symmetry_multiplicity
 _atom_site_fract_x
 _atom_site_fract_y
 _atom_site_fract_z
 _atom_site_occupancy
  Sr  Sr0  1  0.628174  0.250862  0.379036  1
  Sr  Sr1  1  0.876716  0.750893  0.626152  1
  Sr  Sr2  1  0.127729  0.249273  0.877002  1
  Sr  Sr3  1  0.375259  0.750893  0.127608  1
  Sr  Sr4  1  0.871826  0.749138  0.120964  1
  Sr  Sr5  1  0.124741  0.249107  0.372392  1
  Sr  Sr6  1  0.372271  0.750727  0.622998  1
  Sr  Sr7  1  0.623284  0.249107  0.873848  1
  Ni  Ni8  1  0.750000  0.500000  0.250000  1
  Ni  Ni9  1  0.000285  0.001591  0.501876  1
  Ni  Ni10  1  0.250000  0.500000  0.750000  1
  Ni  Ni11  1  0.499715  0.998409  0.998124  1
  Te  Te12  1  0.250000  0.500000  0.250000  1
  W  W13  1  0.500229  0.000000  0.499771  1
  W  W14  1  0.750000  0.500000  0.750000  1
  W  W15  1  0.999771  0.000000  0.000229  1
  O  O16  1  0.648847  0.758557  0.408151  1
  O  O17  1  0.899953  0.259251  0.659204  1
  O  O18  1  0.149594  0.758557  0.907404  1
  O  O19  1  0.403509  0.260528  0.164037  1
  O  O20  1  0.851153  0.241443  0.091849  1
  O  O21  1  0.096491  0.739472  0.335963  1
  O  O22  1  0.350406  0.241443  0.592596  1
  O  O23  1  0.600047  0.740749  0.840796  1
  O  O24  1  0.767071  0.468720  0.492656  1
  O  O25  1  0.016160  0.970065  0.743541  1
  O  O26  1  0.270308  0.463325  0.991452  1
  O  O27  1  0.516194  0.969796  0.243079  1
  O  O28  1  0.471873  0.536675  0.266368  1
  O  O29  1  0.726717  0.030204  0.514011  1
  O  O30  1  0.976064  0.531280  0.764210  1
  O  O31  1  0.226524  0.029935  0.013776  1
  O  O32  1  0.732929  0.531280  0.007344  1
  O  O33  1  0.983806  0.030204  0.256921  1
  O  O34  1  0.229692  0.536675  0.508548  1
  O  O35  1  0.483840  0.029935  0.756459  1
  O  O36  1  0.028127  0.463325  0.233632  1
  O  O37  1  0.273476  0.970065  0.486224  1
  O  O38  1  0.523936  0.468720  0.735790  1
  O  O39  1  0.773283  0.969796  0.985989  1
