# generated using pymatgen
data_TbY5TiAl23Os8
_symmetry_space_group_name_H-M   'P 1'
_cell_length_a   8.86716500
_cell_length_b   8.86454589
_cell_length_c   9.57923201
_cell_angle_alpha   89.99668148
_cell_angle_beta   90.00000000
_cell_angle_gamma   120.00977045
_symmetry_Int_Tables_number   1
_chemical_formula_structural   TbY5TiAl23Os8
_chemical_formula_sum   'Tb1 Y5 Ti1 Al23 Os8'
_cell_volume   652.01838080
_cell_formula_units_Z   1
loop_
 _symmetry_equiv_pos_site_id
 _symmetry_equiv_pos_as_xyz
  1  'x, y, z'
loop_
 _atom_site_type_symbol
 _atom_site_label
 _atom_site_symmetry_multiplicity
 _atom_site_fract_x
 _atom_site_fract_y
 _atom_site_fract_z
 _atom_site_occupancy
  Tb  Tb0  1  0.193403  0.386805  0.250757  1
  Y  Y1  1  0.807266  0.614530  0.748263  1
  Y  Y2  1  0.613070  0.806507  0.250897  1
  Y  Y3  1  0.385511  0.192734  0.748275  1
  Y  Y4  1  0.193436  0.806507  0.250897  1
  Y  Y5  1  0.807224  0.192734  0.748275  1
  Ti  Ti6  1  0.333330  0.666661  0.991234  1
  Al  Al7  1  0.666660  0.333319  0.982094  1
  Al  Al8  1  0.666659  0.333318  0.516290  1
  Al  Al9  1  0.333383  0.666767  0.482548  1
  Al  Al10  1  0.162494  0.324987  0.574989  1
  Al  Al11  1  0.837062  0.674124  0.424902  1
  Al  Al12  1  0.675014  0.837515  0.574974  1
  Al  Al13  1  0.836846  0.673691  0.076211  1
  Al  Al14  1  0.325863  0.162886  0.424872  1
  Al  Al15  1  0.159737  0.319474  0.926359  1
  Al  Al16  1  0.162501  0.837515  0.574974  1
  Al  Al17  1  0.326305  0.163114  0.076251  1
  Al  Al18  1  0.837023  0.162886  0.424872  1
  Al  Al19  1  0.680513  0.840271  0.926412  1
  Al  Al20  1  0.836810  0.163114  0.076251  1
  Al  Al21  1  0.159759  0.840271  0.926412  1
  Al  Al22  1  0.561520  0.123041  0.252971  1
  Al  Al23  1  0.441053  0.882106  0.749977  1
  Al  Al24  1  0.876791  0.438448  0.252967  1
  Al  Al25  1  0.117875  0.558954  0.749989  1
  Al  Al26  1  0.561657  0.438448  0.252967  1
  Al  Al27  1  0.441079  0.558954  0.749989  1
  Al  Al28  1  0.000037  0.000075  0.249954  1
  Al  Al29  1  0.000008  0.000015  0.749207  1
  Os  Os30  1  0.499090  0.998179  0.002571  1
  Os  Os31  1  0.001896  0.500984  0.002623  1
  Os  Os32  1  0.499603  0.999205  0.502563  1
  Os  Os33  1  0.499089  0.500984  0.002623  1
  Os  Os34  1  0.000832  0.500464  0.502535  1
  Os  Os35  1  0.499632  0.500464  0.502535  1
  Os  Os36  1  0.999993  0.999986  0.000205  1
  Os  Os37  1  0.999978  0.999956  0.499315  1
