# generated using pymatgen
data_NpPa3(CoGe)4
_symmetry_space_group_name_H-M   'P 1'
_cell_length_a   4.27070900
_cell_length_b   6.94787367
_cell_length_c   7.39986700
_cell_angle_alpha   93.24959258
_cell_angle_beta   90.00000000
_cell_angle_gamma   90.00000000
_symmetry_Int_Tables_number   1
_chemical_formula_structural   NpPa3(CoGe)4
_chemical_formula_sum   'Np1 Pa3 Co4 Ge4'
_cell_volume   219.21836382
_cell_formula_units_Z   1
loop_
 _symmetry_equiv_pos_site_id
 _symmetry_equiv_pos_as_xyz
  1  'x, y, z'
loop_
 _atom_site_type_symbol
 _atom_site_label
 _atom_site_symmetry_multiplicity
 _atom_site_fract_x
 _atom_site_fract_y
 _atom_site_fract_z
 _atom_site_occupancy
  Np  Np0  1  0.250000  0.773059  0.477706  1
  Pa  Pa1  1  0.250000  0.697451  0.993098  1
  Pa  Pa2  1  0.750000  0.301677  0.009097  1
  Pa  Pa3  1  0.750000  0.232154  0.524130  1
  Co  Co4  1  0.250000  0.044787  0.119515  1
  Co  Co5  1  0.750000  0.956730  0.873982  1
  Co  Co6  1  0.750000  0.550360  0.245878  1
  Co  Co7  1  0.250000  0.443232  0.751812  1
  Ge  Ge8  1  0.250000  0.382668  0.295362  1
  Ge  Ge9  1  0.750000  0.619795  0.708826  1
  Ge  Ge10  1  0.750000  0.911243  0.226846  1
  Ge  Ge11  1  0.250000  0.086846  0.773745  1
