# generated using pymatgen
data_Gd2VReB8
_symmetry_space_group_name_H-M   'P 1'
_cell_length_a   6.00181000
_cell_length_b   11.60059800
_cell_length_c   3.56674200
_cell_angle_alpha   90.00000000
_cell_angle_beta   90.00000000
_cell_angle_gamma   90.00093842
_symmetry_Int_Tables_number   1
_chemical_formula_structural   Gd2VReB8
_chemical_formula_sum   'Gd4 V2 Re2 B16'
_cell_volume   248.33293185
_cell_formula_units_Z   2
loop_
 _symmetry_equiv_pos_site_id
 _symmetry_equiv_pos_as_xyz
  1  'x, y, z'
loop_
 _atom_site_type_symbol
 _atom_site_label
 _atom_site_symmetry_multiplicity
 _atom_site_fract_x
 _atom_site_fract_y
 _atom_site_fract_z
 _atom_site_occupancy
  Gd  Gd0  1  0.124918  0.149860  0.000000  1
  Gd  Gd1  1  0.625014  0.350167  0.000000  1
  Gd  Gd2  1  0.375272  0.651218  0.000000  1
  Gd  Gd3  1  0.875207  0.848781  0.000000  1
  V  V4  1  0.872267  0.581634  0.000000  1
  V  V5  1  0.372151  0.918337  0.000000  1
  Re  Re6  1  0.626698  0.083883  0.000000  1
  Re  Re7  1  0.126707  0.416127  0.000000  1
  B  B8  1  0.863987  0.032137  0.500000  1
  B  B9  1  0.386730  0.046974  0.500000  1
  B  B10  1  0.783038  0.184939  0.500000  1
  B  B11  1  0.475165  0.191936  0.500000  1
  B  B12  1  0.975160  0.308019  0.500000  1
  B  B13  1  0.283076  0.315012  0.500000  1
  B  B14  1  0.886758  0.452986  0.500000  1
  B  B15  1  0.364000  0.467818  0.500000  1
  B  B16  1  0.636236  0.532341  0.500000  1
  B  B17  1  0.113976  0.546860  0.500000  1
  B  B18  1  0.717238  0.684938  0.500000  1
  B  B19  1  0.024537  0.691862  0.500000  1
  B  B20  1  0.524526  0.808195  0.500000  1
  B  B21  1  0.217182  0.815168  0.500000  1
  B  B22  1  0.613928  0.953152  0.500000  1
  B  B23  1  0.136230  0.967652  0.500000  1
