# generated using pymatgen
data_Yb3HoAl15(SiIr2)3
_symmetry_space_group_name_H-M   'P 1'
_cell_length_a   7.53055455
_cell_length_b   7.52156566
_cell_length_c   9.38433163
_cell_angle_alpha   89.96841301
_cell_angle_beta   89.97998047
_cell_angle_gamma   119.75065514
_symmetry_Int_Tables_number   1
_chemical_formula_structural   Yb3HoAl15(SiIr2)3
_chemical_formula_sum   'Yb3 Ho1 Al15 Si3 Ir6'
_cell_volume   461.48196052
_cell_formula_units_Z   1
loop_
 _symmetry_equiv_pos_site_id
 _symmetry_equiv_pos_as_xyz
  1  'x, y, z'
loop_
 _atom_site_type_symbol
 _atom_site_label
 _atom_site_symmetry_multiplicity
 _atom_site_fract_x
 _atom_site_fract_y
 _atom_site_fract_z
 _atom_site_occupancy
  Yb  Yb0  1  0.993744  0.667605  0.247736  1
  Yb  Yb1  1  0.003633  0.325141  0.754013  1
  Yb  Yb2  1  0.681496  0.002599  0.247689  1
  Ho  Ho3  1  0.324149  0.002451  0.749701  1
  Al  Al4  1  0.997431  0.667253  0.923575  1
  Al  Al5  1  0.998607  0.663154  0.573934  1
  Al  Al6  1  0.335689  0.999136  0.424047  1
  Al  Al7  1  0.001032  0.336127  0.430299  1
  Al  Al8  1  0.664469  0.999669  0.574233  1
  Al  Al9  1  0.660735  0.995521  0.923828  1
  Al  Al10  1  0.335372  0.999407  0.076025  1
  Al  Al11  1  0.335669  0.335537  0.556105  1
  Al  Al12  1  0.665301  0.666072  0.445853  1
  Al  Al13  1  0.664676  0.665834  0.055266  1
  Al  Al14  1  0.338232  0.335623  0.944317  1
  Al  Al15  1  0.332422  0.545705  0.249917  1
  Al  Al16  1  0.664770  0.451606  0.750669  1
  Al  Al17  1  0.544705  0.334948  0.250033  1
  Al  Al18  1  0.452300  0.665069  0.749360  1
  Si  Si19  1  0.133294  0.129774  0.250237  1
  Si  Si20  1  0.870743  0.871327  0.750245  1
  Si  Si21  1  0.001871  0.338075  0.072146  1
  Ir  Ir22  1  0.677384  0.328690  0.001364  1
  Ir  Ir23  1  0.321434  0.664202  0.998899  1
  Ir  Ir24  1  0.329034  0.671074  0.499777  1
  Ir  Ir25  1  0.670020  0.328699  0.499960  1
  Ir  Ir26  1  0.000731  0.008672  0.000186  1
  Ir  Ir27  1  0.001054  0.001032  0.500588  1
