# generated using pymatgen
data_Ce4Tm16(Ir3Os)3
_symmetry_space_group_name_H-M   'P 1'
_cell_length_a   10.79292726
_cell_length_b   10.85577026
_cell_length_c   6.31290200
_cell_angle_alpha   90.00000000
_cell_angle_beta   90.00000000
_cell_angle_gamma   89.97498953
_symmetry_Int_Tables_number   1
_chemical_formula_structural   Ce4Tm16(Ir3Os)3
_chemical_formula_sum   'Ce4 Tm16 Ir9 Os3'
_cell_volume   739.65449325
_cell_formula_units_Z   1
loop_
 _symmetry_equiv_pos_site_id
 _symmetry_equiv_pos_as_xyz
  1  'x, y, z'
loop_
 _atom_site_type_symbol
 _atom_site_label
 _atom_site_symmetry_multiplicity
 _atom_site_fract_x
 _atom_site_fract_y
 _atom_site_fract_z
 _atom_site_occupancy
  Ce  Ce0  1  0.295872  0.090752  0.379867  1
  Ce  Ce1  1  0.296217  0.910225  0.880099  1
  Ce  Ce2  1  0.703783  0.089775  0.880099  1
  Ce  Ce3  1  0.704128  0.909248  0.379867  1
  Tm  Tm4  1  0.587307  0.787036  0.877737  1
  Tm  Tm5  1  0.588012  0.213187  0.377009  1
  Tm  Tm6  1  0.411988  0.786813  0.377009  1
  Tm  Tm7  1  0.412693  0.212964  0.877737  1
  Tm  Tm8  1  0.207011  0.415080  0.625254  1
  Tm  Tm9  1  0.206113  0.584873  0.121082  1
  Tm  Tm10  1  0.793887  0.415127  0.121082  1
  Tm  Tm11  1  0.792989  0.584920  0.625254  1
  Tm  Tm12  1  0.914803  0.706035  0.117023  1
  Tm  Tm13  1  0.914796  0.293124  0.621281  1
  Tm  Tm14  1  0.085204  0.706876  0.621281  1
  Tm  Tm15  1  0.085197  0.293965  0.117023  1
  Tm  Tm16  1  0.000000  0.000000  0.499571  1
  Tm  Tm17  1  0.000000  0.000000  0.999487  1
  Tm  Tm18  1  0.500000  0.500000  0.006766  1
  Tm  Tm19  1  0.500000  0.500000  0.506558  1
  Ir  Ir20  1  0.846091  0.153746  0.245160  1
  Ir  Ir21  1  0.845473  0.846681  0.745044  1
  Ir  Ir22  1  0.154527  0.153319  0.745044  1
  Ir  Ir23  1  0.153909  0.846254  0.245160  1
  Ir  Ir24  1  0.653467  0.348932  0.752465  1
  Ir  Ir25  1  0.653500  0.650909  0.253193  1
  Ir  Ir26  1  0.346500  0.349091  0.253193  1
  Ir  Ir27  1  0.346533  0.651068  0.752465  1
  Ir  Ir28  1  0.000000  0.500000  0.374722  1
  Os  Os29  1  0.500000  0.000000  0.125742  1
  Os  Os30  1  0.500000  0.000000  0.625300  1
  Os  Os31  1  0.000000  0.500000  0.871427  1
