# generated using pymatgen
data_La3Y2P12Pd2Ru17
_symmetry_space_group_name_H-M   'P 1'
_cell_length_a   12.77370200
_cell_length_b   12.64393258
_cell_length_c   4.01940900
_cell_angle_alpha   90.00000000
_cell_angle_beta   90.00000000
_cell_angle_gamma   120.34008920
_symmetry_Int_Tables_number   1
_chemical_formula_structural   La3Y2P12Pd2Ru17
_chemical_formula_sum   'La3 Y2 P12 Pd2 Ru17'
_cell_volume   560.26468446
_cell_formula_units_Z   1
loop_
 _symmetry_equiv_pos_site_id
 _symmetry_equiv_pos_as_xyz
  1  'x, y, z'
loop_
 _atom_site_type_symbol
 _atom_site_label
 _atom_site_symmetry_multiplicity
 _atom_site_fract_x
 _atom_site_fract_y
 _atom_site_fract_z
 _atom_site_occupancy
  La  La0  1  0.001635  0.182225  0.500000  1
  La  La1  1  0.819410  0.817775  0.500000  1
  La  La2  1  0.183573  0.000000  0.500000  1
  Y  Y3  1  0.663845  0.327131  0.000000  1
  Y  Y4  1  0.336712  0.672869  0.000000  1
  P  P5  1  0.998616  0.806074  0.000000  1
  P  P6  1  0.192542  0.193926  0.000000  1
  P  P7  1  0.811556  0.000000  0.000000  1
  P  P8  1  0.694169  0.172356  0.500000  1
  P  P9  1  0.814788  0.515263  0.500000  1
  P  P10  1  0.478251  0.298235  0.500000  1
  P  P11  1  0.180017  0.701765  0.500000  1
  P  P12  1  0.521813  0.827644  0.500000  1
  P  P13  1  0.299525  0.484737  0.500000  1
  P  P14  1  0.000341  0.369403  0.000000  1
  P  P15  1  0.630938  0.630597  0.000000  1
  P  P16  1  0.377277  0.000000  0.000000  1
  Pd  Pd17  1  0.998764  0.551838  0.000000  1
  Pd  Pd18  1  0.446925  0.448162  0.000000  1
  Ru  Ru19  1  0.555146  0.000000  0.000000  1
  Ru  Ru20  1  0.997598  0.705450  0.500000  1
  Ru  Ru21  1  0.292147  0.294550  0.500000  1
  Ru  Ru22  1  0.712929  0.000000  0.500000  1
  Ru  Ru23  1  0.805042  0.186093  0.000000  1
  Ru  Ru24  1  0.811163  0.613143  0.000000  1
  Ru  Ru25  1  0.381141  0.195414  0.000000  1
  Ru  Ru26  1  0.185727  0.804586  0.000000  1
  Ru  Ru27  1  0.618950  0.813907  0.000000  1
  Ru  Ru28  1  0.198022  0.386857  0.000000  1
  Ru  Ru29  1  0.871636  0.367494  0.500000  1
  Ru  Ru30  1  0.627518  0.505416  0.500000  1
  Ru  Ru31  1  0.493617  0.123910  0.500000  1
  Ru  Ru32  1  0.369708  0.876090  0.500000  1
  Ru  Ru33  1  0.504141  0.632506  0.500000  1
  Ru  Ru34  1  0.122102  0.494584  0.500000  1
  Ru  Ru35  1  0.002716  0.000000  0.000000  1
