# generated using pymatgen
data_Tc2Os(S2Cl)2
_symmetry_space_group_name_H-M   'P 1'
_cell_length_a   9.09494431
_cell_length_b   9.20890851
_cell_length_c   11.86864549
_cell_angle_alpha   95.61340941
_cell_angle_beta   89.11029570
_cell_angle_gamma   118.79537373
_symmetry_Int_Tables_number   1
_chemical_formula_structural   Tc2Os(S2Cl)2
_chemical_formula_sum   'Tc8 Os4 S16 Cl8'
_cell_volume   866.38725080
_cell_formula_units_Z   4
loop_
 _symmetry_equiv_pos_site_id
 _symmetry_equiv_pos_as_xyz
  1  'x, y, z'
loop_
 _atom_site_type_symbol
 _atom_site_label
 _atom_site_symmetry_multiplicity
 _atom_site_fract_x
 _atom_site_fract_y
 _atom_site_fract_z
 _atom_site_occupancy
  Tc  Tc0  1  0.346803  0.364535  0.386151  1
  Tc  Tc1  1  0.653197  0.635465  0.613849  1
  Tc  Tc2  1  0.414710  0.329116  0.589817  1
  Tc  Tc3  1  0.585290  0.670884  0.410183  1
  Tc  Tc4  1  0.118566  0.037862  0.868641  1
  Tc  Tc5  1  0.881434  0.962138  0.131359  1
  Tc  Tc6  1  0.174702  0.994501  0.073001  1
  Tc  Tc7  1  0.825298  0.005499  0.926999  1
  Os  Os8  1  0.651213  0.432565  0.443187  1
  Os  Os9  1  0.348787  0.567435  0.556813  1
  Os  Os10  1  0.097459  0.227952  0.038812  1
  Os  Os11  1  0.902541  0.772048  0.961188  1
  S  S12  1  0.354844  0.238608  0.982057  1
  S  S13  1  0.645156  0.761392  0.017943  1
  S  S14  1  0.576000  0.471017  0.260312  1
  S  S15  1  0.424000  0.528983  0.739688  1
  S  S16  1  0.039479  0.248442  0.848900  1
  S  S17  1  0.960521  0.751558  0.151100  1
  S  S18  1  0.824261  0.180289  0.088990  1
  S  S19  1  0.175739  0.819711  0.911010  1
  S  S20  1  0.858085  0.719438  0.469691  1
  S  S21  1  0.141915  0.280562  0.530309  1
  S  S22  1  0.701390  0.404264  0.633840  1
  S  S23  1  0.298610  0.595736  0.366160  1
  S  S24  1  0.146424  0.175895  0.225285  1
  S  S25  1  0.853576  0.824105  0.774715  1
  S  S26  1  0.421323  0.156493  0.427029  1
  S  S27  1  0.578677  0.843507  0.572971  1
  Cl  Cl28  1  0.395801  0.982042  0.163927  1
  Cl  Cl29  1  0.604199  0.017958  0.836073  1
  Cl  Cl30  1  0.293000  0.082323  0.698473  1
  Cl  Cl31  1  0.707000  0.917677  0.301527  1
  Cl  Cl32  1  0.216148  0.516824  0.086252  1
  Cl  Cl33  1  0.783852  0.483176  0.913748  1
  Cl  Cl34  1  0.844700  0.350318  0.371656  1
  Cl  Cl35  1  0.155300  0.649682  0.628344  1
