# generated using pymatgen
data_PSe31
_symmetry_space_group_name_H-M   'P 1'
_cell_length_a   14.22117134
_cell_length_b   15.28609549
_cell_length_c   6.38426126
_cell_angle_alpha   88.69510139
_cell_angle_beta   104.42909719
_cell_angle_gamma   87.43908513
_symmetry_Int_Tables_number   1
_chemical_formula_structural   PSe31
_chemical_formula_sum   'P1 Se31'
_cell_volume   1341.90568147
_cell_formula_units_Z   1
loop_
 _symmetry_equiv_pos_site_id
 _symmetry_equiv_pos_as_xyz
  1  'x, y, z'
loop_
 _atom_site_type_symbol
 _atom_site_label
 _atom_site_symmetry_multiplicity
 _atom_site_fract_x
 _atom_site_fract_y
 _atom_site_fract_z
 _atom_site_occupancy
  P  P0  1  0.074457  0.891515  0.900856  1
  Se  Se1  1  0.005114  0.876789  0.182020  1
  Se  Se2  1  0.272136  0.430744  0.875320  1
  Se  Se3  1  0.654921  0.461417  0.559188  1
  Se  Se4  1  0.101324  0.162154  0.363803  1
  Se  Se5  1  0.415413  0.585485  0.271326  1
  Se  Se6  1  0.154154  0.022782  0.927308  1
  Se  Se7  1  0.800443  0.907917  0.690018  1
  Se  Se8  1  0.617674  0.284795  0.149392  1
  Se  Se9  1  0.179746  0.773210  0.963765  1
  Se  Se10  1  0.272093  0.229839  0.518864  1
  Se  Se11  1  0.688161  0.798445  0.708901  1
  Se  Se12  1  0.791090  0.228754  0.240651  1
  Se  Se13  1  0.237247  0.732274  0.347510  1
  Se  Se14  1  0.290304  0.266047  0.867894  1
  Se  Se15  1  0.771261  0.673276  0.901073  1
  Se  Se16  1  0.827531  0.174139  0.580412  1
  Se  Se17  1  0.021054  0.440178  0.073215  1
  Se  Se18  1  0.869841  0.610551  0.680943  1
  Se  Se19  1  0.034772  0.470034  0.435338  1
  Se  Se20  1  0.023333  0.585869  0.917858  1
  Se  Se21  1  0.546543  0.093066  0.357495  1
  Se  Se22  1  0.546069  0.956140  0.891836  1
  Se  Se23  1  0.444235  0.064576  0.028479  1
  Se  Se24  1  0.480127  0.968709  0.524867  1
  Se  Se25  1  0.585773  0.323394  0.475129  1
  Se  Se26  1  0.861757  0.967609  0.027748  1
  Se  Se27  1  0.227238  0.049250  0.282807  1
  Se  Se28  1  0.404792  0.728749  0.434732  1
  Se  Se29  1  0.013917  0.210857  0.037045  1
  Se  Se30  1  0.574651  0.553603  0.257876  1
  Se  Se31  1  0.212830  0.477837  0.526326  1
