# generated using pymatgen
data_Al4FeIr3
_symmetry_space_group_name_H-M   'P 1'
_cell_length_a   5.17516218
_cell_length_b   5.17541838
_cell_length_c   4.21411500
_cell_angle_alpha   90.00000000
_cell_angle_beta   90.00000000
_cell_angle_gamma   109.67359692
_symmetry_Int_Tables_number   1
_chemical_formula_structural   Al4FeIr3
_chemical_formula_sum   'Al4 Fe1 Ir3'
_cell_volume   106.28063836
_cell_formula_units_Z   1
loop_
 _symmetry_equiv_pos_site_id
 _symmetry_equiv_pos_as_xyz
  1  'x, y, z'
loop_
 _atom_site_type_symbol
 _atom_site_label
 _atom_site_symmetry_multiplicity
 _atom_site_fract_x
 _atom_site_fract_y
 _atom_site_fract_z
 _atom_site_occupancy
  Al  Al0  1  0.634265  0.384323  0.250001  1
  Al  Al1  1  0.115748  0.865592  0.250001  1
  Al  Al2  1  0.874908  0.125181  0.750000  1
  Al  Al3  1  0.375110  0.624936  0.750000  1
  Fe  Fe4  1  0.875039  0.625080  0.750000  1
  Ir  Ir5  1  0.124439  0.375463  0.250001  1
  Ir  Ir6  1  0.625555  0.874474  0.250001  1
  Ir  Ir7  1  0.374939  0.124956  0.750000  1
