# generated using pymatgen
data_Y4Tm8Tc3Ru
_symmetry_space_group_name_H-M   'P 1'
_cell_length_a   6.24748150
_cell_length_b   7.40004586
_cell_length_c   8.98445500
_cell_angle_alpha   90.00000000
_cell_angle_beta   90.00000000
_cell_angle_gamma   89.93655552
_symmetry_Int_Tables_number   1
_chemical_formula_structural   Y4Tm8Tc3Ru
_chemical_formula_sum   'Y4 Tm8 Tc3 Ru1'
_cell_volume   415.36592053
_cell_formula_units_Z   1
loop_
 _symmetry_equiv_pos_site_id
 _symmetry_equiv_pos_as_xyz
  1  'x, y, z'
loop_
 _atom_site_type_symbol
 _atom_site_label
 _atom_site_symmetry_multiplicity
 _atom_site_fract_x
 _atom_site_fract_y
 _atom_site_fract_z
 _atom_site_occupancy
  Y  Y0  1  0.627160  0.041490  0.250000  1
  Y  Y1  1  0.376239  0.959967  0.750000  1
  Y  Y2  1  0.124113  0.461289  0.750000  1
  Y  Y3  1  0.877302  0.540767  0.250000  1
  Tm  Tm4  1  0.158293  0.174316  0.062960  1
  Tm  Tm5  1  0.839017  0.824339  0.937154  1
  Tm  Tm6  1  0.657317  0.324469  0.937695  1
  Tm  Tm7  1  0.839017  0.824339  0.562846  1
  Tm  Tm8  1  0.341695  0.675972  0.062515  1
  Tm  Tm9  1  0.158293  0.174316  0.437040  1
  Tm  Tm10  1  0.341695  0.675972  0.437485  1
  Tm  Tm11  1  0.657317  0.324469  0.562305  1
  Tc  Tc12  1  0.454079  0.384854  0.250000  1
  Tc  Tc13  1  0.547681  0.615396  0.750000  1
  Tc  Tc14  1  0.955026  0.113813  0.750000  1
  Ru  Ru15  1  0.045756  0.884229  0.250000  1
