# generated using pymatgen
data_DyYHoGa7Cu4
_symmetry_space_group_name_H-M   'P 1'
_cell_length_a   8.01154749
_cell_length_b   8.01154726
_cell_length_c   9.37527208
_cell_angle_alpha   54.41238622
_cell_angle_beta   54.41238544
_cell_angle_gamma   30.54537515
_symmetry_Int_Tables_number   1
_chemical_formula_structural   DyYHoGa7Cu4
_chemical_formula_sum   'Dy1 Y1 Ho1 Ga7 Cu4'
_cell_volume   243.90860326
_cell_formula_units_Z   1
loop_
 _symmetry_equiv_pos_site_id
 _symmetry_equiv_pos_as_xyz
  1  'x, y, z'
loop_
 _atom_site_type_symbol
 _atom_site_label
 _atom_site_symmetry_multiplicity
 _atom_site_fract_x
 _atom_site_fract_y
 _atom_site_fract_z
 _atom_site_occupancy
  Dy  Dy0  1  0.303181  0.303181  0.704016  1
  Y  Y1  1  0.999674  0.999674  0.000183  1
  Ho  Ho2  1  0.696684  0.696684  0.295136  1
  Ga  Ga3  1  0.859108  0.859108  0.420055  1
  Ga  Ga4  1  0.141136  0.141136  0.579061  1
  Ga  Ga5  1  0.139312  0.139312  0.132924  1
  Ga  Ga6  1  0.860594  0.860594  0.867802  1
  Ga  Ga7  1  0.000262  0.000262  0.499998  1
  Ga  Ga8  1  0.343871  0.343871  0.277013  1
  Ga  Ga9  1  0.655541  0.655541  0.723448  1
  Cu  Cu10  1  0.497027  0.497027  0.310038  1
  Cu  Cu11  1  0.503647  0.503647  0.689314  1
  Cu  Cu12  1  0.657572  0.657572  0.984045  1
  Cu  Cu13  1  0.342390  0.342390  0.016968  1
