# generated using pymatgen
data_Sm2Re7Tc10C3
_symmetry_space_group_name_H-M   'P 1'
_cell_length_a   7.03056678
_cell_length_b   7.02474400
_cell_length_c   7.02474513
_cell_angle_alpha   82.75145460
_cell_angle_beta   82.79027137
_cell_angle_gamma   82.79027535
_symmetry_Int_Tables_number   1
_chemical_formula_structural   Sm2Re7Tc10C3
_chemical_formula_sum   'Sm2 Re7 Tc10 C3'
_cell_volume   339.31732991
_cell_formula_units_Z   1
loop_
 _symmetry_equiv_pos_site_id
 _symmetry_equiv_pos_as_xyz
  1  'x, y, z'
loop_
 _atom_site_type_symbol
 _atom_site_label
 _atom_site_symmetry_multiplicity
 _atom_site_fract_x
 _atom_site_fract_y
 _atom_site_fract_z
 _atom_site_occupancy
  Sm  Sm0  1  0.651892  0.652418  0.652332  1
  Sm  Sm1  1  0.348108  0.347668  0.347582  1
  Re  Re2  1  0.999734  0.999975  0.499366  1
  Re  Re3  1  0.500000  0.999832  0.000168  1
  Re  Re4  1  0.000266  0.500634  0.000025  1
  Re  Re5  1  0.720872  0.278597  0.000073  1
  Re  Re6  1  0.000000  0.721253  0.278747  1
  Re  Re7  1  0.279128  0.999927  0.721403  1
  Re  Re8  1  0.000000  0.279247  0.720753  1
  Tc  Tc9  1  0.721014  0.999804  0.279288  1
  Tc  Tc10  1  0.278986  0.720712  0.000196  1
  Tc  Tc11  1  0.348621  0.348641  0.864336  1
  Tc  Tc12  1  0.864049  0.348281  0.348237  1
  Tc  Tc13  1  0.348875  0.864286  0.348319  1
  Tc  Tc14  1  0.651125  0.651681  0.135714  1
  Tc  Tc15  1  0.135951  0.651763  0.651719  1
  Tc  Tc16  1  0.651379  0.135664  0.651359  1
  Tc  Tc17  1  0.902793  0.902415  0.903008  1
  Tc  Tc18  1  0.097207  0.096992  0.097585  1
  C  C19  1  0.500257  0.499873  0.999999  1
  C  C20  1  0.000000  0.500335  0.499665  1
  C  C21  1  0.499743  0.000001  0.500127  1
