# generated using pymatgen
data_Pr12Ga3AsBr12
_symmetry_space_group_name_H-M   'P 1'
_cell_length_a   10.58378266
_cell_length_b   10.53639614
_cell_length_c   10.53645231
_cell_angle_alpha   109.37990139
_cell_angle_beta   109.56233706
_cell_angle_gamma   109.56227420
_symmetry_Int_Tables_number   1
_chemical_formula_structural   Pr12Ga3AsBr12
_chemical_formula_sum   'Pr12 Ga3 As1 Br12'
_cell_volume   903.47579565
_cell_formula_units_Z   1
loop_
 _symmetry_equiv_pos_site_id
 _symmetry_equiv_pos_as_xyz
  1  'x, y, z'
loop_
 _atom_site_type_symbol
 _atom_site_label
 _atom_site_symmetry_multiplicity
 _atom_site_fract_x
 _atom_site_fract_y
 _atom_site_fract_z
 _atom_site_occupancy
  Pr  Pr0  1  0.481626  0.491140  0.240298  1
  Pr  Pr1  1  0.750000  0.241332  0.258669  1
  Pr  Pr2  1  0.750001  0.007747  0.492256  1
  Pr  Pr3  1  0.242252  0.484508  0.492253  1
  Pr  Pr4  1  0.258672  0.749159  0.240298  1
  Pr  Pr5  1  0.018375  0.259703  0.008860  1
  Pr  Pr6  1  0.008667  0.017336  0.258666  1
  Pr  Pr7  1  0.490486  0.749157  0.008860  1
  Pr  Pr8  1  0.491332  0.241332  0.482664  1
  Pr  Pr9  1  0.009515  0.491140  0.750841  1
  Pr  Pr10  1  0.257744  0.007745  0.015491  1
  Pr  Pr11  1  0.241328  0.259702  0.750841  1
  Ga  Ga12  1  0.250000  0.249928  0.250074  1
  Ga  Ga13  1  0.500073  0.000145  0.250073  1
  Ga  Ga14  1  0.999926  0.249927  0.499854  1
  As  As15  1  0.250000  0.500000  0.000000  1
  Br  Br16  1  0.250000  0.753854  0.746147  1
  Br  Br17  1  0.509081  0.504610  0.754938  1
  Br  Br18  1  0.990919  0.745060  0.995390  1
  Br  Br19  1  0.745859  0.250329  0.754939  1
  Br  Br20  1  0.996148  0.992293  0.746147  1
  Br  Br21  1  0.250000  0.995264  0.504734  1
  Br  Br22  1  0.754735  0.509468  0.504734  1
  Br  Br23  1  0.504471  0.250330  0.995391  1
  Br  Br24  1  0.754142  0.745061  0.249671  1
  Br  Br25  1  0.745266  0.995265  0.990531  1
  Br  Br26  1  0.995529  0.504610  0.249672  1
  Br  Br27  1  0.503853  0.753853  0.507706  1
