# generated using pymatgen
data_RbZr2CuSe5
_symmetry_space_group_name_H-M   'P 1'
_cell_length_a   3.91811200
_cell_length_b   8.22543465
_cell_length_c   16.36350800
_cell_angle_alpha   90.00000000
_cell_angle_beta   90.00000000
_cell_angle_gamma   76.22140509
_symmetry_Int_Tables_number   1
_chemical_formula_structural   RbZr2CuSe5
_chemical_formula_sum   'Rb2 Zr4 Cu2 Se10'
_cell_volume   512.19014749
_cell_formula_units_Z   2
loop_
 _symmetry_equiv_pos_site_id
 _symmetry_equiv_pos_as_xyz
  1  'x, y, z'
loop_
 _atom_site_type_symbol
 _atom_site_label
 _atom_site_symmetry_multiplicity
 _atom_site_fract_x
 _atom_site_fract_y
 _atom_site_fract_z
 _atom_site_occupancy
  Rb  Rb0  1  0.959483  0.081032  0.250000  1
  Rb  Rb1  1  0.040516  0.918968  0.750000  1
  Zr  Zr2  1  0.210265  0.579470  0.097833  1
  Zr  Zr3  1  0.210265  0.579470  0.402167  1
  Zr  Zr4  1  0.789734  0.420530  0.597833  1
  Zr  Zr5  1  0.789734  0.420530  0.902167  1
  Cu  Cu6  1  0.680509  0.638980  0.250000  1
  Cu  Cu7  1  0.319489  0.361020  0.750000  1
  Se  Se8  1  0.826655  0.346688  0.063060  1
  Se  Se9  1  0.596764  0.806471  0.125722  1
  Se  Se10  1  0.277027  0.445946  0.250000  1
  Se  Se11  1  0.596764  0.806471  0.374278  1
  Se  Se12  1  0.826655  0.346688  0.436940  1
  Se  Se13  1  0.173344  0.653312  0.563060  1
  Se  Se14  1  0.403235  0.193529  0.625722  1
  Se  Se15  1  0.722972  0.554054  0.750000  1
  Se  Se16  1  0.403235  0.193529  0.874278  1
  Se  Se17  1  0.173344  0.653312  0.936940  1
