# generated using pymatgen
data_Al2V12SiSe24
_symmetry_space_group_name_H-M   'P 1'
_cell_length_a   12.49282330
_cell_length_b   12.49282296
_cell_length_c   12.49282277
_cell_angle_alpha   146.34826761
_cell_angle_beta   131.80088898
_cell_angle_gamma   60.06843487
_symmetry_Int_Tables_number   1
_chemical_formula_structural   Al2V12SiSe24
_chemical_formula_sum   'Al2 V12 Si1 Se24'
_cell_volume   798.03376603
_cell_formula_units_Z   1
loop_
 _symmetry_equiv_pos_site_id
 _symmetry_equiv_pos_as_xyz
  1  'x, y, z'
loop_
 _atom_site_type_symbol
 _atom_site_label
 _atom_site_symmetry_multiplicity
 _atom_site_fract_x
 _atom_site_fract_y
 _atom_site_fract_z
 _atom_site_occupancy
  Al  Al0  1  0.333149  0.333448  0.999700  1
  Al  Al1  1  0.666252  0.666552  0.999700  1
  V  V2  1  0.936360  0.127312  0.397296  1
  V  V3  1  0.269984  0.460935  0.397296  1
  V  V4  1  0.602807  0.793908  0.396715  1
  V  V5  1  0.799140  0.401375  0.397765  1
  V  V6  1  0.131886  0.735732  0.396155  1
  V  V7  1  0.465959  0.068615  0.397344  1
  V  V8  1  0.660423  0.264268  0.396155  1
  V  V9  1  0.996391  0.598625  0.397765  1
  V  V10  1  0.328730  0.931385  0.397344  1
  V  V11  1  0.936360  0.539065  0.809047  1
  V  V12  1  0.269984  0.872688  0.809047  1
  V  V13  1  0.602807  0.206092  0.808899  1
  Si  Si14  1  0.000225  0.000000  0.000225  1
  Se  Se15  1  0.701441  0.595990  0.631497  1
  Se  Se16  1  0.035507  0.930056  0.631497  1
  Se  Se17  1  0.368916  0.263604  0.632521  1
  Se  Se18  1  0.876133  0.245309  0.630824  1
  Se  Se19  1  0.210597  0.579065  0.631533  1
  Se  Se20  1  0.543336  0.912118  0.631218  1
  Se  Se21  1  0.052467  0.420935  0.631533  1
  Se  Se22  1  0.385514  0.754691  0.630824  1
  Se  Se23  1  0.719100  0.087882  0.631218  1
  Se  Se24  1  0.701441  0.069944  0.105451  1
  Se  Se25  1  0.035507  0.404010  0.105451  1
  Se  Se26  1  0.368916  0.736396  0.105312  1
  Se  Se27  1  0.196467  0.607062  0.136138  1
  Se  Se28  1  0.529076  0.939671  0.136138  1
  Se  Se29  1  0.866603  0.267057  0.133660  1
  Se  Se30  1  0.044594  0.911173  0.133421  1
  Se  Se31  1  0.378258  0.241871  0.136387  1
  Se  Se32  1  0.713593  0.575201  0.138391  1
  Se  Se33  1  0.894515  0.758129  0.136387  1
  Se  Se34  1  0.222248  0.088827  0.133421  1
  Se  Se35  1  0.563190  0.424799  0.138391  1
  Se  Se36  1  0.196467  0.060329  0.589405  1
  Se  Se37  1  0.529076  0.392938  0.589405  1
  Se  Se38  1  0.866603  0.732943  0.599546  1
