# generated using pymatgen
data_La3PrHoP12Ru19
_symmetry_space_group_name_H-M   'P 1'
_cell_length_a   12.65833700
_cell_length_b   12.65833776
_cell_length_c   4.03289100
_cell_angle_alpha   90.00000000
_cell_angle_beta   90.00000000
_cell_angle_gamma   120.00000063
_symmetry_Int_Tables_number   1
_chemical_formula_structural   La3PrHoP12Ru19
_chemical_formula_sum   'La3 Pr1 Ho1 P12 Ru19'
_cell_volume   559.62930260
_cell_formula_units_Z   1
loop_
 _symmetry_equiv_pos_site_id
 _symmetry_equiv_pos_as_xyz
  1  'x, y, z'
loop_
 _atom_site_type_symbol
 _atom_site_label
 _atom_site_symmetry_multiplicity
 _atom_site_fract_x
 _atom_site_fract_y
 _atom_site_fract_z
 _atom_site_occupancy
  La  La0  1  0.999970  0.183091  0.500000  1
  La  La1  1  0.816909  0.816879  0.500000  1
  La  La2  1  0.183121  0.000030  0.500000  1
  Pr  Pr3  1  0.666667  0.333333  0.000000  1
  Ho  Ho4  1  0.333333  0.666667  0.000000  1
  P  P5  1  0.001257  0.810387  0.000000  1
  P  P6  1  0.189613  0.190870  0.000000  1
  P  P7  1  0.809130  0.998743  0.000000  1
  P  P8  1  0.695928  0.171971  0.500000  1
  P  P9  1  0.828029  0.523957  0.500000  1
  P  P10  1  0.476043  0.304072  0.500000  1
  P  P11  1  0.175073  0.695721  0.500000  1
  P  P12  1  0.520647  0.824927  0.500000  1
  P  P13  1  0.304279  0.479353  0.500000  1
  P  P14  1  0.999976  0.375446  0.000000  1
  P  P15  1  0.624554  0.624530  0.000000  1
  P  P16  1  0.375470  0.000024  0.000000  1
  Ru  Ru17  1  0.000406  0.554420  0.000000  1
  Ru  Ru18  1  0.445580  0.445986  0.000000  1
  Ru  Ru19  1  0.554014  0.999594  0.000000  1
  Ru  Ru20  1  0.001519  0.712836  0.500000  1
  Ru  Ru21  1  0.287164  0.288683  0.500000  1
  Ru  Ru22  1  0.711317  0.998481  0.500000  1
  Ru  Ru23  1  0.805204  0.184362  0.000000  1
  Ru  Ru24  1  0.815638  0.620842  0.000000  1
  Ru  Ru25  1  0.379158  0.194796  0.000000  1
  Ru  Ru26  1  0.186731  0.804353  0.000000  1
  Ru  Ru27  1  0.617622  0.813269  0.000000  1
  Ru  Ru28  1  0.195647  0.382378  0.000000  1
  Ru  Ru29  1  0.876697  0.368057  0.500000  1
  Ru  Ru30  1  0.631943  0.508640  0.500000  1
  Ru  Ru31  1  0.491360  0.123303  0.500000  1
  Ru  Ru32  1  0.368163  0.873107  0.500000  1
  Ru  Ru33  1  0.504943  0.631837  0.500000  1
  Ru  Ru34  1  0.126893  0.495057  0.500000  1
  Ru  Ru35  1  0.000000  0.000000  0.000000  1
