# generated using pymatgen
data_CuBr10
_symmetry_space_group_name_H-M   'P 1'
_cell_length_a   8.13930500
_cell_length_b   10.78177311
_cell_length_c   10.83373349
_cell_angle_alpha   88.63883392
_cell_angle_beta   90.00000000
_cell_angle_gamma   90.00000000
_symmetry_Int_Tables_number   1
_chemical_formula_structural   CuBr10
_chemical_formula_sum   'Cu2 Br20'
_cell_volume   950.45835413
_cell_formula_units_Z   2
loop_
 _symmetry_equiv_pos_site_id
 _symmetry_equiv_pos_as_xyz
  1  'x, y, z'
loop_
 _atom_site_type_symbol
 _atom_site_label
 _atom_site_symmetry_multiplicity
 _atom_site_fract_x
 _atom_site_fract_y
 _atom_site_fract_z
 _atom_site_occupancy
  Cu  Cu0  1  0.250000  0.640723  0.847405  1
  Cu  Cu1  1  0.750000  0.359277  0.152595  1
  Br  Br2  1  0.250000  0.785492  0.383025  1
  Br  Br3  1  0.750000  0.214508  0.616975  1
  Br  Br4  1  0.565068  0.431509  0.311283  1
  Br  Br5  1  0.065068  0.568491  0.688717  1
  Br  Br6  1  0.434932  0.568491  0.688717  1
  Br  Br7  1  0.934932  0.431509  0.311283  1
  Br  Br8  1  0.750000  0.702380  0.994642  1
  Br  Br9  1  0.250000  0.297620  0.005358  1
  Br  Br10  1  0.750000  0.576290  0.701306  1
  Br  Br11  1  0.250000  0.423710  0.298694  1
  Br  Br12  1  0.750000  0.047390  0.257861  1
  Br  Br13  1  0.250000  0.952610  0.742139  1
  Br  Br14  1  0.933899  0.291151  0.992520  1
  Br  Br15  1  0.433899  0.708849  0.007480  1
  Br  Br16  1  0.066101  0.708849  0.007480  1
  Br  Br17  1  0.566101  0.291151  0.992520  1
  Br  Br18  1  0.998926  0.083075  0.678937  1
  Br  Br19  1  0.498926  0.916925  0.321063  1
  Br  Br20  1  0.001074  0.916925  0.321063  1
  Br  Br21  1  0.501074  0.083075  0.678937  1
