# generated using pymatgen
data_Rb3Ce(VS4)2
_symmetry_space_group_name_H-M   'P 1'
_cell_length_a   9.30765517
_cell_length_b   10.08020165
_cell_length_c   10.74990100
_cell_angle_alpha   106.85604669
_cell_angle_beta   103.86650181
_cell_angle_gamma   114.38964522
_symmetry_Int_Tables_number   1
_chemical_formula_structural   Rb3Ce(VS4)2
_chemical_formula_sum   'Rb6 Ce2 V4 S16'
_cell_volume   800.90331155
_cell_formula_units_Z   2
loop_
 _symmetry_equiv_pos_site_id
 _symmetry_equiv_pos_as_xyz
  1  'x, y, z'
loop_
 _atom_site_type_symbol
 _atom_site_label
 _atom_site_symmetry_multiplicity
 _atom_site_fract_x
 _atom_site_fract_y
 _atom_site_fract_z
 _atom_site_occupancy
  Rb  Rb0  1  0.500223  0.500202  0.000502  1
  Rb  Rb1  1  0.000109  0.500282  0.000471  1
  Rb  Rb2  1  0.261415  0.011528  0.022985  1
  Rb  Rb3  1  0.482893  0.732968  0.465669  1
  Rb  Rb4  1  0.517095  0.267022  0.534024  1
  Rb  Rb5  1  0.738736  0.988727  0.977435  1
  Ce  Ce6  1  0.991555  0.241436  0.482731  1
  Ce  Ce7  1  0.008367  0.758442  0.516364  1
  V  V8  1  0.005735  0.905301  0.248279  1
  V  V9  1  0.742445  0.342688  0.248220  1
  V  V10  1  0.257268  0.658023  0.752009  1
  V  V11  1  0.994527  0.094083  0.751851  1
  S  S12  1  0.880778  0.756567  0.025050  1
  S  S13  1  0.643758  0.268054  0.024838  1
  S  S14  1  0.133074  0.159179  0.290017  1
  S  S15  1  0.656886  0.130226  0.290205  1
  S  S16  1  0.022715  0.473941  0.341762  1
  S  S17  1  0.819732  0.867878  0.341877  1
  S  S18  1  0.193551  0.853242  0.349751  1
  S  S19  1  0.655981  0.496465  0.349623  1
  S  S20  1  0.343900  0.504405  0.650248  1
  S  S21  1  0.806274  0.145686  0.649939  1
  S  S22  1  0.181074  0.131984  0.658770  1
  S  S23  1  0.977358  0.526702  0.658449  1
  S  S24  1  0.341830  0.869822  0.709257  1
  S  S25  1  0.867490  0.839754  0.709066  1
  S  S26  1  0.356493  0.732256  0.975470  1
  S  S27  1  0.118739  0.243134  0.975135  1
