# generated using pymatgen
data_SmDyHoTaO7
_symmetry_space_group_name_H-M   'P 1'
_cell_length_a   6.50119761
_cell_length_b   6.50119671
_cell_length_c   7.53745602
_cell_angle_alpha   89.98484762
_cell_angle_beta   89.98484758
_cell_angle_gamma   108.83800216
_symmetry_Int_Tables_number   1
_chemical_formula_structural   SmDyHoTaO7
_chemical_formula_sum   'Sm2 Dy2 Ho2 Ta2 O14'
_cell_volume   301.51043845
_cell_formula_units_Z   2
loop_
 _symmetry_equiv_pos_site_id
 _symmetry_equiv_pos_as_xyz
  1  'x, y, z'
loop_
 _atom_site_type_symbol
 _atom_site_label
 _atom_site_symmetry_multiplicity
 _atom_site_fract_x
 _atom_site_fract_y
 _atom_site_fract_z
 _atom_site_occupancy
  Sm  Sm0  1  0.473405  0.472948  0.000378  1
  Sm  Sm1  1  0.527052  0.526595  0.499622  1
  Dy  Dy2  1  0.999685  0.465551  0.742482  1
  Dy  Dy3  1  0.534449  0.000315  0.757518  1
  Ho  Ho4  1  0.000612  0.534320  0.242426  1
  Ho  Ho5  1  0.465680  0.999388  0.257574  1
  Ta  Ta6  1  0.002114  0.002216  0.499447  1
  Ta  Ta7  1  0.997784  0.997886  0.000553  1
  O  O8  1  0.934044  0.065956  0.750000  1
  O  O9  1  0.641623  0.358377  0.750000  1
  O  O10  1  0.311272  0.055809  0.541424  1
  O  O11  1  0.944191  0.688728  0.958576  1
  O  O12  1  0.634218  0.365782  0.250000  1
  O  O13  1  0.921766  0.673361  0.524451  1
  O  O14  1  0.326639  0.078234  0.975549  1
  O  O15  1  0.077920  0.326518  0.025969  1
  O  O16  1  0.673482  0.922080  0.474031  1
  O  O17  1  0.366613  0.633387  0.750000  1
  O  O18  1  0.689381  0.945951  0.043364  1
  O  O19  1  0.054049  0.310619  0.456636  1
  O  O20  1  0.357102  0.642898  0.250000  1
  O  O21  1  0.066921  0.933079  0.250000  1
