# generated using pymatgen
data_Pr12Si3AsBr12
_symmetry_space_group_name_H-M   'P 1'
_cell_length_a   10.48665181
_cell_length_b   10.52954262
_cell_length_c   10.52954291
_cell_angle_alpha   109.55359013
_cell_angle_beta   109.38873082
_cell_angle_gamma   109.38872340
_symmetry_Int_Tables_number   1
_chemical_formula_structural   Pr12Si3AsBr12
_chemical_formula_sum   'Pr12 Si3 As1 Br12'
_cell_volume   895.93211917
_cell_formula_units_Z   1
loop_
 _symmetry_equiv_pos_site_id
 _symmetry_equiv_pos_as_xyz
  1  'x, y, z'
loop_
 _atom_site_type_symbol
 _atom_site_label
 _atom_site_symmetry_multiplicity
 _atom_site_fract_x
 _atom_site_fract_y
 _atom_site_fract_z
 _atom_site_occupancy
  Pr  Pr0  1  0.476118  0.485944  0.239763  1
  Pr  Pr1  1  0.750000  0.237893  0.262107  1
  Pr  Pr2  1  0.750000  0.011967  0.488033  1
  Pr  Pr3  1  0.238033  0.476065  0.488033  1
  Pr  Pr4  1  0.263643  0.753818  0.239763  1
  Pr  Pr5  1  0.023882  0.260237  0.014056  1
  Pr  Pr6  1  0.012107  0.024216  0.262107  1
  Pr  Pr7  1  0.490175  0.753818  0.014056  1
  Pr  Pr8  1  0.487893  0.237893  0.475784  1
  Pr  Pr9  1  0.009825  0.485944  0.746182  1
  Pr  Pr10  1  0.261967  0.011967  0.023935  1
  Pr  Pr11  1  0.236357  0.260237  0.746182  1
  Si  Si12  1  0.250000  0.249997  0.250003  1
  Si  Si13  1  0.500003  0.000006  0.250003  1
  Si  Si14  1  0.999997  0.249997  0.499994  1
  As  As15  1  0.250000  0.500000  0.000000  1
  Br  Br16  1  0.250000  0.753721  0.746279  1
  Br  Br17  1  0.507958  0.504014  0.754580  1
  Br  Br18  1  0.992042  0.745420  0.995986  1
  Br  Br19  1  0.746621  0.250566  0.754580  1
  Br  Br20  1  0.996279  0.992559  0.746279  1
  Br  Br21  1  0.250000  0.995365  0.504635  1
  Br  Br22  1  0.754635  0.509269  0.504635  1
  Br  Br23  1  0.503945  0.250566  0.995986  1
  Br  Br24  1  0.753379  0.745420  0.249434  1
  Br  Br25  1  0.745365  0.995365  0.990731  1
  Br  Br26  1  0.996055  0.504014  0.249434  1
  Br  Br27  1  0.503721  0.753721  0.507441  1
