# generated using pymatgen
data_La19PrSi15Br
_symmetry_space_group_name_H-M   'P 1'
_cell_length_a   8.07350888
_cell_length_b   8.00433112
_cell_length_c   15.58469684
_cell_angle_alpha   89.67185772
_cell_angle_beta   89.12285340
_cell_angle_gamma   90.27540412
_symmetry_Int_Tables_number   1
_chemical_formula_structural   La19PrSi15Br
_chemical_formula_sum   'La19 Pr1 Si15 Br1'
_cell_volume   1006.98386526
_cell_formula_units_Z   1
loop_
 _symmetry_equiv_pos_site_id
 _symmetry_equiv_pos_as_xyz
  1  'x, y, z'
loop_
 _atom_site_type_symbol
 _atom_site_label
 _atom_site_symmetry_multiplicity
 _atom_site_fract_x
 _atom_site_fract_y
 _atom_site_fract_z
 _atom_site_occupancy
  La  La0  1  0.309042  0.310637  0.999573  1
  La  La1  1  0.186193  0.808699  0.250028  1
  La  La2  1  0.795029  0.190313  0.752884  1
  La  La3  1  0.686001  0.688882  0.496575  1
  La  La4  1  0.381625  0.005120  0.443103  1
  La  La5  1  0.498676  0.870073  0.699299  1
  La  La6  1  0.509968  0.120762  0.196714  1
  La  La7  1  0.875532  0.486999  0.300865  1
  La  La8  1  0.120959  0.517602  0.802769  1
  La  La9  1  0.632111  0.985706  0.952187  1
  La  La10  1  0.996058  0.384417  0.545373  1
  La  La11  1  0.993107  0.622027  0.053068  1
  La  La12  1  0.140380  0.988908  0.873908  1
  La  La13  1  0.517975  0.629468  0.125970  1
  La  La14  1  0.484157  0.371419  0.631246  1
  La  La15  1  0.634417  0.522278  0.876009  1
  La  La16  1  0.368404  0.477376  0.375749  1
  La  La17  1  0.871337  0.018915  0.377160  1
  La  La18  1  0.983017  0.127508  0.124402  1
  Pr  Pr19  1  0.011880  0.861044  0.620907  1
  Si  Si20  1  0.331665  0.699078  0.950948  1
  Si  Si21  1  0.661734  0.302976  0.454998  1
  Si  Si22  1  0.702135  0.335130  0.049540  1
  Si  Si23  1  0.302011  0.667292  0.550481  1
  Si  Si24  1  0.802177  0.832302  0.203368  1
  Si  Si25  1  0.167244  0.195763  0.296618  1
  Si  Si26  1  0.843665  0.804300  0.795575  1
  Si  Si27  1  0.289069  0.921719  0.057357  1
  Si  Si28  1  0.576345  0.787595  0.308025  1
  Si  Si29  1  0.452539  0.208867  0.825196  1
  Si  Si30  1  0.793031  0.578622  0.688870  1
  Si  Si31  1  0.210135  0.422549  0.191664  1
  Si  Si32  1  0.705302  0.075684  0.560666  1
  Si  Si33  1  0.926143  0.291147  0.940632  1
  Si  Si34  1  0.078142  0.711235  0.441913  1
  Br  Br35  1  0.162796  0.177582  0.686358  1
