# generated using pymatgen
data_Hf6Al6Ga2Pt3Rh
_symmetry_space_group_name_H-M   'P 1'
_cell_length_a   6.64590700
_cell_length_b   6.64590786
_cell_length_c   8.25090400
_cell_angle_alpha   90.00000000
_cell_angle_beta   90.00000000
_cell_angle_gamma   120.00000069
_symmetry_Int_Tables_number   1
_chemical_formula_structural   Hf6Al6Ga2Pt3Rh
_chemical_formula_sum   'Hf6 Al6 Ga2 Pt3 Rh1'
_cell_volume   315.60272068
_cell_formula_units_Z   1
loop_
 _symmetry_equiv_pos_site_id
 _symmetry_equiv_pos_as_xyz
  1  'x, y, z'
loop_
 _atom_site_type_symbol
 _atom_site_label
 _atom_site_symmetry_multiplicity
 _atom_site_fract_x
 _atom_site_fract_y
 _atom_site_fract_z
 _atom_site_occupancy
  Hf  Hf0  1  0.580808  0.993866  0.750000  1
  Hf  Hf1  1  0.006134  0.586942  0.750000  1
  Hf  Hf2  1  0.413058  0.419192  0.750000  1
  Hf  Hf3  1  0.006631  0.582927  0.250000  1
  Hf  Hf4  1  0.576295  0.993369  0.250000  1
  Hf  Hf5  1  0.417073  0.423705  0.250000  1
  Al  Al6  1  0.752300  0.761088  0.997226  1
  Al  Al7  1  0.238912  0.991212  0.997226  1
  Al  Al8  1  0.008788  0.247700  0.997226  1
  Al  Al9  1  0.752300  0.761088  0.502774  1
  Al  Al10  1  0.238912  0.991212  0.502774  1
  Al  Al11  1  0.008788  0.247700  0.502774  1
  Ga  Ga12  1  0.666667  0.333333  0.001375  1
  Ga  Ga13  1  0.666667  0.333333  0.498625  1
  Pt  Pt14  1  0.000000  0.000000  0.250000  1
  Pt  Pt15  1  0.333333  0.666667  0.498928  1
  Pt  Pt16  1  0.333333  0.666667  0.001073  1
  Rh  Rh17  1  0.000000  0.000000  0.750000  1
