# generated using pymatgen
data_TmV6Sn5Sb
_symmetry_space_group_name_H-M   'P 1'
_cell_length_a   5.48896805
_cell_length_b   5.48821612
_cell_length_c   9.24965400
_cell_angle_alpha   89.99994052
_cell_angle_beta   89.99932525
_cell_angle_gamma   119.98857114
_symmetry_Int_Tables_number   1
_chemical_formula_structural   TmV6Sn5Sb
_chemical_formula_sum   'Tm1 V6 Sn5 Sb1'
_cell_volume   241.33929050
_cell_formula_units_Z   1
loop_
 _symmetry_equiv_pos_site_id
 _symmetry_equiv_pos_as_xyz
  1  'x, y, z'
loop_
 _atom_site_type_symbol
 _atom_site_label
 _atom_site_symmetry_multiplicity
 _atom_site_fract_x
 _atom_site_fract_y
 _atom_site_fract_z
 _atom_site_occupancy
  Tm  Tm0  1  0.000006  0.000009  0.001338  1
  V  V1  1  0.500009  0.500006  0.246844  1
  V  V2  1  0.500011  0.000011  0.246843  1
  V  V3  1  0.000008  0.500007  0.246840  1
  V  V4  1  0.500012  0.000012  0.752046  1
  V  V5  1  0.000000  0.500007  0.752043  1
  V  V6  1  0.500013  0.500011  0.752053  1
  Sn  Sn7  1  0.666572  0.333274  0.999382  1
  Sn  Sn8  1  0.333438  0.666737  0.999384  1
  Sn  Sn9  1  0.666608  0.333293  0.500384  1
  Sn  Sn10  1  0.333408  0.666721  0.500385  1
  Sn  Sn11  1  0.000028  0.000028  0.667571  1
  Sb  Sb12  1  0.000007  0.000008  0.334887  1
