# generated using pymatgen
data_K6Li4TiVP6
_symmetry_space_group_name_H-M   'P 1'
_cell_length_a   9.81196625
_cell_length_b   9.81196518
_cell_length_c   14.67168000
_cell_angle_alpha   90.00000000
_cell_angle_beta   90.00000000
_cell_angle_gamma   142.92887260
_symmetry_Int_Tables_number   1
_chemical_formula_structural   K6Li4TiVP6
_chemical_formula_sum   'K12 Li8 Ti2 V2 P12'
_cell_volume   851.47019462
_cell_formula_units_Z   2
loop_
 _symmetry_equiv_pos_site_id
 _symmetry_equiv_pos_as_xyz
  1  'x, y, z'
loop_
 _atom_site_type_symbol
 _atom_site_label
 _atom_site_symmetry_multiplicity
 _atom_site_fract_x
 _atom_site_fract_y
 _atom_site_fract_z
 _atom_site_occupancy
  K  K0  1  0.106006  0.446132  0.671846  1
  K  K1  1  0.717044  0.717686  0.680150  1
  K  K2  1  0.217686  0.217044  0.819850  1
  K  K3  1  0.782956  0.782314  0.180150  1
  K  K4  1  0.946132  0.606006  0.828154  1
  K  K5  1  0.553868  0.893994  0.328154  1
  K  K6  1  0.393994  0.053868  0.171846  1
  K  K7  1  0.053932  0.393859  0.172048  1
  K  K8  1  0.893859  0.553932  0.327952  1
  K  K9  1  0.446068  0.106141  0.672048  1
  K  K10  1  0.606141  0.946069  0.827952  1
  K  K11  1  0.282314  0.282956  0.319850  1
  Li  Li12  1  0.918940  0.081060  0.000000  1
  Li  Li13  1  0.581060  0.418940  0.500000  1
  Li  Li14  1  0.082172  0.917828  0.000000  1
  Li  Li15  1  0.417828  0.582172  0.500000  1
  Li  Li16  1  0.749666  0.250334  0.000000  1
  Li  Li17  1  0.750334  0.249666  0.500000  1
  Li  Li18  1  0.249129  0.750871  0.000000  1
  Li  Li19  1  0.250871  0.749129  0.500000  1
  Ti  Ti20  1  0.915205  0.084795  0.500000  1
  Ti  Ti21  1  0.584795  0.415205  0.000000  1
  V  V22  1  0.085765  0.914235  0.500000  1
  V  V23  1  0.414235  0.585765  0.000000  1
  P  P24  1  0.887882  0.566793  0.090533  1
  P  P25  1  0.433207  0.112118  0.909467  1
  P  P26  1  0.612118  0.933207  0.590533  1
  P  P27  1  0.938078  0.623203  0.586842  1
  P  P28  1  0.123203  0.438078  0.913158  1
  P  P29  1  0.561922  0.876797  0.086842  1
  P  P30  1  0.376797  0.061922  0.413158  1
  P  P31  1  0.218737  0.212785  0.584468  1
  P  P32  1  0.712785  0.718737  0.915532  1
  P  P33  1  0.281263  0.287215  0.084468  1
  P  P34  1  0.066793  0.387882  0.409467  1
  P  P35  1  0.787215  0.781263  0.415532  1
