# generated using pymatgen
data_Nd8Y2IrRh5
_symmetry_space_group_name_H-M   'P 1'
_cell_length_a   11.20198658
_cell_length_b   11.20178600
_cell_length_c   6.56042007
_cell_angle_alpha   90.00000000
_cell_angle_beta   90.09133669
_cell_angle_gamma   90.00000000
_symmetry_Int_Tables_number   1
_chemical_formula_structural   Nd8Y2IrRh5
_chemical_formula_sum   'Nd16 Y4 Ir2 Rh10'
_cell_volume   823.21526777
_cell_formula_units_Z   2
loop_
 _symmetry_equiv_pos_site_id
 _symmetry_equiv_pos_as_xyz
  1  'x, y, z'
loop_
 _atom_site_type_symbol
 _atom_site_label
 _atom_site_symmetry_multiplicity
 _atom_site_fract_x
 _atom_site_fract_y
 _atom_site_fract_z
 _atom_site_occupancy
  Nd  Nd0  1  0.289788  0.089565  0.381780  1
  Nd  Nd1  1  0.289788  0.910435  0.881780  1
  Nd  Nd2  1  0.710351  0.088110  0.881718  1
  Nd  Nd3  1  0.710351  0.911890  0.381718  1
  Nd  Nd4  1  0.586812  0.788658  0.882078  1
  Nd  Nd5  1  0.586812  0.211342  0.382078  1
  Nd  Nd6  1  0.411306  0.789002  0.382891  1
  Nd  Nd7  1  0.411306  0.210998  0.882891  1
  Nd  Nd8  1  0.211825  0.412675  0.617443  1
  Nd  Nd9  1  0.211825  0.587325  0.117443  1
  Nd  Nd10  1  0.789451  0.411747  0.117662  1
  Nd  Nd11  1  0.789451  0.588253  0.617662  1
  Nd  Nd12  1  0.911946  0.710455  0.118169  1
  Nd  Nd13  1  0.911946  0.289545  0.618169  1
  Nd  Nd14  1  0.089736  0.710029  0.618425  1
  Nd  Nd15  1  0.089736  0.289971  0.118425  1
  Y  Y16  1  0.999988  0.999820  0.499976  1
  Y  Y17  1  0.999988  0.000180  0.999976  1
  Y  Y18  1  0.499334  0.499669  0.999945  1
  Y  Y19  1  0.499334  0.500331  0.499945  1
  Ir  Ir20  1  0.349362  0.348897  0.249994  1
  Ir  Ir21  1  0.349362  0.651103  0.749994  1
  Rh  Rh22  1  0.849261  0.150542  0.250103  1
  Rh  Rh23  1  0.849261  0.849458  0.750103  1
  Rh  Rh24  1  0.150033  0.150265  0.749805  1
  Rh  Rh25  1  0.150033  0.849735  0.249805  1
  Rh  Rh26  1  0.651451  0.349032  0.750044  1
  Rh  Rh27  1  0.651451  0.650968  0.250044  1
  Rh  Rh28  1  0.500514  0.999659  0.120874  1
  Rh  Rh29  1  0.500514  0.000341  0.620874  1
  Rh  Rh30  1  0.998840  0.499869  0.879094  1
  Rh  Rh31  1  0.998840  0.500131  0.379094  1
