# generated using pymatgen
data_LiY2Co9As7Rh2
_symmetry_space_group_name_H-M   'P 1'
_cell_length_a   3.79293100
_cell_length_b   9.45673114
_cell_length_c   9.40535658
_cell_angle_alpha   119.86058456
_cell_angle_beta   90.00000000
_cell_angle_gamma   90.00000000
_symmetry_Int_Tables_number   1
_chemical_formula_structural   LiY2Co9As7Rh2
_chemical_formula_sum   'Li1 Y2 Co9 As7 Rh2'
_cell_volume   292.57033176
_cell_formula_units_Z   1
loop_
 _symmetry_equiv_pos_site_id
 _symmetry_equiv_pos_as_xyz
  1  'x, y, z'
loop_
 _atom_site_type_symbol
 _atom_site_label
 _atom_site_symmetry_multiplicity
 _atom_site_fract_x
 _atom_site_fract_y
 _atom_site_fract_z
 _atom_site_occupancy
  Li  Li0  1  0.500000  0.782753  0.891919  1
  Y  Y1  1  0.000000  0.667366  0.328167  1
  Y  Y2  1  0.500000  0.332352  0.665586  1
  Co  Co3  1  0.000000  0.565223  0.943919  1
  Co  Co4  1  0.000000  0.373407  0.432690  1
  Co  Co5  1  0.000000  0.057494  0.628659  1
  Co  Co6  1  0.000000  0.879849  0.161411  1
  Co  Co7  1  0.000000  0.282150  0.124607  1
  Co  Co8  1  0.000000  0.840667  0.718289  1
  Co  Co9  1  0.500000  0.945306  0.384397  1
  Co  Co10  1  0.500000  0.435449  0.054699  1
  Co  Co11  1  0.500000  0.614849  0.566821  1
  As  As12  1  0.000000  0.002741  0.001789  1
  As  As13  1  0.500000  0.707714  0.108800  1
  As  As14  1  0.500000  0.411757  0.293340  1
  As  As15  1  0.500000  0.877420  0.589010  1
  As  As16  1  0.000000  0.587425  0.704644  1
  As  As17  1  0.000000  0.113490  0.413622  1
  As  As18  1  0.000000  0.298929  0.887400  1
  Rh  Rh19  1  0.500000  0.124698  0.226118  1
  Rh  Rh20  1  0.500000  0.098959  0.874117  1
