# generated using pymatgen
data_Na8Li4ScIn3As8
_symmetry_space_group_name_H-M   'P 1'
_cell_length_a   9.52368270
_cell_length_b   9.52368442
_cell_length_c   6.17257071
_cell_angle_alpha   89.84438492
_cell_angle_beta   90.15561286
_cell_angle_gamma   98.37029138
_symmetry_Int_Tables_number   1
_chemical_formula_structural   Na8Li4ScIn3As8
_chemical_formula_sum   'Na8 Li4 Sc1 In3 As8'
_cell_volume   553.88837059
_cell_formula_units_Z   1
loop_
 _symmetry_equiv_pos_site_id
 _symmetry_equiv_pos_as_xyz
  1  'x, y, z'
loop_
 _atom_site_type_symbol
 _atom_site_label
 _atom_site_symmetry_multiplicity
 _atom_site_fract_x
 _atom_site_fract_y
 _atom_site_fract_z
 _atom_site_occupancy
  Na  Na0  1  0.429010  0.067866  0.248301  1
  Na  Na1  1  0.067866  0.429010  0.751699  1
  Na  Na2  1  0.569011  0.928379  0.753221  1
  Na  Na3  1  0.322894  0.679350  0.274476  1
  Na  Na4  1  0.822250  0.179482  0.220391  1
  Na  Na5  1  0.679350  0.322894  0.725524  1
  Na  Na6  1  0.179482  0.822250  0.779609  1
  Na  Na7  1  0.928379  0.569011  0.246779  1
  Li  Li8  1  0.380812  0.380812  0.500000  1
  Li  Li9  1  0.119000  0.119000  0.000000  1
  Li  Li10  1  0.618426  0.618426  0.500000  1
  Li  Li11  1  0.880031  0.880031  0.000000  1
  Sc  Sc12  1  0.873897  0.873897  0.500000  1
  In  In13  1  0.130351  0.130351  0.500000  1
  In  In14  1  0.632915  0.632915  0.000000  1
  In  In15  1  0.367602  0.367602  0.000000  1
  As  As16  1  0.106214  0.886384  0.262982  1
  As  As17  1  0.610270  0.388300  0.240152  1
  As  As18  1  0.886384  0.106214  0.737018  1
  As  As19  1  0.388300  0.610270  0.759848  1
  As  As20  1  0.135330  0.364576  0.251827  1
  As  As21  1  0.364576  0.135330  0.748173  1
  As  As22  1  0.864993  0.642659  0.742559  1
  As  As23  1  0.642659  0.864993  0.257441  1
