# generated using pymatgen
data_Y2Be2V(SiO5)2
_symmetry_space_group_name_H-M   'P 1'
_cell_length_a   10.09082215
_cell_length_b   7.52251600
_cell_length_c   4.78498589
_cell_angle_alpha   90.00000000
_cell_angle_beta   90.29929397
_cell_angle_gamma   90.00000000
_symmetry_Int_Tables_number   1
_chemical_formula_structural   Y2Be2V(SiO5)2
_chemical_formula_sum   'Y4 Be4 V2 Si4 O20'
_cell_volume   363.21552887
_cell_formula_units_Z   2
loop_
 _symmetry_equiv_pos_site_id
 _symmetry_equiv_pos_as_xyz
  1  'x, y, z'
loop_
 _atom_site_type_symbol
 _atom_site_label
 _atom_site_symmetry_multiplicity
 _atom_site_fract_x
 _atom_site_fract_y
 _atom_site_fract_z
 _atom_site_occupancy
  Y  Y0  1  0.327526  0.106156  0.000241  1
  Y  Y1  1  0.827526  0.393845  0.000241  1
  Y  Y2  1  0.172474  0.606155  0.999759  1
  Y  Y3  1  0.672474  0.893844  0.999759  1
  Be  Be4  1  0.166079  0.911904  0.464081  1
  Be  Be5  1  0.666079  0.588097  0.464081  1
  Be  Be6  1  0.833921  0.088096  0.535919  1
  Be  Be7  1  0.333920  0.411903  0.535921  1
  V  V8  1  0.000000  0.000000  0.000000  1
  V  V9  1  0.500000  0.499999  0.000000  1
  Si  Si10  1  0.077801  0.279422  0.482717  1
  Si  Si11  1  0.577800  0.220577  0.482717  1
  Si  Si12  1  0.422199  0.779423  0.517282  1
  Si  Si13  1  0.922199  0.720578  0.517283  1
  O  O14  1  0.825361  0.091377  0.207012  1
  O  O15  1  0.325361  0.408622  0.207014  1
  O  O16  1  0.026808  0.416277  0.242546  1
  O  O17  1  0.526808  0.083724  0.242547  1
  O  O18  1  0.302642  0.845042  0.306046  1
  O  O19  1  0.802642  0.654959  0.306046  1
  O  O20  1  0.139568  0.106494  0.309840  1
  O  O21  1  0.639568  0.393507  0.309840  1
  O  O22  1  0.045967  0.789973  0.317898  1
  O  O23  1  0.545967  0.710028  0.317899  1
  O  O24  1  0.454033  0.289972  0.682101  1
  O  O25  1  0.954033  0.210027  0.682101  1
  O  O26  1  0.360432  0.606493  0.690159  1
  O  O27  1  0.860432  0.893506  0.690159  1
  O  O28  1  0.197358  0.345041  0.693953  1
  O  O29  1  0.697358  0.154959  0.693953  1
  O  O30  1  0.473193  0.916276  0.757453  1
  O  O31  1  0.973193  0.583723  0.757453  1
  O  O32  1  0.174638  0.908623  0.792987  1
  O  O33  1  0.674638  0.591378  0.792988  1
