# generated using pymatgen
data_Hf3Sc4SnRu8
_symmetry_space_group_name_H-M   'P 1'
_cell_length_a   6.44303200
_cell_length_b   4.56012200
_cell_length_c   9.12651500
_cell_angle_alpha   90.00000000
_cell_angle_beta   90.00044571
_cell_angle_gamma   90.00000000
_symmetry_Int_Tables_number   1
_chemical_formula_structural   Hf3Sc4SnRu8
_chemical_formula_sum   'Hf3 Sc4 Sn1 Ru8'
_cell_volume   268.14624645
_cell_formula_units_Z   1
loop_
 _symmetry_equiv_pos_site_id
 _symmetry_equiv_pos_as_xyz
  1  'x, y, z'
loop_
 _atom_site_type_symbol
 _atom_site_label
 _atom_site_symmetry_multiplicity
 _atom_site_fract_x
 _atom_site_fract_y
 _atom_site_fract_z
 _atom_site_occupancy
  Hf  Hf0  1  0.250021  0.750000  0.375688  1
  Hf  Hf1  1  0.749982  0.250000  0.624999  1
  Hf  Hf2  1  0.249988  0.750000  0.874299  1
  Sc  Sc3  1  0.250014  0.250000  0.124984  1
  Sc  Sc4  1  0.750021  0.750000  0.368907  1
  Sc  Sc5  1  0.249975  0.250000  0.624981  1
  Sc  Sc6  1  0.749976  0.750000  0.881109  1
  Sn  Sn7  1  0.750022  0.250000  0.124993  1
  Ru  Ru8  1  0.495327  0.750000  0.125010  1
  Ru  Ru9  1  0.004701  0.750000  0.125002  1
  Ru  Ru10  1  0.499279  0.250000  0.375870  1
  Ru  Ru11  1  0.000755  0.250000  0.375876  1
  Ru  Ru12  1  0.999079  0.750000  0.625025  1
  Ru  Ru13  1  0.500892  0.750000  0.625023  1
  Ru  Ru14  1  0.000790  0.250000  0.874121  1
  Ru  Ru15  1  0.499184  0.250000  0.874116  1
