# generated using pymatgen
data_ErSb2O6F
_symmetry_space_group_name_H-M   'P 1'
_cell_length_a   7.33454877
_cell_length_b   7.33454903
_cell_length_c   7.33454976
_cell_angle_alpha   120.40922409
_cell_angle_beta   119.40816020
_cell_angle_gamma   90.16040594
_symmetry_Int_Tables_number   1
_chemical_formula_structural   ErSb2O6F
_chemical_formula_sum   'Er2 Sb4 O12 F2'
_cell_volume   279.35799035
_cell_formula_units_Z   2
loop_
 _symmetry_equiv_pos_site_id
 _symmetry_equiv_pos_as_xyz
  1  'x, y, z'
loop_
 _atom_site_type_symbol
 _atom_site_label
 _atom_site_symmetry_multiplicity
 _atom_site_fract_x
 _atom_site_fract_y
 _atom_site_fract_z
 _atom_site_occupancy
  Er  Er0  1  0.500000  0.500000  0.000000  1
  Er  Er1  1  0.000000  0.500000  0.500000  1
  Sb  Sb2  1  0.000000  0.000000  0.000000  1
  Sb  Sb3  1  0.500000  0.000000  0.500000  1
  Sb  Sb4  1  0.500000  0.000000  0.000000  1
  Sb  Sb5  1  0.500000  0.500000  0.500000  1
  O  O6  1  0.182045  0.932045  0.250000  1
  O  O7  1  0.579525  0.329525  0.250000  1
  O  O8  1  0.174883  0.903814  0.842188  1
  O  O9  1  0.561628  0.332695  0.657812  1
  O  O10  1  0.561628  0.903814  0.228932  1
  O  O11  1  0.174883  0.332695  0.271068  1
  O  O12  1  0.817955  0.067955  0.750000  1
  O  O13  1  0.420475  0.670475  0.750000  1
  O  O14  1  0.825117  0.096186  0.157812  1
  O  O15  1  0.438372  0.667305  0.342188  1
  O  O16  1  0.438372  0.096186  0.771068  1
  O  O17  1  0.825117  0.667305  0.728932  1
  F  F18  1  0.851849  0.601849  0.250000  1
  F  F19  1  0.148151  0.398151  0.750000  1
