# generated using pymatgen
data_Ba8Bi5I
_symmetry_space_group_name_H-M   'P 1'
_cell_length_a   9.33729817
_cell_length_b   9.33729804
_cell_length_c   9.33729814
_cell_angle_alpha   109.48111921
_cell_angle_beta   109.45141914
_cell_angle_gamma   109.48111754
_symmetry_Int_Tables_number   1
_chemical_formula_structural   Ba8Bi5I
_chemical_formula_sum   'Ba8 Bi5 I1'
_cell_volume   626.67415953
_cell_formula_units_Z   1
loop_
 _symmetry_equiv_pos_site_id
 _symmetry_equiv_pos_as_xyz
  1  'x, y, z'
loop_
 _atom_site_type_symbol
 _atom_site_label
 _atom_site_symmetry_multiplicity
 _atom_site_fract_x
 _atom_site_fract_y
 _atom_site_fract_z
 _atom_site_occupancy
  Ba  Ba0  1  0.487380  0.991916  0.621168  1
  Ba  Ba1  1  0.149787  0.505705  0.993806  1
  Ba  Ba2  1  0.378832  0.366212  0.370748  1
  Ba  Ba3  1  0.004536  0.133788  0.512620  1
  Ba  Ba4  1  0.855918  0.844019  0.850213  1
  Ba  Ba5  1  0.006194  0.655981  0.511899  1
  Ba  Ba6  1  0.488101  0.994295  0.144082  1
  Ba  Ba7  1  0.629252  0.508084  0.995464  1
  Bi  Bi8  1  0.115349  0.868456  0.243026  1
  Bi  Bi9  1  0.374570  0.631544  0.746893  1
  Bi  Bi10  1  0.253107  0.127677  0.884651  1
  Bi  Bi11  1  0.756974  0.372323  0.625430  1
  Bi  Bi12  1  0.625000  0.750000  0.375000  1
  I  I13  1  0.875000  0.250000  0.125000  1
