# generated using pymatgen
data_Hf3Zr(NiTe)8
_symmetry_space_group_name_H-M   'P 1'
_cell_length_a   3.73452300
_cell_length_b   6.43014130
_cell_length_c   18.16093321
_cell_angle_alpha   90.02773513
_cell_angle_beta   90.00000000
_cell_angle_gamma   90.00000000
_symmetry_Int_Tables_number   1
_chemical_formula_structural   Hf3Zr(NiTe)8
_chemical_formula_sum   'Hf3 Zr1 Ni8 Te8'
_cell_volume   436.10771022
_cell_formula_units_Z   1
loop_
 _symmetry_equiv_pos_site_id
 _symmetry_equiv_pos_as_xyz
  1  'x, y, z'
loop_
 _atom_site_type_symbol
 _atom_site_label
 _atom_site_symmetry_multiplicity
 _atom_site_fract_x
 _atom_site_fract_y
 _atom_site_fract_z
 _atom_site_occupancy
  Hf  Hf0  1  0.250000  0.905784  0.721816  1
  Hf  Hf1  1  0.750000  0.094091  0.278712  1
  Hf  Hf2  1  0.250000  0.405871  0.778207  1
  Zr  Zr3  1  0.750000  0.594008  0.220992  1
  Ni  Ni4  1  0.250000  0.286599  0.184122  1
  Ni  Ni5  1  0.750000  0.712642  0.815607  1
  Ni  Ni6  1  0.750000  0.212195  0.684401  1
  Ni  Ni7  1  0.250000  0.789037  0.316101  1
  Ni  Ni8  1  0.250000  0.901855  0.184627  1
  Ni  Ni9  1  0.750000  0.099326  0.814985  1
  Ni  Ni10  1  0.250000  0.399311  0.315730  1
  Ni  Ni11  1  0.750000  0.599409  0.684995  1
  Te  Te12  1  0.250000  0.594323  0.094081  1
  Te  Te13  1  0.750000  0.405529  0.905005  1
  Te  Te14  1  0.750000  0.905079  0.594994  1
  Te  Te15  1  0.250000  0.094856  0.405901  1
  Te  Te16  1  0.750000  0.593213  0.386603  1
  Te  Te17  1  0.250000  0.406825  0.613187  1
  Te  Te18  1  0.750000  0.092748  0.113133  1
  Te  Te19  1  0.250000  0.907297  0.886800  1
