# generated using pymatgen
data_LaEr3Fe2(Co2B)6
_symmetry_space_group_name_H-M   'P 1'
_cell_length_a   5.08077800
_cell_length_b   5.08077729
_cell_length_c   12.65375900
_cell_angle_alpha   90.00000000
_cell_angle_beta   90.00000000
_cell_angle_gamma   120.00000462
_symmetry_Int_Tables_number   1
_chemical_formula_structural   LaEr3Fe2(Co2B)6
_chemical_formula_sum   'La1 Er3 Fe2 Co12 B6'
_cell_volume   282.88540937
_cell_formula_units_Z   1
loop_
 _symmetry_equiv_pos_site_id
 _symmetry_equiv_pos_as_xyz
  1  'x, y, z'
loop_
 _atom_site_type_symbol
 _atom_site_label
 _atom_site_symmetry_multiplicity
 _atom_site_fract_x
 _atom_site_fract_y
 _atom_site_fract_z
 _atom_site_occupancy
  La  La0  1  0.000000  0.000000  0.000000  1
  Er  Er1  1  0.000000  0.000000  0.500000  1
  Er  Er2  1  0.000000  0.000000  0.738023  1
  Er  Er3  1  0.000000  0.000000  0.261977  1
  Fe  Fe4  1  0.666667  0.333333  0.000000  1
  Fe  Fe5  1  0.333333  0.666667  0.000000  1
  Co  Co6  1  0.500000  0.500000  0.841428  1
  Co  Co7  1  0.500000  0.000000  0.841428  1
  Co  Co8  1  0.000000  0.500000  0.841428  1
  Co  Co9  1  0.500000  0.500000  0.158572  1
  Co  Co10  1  0.500000  0.000000  0.158572  1
  Co  Co11  1  0.000000  0.500000  0.158572  1
  Co  Co12  1  0.500000  0.500000  0.614459  1
  Co  Co13  1  0.500000  0.000000  0.614459  1
  Co  Co14  1  0.000000  0.500000  0.614459  1
  Co  Co15  1  0.500000  0.500000  0.385541  1
  Co  Co16  1  0.500000  0.000000  0.385541  1
  Co  Co17  1  0.000000  0.500000  0.385541  1
  B  B18  1  0.666667  0.333333  0.500000  1
  B  B19  1  0.333333  0.666667  0.500000  1
  B  B20  1  0.666667  0.333333  0.730311  1
  B  B21  1  0.333333  0.666667  0.730311  1
  B  B22  1  0.333333  0.666667  0.269689  1
  B  B23  1  0.666667  0.333333  0.269689  1
