# generated using pymatgen
data_Tb2YbGa8SnOs3
_symmetry_space_group_name_H-M   'P 1'
_cell_length_a   6.53504900
_cell_length_b   6.42947800
_cell_length_c   6.42947800
_cell_angle_alpha   90.00000000
_cell_angle_beta   90.00000000
_cell_angle_gamma   90.00000000
_symmetry_Int_Tables_number   1
_chemical_formula_structural   Tb2YbGa8SnOs3
_chemical_formula_sum   'Tb2 Yb1 Ga8 Sn1 Os3'
_cell_volume   270.14707992
_cell_formula_units_Z   1
loop_
 _symmetry_equiv_pos_site_id
 _symmetry_equiv_pos_as_xyz
  1  'x, y, z'
loop_
 _atom_site_type_symbol
 _atom_site_label
 _atom_site_symmetry_multiplicity
 _atom_site_fract_x
 _atom_site_fract_y
 _atom_site_fract_z
 _atom_site_occupancy
  Tb  Tb0  1  0.000000  0.000000  0.500000  1
  Tb  Tb1  1  0.000000  0.500000  0.000000  1
  Yb  Yb2  1  0.500000  0.000000  0.000000  1
  Ga  Ga3  1  0.708808  0.711641  0.711641  1
  Ga  Ga4  1  0.708808  0.288359  0.711641  1
  Ga  Ga5  1  0.291192  0.711641  0.711641  1
  Ga  Ga6  1  0.708808  0.711641  0.288359  1
  Ga  Ga7  1  0.708808  0.288359  0.288359  1
  Ga  Ga8  1  0.291192  0.288359  0.288359  1
  Ga  Ga9  1  0.291192  0.711641  0.288359  1
  Ga  Ga10  1  0.291192  0.288359  0.711641  1
  Sn  Sn11  1  0.000000  0.000000  0.000000  1
  Os  Os12  1  0.000000  0.500000  0.500000  1
  Os  Os13  1  0.500000  0.500000  0.000000  1
  Os  Os14  1  0.500000  0.000000  0.500000  1
