# generated using pymatgen
data_Ho7LuTi8(Si4Mo)4
_symmetry_space_group_name_H-M   'P 1'
_cell_length_a   6.77136614
_cell_length_b   6.95519699
_cell_length_c   13.25717301
_cell_angle_alpha   89.97279638
_cell_angle_beta   89.99227430
_cell_angle_gamma   89.99992462
_symmetry_Int_Tables_number   1
_chemical_formula_structural   Ho7LuTi8(Si4Mo)4
_chemical_formula_sum   'Ho7 Lu1 Ti8 Si16 Mo4'
_cell_volume   624.36220173
_cell_formula_units_Z   1
loop_
 _symmetry_equiv_pos_site_id
 _symmetry_equiv_pos_as_xyz
  1  'x, y, z'
loop_
 _atom_site_type_symbol
 _atom_site_label
 _atom_site_symmetry_multiplicity
 _atom_site_fract_x
 _atom_site_fract_y
 _atom_site_fract_z
 _atom_site_occupancy
  Ho  Ho0  1  0.502606  0.327944  0.096576  1
  Ho  Ho1  1  0.002731  0.172031  0.403333  1
  Ho  Ho2  1  0.497378  0.671682  0.596777  1
  Ho  Ho3  1  0.997332  0.828049  0.903944  1
  Ho  Ho4  1  0.497079  0.671864  0.903739  1
  Ho  Ho5  1  0.997289  0.828085  0.596764  1
  Ho  Ho6  1  0.502559  0.328036  0.402810  1
  Lu  Lu7  1  0.002096  0.172534  0.096981  1
  Ti  Ti8  1  0.833201  0.327691  0.627226  1
  Ti  Ti9  1  0.333008  0.172236  0.873237  1
  Ti  Ti10  1  0.166854  0.672768  0.126893  1
  Ti  Ti11  1  0.667277  0.828068  0.372543  1
  Ti  Ti12  1  0.166592  0.672159  0.372485  1
  Ti  Ti13  1  0.667603  0.828216  0.126582  1
  Ti  Ti14  1  0.833505  0.327176  0.873331  1
  Ti  Ti15  1  0.333127  0.172295  0.627088  1
  Si  Si16  1  0.659390  0.040955  0.542734  1
  Si  Si17  1  0.159502  0.458007  0.958025  1
  Si  Si18  1  0.338340  0.960551  0.042984  1
  Si  Si19  1  0.840339  0.540841  0.457127  1
  Si  Si20  1  0.340498  0.958999  0.457116  1
  Si  Si21  1  0.841097  0.538981  0.043155  1
  Si  Si22  1  0.659873  0.040878  0.957637  1
  Si  Si23  1  0.159658  0.459178  0.542686  1
  Si  Si24  1  0.535560  0.373687  0.750298  1
  Si  Si25  1  0.035610  0.125885  0.750162  1
  Si  Si26  1  0.464434  0.626352  0.249601  1
  Si  Si27  1  0.964951  0.875159  0.249357  1
  Si  Si28  1  0.797618  0.626530  0.750364  1
  Si  Si29  1  0.297453  0.873292  0.750218  1
  Si  Si30  1  0.201769  0.372368  0.249224  1
  Si  Si31  1  0.703565  0.127193  0.249261  1
  Mo  Mo32  1  0.661055  0.010738  0.750320  1
  Mo  Mo33  1  0.160989  0.488996  0.750254  1
  Mo  Mo34  1  0.338685  0.989933  0.249520  1
  Mo  Mo35  1  0.839378  0.510645  0.249649  1
