# generated using pymatgen
data_Na2SmU(CuSe3)2
_symmetry_space_group_name_H-M   'P 1'
_cell_length_a   7.26666321
_cell_length_b   7.26666329
_cell_length_c   10.72718988
_cell_angle_alpha   89.64217564
_cell_angle_beta   90.35782566
_cell_angle_gamma   147.09454394
_symmetry_Int_Tables_number   1
_chemical_formula_structural   Na2SmU(CuSe3)2
_chemical_formula_sum   'Na2 Sm1 U1 Cu2 Se6'
_cell_volume   307.71600327
_cell_formula_units_Z   1
loop_
 _symmetry_equiv_pos_site_id
 _symmetry_equiv_pos_as_xyz
  1  'x, y, z'
loop_
 _atom_site_type_symbol
 _atom_site_label
 _atom_site_symmetry_multiplicity
 _atom_site_fract_x
 _atom_site_fract_y
 _atom_site_fract_z
 _atom_site_occupancy
  Na  Na0  1  0.258465  0.741535  0.695866  1
  Na  Na1  1  0.741535  0.258465  0.304134  1
  Sm  Sm2  1  0.000000  0.000000  0.500000  1
  U  U3  1  0.000000  0.000000  0.000000  1
  Cu  Cu4  1  0.527363  0.472637  0.752459  1
  Cu  Cu5  1  0.472637  0.527363  0.247541  1
  Se  Se6  1  0.076741  0.923259  0.239981  1
  Se  Se7  1  0.626689  0.373311  0.938759  1
  Se  Se8  1  0.923259  0.076741  0.760019  1
  Se  Se9  1  0.635677  0.364323  0.574698  1
  Se  Se10  1  0.373311  0.626689  0.061241  1
  Se  Se11  1  0.364323  0.635677  0.425302  1
