# generated using pymatgen
data_CaPrDyCd(Ir2O7)2
_symmetry_space_group_name_H-M   'P 1'
_cell_length_a   7.28981982
_cell_length_b   7.28416555
_cell_length_c   7.20565300
_cell_angle_alpha   60.35591926
_cell_angle_beta   60.38120725
_cell_angle_gamma   61.23253222
_symmetry_Int_Tables_number   1
_chemical_formula_structural   CaPrDyCd(Ir2O7)2
_chemical_formula_sum   'Ca1 Pr1 Dy1 Cd1 Ir4 O14'
_cell_volume   274.52391659
_cell_formula_units_Z   1
loop_
 _symmetry_equiv_pos_site_id
 _symmetry_equiv_pos_as_xyz
  1  'x, y, z'
loop_
 _atom_site_type_symbol
 _atom_site_label
 _atom_site_symmetry_multiplicity
 _atom_site_fract_x
 _atom_site_fract_y
 _atom_site_fract_z
 _atom_site_occupancy
  Ca  Ca0  1  0.125000  0.125000  0.625000  1
  Pr  Pr1  1  0.625000  0.125000  0.125000  1
  Dy  Dy2  1  0.125000  0.625000  0.125000  1
  Cd  Cd3  1  0.125000  0.125000  0.125000  1
  Ir  Ir4  1  0.625000  0.625000  0.625000  1
  Ir  Ir5  1  0.125000  0.625000  0.625000  1
  Ir  Ir6  1  0.625000  0.125000  0.625000  1
  Ir  Ir7  1  0.625000  0.625000  0.125000  1
  O  O8  1  0.953358  0.553419  0.537535  1
  O  O9  1  0.301065  0.303169  0.698317  1
  O  O10  1  0.949761  0.559367  0.952682  1
  O  O11  1  0.702770  0.300454  0.296142  1
  O  O12  1  0.534373  0.547448  0.959179  1
  O  O13  1  0.543093  0.952856  0.547705  1
  O  O14  1  0.547230  0.949546  0.953858  1
  O  O15  1  0.239134  0.258464  0.243867  1
  O  O16  1  0.296642  0.696581  0.712465  1
  O  O17  1  0.706907  0.297144  0.702295  1
  O  O18  1  0.010866  0.991536  0.006133  1
  O  O19  1  0.948935  0.946831  0.551683  1
  O  O20  1  0.300239  0.690633  0.297318  1
  O  O21  1  0.715627  0.702552  0.290821  1
