# generated using pymatgen
data_Er4Fe5Co9
_symmetry_space_group_name_H-M   'P 1'
_cell_length_a   5.05501031
_cell_length_b   5.05500978
_cell_length_c   12.08989304
_cell_angle_alpha   77.93277059
_cell_angle_beta   77.93277170
_cell_angle_gamma   60.00000920
_symmetry_Int_Tables_number   1
_chemical_formula_structural   Er4Fe5Co9
_chemical_formula_sum   'Er4 Fe5 Co9'
_cell_volume   259.63268796
_cell_formula_units_Z   1
loop_
 _symmetry_equiv_pos_site_id
 _symmetry_equiv_pos_as_xyz
  1  'x, y, z'
loop_
 _atom_site_type_symbol
 _atom_site_label
 _atom_site_symmetry_multiplicity
 _atom_site_fract_x
 _atom_site_fract_y
 _atom_site_fract_z
 _atom_site_occupancy
  Er  Er0  1  0.949487  0.949487  0.151539  1
  Er  Er1  1  0.050513  0.050513  0.848461  1
  Er  Er2  1  0.851791  0.851791  0.444625  1
  Er  Er3  1  0.148209  0.148209  0.555375  1
  Fe  Fe4  1  0.500000  0.500000  0.500000  1
  Fe  Fe5  1  0.721625  0.721625  0.835127  1
  Fe  Fe6  1  0.278375  0.278375  0.164873  1
  Fe  Fe7  1  0.611284  0.611284  0.166145  1
  Fe  Fe8  1  0.388716  0.388716  0.833855  1
  Co  Co9  1  0.000000  0.500000  0.000000  1
  Co  Co10  1  0.500000  0.000000  0.000000  1
  Co  Co11  1  0.500000  0.500000  0.000000  1
  Co  Co12  1  0.388593  0.388593  0.330284  1
  Co  Co13  1  0.892529  0.388593  0.330284  1
  Co  Co14  1  0.388593  0.892529  0.330284  1
  Co  Co15  1  0.611407  0.611407  0.669716  1
  Co  Co16  1  0.107471  0.611407  0.669716  1
  Co  Co17  1  0.611407  0.107471  0.669716  1
