# generated using pymatgen
data_Ca2TlAg2Sn
_symmetry_space_group_name_H-M   'P 1'
_cell_length_a   6.14233252
_cell_length_b   6.19789272
_cell_length_c   6.19789200
_cell_angle_alpha   133.93986034
_cell_angle_beta   104.24418346
_cell_angle_gamma   93.60116610
_symmetry_Int_Tables_number   1
_chemical_formula_structural   Ca2TlAg2Sn
_chemical_formula_sum   'Ca2 Tl1 Ag2 Sn1'
_cell_volume   155.18352099
_cell_formula_units_Z   1
loop_
 _symmetry_equiv_pos_site_id
 _symmetry_equiv_pos_as_xyz
  1  'x, y, z'
loop_
 _atom_site_type_symbol
 _atom_site_label
 _atom_site_symmetry_multiplicity
 _atom_site_fract_x
 _atom_site_fract_y
 _atom_site_fract_z
 _atom_site_occupancy
  Ca  Ca0  1  0.687760  0.688505  0.999255  1
  Ca  Ca1  1  0.118417  0.618367  0.500050  1
  Tl  Tl2  1  0.281247  0.988334  0.292914  1
  Ag  Ag3  1  0.535387  0.322307  0.213080  1
  Ag  Ag4  1  0.098146  0.311536  0.786610  1
  Sn  Sn5  1  0.694462  0.986369  0.708093  1
