# generated using pymatgen
data_Y5Er3(Nb3Si4)4
_symmetry_space_group_name_H-M   'P 1'
_cell_length_a   7.06447475
_cell_length_b   7.06406828
_cell_length_c   13.06534942
_cell_angle_alpha   89.96055429
_cell_angle_beta   90.01713388
_cell_angle_gamma   90.00391394
_symmetry_Int_Tables_number   1
_chemical_formula_structural   Y5Er3(Nb3Si4)4
_chemical_formula_sum   'Y5 Er3 Nb12 Si16'
_cell_volume   652.01212303
_cell_formula_units_Z   1
loop_
 _symmetry_equiv_pos_site_id
 _symmetry_equiv_pos_as_xyz
  1  'x, y, z'
loop_
 _atom_site_type_symbol
 _atom_site_label
 _atom_site_symmetry_multiplicity
 _atom_site_fract_x
 _atom_site_fract_y
 _atom_site_fract_z
 _atom_site_occupancy
  Y  Y0  1  0.501272  0.841224  0.032019  1
  Y  Y1  1  0.840930  0.501412  0.968051  1
  Y  Y2  1  0.498677  0.159053  0.531882  1
  Y  Y3  1  0.340745  0.998740  0.781693  1
  Y  Y4  1  0.659176  0.001573  0.281977  1
  Er  Er5  1  0.999447  0.341084  0.218285  1
  Er  Er6  1  0.000693  0.658774  0.718111  1
  Er  Er7  1  0.158883  0.499116  0.468244  1
  Nb  Nb8  1  0.171553  0.172129  0.000155  1
  Nb  Nb9  1  0.828762  0.827447  0.499993  1
  Nb  Nb10  1  0.327655  0.671614  0.250217  1
  Nb  Nb11  1  0.671969  0.328380  0.749796  1
  Nb  Nb12  1  0.151240  0.992888  0.375920  1
  Nb  Nb13  1  0.847759  0.007445  0.875665  1
  Nb  Nb14  1  0.507238  0.651146  0.625618  1
  Nb  Nb15  1  0.347758  0.493831  0.873707  1
  Nb  Nb16  1  0.492983  0.348264  0.126199  1
  Nb  Nb17  1  0.651745  0.506429  0.374053  1
  Nb  Nb18  1  0.993835  0.151798  0.623795  1
  Nb  Nb19  1  0.007230  0.847745  0.124359  1
  Si  Si20  1  0.293182  0.046865  0.186889  1
  Si  Si21  1  0.706900  0.953405  0.686538  1
  Si  Si22  1  0.453314  0.793205  0.436714  1
  Si  Si23  1  0.205603  0.545526  0.063597  1
  Si  Si24  1  0.545795  0.206693  0.936757  1
  Si  Si25  1  0.795748  0.454451  0.563446  1
  Si  Si26  1  0.045926  0.294869  0.813006  1
  Si  Si27  1  0.954561  0.704276  0.313560  1
  Si  Si28  1  0.364541  0.296031  0.317379  1
  Si  Si29  1  0.634450  0.704548  0.816472  1
  Si  Si30  1  0.203898  0.864317  0.567152  1
  Si  Si31  1  0.133310  0.795457  0.932779  1
  Si  Si32  1  0.796170  0.134470  0.067466  1
  Si  Si33  1  0.867214  0.205685  0.432764  1
  Si  Si34  1  0.294346  0.367255  0.682530  1
  Si  Si35  1  0.705491  0.632862  0.183210  1
