# generated using pymatgen
data_LaGa2Au5
_symmetry_space_group_name_H-M   'P 1'
_cell_length_a   7.41528600
_cell_length_b   8.81590100
_cell_length_c   9.97658400
_cell_angle_alpha   90.00000000
_cell_angle_beta   90.00000000
_cell_angle_gamma   90.00000000
_symmetry_Int_Tables_number   1
_chemical_formula_structural   LaGa2Au5
_chemical_formula_sum   'La4 Ga8 Au20'
_cell_volume   652.19351187
_cell_formula_units_Z   4
loop_
 _symmetry_equiv_pos_site_id
 _symmetry_equiv_pos_as_xyz
  1  'x, y, z'
loop_
 _atom_site_type_symbol
 _atom_site_label
 _atom_site_symmetry_multiplicity
 _atom_site_fract_x
 _atom_site_fract_y
 _atom_site_fract_z
 _atom_site_occupancy
  La  La0  1  0.250000  0.254723  0.125299  1
  La  La1  1  0.250000  0.754723  0.374701  1
  La  La2  1  0.750000  0.745277  0.874701  1
  La  La3  1  0.750000  0.245277  0.625299  1
  Ga  Ga4  1  0.250000  0.043867  0.611861  1
  Ga  Ga5  1  0.250000  0.543867  0.888139  1
  Ga  Ga6  1  0.750000  0.956133  0.388139  1
  Ga  Ga7  1  0.750000  0.456133  0.111861  1
  Ga  Ga8  1  0.250000  0.358900  0.477212  1
  Ga  Ga9  1  0.250000  0.858900  0.022788  1
  Ga  Ga10  1  0.750000  0.641100  0.522788  1
  Ga  Ga11  1  0.750000  0.141100  0.977212  1
  Au  Au12  1  0.059691  0.105545  0.390003  1
  Au  Au13  1  0.440309  0.605545  0.109997  1
  Au  Au14  1  0.559691  0.894455  0.609997  1
  Au  Au15  1  0.940309  0.394455  0.890003  1
  Au  Au16  1  0.940309  0.894455  0.609997  1
  Au  Au17  1  0.559691  0.394455  0.890003  1
  Au  Au18  1  0.440309  0.105545  0.390003  1
  Au  Au19  1  0.059691  0.605545  0.109997  1
  Au  Au20  1  0.038020  0.059323  0.860944  1
  Au  Au21  1  0.461980  0.559323  0.639056  1
  Au  Au22  1  0.538020  0.940677  0.139056  1
  Au  Au23  1  0.961980  0.440677  0.360944  1
  Au  Au24  1  0.961980  0.940677  0.139056  1
  Au  Au25  1  0.538020  0.440677  0.360944  1
  Au  Au26  1  0.461980  0.059323  0.860944  1
  Au  Au27  1  0.038020  0.559323  0.639056  1
  Au  Au28  1  0.250000  0.297289  0.732486  1
  Au  Au29  1  0.250000  0.797289  0.767514  1
  Au  Au30  1  0.750000  0.702711  0.267514  1
  Au  Au31  1  0.750000  0.202711  0.232486  1
