# generated using pymatgen
data_Sc22Os2(RuRh)3
_symmetry_space_group_name_H-M   'P 1'
_cell_length_a   9.48207907
_cell_length_b   9.47648669
_cell_length_c   9.47296429
_cell_angle_alpha   60.11120189
_cell_angle_beta   60.10061564
_cell_angle_gamma   60.18088455
_symmetry_Int_Tables_number   1
_chemical_formula_structural   Sc22Os2(RuRh)3
_chemical_formula_sum   'Sc22 Os2 Ru3 Rh3'
_cell_volume   603.68067838
_cell_formula_units_Z   1
loop_
 _symmetry_equiv_pos_site_id
 _symmetry_equiv_pos_as_xyz
  1  'x, y, z'
loop_
 _atom_site_type_symbol
 _atom_site_label
 _atom_site_symmetry_multiplicity
 _atom_site_fract_x
 _atom_site_fract_y
 _atom_site_fract_z
 _atom_site_occupancy
  Sc  Sc0  1  0.802588  0.803464  0.196504  1
  Sc  Sc1  1  0.197042  0.803857  0.197185  1
  Sc  Sc2  1  0.803943  0.196110  0.197217  1
  Sc  Sc3  1  0.197412  0.196536  0.803496  1
  Sc  Sc4  1  0.802958  0.196143  0.802815  1
  Sc  Sc5  1  0.196057  0.803890  0.802783  1
  Sc  Sc6  1  0.614901  0.618904  0.150989  1
  Sc  Sc7  1  0.616854  0.150928  0.617786  1
  Sc  Sc8  1  0.151158  0.617240  0.614333  1
  Sc  Sc9  1  0.618206  0.615554  0.615260  1
  Sc  Sc10  1  0.385099  0.381096  0.849011  1
  Sc  Sc11  1  0.383146  0.849072  0.382214  1
  Sc  Sc12  1  0.848842  0.382760  0.385667  1
  Sc  Sc13  1  0.381794  0.384446  0.384740  1
  Sc  Sc14  1  0.844993  0.842423  0.470861  1
  Sc  Sc15  1  0.844153  0.471203  0.841404  1
  Sc  Sc16  1  0.471106  0.844107  0.843804  1
  Sc  Sc17  1  0.842450  0.845022  0.842108  1
  Sc  Sc18  1  0.155007  0.157577  0.529139  1
  Sc  Sc19  1  0.155847  0.528797  0.158596  1
  Sc  Sc20  1  0.528894  0.155893  0.156196  1
  Sc  Sc21  1  0.157550  0.154978  0.157892  1
  Os  Os22  1  0.500000  0.500000  0.500000  1
  Os  Os23  1  0.500000  0.000000  0.000000  1
  Ru  Ru24  1  0.000000  0.000000  0.000000  1
  Ru  Ru25  1  0.000000  0.000000  0.500000  1
  Ru  Ru26  1  0.000000  0.500000  0.500000  1
  Rh  Rh27  1  0.500000  0.000000  0.500000  1
  Rh  Rh28  1  0.500000  0.500000  0.000000  1
  Rh  Rh29  1  0.000000  0.500000  0.000000  1
