# generated using pymatgen
data_Tm2Ge4Mo3
_symmetry_space_group_name_H-M   'P 1'
_cell_length_a   7.02107600
_cell_length_b   6.85933165
_cell_length_c   6.96315128
_cell_angle_alpha   70.62773386
_cell_angle_beta   90.00000000
_cell_angle_gamma   90.00000000
_symmetry_Int_Tables_number   1
_chemical_formula_structural   Tm2Ge4Mo3
_chemical_formula_sum   'Tm4 Ge8 Mo6'
_cell_volume   316.35849715
_cell_formula_units_Z   2
loop_
 _symmetry_equiv_pos_site_id
 _symmetry_equiv_pos_as_xyz
  1  'x, y, z'
loop_
 _atom_site_type_symbol
 _atom_site_label
 _atom_site_symmetry_multiplicity
 _atom_site_fract_x
 _atom_site_fract_y
 _atom_site_fract_z
 _atom_site_occupancy
  Tm  Tm0  1  0.329734  0.556915  0.809293  1
  Tm  Tm1  1  0.829734  0.943085  0.190707  1
  Tm  Tm2  1  0.670266  0.443085  0.190707  1
  Tm  Tm3  1  0.170266  0.056915  0.809293  1
  Ge  Ge4  1  0.544258  0.858118  0.909272  1
  Ge  Ge5  1  0.044258  0.641882  0.090728  1
  Ge  Ge6  1  0.455742  0.141882  0.090728  1
  Ge  Ge7  1  0.955742  0.358118  0.909272  1
  Ge  Ge8  1  0.136950  0.866527  0.498017  1
  Ge  Ge9  1  0.636950  0.633473  0.501983  1
  Ge  Ge10  1  0.863050  0.133473  0.501983  1
  Ge  Ge11  1  0.363050  0.366527  0.498017  1
  Mo  Mo12  1  0.500000  0.000000  0.500000  1
  Mo  Mo13  1  0.000000  0.500000  0.500000  1
  Mo  Mo14  1  0.840368  0.747989  0.752930  1
  Mo  Mo15  1  0.340368  0.752011  0.247070  1
  Mo  Mo16  1  0.159632  0.252011  0.247070  1
  Mo  Mo17  1  0.659632  0.247989  0.752930  1
