# generated using pymatgen
data_Lu3Th(CdCu2)2
_symmetry_space_group_name_H-M   'P 1'
_cell_length_a   3.64934600
_cell_length_b   7.53756598
_cell_length_c   7.53756487
_cell_angle_alpha   91.06389775
_cell_angle_beta   90.00000000
_cell_angle_gamma   90.00000000
_symmetry_Int_Tables_number   1
_chemical_formula_structural   Lu3Th(CdCu2)2
_chemical_formula_sum   'Lu3 Th1 Cd2 Cu4'
_cell_volume   207.30145809
_cell_formula_units_Z   1
loop_
 _symmetry_equiv_pos_site_id
 _symmetry_equiv_pos_as_xyz
  1  'x, y, z'
loop_
 _atom_site_type_symbol
 _atom_site_label
 _atom_site_symmetry_multiplicity
 _atom_site_fract_x
 _atom_site_fract_y
 _atom_site_fract_z
 _atom_site_occupancy
  Lu  Lu0  1  0.500000  0.823935  0.323935  1
  Lu  Lu1  1  0.500000  0.329909  0.176048  1
  Lu  Lu2  1  0.500000  0.676048  0.829909  1
  Th  Th3  1  0.500000  0.172446  0.672446  1
  Cd  Cd4  1  0.000000  0.995943  0.006898  1
  Cd  Cd5  1  0.000000  0.506898  0.495943  1
  Cu  Cu6  1  0.000000  0.619984  0.119984  1
  Cu  Cu7  1  0.000000  0.384067  0.884067  1
  Cu  Cu8  1  0.000000  0.872835  0.617935  1
  Cu  Cu9  1  0.000000  0.117935  0.372835  1
