# generated using pymatgen
data_Zr8Ta12Al3Si13
_symmetry_space_group_name_H-M   'P 1'
_cell_length_a   6.92864380
_cell_length_b   6.91322167
_cell_length_c   12.80740047
_cell_angle_alpha   90.04701054
_cell_angle_beta   89.94640547
_cell_angle_gamma   90.13862872
_symmetry_Int_Tables_number   1
_chemical_formula_structural   Zr8Ta12Al3Si13
_chemical_formula_sum   'Zr8 Ta12 Al3 Si13'
_cell_volume   613.46261335
_cell_formula_units_Z   1
loop_
 _symmetry_equiv_pos_site_id
 _symmetry_equiv_pos_as_xyz
  1  'x, y, z'
loop_
 _atom_site_type_symbol
 _atom_site_label
 _atom_site_symmetry_multiplicity
 _atom_site_fract_x
 _atom_site_fract_y
 _atom_site_fract_z
 _atom_site_occupancy
  Zr  Zr0  1  0.000939  0.664180  0.031180  1
  Zr  Zr1  1  0.999677  0.339484  0.531486  1
  Zr  Zr2  1  0.657043  0.999143  0.970138  1
  Zr  Zr3  1  0.161676  0.500749  0.780120  1
  Zr  Zr4  1  0.837837  0.498888  0.279311  1
  Zr  Zr5  1  0.499519  0.158781  0.218428  1
  Zr  Zr6  1  0.498225  0.838484  0.721478  1
  Zr  Zr7  1  0.339507  0.999502  0.468742  1
  Ta  Ta8  1  0.352912  0.502647  0.374566  1
  Ta  Ta9  1  0.844487  0.999731  0.368319  1
  Ta  Ta10  1  0.005598  0.152846  0.128810  1
  Ta  Ta11  1  0.998322  0.844098  0.631087  1
  Ta  Ta12  1  0.648120  0.497530  0.875662  1
  Ta  Ta13  1  0.502712  0.352898  0.625676  1
  Ta  Ta14  1  0.494170  0.652148  0.124114  1
  Ta  Ta15  1  0.157157  0.999705  0.871856  1
  Ta  Ta16  1  0.665342  0.665501  0.500256  1
  Ta  Ta17  1  0.830844  0.169104  0.749848  1
  Ta  Ta18  1  0.171551  0.832634  0.247558  1
  Ta  Ta19  1  0.334656  0.330163  0.001320  1
  Al  Al20  1  0.041910  0.701765  0.435821  1
  Al  Al21  1  0.957730  0.299662  0.936282  1
  Al  Al22  1  0.701062  0.041602  0.563351  1
  Si  Si23  1  0.200034  0.456906  0.186478  1
  Si  Si24  1  0.799573  0.542956  0.686707  1
  Si  Si25  1  0.457380  0.200882  0.813708  1
  Si  Si26  1  0.543652  0.798970  0.314048  1
  Si  Si27  1  0.297639  0.957122  0.062759  1
  Si  Si28  1  0.863854  0.792477  0.824001  1
  Si  Si29  1  0.135975  0.209076  0.323397  1
  Si  Si30  1  0.791497  0.863884  0.176749  1
  Si  Si31  1  0.292502  0.637398  0.570850  1
  Si  Si32  1  0.708444  0.364767  0.071904  1
  Si  Si33  1  0.636731  0.292395  0.428766  1
  Si  Si34  1  0.363460  0.705999  0.928262  1
  Si  Si35  1  0.208263  0.135924  0.676963  1
