# generated using pymatgen
data_Er6Mn13Co3(MoP6)2
_symmetry_space_group_name_H-M   'P 1'
_cell_length_a   3.68782000
_cell_length_b   10.77739900
_cell_length_c   12.53949900
_cell_angle_alpha   90.00000000
_cell_angle_beta   90.00000000
_cell_angle_gamma   90.00000000
_symmetry_Int_Tables_number   1
_chemical_formula_structural   Er6Mn13Co3(MoP6)2
_chemical_formula_sum   'Er6 Mn13 Co3 Mo2 P12'
_cell_volume   498.38373676
_cell_formula_units_Z   1
loop_
 _symmetry_equiv_pos_site_id
 _symmetry_equiv_pos_as_xyz
  1  'x, y, z'
loop_
 _atom_site_type_symbol
 _atom_site_label
 _atom_site_symmetry_multiplicity
 _atom_site_fract_x
 _atom_site_fract_y
 _atom_site_fract_z
 _atom_site_occupancy
  Er  Er0  1  0.750000  0.250000  0.466394  1
  Er  Er1  1  0.250000  0.750000  0.532747  1
  Er  Er2  1  0.250000  0.925521  0.795772  1
  Er  Er3  1  0.250000  0.574479  0.795772  1
  Er  Er4  1  0.750000  0.071862  0.206258  1
  Er  Er5  1  0.750000  0.428138  0.206258  1
  Mn  Mn6  1  0.750000  0.250000  0.009677  1
  Mn  Mn7  1  0.250000  0.417905  0.004063  1
  Mn  Mn8  1  0.250000  0.082095  0.004063  1
  Mn  Mn9  1  0.750000  0.578740  0.996750  1
  Mn  Mn10  1  0.750000  0.921260  0.996750  1
  Mn  Mn11  1  0.250000  0.454674  0.566629  1
  Mn  Mn12  1  0.250000  0.045326  0.566629  1
  Mn  Mn13  1  0.750000  0.547110  0.433081  1
  Mn  Mn14  1  0.750000  0.952890  0.433081  1
  Mn  Mn15  1  0.250000  0.870547  0.300275  1
  Mn  Mn16  1  0.250000  0.629453  0.300275  1
  Mn  Mn17  1  0.750000  0.129416  0.698313  1
  Mn  Mn18  1  0.750000  0.370584  0.698313  1
  Co  Co19  1  0.250000  0.250000  0.296267  1
  Co  Co20  1  0.750000  0.750000  0.707891  1
  Co  Co21  1  0.250000  0.750000  0.990553  1
  Mo  Mo22  1  0.250000  0.250000  0.835773  1
  Mo  Mo23  1  0.750000  0.750000  0.159175  1
  P  P24  1  0.250000  0.250000  0.121656  1
  P  P25  1  0.750000  0.750000  0.885314  1
  P  P26  1  0.250000  0.250000  0.637820  1
  P  P27  1  0.750000  0.750000  0.359398  1
  P  P28  1  0.250000  0.431845  0.381795  1
  P  P29  1  0.250000  0.068155  0.381795  1
  P  P30  1  0.750000  0.569408  0.619432  1
  P  P31  1  0.750000  0.930592  0.619432  1
  P  P32  1  0.250000  0.906249  0.111894  1
  P  P33  1  0.250000  0.593751  0.111894  1
  P  P34  1  0.750000  0.093172  0.884406  1
  P  P35  1  0.750000  0.406828  0.884406  1
