# generated using pymatgen
data_Rh3WF24
_symmetry_space_group_name_H-M   'P 1'
_cell_length_a   5.24999801
_cell_length_b   9.03131400
_cell_length_c   9.93737701
_cell_angle_alpha   90.00000000
_cell_angle_beta   89.99441556
_cell_angle_gamma   90.00000000
_symmetry_Int_Tables_number   1
_chemical_formula_structural   Rh3WF24
_chemical_formula_sum   'Rh3 W1 F24'
_cell_volume   471.17457251
_cell_formula_units_Z   1
loop_
 _symmetry_equiv_pos_site_id
 _symmetry_equiv_pos_as_xyz
  1  'x, y, z'
loop_
 _atom_site_type_symbol
 _atom_site_label
 _atom_site_symmetry_multiplicity
 _atom_site_fract_x
 _atom_site_fract_y
 _atom_site_fract_z
 _atom_site_occupancy
  Rh  Rh0  1  0.585463  0.750000  0.371991  1
  Rh  Rh1  1  0.085512  0.250000  0.128003  1
  Rh  Rh2  1  0.414336  0.250000  0.628007  1
  W  W3  1  0.914496  0.750000  0.872002  1
  F  F4  1  0.563419  0.396697  0.735515  1
  F  F5  1  0.063926  0.602809  0.764168  1
  F  F6  1  0.436599  0.896649  0.264489  1
  F  F7  1  0.936624  0.103319  0.235468  1
  F  F8  1  0.203034  0.750000  0.984053  1
  F  F9  1  0.701951  0.250000  0.516344  1
  F  F10  1  0.798132  0.250000  0.016316  1
  F  F11  1  0.298058  0.750000  0.483692  1
  F  F12  1  0.625318  0.750000  0.760080  1
  F  F13  1  0.126428  0.250000  0.739565  1
  F  F14  1  0.373554  0.250000  0.239517  1
  F  F15  1  0.873587  0.750000  0.260459  1
  F  F16  1  0.764028  0.896991  0.979871  1
  F  F17  1  0.264603  0.103514  0.520472  1
  F  F18  1  0.235450  0.396494  0.020454  1
  F  F19  1  0.735419  0.603536  0.479549  1
  F  F20  1  0.235450  0.103506  0.020454  1
  F  F21  1  0.735419  0.896464  0.479549  1
  F  F22  1  0.764028  0.603009  0.979871  1
  F  F23  1  0.264603  0.396486  0.520472  1
  F  F24  1  0.063926  0.897191  0.764168  1
  F  F25  1  0.563419  0.103303  0.735515  1
  F  F26  1  0.936624  0.396681  0.235468  1
  F  F27  1  0.436599  0.603351  0.264489  1
