# generated using pymatgen
data_Sc6Al7Cu16
_symmetry_space_group_name_H-M   'P 1'
_cell_length_a   8.45888192
_cell_length_b   8.46350547
_cell_length_c   8.46522164
_cell_angle_alpha   59.94199759
_cell_angle_beta   59.88768843
_cell_angle_gamma   59.88579167
_symmetry_Int_Tables_number   1
_chemical_formula_structural   Sc6Al7Cu16
_chemical_formula_sum   'Sc6 Al7 Cu16'
_cell_volume   427.61299179
_cell_formula_units_Z   1
loop_
 _symmetry_equiv_pos_site_id
 _symmetry_equiv_pos_as_xyz
  1  'x, y, z'
loop_
 _atom_site_type_symbol
 _atom_site_label
 _atom_site_symmetry_multiplicity
 _atom_site_fract_x
 _atom_site_fract_y
 _atom_site_fract_z
 _atom_site_occupancy
  Sc  Sc0  1  0.710020  0.710033  0.289990  1
  Sc  Sc1  1  0.289975  0.710023  0.289978  1
  Sc  Sc2  1  0.710014  0.289954  0.289995  1
  Sc  Sc3  1  0.289980  0.289967  0.710010  1
  Sc  Sc4  1  0.710025  0.289977  0.710022  1
  Sc  Sc5  1  0.289986  0.710046  0.710005  1
  Al  Al6  1  0.000000  0.000000  0.000000  1
  Al  Al7  1  0.000000  0.000000  0.500000  1
  Al  Al8  1  0.500000  0.000000  0.500000  1
  Al  Al9  1  0.000000  0.500000  0.500000  1
  Al  Al10  1  0.500000  0.500000  0.000000  1
  Al  Al11  1  0.000000  0.500000  0.000000  1
  Al  Al12  1  0.500000  0.000000  0.000000  1
  Cu  Cu13  1  0.879920  0.880243  0.359422  1
  Cu  Cu14  1  0.879730  0.360353  0.879749  1
  Cu  Cu15  1  0.360102  0.880015  0.879757  1
  Cu  Cu16  1  0.879823  0.880033  0.879895  1
  Cu  Cu17  1  0.120080  0.119757  0.640578  1
  Cu  Cu18  1  0.120270  0.639647  0.120251  1
  Cu  Cu19  1  0.639898  0.119985  0.120243  1
  Cu  Cu20  1  0.120177  0.119967  0.120105  1
  Cu  Cu21  1  0.670081  0.670471  0.989338  1
  Cu  Cu22  1  0.670320  0.989206  0.670184  1
  Cu  Cu23  1  0.989295  0.670075  0.670309  1
  Cu  Cu24  1  0.670162  0.670374  0.670316  1
  Cu  Cu25  1  0.329919  0.329529  0.010662  1
  Cu  Cu26  1  0.329680  0.010794  0.329816  1
  Cu  Cu27  1  0.010705  0.329925  0.329691  1
  Cu  Cu28  1  0.329838  0.329626  0.329684  1
