# generated using pymatgen
data_Zr5Ti3Co16AsP11
_symmetry_space_group_name_H-M   'P 1'
_cell_length_a   11.98035929
_cell_length_b   11.98036008
_cell_length_c   3.63980000
_cell_angle_alpha   90.00000000
_cell_angle_beta   90.00000000
_cell_angle_gamma   120.08496382
_symmetry_Int_Tables_number   1
_chemical_formula_structural   Zr5Ti3Co16AsP11
_chemical_formula_sum   'Zr5 Ti3 Co16 As1 P11'
_cell_volume   452.03848177
_cell_formula_units_Z   1
loop_
 _symmetry_equiv_pos_site_id
 _symmetry_equiv_pos_as_xyz
  1  'x, y, z'
loop_
 _atom_site_type_symbol
 _atom_site_label
 _atom_site_symmetry_multiplicity
 _atom_site_fract_x
 _atom_site_fract_y
 _atom_site_fract_z
 _atom_site_occupancy
  Zr  Zr0  1  0.666487  0.332060  0.000000  1
  Zr  Zr1  1  0.332060  0.666487  0.000000  1
  Zr  Zr2  1  0.826387  0.826387  0.500000  1
  Zr  Zr3  1  0.180627  0.000129  0.500000  1
  Zr  Zr4  1  0.000129  0.180627  0.500000  1
  Ti  Ti5  1  0.438362  0.438362  0.000000  1
  Ti  Ti6  1  0.557269  0.001486  0.000000  1
  Ti  Ti7  1  0.001486  0.557269  0.000000  1
  Co  Co8  1  0.195494  0.374049  0.000000  1
  Co  Co9  1  0.178405  0.803876  0.000000  1
  Co  Co10  1  0.827209  0.623814  0.000000  1
  Co  Co11  1  0.803876  0.178405  0.000000  1
  Co  Co12  1  0.374049  0.195494  0.000000  1
  Co  Co13  1  0.126109  0.481599  0.500000  1
  Co  Co14  1  0.354874  0.873868  0.500000  1
  Co  Co15  1  0.511944  0.644689  0.500000  1
  Co  Co16  1  0.644689  0.511944  0.500000  1
  Co  Co17  1  0.873868  0.354874  0.500000  1
  Co  Co18  1  0.481599  0.126109  0.500000  1
  Co  Co19  1  0.999795  0.999795  0.000000  1
  Co  Co20  1  0.719157  0.001709  0.500000  1
  Co  Co21  1  0.001709  0.719157  0.500000  1
  Co  Co22  1  0.623814  0.827209  0.000000  1
  Co  Co23  1  0.280677  0.280677  0.500000  1
  As  As24  1  0.646967  0.646967  0.000000  1
  P  P25  1  0.353666  0.999835  0.000000  1
  P  P26  1  0.999835  0.353666  0.000000  1
  P  P27  1  0.481355  0.311440  0.500000  1
  P  P28  1  0.686629  0.169300  0.500000  1
  P  P29  1  0.832575  0.516650  0.500000  1
  P  P30  1  0.516650  0.832575  0.500000  1
  P  P31  1  0.169300  0.686629  0.500000  1
  P  P32  1  0.823894  0.001509  0.000000  1
  P  P33  1  0.001509  0.823894  0.000000  1
  P  P34  1  0.311440  0.481355  0.500000  1
  P  P35  1  0.176104  0.176104  0.000000  1
