# generated using pymatgen
data_Zr12Pa8Si15Se
_symmetry_space_group_name_H-M   'P 1'
_cell_length_a   7.33176990
_cell_length_b   7.31022923
_cell_length_c   13.44819400
_cell_angle_alpha   89.87735473
_cell_angle_beta   89.58222881
_cell_angle_gamma   89.93569215
_symmetry_Int_Tables_number   1
_chemical_formula_structural   Zr12Pa8Si15Se
_chemical_formula_sum   'Zr12 Pa8 Si15 Se1'
_cell_volume   720.76050585
_cell_formula_units_Z   1
loop_
 _symmetry_equiv_pos_site_id
 _symmetry_equiv_pos_as_xyz
  1  'x, y, z'
loop_
 _atom_site_type_symbol
 _atom_site_label
 _atom_site_symmetry_multiplicity
 _atom_site_fract_x
 _atom_site_fract_y
 _atom_site_fract_z
 _atom_site_occupancy
  Zr  Zr0  1  0.326908  0.328016  0.000472  1
  Zr  Zr1  1  0.172643  0.827212  0.249553  1
  Zr  Zr2  1  0.825146  0.172992  0.750189  1
  Zr  Zr3  1  0.670436  0.671916  0.500338  1
  Zr  Zr4  1  0.154073  0.002397  0.873584  1
  Zr  Zr5  1  0.500152  0.649532  0.125169  1
  Zr  Zr6  1  0.498635  0.349469  0.627713  1
  Zr  Zr7  1  0.654294  0.504925  0.876933  1
  Zr  Zr8  1  0.348724  0.499099  0.375355  1
  Zr  Zr9  1  0.847786  0.000686  0.374655  1
  Zr  Zr10  1  0.001026  0.149014  0.125014  1
  Zr  Zr11  1  0.995168  0.844800  0.622803  1
  Pa  Pa12  1  0.345667  0.000154  0.462913  1
  Pa  Pa13  1  0.497214  0.846671  0.716736  1
  Pa  Pa14  1  0.501625  0.154549  0.214981  1
  Pa  Pa15  1  0.843227  0.495853  0.285080  1
  Pa  Pa16  1  0.157648  0.503224  0.784101  1
  Pa  Pa17  1  0.660750  0.994716  0.967182  1
  Pa  Pa18  1  0.995205  0.350266  0.531813  1
  Pa  Pa19  1  0.998554  0.656032  0.035158  1
  Si  Si20  1  0.362193  0.707224  0.931246  1
  Si  Si21  1  0.635263  0.293110  0.432521  1
  Si  Si22  1  0.708001  0.361550  0.069388  1
  Si  Si23  1  0.293047  0.637282  0.569460  1
  Si  Si24  1  0.792963  0.861076  0.182085  1
  Si  Si25  1  0.137671  0.205804  0.318522  1
  Si  Si26  1  0.864484  0.795533  0.817258  1
  Si  Si27  1  0.296436  0.952564  0.062894  1
  Si  Si28  1  0.547381  0.794288  0.313334  1
  Si  Si29  1  0.468746  0.207216  0.822091  1
  Si  Si30  1  0.794136  0.547793  0.687180  1
  Si  Si31  1  0.203948  0.452314  0.186711  1
  Si  Si32  1  0.702846  0.047441  0.563246  1
  Si  Si33  1  0.954309  0.295849  0.936500  1
  Si  Si34  1  0.045994  0.705125  0.434928  1
  Se  Se35  1  0.197702  0.134313  0.672894  1
