# generated using pymatgen
data_Lu3Si5
_symmetry_space_group_name_H-M   'P 1'
_cell_length_a   6.54176600
_cell_length_b   6.54176640
_cell_length_c   8.10175800
_cell_angle_alpha   90.00000000
_cell_angle_beta   90.00000000
_cell_angle_gamma   119.99999799
_symmetry_Int_Tables_number   1
_chemical_formula_structural   Lu3Si5
_chemical_formula_sum   'Lu6 Si10'
_cell_volume   300.26170340
_cell_formula_units_Z   2
loop_
 _symmetry_equiv_pos_site_id
 _symmetry_equiv_pos_as_xyz
  1  'x, y, z'
loop_
 _atom_site_type_symbol
 _atom_site_label
 _atom_site_symmetry_multiplicity
 _atom_site_fract_x
 _atom_site_fract_y
 _atom_site_fract_z
 _atom_site_occupancy
  Lu  Lu0  1  0.331029  0.000000  0.000000  1
  Lu  Lu1  1  0.331029  0.000000  0.500000  1
  Lu  Lu2  1  0.000000  0.331029  0.500000  1
  Lu  Lu3  1  0.000000  0.331029  0.000000  1
  Lu  Lu4  1  0.668971  0.668971  0.000000  1
  Lu  Lu5  1  0.668971  0.668971  0.500000  1
  Si  Si6  1  0.395231  0.331103  0.250000  1
  Si  Si7  1  0.668897  0.064129  0.250000  1
  Si  Si8  1  0.935871  0.604769  0.250000  1
  Si  Si9  1  0.604769  0.935871  0.750000  1
  Si  Si10  1  0.000000  0.000000  0.250000  1
  Si  Si11  1  0.666667  0.333333  0.750000  1
  Si  Si12  1  0.064129  0.668897  0.750000  1
  Si  Si13  1  0.331103  0.395231  0.750000  1
  Si  Si14  1  0.333333  0.666667  0.250000  1
  Si  Si15  1  0.000000  0.000000  0.750000  1
