# generated using pymatgen
data_CeEr(Si7Ir3)2
_symmetry_space_group_name_H-M   'P 1'
_cell_length_a   8.07297958
_cell_length_b   8.07298014
_cell_length_c   8.07297969
_cell_angle_alpha   56.52204289
_cell_angle_beta   56.52203644
_cell_angle_gamma   56.52204472
_symmetry_Int_Tables_number   1
_chemical_formula_structural   CeEr(Si7Ir3)2
_chemical_formula_sum   'Ce1 Er1 Si14 Ir6'
_cell_volume   342.13316736
_cell_formula_units_Z   1
loop_
 _symmetry_equiv_pos_site_id
 _symmetry_equiv_pos_as_xyz
  1  'x, y, z'
loop_
 _atom_site_type_symbol
 _atom_site_label
 _atom_site_symmetry_multiplicity
 _atom_site_fract_x
 _atom_site_fract_y
 _atom_site_fract_z
 _atom_site_occupancy
  Ce  Ce0  1  0.500000  0.500000  0.500000  1
  Er  Er1  1  0.000000  0.000000  0.000000  1
  Si  Si2  1  0.851392  0.063966  0.672811  1
  Si  Si3  1  0.672811  0.851392  0.063966  1
  Si  Si4  1  0.063966  0.672811  0.851392  1
  Si  Si5  1  0.650065  0.827914  0.435644  1
  Si  Si6  1  0.250165  0.250165  0.250165  1
  Si  Si7  1  0.749835  0.749835  0.749835  1
  Si  Si8  1  0.172086  0.564356  0.349935  1
  Si  Si9  1  0.564356  0.349935  0.172086  1
  Si  Si10  1  0.349935  0.172086  0.564356  1
  Si  Si11  1  0.936034  0.327189  0.148608  1
  Si  Si12  1  0.327189  0.148608  0.936034  1
  Si  Si13  1  0.148608  0.936034  0.327189  1
  Si  Si14  1  0.827914  0.435644  0.650065  1
  Si  Si15  1  0.435644  0.650065  0.827914  1
  Ir  Ir16  1  0.751553  0.068178  0.429139  1
  Ir  Ir17  1  0.429139  0.751553  0.068178  1
  Ir  Ir18  1  0.068178  0.429139  0.751553  1
  Ir  Ir19  1  0.248447  0.931822  0.570861  1
  Ir  Ir20  1  0.570861  0.248447  0.931822  1
  Ir  Ir21  1  0.931822  0.570861  0.248447  1
