# generated using pymatgen
data_SnW2Br13
_symmetry_space_group_name_H-M   'P 1'
_cell_length_a   12.25126800
_cell_length_b   10.90548103
_cell_length_c   11.56732800
_cell_angle_alpha   86.04706120
_cell_angle_beta   90.00000000
_cell_angle_gamma   90.00000000
_symmetry_Int_Tables_number   1
_chemical_formula_structural   SnW2Br13
_chemical_formula_sum   'Sn2 W4 Br26'
_cell_volume   1541.78744306
_cell_formula_units_Z   2
loop_
 _symmetry_equiv_pos_site_id
 _symmetry_equiv_pos_as_xyz
  1  'x, y, z'
loop_
 _atom_site_type_symbol
 _atom_site_label
 _atom_site_symmetry_multiplicity
 _atom_site_fract_x
 _atom_site_fract_y
 _atom_site_fract_z
 _atom_site_occupancy
  Sn  Sn0  1  0.250000  0.260977  0.499418  1
  Sn  Sn1  1  0.750000  0.739023  0.500582  1
  W  W2  1  0.250000  0.824543  0.080155  1
  W  W3  1  0.750000  0.175457  0.919845  1
  W  W4  1  0.250000  0.690733  0.881589  1
  W  W5  1  0.750000  0.309267  0.118411  1
  Br  Br6  1  0.585184  0.825136  0.589835  1
  Br  Br7  1  0.085184  0.174864  0.410165  1
  Br  Br8  1  0.750000  0.416333  0.907915  1
  Br  Br9  1  0.250000  0.583667  0.092085  1
  Br  Br10  1  0.918463  0.185483  0.055011  1
  Br  Br11  1  0.418463  0.814517  0.944989  1
  Br  Br12  1  0.081537  0.814517  0.944989  1
  Br  Br13  1  0.581537  0.185483  0.055011  1
  Br  Br14  1  0.750000  0.188802  0.303121  1
  Br  Br15  1  0.250000  0.811198  0.696879  1
  Br  Br16  1  0.889702  0.457694  0.175411  1
  Br  Br17  1  0.389702  0.542306  0.824589  1
  Br  Br18  1  0.110298  0.542306  0.824589  1
  Br  Br19  1  0.610298  0.457694  0.175411  1
  Br  Br20  1  0.750000  0.952016  0.952916  1
  Br  Br21  1  0.250000  0.047984  0.047084  1
  Br  Br22  1  0.889675  0.180099  0.764369  1
  Br  Br23  1  0.389675  0.819901  0.235631  1
  Br  Br24  1  0.110325  0.819901  0.235631  1
  Br  Br25  1  0.610325  0.180099  0.764369  1
  Br  Br26  1  0.750000  0.795823  0.289546  1
  Br  Br27  1  0.250000  0.204177  0.710454  1
  Br  Br28  1  0.750000  0.512282  0.535020  1
  Br  Br29  1  0.250000  0.487718  0.464980  1
  Br  Br30  1  0.914816  0.825136  0.589835  1
  Br  Br31  1  0.414816  0.174864  0.410165  1
