# generated using pymatgen
data_DyY3(Al3Ir)6
_symmetry_space_group_name_H-M   'P 1'
_cell_length_a   7.55768920
_cell_length_b   7.55791294
_cell_length_c   9.49515500
_cell_angle_alpha   90.00000000
_cell_angle_beta   90.00000000
_cell_angle_gamma   119.60247024
_symmetry_Int_Tables_number   1
_chemical_formula_structural   DyY3(Al3Ir)6
_chemical_formula_sum   'Dy1 Y3 Al18 Ir6'
_cell_volume   471.57349567
_cell_formula_units_Z   1
loop_
 _symmetry_equiv_pos_site_id
 _symmetry_equiv_pos_as_xyz
  1  'x, y, z'
loop_
 _atom_site_type_symbol
 _atom_site_label
 _atom_site_symmetry_multiplicity
 _atom_site_fract_x
 _atom_site_fract_y
 _atom_site_fract_z
 _atom_site_occupancy
  Dy  Dy0  1  0.329709  0.005145  0.250000  1
  Y  Y1  1  0.994731  0.670233  0.750000  1
  Y  Y2  1  0.005237  0.329733  0.250000  1
  Y  Y3  1  0.670288  0.994763  0.750000  1
  Al  Al4  1  0.128130  0.128138  0.750000  1
  Al  Al5  1  0.872015  0.871827  0.250000  1
  Al  Al6  1  0.001063  0.334830  0.573261  1
  Al  Al7  1  0.999044  0.665260  0.426563  1
  Al  Al8  1  0.999044  0.665260  0.073437  1
  Al  Al9  1  0.334823  0.001084  0.926875  1
  Al  Al10  1  0.001063  0.334830  0.926739  1
  Al  Al11  1  0.665079  0.998951  0.073444  1
  Al  Al12  1  0.665079  0.998951  0.426556  1
  Al  Al13  1  0.334823  0.001084  0.573125  1
  Al  Al14  1  0.333590  0.333500  0.052174  1
  Al  Al15  1  0.666406  0.666410  0.948028  1
  Al  Al16  1  0.666406  0.666410  0.551972  1
  Al  Al17  1  0.333590  0.333500  0.447826  1
  Al  Al18  1  0.338866  0.547406  0.750000  1
  Al  Al19  1  0.660898  0.452414  0.250000  1
  Al  Al20  1  0.547407  0.338861  0.750000  1
  Al  Al21  1  0.452632  0.661321  0.250000  1
  Ir  Ir22  1  0.671822  0.328044  0.499951  1
  Ir  Ir23  1  0.328117  0.671984  0.499927  1
  Ir  Ir24  1  0.328117  0.671984  0.000073  1
  Ir  Ir25  1  0.671822  0.328044  0.000049  1
  Ir  Ir26  1  0.000100  0.000015  0.499922  1
  Ir  Ir27  1  0.000100  0.000015  0.000078  1
