# generated using pymatgen
data_Ho12InTc3Te
_symmetry_space_group_name_H-M   'P 1'
_cell_length_a   8.53549334
_cell_length_b   8.53549422
_cell_length_c   8.53549500
_cell_angle_alpha   110.96206517
_cell_angle_beta   108.61340034
_cell_angle_gamma   108.84864055
_symmetry_Int_Tables_number   1
_chemical_formula_structural   Ho12InTc3Te
_chemical_formula_sum   'Ho12 In1 Tc3 Te1'
_cell_volume   478.45502793
_cell_formula_units_Z   1
loop_
 _symmetry_equiv_pos_site_id
 _symmetry_equiv_pos_as_xyz
  1  'x, y, z'
loop_
 _atom_site_type_symbol
 _atom_site_label
 _atom_site_symmetry_multiplicity
 _atom_site_fract_x
 _atom_site_fract_y
 _atom_site_fract_z
 _atom_site_occupancy
  Ho  Ho0  1  0.326200  0.317811  0.644012  1
  Ho  Ho1  1  0.673800  0.682189  0.355988  1
  Ho  Ho2  1  0.673800  0.317811  0.991612  1
  Ho  Ho3  1  0.326200  0.682189  0.008388  1
  Ho  Ho4  1  0.189014  0.432050  0.243036  1
  Ho  Ho5  1  0.810986  0.567950  0.756964  1
  Ho  Ho6  1  0.189014  0.945978  0.756964  1
  Ho  Ho7  1  0.944141  0.181185  0.762958  1
  Ho  Ho8  1  0.810986  0.054022  0.243036  1
  Ho  Ho9  1  0.055859  0.818815  0.237042  1
  Ho  Ho10  1  0.418228  0.181185  0.237042  1
  Ho  Ho11  1  0.581772  0.818815  0.762958  1
  In  In12  1  0.500000  0.000000  0.500000  1
  Tc  Tc13  1  0.341235  0.341235  0.000000  1
  Tc  Tc14  1  0.658765  0.658765  0.000000  1
  Tc  Tc15  1  0.000000  0.000000  0.000000  1
  Te  Te16  1  0.000000  0.500000  0.500000  1
