# generated using pymatgen
data_Nb12Ga9Tc3N4
_symmetry_space_group_name_H-M   'P 1'
_cell_length_a   8.31939889
_cell_length_b   8.32757039
_cell_length_c   8.32757000
_cell_angle_alpha   60.00000155
_cell_angle_beta   59.96750459
_cell_angle_gamma   59.96750364
_symmetry_Int_Tables_number   1
_chemical_formula_structural   Nb12Ga9Tc3N4
_chemical_formula_sum   'Nb12 Ga9 Tc3 N4'
_cell_volume   407.75572775
_cell_formula_units_Z   1
loop_
 _symmetry_equiv_pos_site_id
 _symmetry_equiv_pos_as_xyz
  1  'x, y, z'
loop_
 _atom_site_type_symbol
 _atom_site_label
 _atom_site_symmetry_multiplicity
 _atom_site_fract_x
 _atom_site_fract_y
 _atom_site_fract_z
 _atom_site_occupancy
  Nb  Nb0  1  0.809896  0.807183  0.191460  1
  Nb  Nb1  1  0.192963  0.195003  0.806017  1
  Nb  Nb2  1  0.809896  0.191460  0.807183  1
  Nb  Nb3  1  0.192963  0.806017  0.195003  1
  Nb  Nb4  1  0.192963  0.806017  0.806017  1
  Nb  Nb5  1  0.809896  0.191460  0.191460  1
  Nb  Nb6  1  0.440104  0.442817  0.058540  1
  Nb  Nb7  1  0.057037  0.054997  0.443983  1
  Nb  Nb8  1  0.440104  0.058540  0.442817  1
  Nb  Nb9  1  0.057037  0.443983  0.054997  1
  Nb  Nb10  1  0.057037  0.443983  0.443983  1
  Nb  Nb11  1  0.440104  0.058540  0.058540  1
  Ga  Ga12  1  0.125000  0.625000  0.625000  1
  Ga  Ga13  1  0.764387  0.411871  0.411871  1
  Ga  Ga14  1  0.418178  0.762556  0.409634  1
  Ga  Ga15  1  0.418178  0.409634  0.762556  1
  Ga  Ga16  1  0.418178  0.409634  0.409634  1
  Ga  Ga17  1  0.485613  0.838129  0.838129  1
  Ga  Ga18  1  0.831822  0.487444  0.840366  1
  Ga  Ga19  1  0.831822  0.840366  0.487444  1
  Ga  Ga20  1  0.831822  0.840366  0.840366  1
  Tc  Tc21  1  0.625000  0.125000  0.625000  1
  Tc  Tc22  1  0.625000  0.625000  0.125000  1
  Tc  Tc23  1  0.625000  0.625000  0.625000  1
  N  N24  1  0.625000  0.125000  0.125000  1
  N  N25  1  0.125000  0.625000  0.125000  1
  N  N26  1  0.125000  0.125000  0.625000  1
  N  N27  1  0.125000  0.125000  0.125000  1
