# generated using pymatgen
data_Ti8Mn4Os3Pt
_symmetry_space_group_name_H-M   'P 1'
_cell_length_a   6.08801700
_cell_length_b   4.32464200
_cell_length_c   8.63946400
_cell_angle_alpha   90.00000000
_cell_angle_beta   89.99964213
_cell_angle_gamma   90.00000000
_symmetry_Int_Tables_number   1
_chemical_formula_structural   Ti8Mn4Os3Pt
_chemical_formula_sum   'Ti8 Mn4 Os3 Pt1'
_cell_volume   227.46407621
_cell_formula_units_Z   1
loop_
 _symmetry_equiv_pos_site_id
 _symmetry_equiv_pos_as_xyz
  1  'x, y, z'
loop_
 _atom_site_type_symbol
 _atom_site_label
 _atom_site_symmetry_multiplicity
 _atom_site_fract_x
 _atom_site_fract_y
 _atom_site_fract_z
 _atom_site_occupancy
  Ti  Ti0  1  0.993197  0.749999  0.125008  1
  Ti  Ti1  1  0.506815  0.749999  0.125014  1
  Ti  Ti2  1  0.996849  0.250000  0.379189  1
  Ti  Ti3  1  0.503174  0.250000  0.379196  1
  Ti  Ti4  1  0.499146  0.749999  0.624979  1
  Ti  Ti5  1  0.000826  0.749999  0.624985  1
  Ti  Ti6  1  0.503181  0.250000  0.870792  1
  Ti  Ti7  1  0.996801  0.250000  0.870796  1
  Mn  Mn8  1  0.750011  0.250000  0.124994  1
  Mn  Mn9  1  0.250019  0.749999  0.373604  1
  Mn  Mn10  1  0.750004  0.250000  0.625023  1
  Mn  Mn11  1  0.249987  0.749999  0.876431  1
  Os  Os12  1  0.750002  0.749999  0.374533  1
  Os  Os13  1  0.249998  0.250000  0.624998  1
  Os  Os14  1  0.749984  0.749999  0.875465  1
  Pt  Pt15  1  0.250010  0.250000  0.124992  1
