# generated using pymatgen
data_Nd4Ga18RePd5
_symmetry_space_group_name_H-M   'P 1'
_cell_length_a   7.73080020
_cell_length_b   7.73092833
_cell_length_c   9.76501837
_cell_angle_alpha   90.20422650
_cell_angle_beta   90.20510847
_cell_angle_gamma   119.81281345
_symmetry_Int_Tables_number   1
_chemical_formula_structural   Nd4Ga18RePd5
_chemical_formula_sum   'Nd4 Ga18 Re1 Pd5'
_cell_volume   506.36637437
_cell_formula_units_Z   1
loop_
 _symmetry_equiv_pos_site_id
 _symmetry_equiv_pos_as_xyz
  1  'x, y, z'
loop_
 _atom_site_type_symbol
 _atom_site_label
 _atom_site_symmetry_multiplicity
 _atom_site_fract_x
 _atom_site_fract_y
 _atom_site_fract_z
 _atom_site_occupancy
  Nd  Nd0  1  0.997500  0.669363  0.248673  1
  Nd  Nd1  1  0.002500  0.330637  0.751327  1
  Nd  Nd2  1  0.669360  0.997494  0.248671  1
  Nd  Nd3  1  0.330640  0.002506  0.751329  1
  Ga  Ga4  1  0.130182  0.130184  0.253075  1
  Ga  Ga5  1  0.869818  0.869816  0.746925  1
  Ga  Ga6  1  0.003245  0.335029  0.079612  1
  Ga  Ga7  1  0.996755  0.664971  0.920388  1
  Ga  Ga8  1  0.999308  0.669557  0.575125  1
  Ga  Ga9  1  0.330436  0.000689  0.424873  1
  Ga  Ga10  1  0.000692  0.330443  0.424875  1
  Ga  Ga11  1  0.669564  0.999311  0.575127  1
  Ga  Ga12  1  0.664979  0.996759  0.920386  1
  Ga  Ga13  1  0.335021  0.003241  0.079614  1
  Ga  Ga14  1  0.329856  0.329852  0.559799  1
  Ga  Ga15  1  0.670144  0.670148  0.440201  1
  Ga  Ga16  1  0.663805  0.663803  0.064944  1
  Ga  Ga17  1  0.336195  0.336197  0.935056  1
  Ga  Ga18  1  0.340431  0.543657  0.250596  1
  Ga  Ga19  1  0.659569  0.456343  0.749404  1
  Ga  Ga20  1  0.543654  0.340432  0.250594  1
  Ga  Ga21  1  0.456346  0.659568  0.749406  1
  Re  Re22  1  0.000000  0.000000  0.500000  1
  Pd  Pd23  1  0.670610  0.329387  0.999998  1
  Pd  Pd24  1  0.329390  0.670613  0.000002  1
  Pd  Pd25  1  0.329655  0.670357  0.500001  1
  Pd  Pd26  1  0.670345  0.329643  0.499999  1
  Pd  Pd27  1  0.000000  0.000000  0.000000  1
