# generated using pymatgen
data_Pa6Ga2Re
_symmetry_space_group_name_H-M   'P 1'
_cell_length_a   8.40805700
_cell_length_b   8.40805765
_cell_length_c   3.32355600
_cell_angle_alpha   90.00000000
_cell_angle_beta   90.00000000
_cell_angle_gamma   119.99999350
_symmetry_Int_Tables_number   1
_chemical_formula_structural   Pa6Ga2Re
_chemical_formula_sum   'Pa6 Ga2 Re1'
_cell_volume   203.48152744
_cell_formula_units_Z   1
loop_
 _symmetry_equiv_pos_site_id
 _symmetry_equiv_pos_as_xyz
  1  'x, y, z'
loop_
 _atom_site_type_symbol
 _atom_site_label
 _atom_site_symmetry_multiplicity
 _atom_site_fract_x
 _atom_site_fract_y
 _atom_site_fract_z
 _atom_site_occupancy
  Pa  Pa0  1  0.273406  0.000000  0.500000  1
  Pa  Pa1  1  0.000000  0.273406  0.500000  1
  Pa  Pa2  1  0.726594  0.726594  0.500000  1
  Pa  Pa3  1  0.593916  0.000000  0.000000  1
  Pa  Pa4  1  0.000000  0.593916  0.000000  1
  Pa  Pa5  1  0.406084  0.406084  0.000000  1
  Ga  Ga6  1  0.333333  0.666667  0.500000  1
  Ga  Ga7  1  0.666667  0.333333  0.500000  1
  Re  Re8  1  0.000000  0.000000  0.000000  1
