# generated using pymatgen
data_MoPd3(SeO3)8
_symmetry_space_group_name_H-M   'P 1'
_cell_length_a   8.11440805
_cell_length_b   8.11440709
_cell_length_c   8.11440843
_cell_angle_alpha   90.38028153
_cell_angle_beta   89.61971826
_cell_angle_gamma   90.38028366
_symmetry_Int_Tables_number   1
_chemical_formula_structural   MoPd3(SeO3)8
_chemical_formula_sum   'Mo1 Pd3 Se8 O24'
_cell_volume   534.24679711
_cell_formula_units_Z   1
loop_
 _symmetry_equiv_pos_site_id
 _symmetry_equiv_pos_as_xyz
  1  'x, y, z'
loop_
 _atom_site_type_symbol
 _atom_site_label
 _atom_site_symmetry_multiplicity
 _atom_site_fract_x
 _atom_site_fract_y
 _atom_site_fract_z
 _atom_site_occupancy
  Mo  Mo0  1  0.000000  0.500000  0.500000  1
  Pd  Pd1  1  0.500000  0.500000  0.000000  1
  Pd  Pd2  1  0.500000  0.000000  0.500000  1
  Pd  Pd3  1  0.000000  0.000000  0.000000  1
  Se  Se4  1  0.828218  0.151527  0.674842  1
  Se  Se5  1  0.171782  0.848473  0.325158  1
  Se  Se6  1  0.651527  0.674842  0.671782  1
  Se  Se7  1  0.174842  0.671782  0.848473  1
  Se  Se8  1  0.331361  0.168639  0.831361  1
  Se  Se9  1  0.825158  0.328218  0.151527  1
  Se  Se10  1  0.668639  0.831361  0.168639  1
  Se  Se11  1  0.348473  0.325158  0.328218  1
  O  O12  1  0.247380  0.458935  0.461723  1
  O  O13  1  0.968981  0.246807  0.010237  1
  O  O14  1  0.038277  0.747380  0.458935  1
  O  O15  1  0.470201  0.253758  0.973690  1
  O  O16  1  0.253193  0.989763  0.468981  1
  O  O17  1  0.510237  0.531019  0.753193  1
  O  O18  1  0.972947  0.013132  0.753312  1
  O  O19  1  0.529799  0.746242  0.026310  1
  O  O20  1  0.526310  0.970201  0.253758  1
  O  O21  1  0.473690  0.029799  0.746242  1
  O  O22  1  0.753758  0.973690  0.029799  1
  O  O23  1  0.253312  0.527053  0.986868  1
  O  O24  1  0.041065  0.538277  0.747380  1
  O  O25  1  0.027053  0.986868  0.246688  1
  O  O26  1  0.246242  0.026310  0.970201  1
  O  O27  1  0.489763  0.468981  0.246807  1
  O  O28  1  0.752620  0.541065  0.538277  1
  O  O29  1  0.958935  0.461723  0.252620  1
  O  O30  1  0.031019  0.753193  0.989763  1
  O  O31  1  0.486868  0.246688  0.472947  1
  O  O32  1  0.513132  0.753312  0.527053  1
  O  O33  1  0.961723  0.252620  0.541065  1
  O  O34  1  0.746807  0.010237  0.531019  1
  O  O35  1  0.746688  0.472947  0.013132  1
