# generated using pymatgen
data_Pr(CuPd)6
_symmetry_space_group_name_H-M   'P 1'
_cell_length_a   6.72595627
_cell_length_b   6.72595718
_cell_length_c   6.72595638
_cell_angle_alpha   136.24258573
_cell_angle_beta   97.03935872
_cell_angle_gamma   98.92691071
_symmetry_Int_Tables_number   1
_chemical_formula_structural   Pr(CuPd)6
_chemical_formula_sum   'Pr1 Cu6 Pd6'
_cell_volume   195.24482190
_cell_formula_units_Z   1
loop_
 _symmetry_equiv_pos_site_id
 _symmetry_equiv_pos_as_xyz
  1  'x, y, z'
loop_
 _atom_site_type_symbol
 _atom_site_label
 _atom_site_symmetry_multiplicity
 _atom_site_fract_x
 _atom_site_fract_y
 _atom_site_fract_z
 _atom_site_occupancy
  Pr  Pr0  1  0.000000  0.000000  0.000000  1
  Cu  Cu1  1  0.000000  0.000000  0.500000  1
  Cu  Cu2  1  0.000000  0.500000  0.000000  1
  Cu  Cu3  1  0.500000  0.500000  0.500000  1
  Cu  Cu4  1  0.500000  0.000000  0.000000  1
  Cu  Cu5  1  0.235989  0.500000  0.735989  1
  Cu  Cu6  1  0.764011  0.500000  0.264011  1
  Pd  Pd7  1  0.651703  0.000000  0.651703  1
  Pd  Pd8  1  0.348297  0.000000  0.348297  1
  Pd  Pd9  1  0.654534  0.654534  0.000000  1
  Pd  Pd10  1  0.345466  0.345466  0.000000  1
  Pd  Pd11  1  0.196088  0.696088  0.500000  1
  Pd  Pd12  1  0.803912  0.303912  0.500000  1
