# generated using pymatgen
data_YLu2Mg3Ga2Ag
_symmetry_space_group_name_H-M   'P 1'
_cell_length_a   7.31744000
_cell_length_b   7.33939695
_cell_length_c   4.30873600
_cell_angle_alpha   90.00000000
_cell_angle_beta   90.00000000
_cell_angle_gamma   119.90108608
_symmetry_Int_Tables_number   1
_chemical_formula_structural   YLu2Mg3Ga2Ag
_chemical_formula_sum   'Y1 Lu2 Mg3 Ga2 Ag1'
_cell_volume   200.60052838
_cell_formula_units_Z   1
loop_
 _symmetry_equiv_pos_site_id
 _symmetry_equiv_pos_as_xyz
  1  'x, y, z'
loop_
 _atom_site_type_symbol
 _atom_site_label
 _atom_site_symmetry_multiplicity
 _atom_site_fract_x
 _atom_site_fract_y
 _atom_site_fract_z
 _atom_site_occupancy
  Y  Y0  1  0.574434  0.000000  0.500000  1
  Lu  Lu1  1  0.999690  0.575464  0.500000  1
  Lu  Lu2  1  0.424225  0.424536  0.500000  1
  Mg  Mg3  1  0.000514  0.247330  0.000000  1
  Mg  Mg4  1  0.753183  0.752670  0.000000  1
  Mg  Mg5  1  0.246047  0.000000  0.000000  1
  Ga  Ga6  1  0.332031  0.664645  0.000000  1
  Ga  Ga7  1  0.667386  0.335355  0.000000  1
  Ag  Ag8  1  0.002490  0.000000  0.500000  1
