# generated using pymatgen
data_Sm4Ga10PdRh5
_symmetry_space_group_name_H-M   'P 1'
_cell_length_a   8.66134343
_cell_length_b   8.65779250
_cell_length_c   5.74587200
_cell_angle_alpha   70.60364925
_cell_angle_beta   70.61286414
_cell_angle_gamma   95.82752710
_symmetry_Int_Tables_number   1
_chemical_formula_structural   Sm4Ga10PdRh5
_chemical_formula_sum   'Sm4 Ga10 Pd1 Rh5'
_cell_volume   372.35499937
_cell_formula_units_Z   1
loop_
 _symmetry_equiv_pos_site_id
 _symmetry_equiv_pos_as_xyz
  1  'x, y, z'
loop_
 _atom_site_type_symbol
 _atom_site_label
 _atom_site_symmetry_multiplicity
 _atom_site_fract_x
 _atom_site_fract_y
 _atom_site_fract_z
 _atom_site_occupancy
  Sm  Sm0  1  0.862640  0.589413  0.774765  1
  Sm  Sm1  1  0.412611  0.135939  0.724787  1
  Sm  Sm2  1  0.134130  0.409225  0.227960  1
  Sm  Sm3  1  0.589817  0.866015  0.272660  1
  Ga  Ga4  1  0.079935  0.257361  0.831363  1
  Ga  Ga5  1  0.737270  0.917406  0.672945  1
  Ga  Ga6  1  0.917214  0.737375  0.173128  1
  Ga  Ga7  1  0.262576  0.082768  0.326687  1
  Ga  Ga8  1  0.206015  0.797950  0.750322  1
  Ga  Ga9  1  0.794479  0.205509  0.249761  1
  Ga  Ga10  1  0.503711  0.500384  0.750332  1
  Ga  Ga11  1  0.502995  0.501364  0.245391  1
  Ga  Ga12  1  0.793688  0.206483  0.750198  1
  Ga  Ga13  1  0.206661  0.796873  0.245822  1
  Pd  Pd14  1  0.258824  0.554887  0.594483  1
  Rh  Rh15  1  0.443081  0.738550  0.907975  1
  Rh  Rh16  1  0.739622  0.444065  0.406813  1
  Rh  Rh17  1  0.555851  0.260540  0.092990  1
  Rh  Rh18  1  0.999114  0.999441  0.750161  1
  Rh  Rh19  1  0.999764  0.998453  0.251457  1
