# generated using pymatgen
data_Er2Ga5Ir3
_symmetry_space_group_name_H-M   'P 1'
_cell_length_a   5.68985935
_cell_length_b   8.59397243
_cell_length_c   8.57543277
_cell_angle_alpha   97.33682302
_cell_angle_beta   109.32446005
_cell_angle_gamma   109.30160169
_symmetry_Int_Tables_number   1
_chemical_formula_structural   Er2Ga5Ir3
_chemical_formula_sum   'Er4 Ga10 Ir6'
_cell_volume   359.98382088
_cell_formula_units_Z   2
loop_
 _symmetry_equiv_pos_site_id
 _symmetry_equiv_pos_as_xyz
  1  'x, y, z'
loop_
 _atom_site_type_symbol
 _atom_site_label
 _atom_site_symmetry_multiplicity
 _atom_site_fract_x
 _atom_site_fract_y
 _atom_site_fract_z
 _atom_site_occupancy
  Er  Er0  1  0.774293  0.418596  0.128301  1
  Er  Er1  1  0.274142  0.128140  0.418513  1
  Er  Er2  1  0.725840  0.871815  0.581491  1
  Er  Er3  1  0.225679  0.581359  0.871709  1
  Ga  Ga4  1  0.182189  0.264563  0.098872  1
  Ga  Ga5  1  0.249965  0.800080  0.199760  1
  Ga  Ga6  1  0.749986  0.799765  0.200164  1
  Ga  Ga7  1  0.682071  0.098825  0.264542  1
  Ga  Ga8  1  0.749864  0.500423  0.499666  1
  Ga  Ga9  1  0.250131  0.499678  0.500405  1
  Ga  Ga10  1  0.317890  0.901134  0.735477  1
  Ga  Ga11  1  0.250079  0.200221  0.799814  1
  Ga  Ga12  1  0.750008  0.199876  0.800178  1
  Ga  Ga13  1  0.817781  0.735455  0.901120  1
  Ir  Ir14  1  0.249932  0.000047  0.999903  1
  Ir  Ir15  1  0.411838  0.565781  0.259347  1
  Ir  Ir16  1  0.088289  0.740652  0.434254  1
  Ir  Ir17  1  0.911773  0.259358  0.565740  1
  Ir  Ir18  1  0.588215  0.434244  0.740637  1
  Ir  Ir19  1  0.750040  0.999988  0.000110  1
