# generated using pymatgen
data_La12MnTcI17
_symmetry_space_group_name_H-M   'P 1'
_cell_length_a   10.07304256
_cell_length_b   12.23220721
_cell_length_c   12.25629087
_cell_angle_alpha   73.45272860
_cell_angle_beta   74.18556070
_cell_angle_gamma   66.23515023
_symmetry_Int_Tables_number   1
_chemical_formula_structural   La12MnTcI17
_chemical_formula_sum   'La12 Mn1 Tc1 I17'
_cell_volume   1303.27973564
_cell_formula_units_Z   1
loop_
 _symmetry_equiv_pos_site_id
 _symmetry_equiv_pos_as_xyz
  1  'x, y, z'
loop_
 _atom_site_type_symbol
 _atom_site_label
 _atom_site_symmetry_multiplicity
 _atom_site_fract_x
 _atom_site_fract_y
 _atom_site_fract_z
 _atom_site_occupancy
  La  La0  1  0.453386  0.479276  0.327829  1
  La  La1  1  0.555993  0.672176  0.007155  1
  La  La2  1  0.285924  0.000489  0.090331  1
  La  La3  1  0.835793  0.282301  0.844335  1
  La  La4  1  0.412547  0.239286  0.726240  1
  La  La5  1  0.714590  0.004880  0.906476  1
  La  La6  1  0.549100  0.517985  0.673921  1
  La  La7  1  0.435866  0.328961  0.997600  1
  La  La8  1  0.597733  0.761527  0.277639  1
  La  La9  1  0.831852  0.186852  0.578942  1
  La  La10  1  0.178016  0.809465  0.416249  1
  La  La11  1  0.138846  0.714849  0.148945  1
  Mn  Mn12  1  0.646051  0.264855  0.792660  1
  Tc  Tc13  1  0.368262  0.737186  0.212061  1
  I  I14  1  0.057456  0.103524  0.319269  1
  I  I15  1  0.466189  0.944413  0.825057  1
  I  I16  1  0.426556  0.820405  0.532418  1
  I  I17  1  0.573312  0.179932  0.470600  1
  I  I18  1  0.853355  0.697359  0.045279  1
  I  I19  1  0.214053  0.419847  0.246030  1
  I  I20  1  0.684142  0.367119  0.103434  1
  I  I21  1  0.535449  0.057946  0.174356  1
  I  I22  1  0.744665  0.472387  0.414628  1
  I  I23  1  0.885892  0.785306  0.370858  1
  I  I24  1  0.943306  0.895357  0.678818  1
  I  I25  1  0.145241  0.301553  0.951538  1
  I  I26  1  0.313269  0.633449  0.895370  1
  I  I27  1  0.998957  0.000491  0.999780  1
  I  I28  1  0.113955  0.214906  0.629828  1
  I  I29  1  0.782943  0.579879  0.754603  1
  I  I30  1  0.257303  0.526035  0.587749  1
