# generated using pymatgen
data_Cu2GeMo3C
_symmetry_space_group_name_H-M   'P 1'
_cell_length_a   7.98411439
_cell_length_b   7.98411412
_cell_length_c   7.98411300
_cell_angle_alpha   60.00000052
_cell_angle_beta   60.00000161
_cell_angle_gamma   60.00000237
_symmetry_Int_Tables_number   1
_chemical_formula_structural   Cu2GeMo3C
_chemical_formula_sum   'Cu8 Ge4 Mo12 C4'
_cell_volume   359.88618733
_cell_formula_units_Z   4
loop_
 _symmetry_equiv_pos_site_id
 _symmetry_equiv_pos_as_xyz
  1  'x, y, z'
loop_
 _atom_site_type_symbol
 _atom_site_label
 _atom_site_symmetry_multiplicity
 _atom_site_fract_x
 _atom_site_fract_y
 _atom_site_fract_z
 _atom_site_occupancy
  Cu  Cu0  1  0.917037  0.917037  0.248890  1
  Cu  Cu1  1  0.332963  0.332963  0.332963  1
  Cu  Cu2  1  0.248890  0.917037  0.917037  1
  Cu  Cu3  1  0.332963  0.001110  0.332963  1
  Cu  Cu4  1  0.001110  0.332963  0.332963  1
  Cu  Cu5  1  0.332963  0.332963  0.001110  1
  Cu  Cu6  1  0.917037  0.917037  0.917037  1
  Cu  Cu7  1  0.917037  0.248890  0.917037  1
  Ge  Ge8  1  0.125000  0.125000  0.125000  1
  Ge  Ge9  1  0.625000  0.125000  0.125000  1
  Ge  Ge10  1  0.125000  0.125000  0.625000  1
  Ge  Ge11  1  0.125000  0.625000  0.125000  1
  Mo  Mo12  1  0.689024  0.310976  0.310976  1
  Mo  Mo13  1  0.939024  0.939024  0.560976  1
  Mo  Mo14  1  0.689024  0.689024  0.310976  1
  Mo  Mo15  1  0.689024  0.310976  0.689024  1
  Mo  Mo16  1  0.310976  0.689024  0.310976  1
  Mo  Mo17  1  0.560976  0.939024  0.560976  1
  Mo  Mo18  1  0.560976  0.939024  0.939024  1
  Mo  Mo19  1  0.939024  0.560976  0.560976  1
  Mo  Mo20  1  0.939024  0.560976  0.939024  1
  Mo  Mo21  1  0.310976  0.310976  0.689024  1
  Mo  Mo22  1  0.560976  0.560976  0.939024  1
  Mo  Mo23  1  0.310976  0.689024  0.689024  1
  C  C24  1  0.625000  0.625000  0.625000  1
  C  C25  1  0.625000  0.625000  0.125000  1
  C  C26  1  0.125000  0.625000  0.625000  1
  C  C27  1  0.625000  0.125000  0.625000  1
