# generated using pymatgen
data_Tb7Dy(InNi)2
_symmetry_space_group_name_H-M   'P 1'
_cell_length_a   9.62225454
_cell_length_b   9.62225532
_cell_length_c   9.65071000
_cell_angle_alpha   59.90212917
_cell_angle_beta   59.90212649
_cell_angle_gamma   59.85169673
_symmetry_Int_Tables_number   1
_chemical_formula_structural   Tb7Dy(InNi)2
_chemical_formula_sum   'Tb14 Dy2 In4 Ni4'
_cell_volume   630.18236986
_cell_formula_units_Z   2
loop_
 _symmetry_equiv_pos_site_id
 _symmetry_equiv_pos_as_xyz
  1  'x, y, z'
loop_
 _atom_site_type_symbol
 _atom_site_label
 _atom_site_symmetry_multiplicity
 _atom_site_fract_x
 _atom_site_fract_y
 _atom_site_fract_z
 _atom_site_occupancy
  Tb  Tb0  1  0.346792  0.956106  0.348552  1
  Tb  Tb1  1  0.956106  0.346792  0.348552  1
  Tb  Tb2  1  0.812303  0.189166  0.187474  1
  Tb  Tb3  1  0.189166  0.812303  0.811058  1
  Tb  Tb4  1  0.189166  0.812303  0.187474  1
  Tb  Tb5  1  0.812303  0.189166  0.811058  1
  Tb  Tb6  1  0.188835  0.188835  0.811165  1
  Tb  Tb7  1  0.812226  0.812226  0.187774  1
  Tb  Tb8  1  0.937357  0.563861  0.561919  1
  Tb  Tb9  1  0.563861  0.937357  0.936863  1
  Tb  Tb10  1  0.563861  0.937357  0.561919  1
  Tb  Tb11  1  0.937357  0.563861  0.936863  1
  Tb  Tb12  1  0.563437  0.563437  0.936563  1
  Tb  Tb13  1  0.937351  0.937351  0.562649  1
  Dy  Dy14  1  0.346280  0.346280  0.347773  1
  Dy  Dy15  1  0.346280  0.346280  0.959667  1
  In  In16  1  0.581779  0.581779  0.582943  1
  In  In17  1  0.581779  0.581779  0.253497  1
  In  In18  1  0.580436  0.255287  0.582137  1
  In  In19  1  0.255287  0.580436  0.582137  1
  Ni  Ni20  1  0.141901  0.141901  0.144140  1
  Ni  Ni21  1  0.141901  0.141901  0.572059  1
  Ni  Ni22  1  0.141260  0.572974  0.142883  1
  Ni  Ni23  1  0.572974  0.141260  0.142883  1
