# generated using pymatgen
data_Li2DyPaIr2
_symmetry_space_group_name_H-M   'P 1'
_cell_length_a   3.75454900
_cell_length_b   7.13111855
_cell_length_c   8.58878600
_cell_angle_alpha   92.91348936
_cell_angle_beta   90.00000000
_cell_angle_gamma   90.00000000
_symmetry_Int_Tables_number   1
_chemical_formula_structural   Li2DyPaIr2
_chemical_formula_sum   'Li4 Dy2 Pa2 Ir4'
_cell_volume   229.66006894
_cell_formula_units_Z   2
loop_
 _symmetry_equiv_pos_site_id
 _symmetry_equiv_pos_as_xyz
  1  'x, y, z'
loop_
 _atom_site_type_symbol
 _atom_site_label
 _atom_site_symmetry_multiplicity
 _atom_site_fract_x
 _atom_site_fract_y
 _atom_site_fract_z
 _atom_site_occupancy
  Li  Li0  1  0.250000  0.122046  0.941360  1
  Li  Li1  1  0.750000  0.878222  0.058662  1
  Li  Li2  1  0.250000  0.622270  0.552894  1
  Li  Li3  1  0.750000  0.377681  0.447179  1
  Dy  Dy4  1  0.250000  0.057065  0.319760  1
  Dy  Dy5  1  0.750000  0.942943  0.680287  1
  Pa  Pa6  1  0.250000  0.547583  0.190041  1
  Pa  Pa7  1  0.750000  0.452221  0.809653  1
  Ir  Ir8  1  0.750000  0.751760  0.357275  1
  Ir  Ir9  1  0.250000  0.248271  0.642780  1
  Ir  Ir10  1  0.750000  0.282960  0.119884  1
  Ir  Ir11  1  0.250000  0.716980  0.880227  1
