# generated using pymatgen
data_Ho19TmIr7Rh5
_symmetry_space_group_name_H-M   'P 1'
_cell_length_a   10.83787407
_cell_length_b   10.83811094
_cell_length_c   6.36053203
_cell_angle_alpha   89.99067163
_cell_angle_beta   89.99084170
_cell_angle_gamma   89.92342958
_symmetry_Int_Tables_number   1
_chemical_formula_structural   Ho19TmIr7Rh5
_chemical_formula_sum   'Ho19 Tm1 Ir7 Rh5'
_cell_volume   747.12064487
_cell_formula_units_Z   1
loop_
 _symmetry_equiv_pos_site_id
 _symmetry_equiv_pos_as_xyz
  1  'x, y, z'
loop_
 _atom_site_type_symbol
 _atom_site_label
 _atom_site_symmetry_multiplicity
 _atom_site_fract_x
 _atom_site_fract_y
 _atom_site_fract_z
 _atom_site_occupancy
  Ho  Ho0  1  0.290163  0.088373  0.378755  1
  Ho  Ho1  1  0.290423  0.911536  0.878121  1
  Ho  Ho2  1  0.708985  0.088035  0.877593  1
  Ho  Ho3  1  0.709006  0.909812  0.378882  1
  Ho  Ho4  1  0.588382  0.790134  0.878575  1
  Ho  Ho5  1  0.586965  0.210069  0.378413  1
  Ho  Ho6  1  0.411295  0.790092  0.378536  1
  Ho  Ho7  1  0.411401  0.209636  0.878213  1
  Ho  Ho8  1  0.210018  0.411651  0.621283  1
  Ho  Ho9  1  0.209732  0.588747  0.121576  1
  Ho  Ho10  1  0.790093  0.413012  0.121711  1
  Ho  Ho11  1  0.790195  0.588570  0.621656  1
  Ho  Ho12  1  0.911679  0.709843  0.121215  1
  Ho  Ho13  1  0.911916  0.291023  0.622453  1
  Ho  Ho14  1  0.088502  0.709583  0.621917  1
  Ho  Ho15  1  0.090149  0.290985  0.121072  1
  Ho  Ho16  1  0.999975  0.999765  0.499902  1
  Ho  Ho17  1  0.000221  0.000028  0.000094  1
  Ho  Ho18  1  0.499932  0.499754  0.999849  1
  Tm  Tm19  1  0.500230  0.500085  0.500142  1
  Ir  Ir20  1  0.845841  0.846692  0.750076  1
  Ir  Ir21  1  0.153332  0.154126  0.749958  1
  Ir  Ir22  1  0.154089  0.845906  0.249980  1
  Ir  Ir23  1  0.654407  0.345594  0.749472  1
  Ir  Ir24  1  0.653852  0.653442  0.250296  1
  Ir  Ir25  1  0.346565  0.346134  0.250755  1
  Ir  Ir26  1  0.346288  0.653725  0.749484  1
  Rh  Rh27  1  0.845820  0.154192  0.249994  1
  Rh  Rh28  1  0.500550  0.000231  0.123853  1
  Rh  Rh29  1  0.500440  0.000220  0.623222  1
  Rh  Rh30  1  0.999783  0.499569  0.876783  1
  Rh  Rh31  1  0.999771  0.499438  0.376171  1
