# generated using pymatgen
data_YbYVIr3
_symmetry_space_group_name_H-M   'P 1'
_cell_length_a   5.11881395
_cell_length_b   5.11881359
_cell_length_c   5.11881489
_cell_angle_alpha   65.96652894
_cell_angle_beta   65.96653345
_cell_angle_gamma   65.96653065
_symmetry_Int_Tables_number   1
_chemical_formula_structural   YbYVIr3
_chemical_formula_sum   'Yb1 Y1 V1 Ir3'
_cell_volume   107.08981275
_cell_formula_units_Z   1
loop_
 _symmetry_equiv_pos_site_id
 _symmetry_equiv_pos_as_xyz
  1  'x, y, z'
loop_
 _atom_site_type_symbol
 _atom_site_label
 _atom_site_symmetry_multiplicity
 _atom_site_fract_x
 _atom_site_fract_y
 _atom_site_fract_z
 _atom_site_occupancy
  Yb  Yb0  1  0.999439  0.999439  0.999439  1
  Y  Y1  1  0.250325  0.250325  0.250325  1
  V  V2  1  0.623707  0.623707  0.623707  1
  Ir  Ir3  1  0.626456  0.626456  0.123618  1
  Ir  Ir4  1  0.626456  0.123618  0.626456  1
  Ir  Ir5  1  0.123618  0.626456  0.626456  1
