# generated using pymatgen
data_Ho5FeRuO12
_symmetry_space_group_name_H-M   'P 1'
_cell_length_a   6.78826215
_cell_length_b   6.78826117
_cell_length_c   7.24290436
_cell_angle_alpha   74.43089535
_cell_angle_beta   74.43089513
_cell_angle_gamma   51.17987021
_symmetry_Int_Tables_number   1
_chemical_formula_structural   Ho5FeRuO12
_chemical_formula_sum   'Ho5 Fe1 Ru1 O12'
_cell_volume   248.25434724
_cell_formula_units_Z   1
loop_
 _symmetry_equiv_pos_site_id
 _symmetry_equiv_pos_as_xyz
  1  'x, y, z'
loop_
 _atom_site_type_symbol
 _atom_site_label
 _atom_site_symmetry_multiplicity
 _atom_site_fract_x
 _atom_site_fract_y
 _atom_site_fract_z
 _atom_site_occupancy
  Ho  Ho0  1  0.691891  0.691543  0.669750  1
  Ho  Ho1  1  0.694830  0.700203  0.140049  1
  Ho  Ho2  1  0.998330  0.001670  0.000000  1
  Ho  Ho3  1  0.299797  0.305170  0.859951  1
  Ho  Ho4  1  0.308457  0.308109  0.330250  1
  Fe  Fe5  1  0.248892  0.751108  0.500000  1
  Ru  Ru6  1  0.760379  0.239621  0.500000  1
  O  O7  1  0.400182  0.904454  0.925826  1
  O  O8  1  0.570544  0.095388  0.583066  1
  O  O9  1  0.904612  0.429456  0.416934  1
  O  O10  1  0.095546  0.599818  0.074174  1
  O  O11  1  0.993892  0.006885  0.314154  1
  O  O12  1  0.508948  0.490494  0.688393  1
  O  O13  1  0.901734  0.405288  0.924537  1
  O  O14  1  0.101727  0.577094  0.580839  1
  O  O15  1  0.422906  0.898273  0.419161  1
  O  O16  1  0.594712  0.098266  0.075463  1
  O  O17  1  0.509506  0.491052  0.311607  1
  O  O18  1  0.993115  0.006108  0.685846  1
