# generated using pymatgen
data_Y4NbRe2Os5
_symmetry_space_group_name_H-M   'P 1'
_cell_length_a   5.35199030
_cell_length_b   5.27960224
_cell_length_c   9.05648900
_cell_angle_alpha   90.00000000
_cell_angle_beta   90.00000000
_cell_angle_gamma   117.65344405
_symmetry_Int_Tables_number   1
_chemical_formula_structural   Y4NbRe2Os5
_chemical_formula_sum   'Y4 Nb1 Re2 Os5'
_cell_volume   226.67199376
_cell_formula_units_Z   1
loop_
 _symmetry_equiv_pos_site_id
 _symmetry_equiv_pos_as_xyz
  1  'x, y, z'
loop_
 _atom_site_type_symbol
 _atom_site_label
 _atom_site_symmetry_multiplicity
 _atom_site_fract_x
 _atom_site_fract_y
 _atom_site_fract_z
 _atom_site_occupancy
  Y  Y0  1  0.329994  0.670892  0.436980  1
  Y  Y1  1  0.669312  0.331514  0.567841  1
  Y  Y2  1  0.669312  0.331514  0.932159  1
  Y  Y3  1  0.329994  0.670892  0.063020  1
  Nb  Nb4  1  0.838718  0.161864  0.250000  1
  Re  Re5  1  0.159692  0.833084  0.750000  1
  Re  Re6  1  0.171980  0.345593  0.750000  1
  Os  Os7  1  0.008612  0.000979  0.504223  1
  Os  Os8  1  0.008612  0.000979  0.995777  1
  Os  Os9  1  0.821623  0.653484  0.250000  1
  Os  Os10  1  0.347862  0.179324  0.250000  1
  Os  Os11  1  0.644292  0.819879  0.750000  1
