# generated using pymatgen
data_CaLa6Lu3Si8O3
_symmetry_space_group_name_H-M   'P 1'
_cell_length_a   10.68919716
_cell_length_b   10.68919807
_cell_length_c   4.48421900
_cell_angle_alpha   90.00000000
_cell_angle_beta   90.00000000
_cell_angle_gamma   119.87696015
_symmetry_Int_Tables_number   1
_chemical_formula_structural   CaLa6Lu3Si8O3
_chemical_formula_sum   'Ca1 La6 Lu3 Si8 O3'
_cell_volume   444.26773767
_cell_formula_units_Z   1
loop_
 _symmetry_equiv_pos_site_id
 _symmetry_equiv_pos_as_xyz
  1  'x, y, z'
loop_
 _atom_site_type_symbol
 _atom_site_label
 _atom_site_symmetry_multiplicity
 _atom_site_fract_x
 _atom_site_fract_y
 _atom_site_fract_z
 _atom_site_occupancy
  Ca  Ca0  1  0.212428  0.787572  0.000000  1
  La  La1  1  0.574164  0.789190  0.000000  1
  La  La2  1  0.790159  0.576299  0.000000  1
  La  La3  1  0.001373  0.998627  0.000000  1
  La  La4  1  0.210810  0.425836  0.000000  1
  La  La5  1  0.423701  0.209841  0.000000  1
  La  La6  1  0.787543  0.212457  0.000000  1
  Lu  Lu7  1  0.003268  0.503409  0.500000  1
  Lu  Lu8  1  0.500355  0.499645  0.500000  1
  Lu  Lu9  1  0.496591  0.996732  0.500000  1
  Si  Si10  1  0.999893  0.776523  0.500000  1
  Si  Si11  1  0.999791  0.224099  0.500000  1
  Si  Si12  1  0.224736  0.224620  0.500000  1
  Si  Si13  1  0.775901  0.000209  0.500000  1
  Si  Si14  1  0.332965  0.667035  0.500000  1
  Si  Si15  1  0.223477  0.000107  0.500000  1
  Si  Si16  1  0.666917  0.333083  0.500000  1
  Si  Si17  1  0.775380  0.775264  0.500000  1
  O  O18  1  0.998446  0.497739  0.000000  1
  O  O19  1  0.499842  0.500158  0.000000  1
  O  O20  1  0.502261  0.001554  0.000000  1
