# generated using pymatgen
data_DyTm3(InGa2)2
_symmetry_space_group_name_H-M   'P 1'
_cell_length_a   7.17347577
_cell_length_b   7.17347577
_cell_length_c   4.39769000
_cell_angle_alpha   90.00000000
_cell_angle_beta   90.00000000
_cell_angle_gamma   89.27702841
_symmetry_Int_Tables_number   1
_chemical_formula_structural   DyTm3(InGa2)2
_chemical_formula_sum   'Dy1 Tm3 In2 Ga4'
_cell_volume   226.28163513
_cell_formula_units_Z   1
loop_
 _symmetry_equiv_pos_site_id
 _symmetry_equiv_pos_as_xyz
  1  'x, y, z'
loop_
 _atom_site_type_symbol
 _atom_site_label
 _atom_site_symmetry_multiplicity
 _atom_site_fract_x
 _atom_site_fract_y
 _atom_site_fract_z
 _atom_site_occupancy
  Dy  Dy0  1  0.671884  0.171884  0.500000  1
  Tm  Tm1  1  0.171777  0.329150  0.500000  1
  Tm  Tm2  1  0.829150  0.671777  0.500000  1
  Tm  Tm3  1  0.327325  0.827325  0.500000  1
  In  In4  1  0.000562  0.999341  0.000000  1
  In  In5  1  0.499341  0.500562  0.000000  1
  Ga  Ga6  1  0.127017  0.627017  0.000000  1
  Ga  Ga7  1  0.874843  0.374843  0.000000  1
  Ga  Ga8  1  0.371742  0.126359  0.000000  1
  Ga  Ga9  1  0.626359  0.871742  0.000000  1
