# generated using pymatgen
data_Ba5Dy2Y6Ni4O21
_symmetry_space_group_name_H-M   'P 1'
_cell_length_a   10.21926673
_cell_length_b   10.21926645
_cell_length_c   10.22071604
_cell_angle_alpha   94.53274763
_cell_angle_beta   94.54551670
_cell_angle_gamma   147.31982148
_symmetry_Int_Tables_number   1
_chemical_formula_structural   Ba5Dy2Y6Ni4O21
_chemical_formula_sum   'Ba5 Dy2 Y6 Ni4 O21'
_cell_volume   553.06110169
_cell_formula_units_Z   1
loop_
 _symmetry_equiv_pos_site_id
 _symmetry_equiv_pos_as_xyz
  1  'x, y, z'
loop_
 _atom_site_type_symbol
 _atom_site_label
 _atom_site_symmetry_multiplicity
 _atom_site_fract_x
 _atom_site_fract_y
 _atom_site_fract_z
 _atom_site_occupancy
  Ba  Ba0  1  0.000000  0.000000  0.000000  1
  Ba  Ba1  1  0.138289  0.534929  0.673217  1
  Ba  Ba2  1  0.861711  0.465071  0.326783  1
  Ba  Ba3  1  0.465068  0.138291  0.603359  1
  Ba  Ba4  1  0.534932  0.861709  0.396641  1
  Dy  Dy5  1  0.166817  0.249820  0.416637  1
  Dy  Dy6  1  0.833183  0.750180  0.583363  1
  Y  Y7  1  0.750105  0.166802  0.916907  1
  Y  Y8  1  0.249895  0.833198  0.083093  1
  Y  Y9  1  0.357588  0.410623  0.768211  1
  Y  Y10  1  0.642412  0.589377  0.231789  1
  Y  Y11  1  0.589382  0.357564  0.946946  1
  Y  Y12  1  0.410618  0.642436  0.053054  1
  Ni  Ni13  1  0.246374  0.040993  0.287368  1
  Ni  Ni14  1  0.753626  0.959007  0.712632  1
  Ni  Ni15  1  0.959112  0.246398  0.205510  1
  Ni  Ni16  1  0.040888  0.753602  0.794490  1
  O  O17  1  0.500000  0.500000  0.000000  1
  O  O18  1  0.962910  0.630250  0.593160  1
  O  O19  1  0.037090  0.369750  0.406840  1
  O  O20  1  0.369858  0.963045  0.332905  1
  O  O21  1  0.630142  0.036955  0.667095  1
  O  O22  1  0.295122  0.427337  0.225962  1
  O  O23  1  0.201374  0.069159  0.774038  1
  O  O24  1  0.069428  0.295231  0.867737  1
  O  O25  1  0.427494  0.201692  0.132263  1
  O  O26  1  0.704878  0.572663  0.774038  1
  O  O27  1  0.798626  0.930841  0.225962  1
  O  O28  1  0.930572  0.704769  0.132263  1
  O  O29  1  0.572506  0.798308  0.867737  1
  O  O30  1  0.496596  0.607306  0.594709  1
  O  O31  1  0.012598  0.901888  0.405291  1
  O  O32  1  0.901708  0.496709  0.888983  1
  O  O33  1  0.607726  0.012725  0.111017  1
  O  O34  1  0.503404  0.392694  0.405291  1
  O  O35  1  0.987402  0.098112  0.594709  1
  O  O36  1  0.098292  0.503291  0.111017  1
  O  O37  1  0.392274  0.987275  0.888983  1
