# generated using pymatgen
data_Li8Pr7ErSb8
_symmetry_space_group_name_H-M   'P 1'
_cell_length_a   9.63025600
_cell_length_b   9.63025607
_cell_length_c   7.23779400
_cell_angle_alpha   90.00000000
_cell_angle_beta   90.00000000
_cell_angle_gamma   119.99999289
_symmetry_Int_Tables_number   1
_chemical_formula_structural   Li8Pr7ErSb8
_chemical_formula_sum   'Li8 Pr7 Er1 Sb8'
_cell_volume   581.31636384
_cell_formula_units_Z   1
loop_
 _symmetry_equiv_pos_site_id
 _symmetry_equiv_pos_as_xyz
  1  'x, y, z'
loop_
 _atom_site_type_symbol
 _atom_site_label
 _atom_site_symmetry_multiplicity
 _atom_site_fract_x
 _atom_site_fract_y
 _atom_site_fract_z
 _atom_site_occupancy
  Li  Li0  1  0.166728  0.833272  0.288509  1
  Li  Li1  1  0.666545  0.833272  0.288509  1
  Li  Li2  1  0.166728  0.333455  0.288509  1
  Li  Li3  1  0.834127  0.165873  0.800309  1
  Li  Li4  1  0.331748  0.165873  0.800309  1
  Li  Li5  1  0.834127  0.668252  0.800309  1
  Li  Li6  1  0.333333  0.666667  0.695376  1
  Li  Li7  1  0.666667  0.333333  0.200384  1
  Pr  Pr8  1  0.510679  0.489321  0.508836  1
  Pr  Pr9  1  0.978643  0.489321  0.508836  1
  Pr  Pr10  1  0.510679  0.021357  0.508836  1
  Pr  Pr11  1  0.489708  0.510292  0.008482  1
  Pr  Pr12  1  0.020586  0.510292  0.008482  1
  Pr  Pr13  1  0.489708  0.979414  0.008482  1
  Pr  Pr14  1  0.000000  0.000000  0.517285  1
  Er  Er15  1  0.000000  0.000000  0.016743  1
  Sb  Sb16  1  0.165184  0.834816  0.755485  1
  Sb  Sb17  1  0.669632  0.834816  0.755485  1
  Sb  Sb18  1  0.165184  0.330368  0.755485  1
  Sb  Sb19  1  0.835796  0.164204  0.245107  1
  Sb  Sb20  1  0.328407  0.164204  0.245107  1
  Sb  Sb21  1  0.835796  0.671593  0.245107  1
  Sb  Sb22  1  0.333333  0.666667  0.280432  1
  Sb  Sb23  1  0.666667  0.333333  0.779584  1
