# generated using pymatgen
data_Sr(FeI4)2
_symmetry_space_group_name_H-M   'P 1'
_cell_length_a   8.07301700
_cell_length_b   8.55188916
_cell_length_c   14.75947916
_cell_angle_alpha   85.24354542
_cell_angle_beta   90.00000000
_cell_angle_gamma   90.00000000
_symmetry_Int_Tables_number   1
_chemical_formula_structural   Sr(FeI4)2
_chemical_formula_sum   'Sr2 Fe4 I16'
_cell_volume   1015.47852610
_cell_formula_units_Z   2
loop_
 _symmetry_equiv_pos_site_id
 _symmetry_equiv_pos_as_xyz
  1  'x, y, z'
loop_
 _atom_site_type_symbol
 _atom_site_label
 _atom_site_symmetry_multiplicity
 _atom_site_fract_x
 _atom_site_fract_y
 _atom_site_fract_z
 _atom_site_occupancy
  Sr  Sr0  1  0.144709  0.500000  0.250000  1
  Sr  Sr1  1  0.855291  0.500000  0.750000  1
  Fe  Fe2  1  0.260053  0.679395  0.579378  1
  Fe  Fe3  1  0.739947  0.679395  0.079378  1
  Fe  Fe4  1  0.739947  0.320605  0.420622  1
  Fe  Fe5  1  0.260053  0.320605  0.920622  1
  I  I6  1  0.532644  0.744956  0.656357  1
  I  I7  1  0.304733  0.743864  0.407958  1
  I  I8  1  0.818970  0.393383  0.114506  1
  I  I9  1  0.181030  0.606617  0.885494  1
  I  I10  1  0.467356  0.255044  0.343643  1
  I  I11  1  0.304733  0.256136  0.092042  1
  I  I12  1  0.695267  0.256136  0.592042  1
  I  I13  1  0.467356  0.744956  0.156357  1
  I  I14  1  0.181030  0.393383  0.614506  1
  I  I15  1  0.532644  0.255044  0.843643  1
  I  I16  1  0.818970  0.606617  0.385494  1
  I  I17  1  0.979342  0.839947  0.139150  1
  I  I18  1  0.695267  0.743864  0.907958  1
  I  I19  1  0.020658  0.160053  0.860850  1
  I  I20  1  0.979342  0.160053  0.360850  1
  I  I21  1  0.020658  0.839947  0.639150  1
