# generated using pymatgen
data_Ti6Ga3RhO2
_symmetry_space_group_name_H-M   'P 1'
_cell_length_a   6.87576886
_cell_length_b   6.86195689
_cell_length_c   6.85875100
_cell_angle_alpha   90.00000000
_cell_angle_beta   90.00000000
_cell_angle_gamma   90.28921280
_symmetry_Int_Tables_number   1
_chemical_formula_structural   Ti6Ga3RhO2
_chemical_formula_sum   'Ti12 Ga6 Rh2 O4'
_cell_volume   323.60018259
_cell_formula_units_Z   2
loop_
 _symmetry_equiv_pos_site_id
 _symmetry_equiv_pos_as_xyz
  1  'x, y, z'
loop_
 _atom_site_type_symbol
 _atom_site_label
 _atom_site_symmetry_multiplicity
 _atom_site_fract_x
 _atom_site_fract_y
 _atom_site_fract_z
 _atom_site_occupancy
  Ti  Ti0  1  0.795138  0.958468  0.372390  1
  Ti  Ti1  1  0.704862  0.041532  0.872390  1
  Ti  Ti2  1  0.210995  0.459439  0.120691  1
  Ti  Ti3  1  0.289005  0.540561  0.620691  1
  Ti  Ti4  1  0.959699  0.371955  0.794184  1
  Ti  Ti5  1  0.045447  0.880638  0.708838  1
  Ti  Ti6  1  0.454553  0.119362  0.208838  1
  Ti  Ti7  1  0.540301  0.628045  0.294184  1
  Ti  Ti8  1  0.372208  0.794693  0.962109  1
  Ti  Ti9  1  0.876773  0.708863  0.043472  1
  Ti  Ti10  1  0.127792  0.205307  0.462109  1
  Ti  Ti11  1  0.623227  0.291137  0.543472  1
  Ga  Ga12  1  0.819776  0.319054  0.180400  1
  Ga  Ga13  1  0.680224  0.680946  0.680400  1
  Ga  Ga14  1  0.566692  0.429349  0.929802  1
  Ga  Ga15  1  0.427578  0.931869  0.569146  1
  Ga  Ga16  1  0.933308  0.570651  0.429802  1
  Ga  Ga17  1  0.072422  0.068131  0.069146  1
  Rh  Rh18  1  0.178304  0.821945  0.322086  1
  Rh  Rh19  1  0.321696  0.178055  0.822086  1
  O  O20  1  0.875545  0.124535  0.624421  1
  O  O21  1  0.624455  0.875465  0.124421  1
  O  O22  1  0.126103  0.627642  0.872463  1
  O  O23  1  0.373897  0.372358  0.372463  1
