# generated using pymatgen
data_Ho2Th2Sc(In2Rh)2
_symmetry_space_group_name_H-M   'P 1'
_cell_length_a   3.76872000
_cell_length_b   7.95694963
_cell_length_c   17.89070999
_cell_angle_alpha   90.27907462
_cell_angle_beta   90.00000000
_cell_angle_gamma   90.00000000
_symmetry_Int_Tables_number   1
_chemical_formula_structural   Ho2Th2Sc(In2Rh)2
_chemical_formula_sum   'Ho4 Th4 Sc2 In8 Rh4'
_cell_volume   536.49157363
_cell_formula_units_Z   2
loop_
 _symmetry_equiv_pos_site_id
 _symmetry_equiv_pos_as_xyz
  1  'x, y, z'
loop_
 _atom_site_type_symbol
 _atom_site_label
 _atom_site_symmetry_multiplicity
 _atom_site_fract_x
 _atom_site_fract_y
 _atom_site_fract_z
 _atom_site_occupancy
  Ho  Ho0  1  0.000000  0.000000  0.000000  1
  Ho  Ho1  1  0.000000  0.500000  0.500000  1
  Ho  Ho2  1  0.000000  0.891931  0.586367  1
  Ho  Ho3  1  0.000000  0.108069  0.413633  1
  Th  Th4  1  0.000000  0.764763  0.785710  1
  Th  Th5  1  0.000000  0.235237  0.214290  1
  Th  Th6  1  0.000000  0.264808  0.720253  1
  Th  Th7  1  0.000000  0.735192  0.279747  1
  Sc  Sc8  1  0.000000  0.395374  0.913536  1
  Sc  Sc9  1  0.000000  0.604626  0.086464  1
  In  In10  1  0.500000  0.792238  0.438929  1
  In  In11  1  0.500000  0.207762  0.561071  1
  In  In12  1  0.500000  0.308196  0.054587  1
  In  In13  1  0.500000  0.691804  0.945413  1
  In  In14  1  0.500000  0.900581  0.141909  1
  In  In15  1  0.500000  0.099419  0.858091  1
  In  In16  1  0.500000  0.412020  0.353249  1
  In  In17  1  0.500000  0.587980  0.646751  1
  Rh  Rh18  1  0.500000  0.983311  0.701136  1
  Rh  Rh19  1  0.500000  0.016689  0.298864  1
  Rh  Rh20  1  0.500000  0.482269  0.805639  1
  Rh  Rh21  1  0.500000  0.517731  0.194361  1
