# generated using pymatgen
data_Zr10AlNiSnSb5
_symmetry_space_group_name_H-M   'P 1'
_cell_length_a   8.69070252
_cell_length_b   8.69070254
_cell_length_c   5.84226184
_cell_angle_alpha   90.03068678
_cell_angle_beta   90.03068869
_cell_angle_gamma   120.05863713
_symmetry_Int_Tables_number   1
_chemical_formula_structural   Zr10AlNiSnSb5
_chemical_formula_sum   'Zr10 Al1 Ni1 Sn1 Sb5'
_cell_volume   381.91283641
_cell_formula_units_Z   1
loop_
 _symmetry_equiv_pos_site_id
 _symmetry_equiv_pos_as_xyz
  1  'x, y, z'
loop_
 _atom_site_type_symbol
 _atom_site_label
 _atom_site_symmetry_multiplicity
 _atom_site_fract_x
 _atom_site_fract_y
 _atom_site_fract_z
 _atom_site_occupancy
  Zr  Zr0  1  0.735524  0.735524  0.758266  1
  Zr  Zr1  1  0.266038  0.999453  0.758504  1
  Zr  Zr2  1  0.999453  0.266038  0.758504  1
  Zr  Zr3  1  0.262559  0.262559  0.240275  1
  Zr  Zr4  1  0.736226  0.999162  0.242529  1
  Zr  Zr5  1  0.999162  0.736226  0.242529  1
  Zr  Zr6  1  0.666979  0.332977  0.999360  1
  Zr  Zr7  1  0.332977  0.666979  0.999360  1
  Zr  Zr8  1  0.332888  0.667345  0.500466  1
  Zr  Zr9  1  0.667345  0.332888  0.500466  1
  Al  Al10  1  0.001481  0.001481  0.503632  1
  Ni  Ni11  1  0.001748  0.001748  0.996256  1
  Sn  Sn12  1  0.385136  0.385136  0.746801  1
  Sb  Sb13  1  0.614298  0.999832  0.748128  1
  Sb  Sb14  1  0.999832  0.614298  0.748128  1
  Sb  Sb15  1  0.611077  0.611077  0.251917  1
  Sb  Sb16  1  0.386863  0.000410  0.252439  1
  Sb  Sb17  1  0.000410  0.386863  0.252439  1
