# generated using pymatgen
data_Y3HfAl15(GaIr2)3
_symmetry_space_group_name_H-M   'P 1'
_cell_length_a   7.52960922
_cell_length_b   7.52311894
_cell_length_c   9.47143300
_cell_angle_alpha   90.00000000
_cell_angle_beta   90.00000000
_cell_angle_gamma   119.65179328
_symmetry_Int_Tables_number   1
_chemical_formula_structural   Y3HfAl15(GaIr2)3
_chemical_formula_sum   'Y3 Hf1 Al15 Ga3 Ir6'
_cell_volume   466.26182143
_cell_formula_units_Z   1
loop_
 _symmetry_equiv_pos_site_id
 _symmetry_equiv_pos_as_xyz
  1  'x, y, z'
loop_
 _atom_site_type_symbol
 _atom_site_label
 _atom_site_symmetry_multiplicity
 _atom_site_fract_x
 _atom_site_fract_y
 _atom_site_fract_z
 _atom_site_occupancy
  Y  Y0  1  0.005151  0.328030  0.750000  1
  Y  Y1  1  0.671348  0.998104  0.250000  1
  Y  Y2  1  0.329540  0.006394  0.750000  1
  Hf  Hf3  1  0.000008  0.672804  0.250000  1
  Al  Al4  1  0.126705  0.123647  0.250000  1
  Al  Al5  1  0.999986  0.337985  0.079252  1
  Al  Al6  1  0.997883  0.665251  0.932189  1
  Al  Al7  1  0.997883  0.665251  0.567811  1
  Al  Al8  1  0.332645  0.998239  0.420736  1
  Al  Al9  1  0.999986  0.337985  0.420748  1
  Al  Al10  1  0.664681  0.996573  0.572318  1
  Al  Al11  1  0.664681  0.996573  0.927682  1
  Al  Al12  1  0.332645  0.998239  0.079264  1
  Al  Al13  1  0.334477  0.334776  0.543870  1
  Al  Al14  1  0.669793  0.667398  0.434541  1
  Al  Al15  1  0.669793  0.667398  0.065459  1
  Al  Al16  1  0.334477  0.334776  0.956130  1
  Al  Al17  1  0.334200  0.548746  0.250000  1
  Al  Al18  1  0.555416  0.343721  0.250000  1
  Ga  Ga19  1  0.870676  0.868819  0.750000  1
  Ga  Ga20  1  0.658845  0.452428  0.750000  1
  Ga  Ga21  1  0.450076  0.656788  0.750000  1
  Ir  Ir22  1  0.672561  0.328767  0.003318  1
  Ir  Ir23  1  0.327739  0.672437  0.004023  1
  Ir  Ir24  1  0.327739  0.672437  0.495977  1
  Ir  Ir25  1  0.672561  0.328767  0.496682  1
  Ir  Ir26  1  0.999253  0.998834  0.003969  1
  Ir  Ir27  1  0.999253  0.998834  0.496031  1
