# generated using pymatgen
data_PrTaP7Ru12
_symmetry_space_group_name_H-M   'P 1'
_cell_length_a   9.43465700
_cell_length_b   9.43465570
_cell_length_c   3.91158800
_cell_angle_alpha   90.00000000
_cell_angle_beta   90.00000000
_cell_angle_gamma   120.00000012
_symmetry_Int_Tables_number   1
_chemical_formula_structural   PrTaP7Ru12
_chemical_formula_sum   'Pr1 Ta1 P7 Ru12'
_cell_volume   301.53373561
_cell_formula_units_Z   1
loop_
 _symmetry_equiv_pos_site_id
 _symmetry_equiv_pos_as_xyz
  1  'x, y, z'
loop_
 _atom_site_type_symbol
 _atom_site_label
 _atom_site_symmetry_multiplicity
 _atom_site_fract_x
 _atom_site_fract_y
 _atom_site_fract_z
 _atom_site_occupancy
  Pr  Pr0  1  0.333333  0.666667  0.000000  1
  Ta  Ta1  1  0.666667  0.333333  0.500000  1
  P  P2  1  0.602990  0.719244  0.500000  1
  P  P3  1  0.000000  0.000000  0.000000  1
  P  P4  1  0.280756  0.883747  0.500000  1
  P  P5  1  0.116253  0.397010  0.500000  1
  P  P6  1  0.886922  0.572930  0.000000  1
  P  P7  1  0.427070  0.313993  0.000000  1
  P  P8  1  0.686007  0.113078  0.000000  1
  Ru  Ru9  1  0.562098  0.962762  0.500000  1
  Ru  Ru10  1  0.400665  0.437902  0.500000  1
  Ru  Ru11  1  0.912581  0.122075  0.500000  1
  Ru  Ru12  1  0.209493  0.087419  0.500000  1
  Ru  Ru13  1  0.877925  0.790507  0.500000  1
  Ru  Ru14  1  0.726569  0.888128  0.000000  1
  Ru  Ru15  1  0.111872  0.838441  0.000000  1
  Ru  Ru16  1  0.161559  0.273431  0.000000  1
  Ru  Ru17  1  0.431353  0.081030  0.000000  1
  Ru  Ru18  1  0.918970  0.350324  0.000000  1
  Ru  Ru19  1  0.649676  0.568647  0.000000  1
  Ru  Ru20  1  0.037238  0.599335  0.500000  1
