# generated using pymatgen
data_RbGa3Se5
_symmetry_space_group_name_H-M   'P 1'
_cell_length_a   13.56217000
_cell_length_b   7.63232241
_cell_length_c   11.11339517
_cell_angle_alpha   76.52904901
_cell_angle_beta   90.00000000
_cell_angle_gamma   90.00000000
_symmetry_Int_Tables_number   1
_chemical_formula_structural   RbGa3Se5
_chemical_formula_sum   'Rb4 Ga12 Se20'
_cell_volume   1118.70857770
_cell_formula_units_Z   4
loop_
 _symmetry_equiv_pos_site_id
 _symmetry_equiv_pos_as_xyz
  1  'x, y, z'
loop_
 _atom_site_type_symbol
 _atom_site_label
 _atom_site_symmetry_multiplicity
 _atom_site_fract_x
 _atom_site_fract_y
 _atom_site_fract_z
 _atom_site_occupancy
  Rb  Rb0  1  0.615746  0.833713  0.396302  1
  Rb  Rb1  1  0.115746  0.166287  0.103698  1
  Rb  Rb2  1  0.384254  0.166287  0.603698  1
  Rb  Rb3  1  0.884254  0.833713  0.896302  1
  Ga  Ga4  1  0.921631  0.797572  0.401465  1
  Ga  Ga5  1  0.578369  0.797572  0.901465  1
  Ga  Ga6  1  0.421631  0.202428  0.098535  1
  Ga  Ga7  1  0.397479  0.560535  0.805752  1
  Ga  Ga8  1  0.102521  0.560535  0.305752  1
  Ga  Ga9  1  0.336972  0.709811  0.124095  1
  Ga  Ga10  1  0.602521  0.439465  0.194248  1
  Ga  Ga11  1  0.078369  0.202428  0.598535  1
  Ga  Ga12  1  0.663028  0.290189  0.875905  1
  Ga  Ga13  1  0.897479  0.439465  0.694248  1
  Ga  Ga14  1  0.163028  0.709811  0.624095  1
  Ga  Ga15  1  0.836972  0.290189  0.375905  1
  Se  Se16  1  0.829900  0.721676  0.589597  1
  Se  Se17  1  0.104677  0.815440  0.408733  1
  Se  Se18  1  0.670100  0.721676  0.089597  1
  Se  Se19  1  0.395323  0.815440  0.908733  1
  Se  Se20  1  0.329900  0.278324  0.910403  1
  Se  Se21  1  0.662985  0.344249  0.403335  1
  Se  Se22  1  0.579999  0.573542  0.766309  1
  Se  Se23  1  0.604677  0.184560  0.091267  1
  Se  Se24  1  0.895323  0.184560  0.591267  1
  Se  Se25  1  0.634603  0.065953  0.757121  1
  Se  Se26  1  0.365397  0.934047  0.242879  1
  Se  Se27  1  0.170100  0.278324  0.410403  1
  Se  Se28  1  0.079999  0.426458  0.733691  1
  Se  Se29  1  0.920001  0.573542  0.266309  1
  Se  Se30  1  0.865397  0.065953  0.257121  1
  Se  Se31  1  0.134603  0.934047  0.742879  1
  Se  Se32  1  0.837015  0.344249  0.903335  1
  Se  Se33  1  0.337015  0.655751  0.596665  1
  Se  Se34  1  0.420001  0.426458  0.233691  1
  Se  Se35  1  0.162985  0.655751  0.096665  1
