# generated using pymatgen
data_Li3Al8TcIr4
_symmetry_space_group_name_H-M   'P 1'
_cell_length_a   5.96405700
_cell_length_b   4.24167700
_cell_length_c   8.55351400
_cell_angle_alpha   90.00000000
_cell_angle_beta   89.99994236
_cell_angle_gamma   90.00000000
_symmetry_Int_Tables_number   1
_chemical_formula_structural   Li3Al8TcIr4
_chemical_formula_sum   'Li3 Al8 Tc1 Ir4'
_cell_volume   216.38340488
_cell_formula_units_Z   1
loop_
 _symmetry_equiv_pos_site_id
 _symmetry_equiv_pos_as_xyz
  1  'x, y, z'
loop_
 _atom_site_type_symbol
 _atom_site_label
 _atom_site_symmetry_multiplicity
 _atom_site_fract_x
 _atom_site_fract_y
 _atom_site_fract_z
 _atom_site_occupancy
  Li  Li0  1  0.749995  0.250001  0.128066  1
  Li  Li1  1  0.249991  0.750001  0.375019  1
  Li  Li2  1  0.750010  0.250001  0.621886  1
  Al  Al3  1  0.005343  0.750001  0.125339  1
  Al  Al4  1  0.494656  0.750001  0.125342  1
  Al  Al5  1  0.008670  0.250001  0.374988  1
  Al  Al6  1  0.491321  0.250001  0.374994  1
  Al  Al7  1  0.494664  0.750001  0.624681  1
  Al  Al8  1  0.005340  0.750001  0.624683  1
  Al  Al9  1  0.495048  0.250001  0.874989  1
  Al  Al10  1  0.004957  0.250001  0.874992  1
  Tc  Tc11  1  0.250004  0.750001  0.875010  1
  Ir  Ir12  1  0.250001  0.250001  0.129329  1
  Ir  Ir13  1  0.750000  0.750001  0.375008  1
  Ir  Ir14  1  0.249999  0.250001  0.620661  1
  Ir  Ir15  1  0.750002  0.750001  0.875012  1
