# generated using pymatgen
data_Pr8Dy3Ho9Pb16
_symmetry_space_group_name_H-M   'P 1'
_cell_length_a   8.31092608
_cell_length_b   8.37370508
_cell_length_c   15.85548002
_cell_angle_alpha   89.99723815
_cell_angle_beta   90.00483386
_cell_angle_gamma   89.98455394
_symmetry_Int_Tables_number   1
_chemical_formula_structural   Pr8Dy3Ho9Pb16
_chemical_formula_sum   'Pr8 Dy3 Ho9 Pb16'
_cell_volume   1103.43424354
_cell_formula_units_Z   1
loop_
 _symmetry_equiv_pos_site_id
 _symmetry_equiv_pos_as_xyz
  1  'x, y, z'
loop_
 _atom_site_type_symbol
 _atom_site_label
 _atom_site_symmetry_multiplicity
 _atom_site_fract_x
 _atom_site_fract_y
 _atom_site_fract_z
 _atom_site_occupancy
  Pr  Pr0  1  0.475845  0.677756  0.597339  1
  Pr  Pr1  1  0.975862  0.822271  0.902654  1
  Pr  Pr2  1  0.524144  0.322302  0.097344  1
  Pr  Pr3  1  0.024146  0.177777  0.402668  1
  Pr  Pr4  1  0.524159  0.322252  0.402587  1
  Pr  Pr5  1  0.024104  0.177814  0.097413  1
  Pr  Pr6  1  0.475887  0.677799  0.902598  1
  Pr  Pr7  1  0.975846  0.822167  0.597318  1
  Dy  Dy8  1  0.632798  0.158308  0.622272  1
  Dy  Dy9  1  0.132771  0.341714  0.877710  1
  Dy  Dy10  1  0.367192  0.841682  0.122309  1
  Ho  Ho11  1  0.867193  0.658261  0.377636  1
  Ho  Ho12  1  0.367179  0.841818  0.377684  1
  Ho  Ho13  1  0.867161  0.658213  0.122331  1
  Ho  Ho14  1  0.632844  0.158217  0.877688  1
  Ho  Ho15  1  0.132841  0.341783  0.622335  1
  Ho  Ho16  1  0.798639  0.494736  0.750006  1
  Ho  Ho17  1  0.298651  0.005334  0.750016  1
  Ho  Ho18  1  0.201260  0.505291  0.250046  1
  Ho  Ho19  1  0.701401  0.994584  0.250050  1
  Pb  Pb20  1  0.706144  0.959269  0.456334  1
  Pb  Pb21  1  0.206040  0.540564  0.043628  1
  Pb  Pb22  1  0.293995  0.040552  0.956381  1
  Pb  Pb23  1  0.794046  0.459562  0.543526  1
  Pb  Pb24  1  0.293713  0.040590  0.543540  1
  Pb  Pb25  1  0.793727  0.459400  0.956450  1
  Pb  Pb26  1  0.706267  0.959404  0.043543  1
  Pb  Pb27  1  0.206079  0.540637  0.456431  1
  Pb  Pb28  1  0.436816  0.370489  0.750009  1
  Pb  Pb29  1  0.936792  0.129475  0.749978  1
  Pb  Pb30  1  0.563316  0.629472  0.250065  1
  Pb  Pb31  1  0.063081  0.870375  0.250057  1
  Pb  Pb32  1  0.663007  0.850507  0.750056  1
  Pb  Pb33  1  0.163008  0.649460  0.749944  1
  Pb  Pb34  1  0.337005  0.149505  0.250051  1
  Pb  Pb35  1  0.837040  0.350662  0.250005  1
