# generated using pymatgen
data_Tb4Sc4Cr3B24Ir
_symmetry_space_group_name_H-M   'P 1'
_cell_length_a   3.49554700
_cell_length_b   9.00703821
_cell_length_c   11.39507826
_cell_angle_alpha   90.02451160
_cell_angle_beta   90.00000000
_cell_angle_gamma   90.00000000
_symmetry_Int_Tables_number   1
_chemical_formula_structural   Tb4Sc4Cr3B24Ir
_chemical_formula_sum   'Tb4 Sc4 Cr3 B24 Ir1'
_cell_volume   358.76859788
_cell_formula_units_Z   1
loop_
 _symmetry_equiv_pos_site_id
 _symmetry_equiv_pos_as_xyz
  1  'x, y, z'
loop_
 _atom_site_type_symbol
 _atom_site_label
 _atom_site_symmetry_multiplicity
 _atom_site_fract_x
 _atom_site_fract_y
 _atom_site_fract_z
 _atom_site_occupancy
  Tb  Tb0  1  0.500000  0.318359  0.416295  1
  Tb  Tb1  1  0.500000  0.678442  0.588742  1
  Tb  Tb2  1  0.500000  0.177760  0.914244  1
  Tb  Tb3  1  0.500000  0.824386  0.082421  1
  Sc  Sc4  1  0.500000  0.440475  0.126950  1
  Sc  Sc5  1  0.500000  0.555955  0.870861  1
  Sc  Sc6  1  0.500000  0.055799  0.629943  1
  Sc  Sc7  1  0.500000  0.948002  0.370472  1
  Cr  Cr8  1  0.500000  0.141466  0.182960  1
  Cr  Cr9  1  0.500000  0.858690  0.817875  1
  Cr  Cr10  1  0.500000  0.359254  0.681459  1
  B  B11  1  0.000000  0.096672  0.474150  1
  B  B12  1  0.000000  0.902585  0.526308  1
  B  B13  1  0.000000  0.402480  0.973546  1
  B  B14  1  0.000000  0.596851  0.026250  1
  B  B15  1  0.000000  0.129679  0.316756  1
  B  B16  1  0.000000  0.870501  0.684044  1
  B  B17  1  0.000000  0.370758  0.816068  1
  B  B18  1  0.000000  0.629486  0.181518  1
  B  B19  1  0.000000  0.055262  0.068106  1
  B  B20  1  0.000000  0.945645  0.931046  1
  B  B21  1  0.000000  0.444863  0.568329  1
  B  B22  1  0.000000  0.554573  0.433448  1
  B  B23  1  0.000000  0.481386  0.285362  1
  B  B24  1  0.000000  0.517421  0.714299  1
  B  B25  1  0.000000  0.017536  0.785521  1
  B  B26  1  0.000000  0.983110  0.213782  1
  B  B27  1  0.000000  0.252229  0.082573  1
  B  B28  1  0.000000  0.747375  0.916811  1
  B  B29  1  0.000000  0.246568  0.583298  1
  B  B30  1  0.000000  0.754314  0.418777  1
  B  B31  1  0.000000  0.294108  0.235162  1
  B  B32  1  0.000000  0.705726  0.765460  1
  B  B33  1  0.000000  0.205816  0.734840  1
  B  B34  1  0.000000  0.795404  0.264024  1
  Ir  Ir35  1  0.500000  0.641062  0.318300  1
