# generated using pymatgen
data_Ho3GeTe2
_symmetry_space_group_name_H-M   'P 1'
_cell_length_a   7.47083973
_cell_length_b   7.47084082
_cell_length_c   7.47084000
_cell_angle_alpha   146.64641494
_cell_angle_beta   132.52800708
_cell_angle_gamma   59.25326791
_symmetry_Int_Tables_number   1
_chemical_formula_structural   Ho3GeTe2
_chemical_formula_sum   'Ho3 Ge1 Te2'
_cell_volume   167.47563563
_cell_formula_units_Z   1
loop_
 _symmetry_equiv_pos_site_id
 _symmetry_equiv_pos_as_xyz
  1  'x, y, z'
loop_
 _atom_site_type_symbol
 _atom_site_label
 _atom_site_symmetry_multiplicity
 _atom_site_fract_x
 _atom_site_fract_y
 _atom_site_fract_z
 _atom_site_occupancy
  Ho  Ho0  1  0.854851  0.354851  0.500000  1
  Ho  Ho1  1  0.500000  0.000000  0.500000  1
  Ho  Ho2  1  0.145149  0.645149  0.500000  1
  Ge  Ge3  1  0.000000  0.000000  0.000000  1
  Te  Te4  1  0.673134  0.673134  0.000000  1
  Te  Te5  1  0.326866  0.326866  0.000000  1
