# generated using pymatgen
data_Lu12ZnFeCo3Bi
_symmetry_space_group_name_H-M   'P 1'
_cell_length_a   8.17262453
_cell_length_b   8.17262462
_cell_length_c   8.17262393
_cell_angle_alpha   110.32683460
_cell_angle_beta   111.27813485
_cell_angle_gamma   106.84175836
_symmetry_Int_Tables_number   1
_chemical_formula_structural   Lu12ZnFeCo3Bi
_chemical_formula_sum   'Lu12 Zn1 Fe1 Co3 Bi1'
_cell_volume   419.51616385
_cell_formula_units_Z   1
loop_
 _symmetry_equiv_pos_site_id
 _symmetry_equiv_pos_as_xyz
  1  'x, y, z'
loop_
 _atom_site_type_symbol
 _atom_site_label
 _atom_site_symmetry_multiplicity
 _atom_site_fract_x
 _atom_site_fract_y
 _atom_site_fract_z
 _atom_site_occupancy
  Lu  Lu0  1  0.282398  0.183382  0.465780  1
  Lu  Lu1  1  0.716329  0.817502  0.533831  1
  Lu  Lu2  1  0.283671  0.817502  0.101175  1
  Lu  Lu3  1  0.717602  0.183382  0.900983  1
  Lu  Lu4  1  0.617485  0.310541  0.302888  1
  Lu  Lu5  1  0.382515  0.685404  0.693056  1
  Lu  Lu6  1  0.007653  0.310541  0.693056  1
  Lu  Lu7  1  0.992347  0.685404  0.302888  1
  Lu  Lu8  1  0.220314  0.428702  0.208388  1
  Lu  Lu9  1  0.778032  0.568311  0.790278  1
  Lu  Lu10  1  0.221968  0.012247  0.790278  1
  Lu  Lu11  1  0.779686  0.988074  0.208388  1
  Zn  Zn12  1  0.000000  0.997826  0.997826  1
  Fe  Fe13  1  0.000000  0.384884  0.384884  1
  Co  Co14  1  0.000000  0.626085  0.626085  1
  Co  Co15  1  0.386470  0.886360  0.499891  1
  Co  Co16  1  0.613530  0.113421  0.499891  1
  Bi  Bi17  1  0.500000  0.500429  0.000429  1
