# generated using pymatgen
data_Yb7NpZnPd24
_symmetry_space_group_name_H-M   'P 1'
_cell_length_a   8.32918479
_cell_length_b   8.32918414
_cell_length_c   8.32918400
_cell_angle_alpha   89.53374175
_cell_angle_beta   89.53374179
_cell_angle_gamma   89.53373939
_symmetry_Int_Tables_number   1
_chemical_formula_structural   Yb7NpZnPd24
_chemical_formula_sum   'Yb7 Np1 Zn1 Pd24'
_cell_volume   577.78266436
_cell_formula_units_Z   1
loop_
 _symmetry_equiv_pos_site_id
 _symmetry_equiv_pos_as_xyz
  1  'x, y, z'
loop_
 _atom_site_type_symbol
 _atom_site_label
 _atom_site_symmetry_multiplicity
 _atom_site_fract_x
 _atom_site_fract_y
 _atom_site_fract_z
 _atom_site_occupancy
  Yb  Yb0  1  0.747973  0.747973  0.747973  1
  Yb  Yb1  1  0.750139  0.750139  0.248366  1
  Yb  Yb2  1  0.750139  0.248366  0.750139  1
  Yb  Yb3  1  0.251244  0.251244  0.752851  1
  Yb  Yb4  1  0.251244  0.752851  0.251244  1
  Yb  Yb5  1  0.248366  0.750139  0.750139  1
  Yb  Yb6  1  0.752851  0.251244  0.251244  1
  Np  Np7  1  0.255555  0.255555  0.255555  1
  Zn  Zn8  1  0.992871  0.992871  0.992871  1
  Pd  Pd9  1  0.263021  0.497831  0.007280  1
  Pd  Pd10  1  0.738044  0.496646  0.998885  1
  Pd  Pd11  1  0.007280  0.263021  0.497831  1
  Pd  Pd12  1  0.497831  0.263021  0.007280  1
  Pd  Pd13  1  0.998885  0.738044  0.496646  1
  Pd  Pd14  1  0.496646  0.738044  0.998885  1
  Pd  Pd15  1  0.497831  0.007280  0.263021  1
  Pd  Pd16  1  0.263021  0.007280  0.497831  1
  Pd  Pd17  1  0.496646  0.998885  0.738044  1
  Pd  Pd18  1  0.738044  0.998885  0.496646  1
  Pd  Pd19  1  0.007280  0.497831  0.263021  1
  Pd  Pd20  1  0.998885  0.496646  0.738044  1
  Pd  Pd21  1  0.255768  0.499031  0.499031  1
  Pd  Pd22  1  0.747125  0.499245  0.499245  1
  Pd  Pd23  1  0.499031  0.255768  0.499031  1
  Pd  Pd24  1  0.499245  0.747125  0.499245  1
  Pd  Pd25  1  0.499031  0.499031  0.255768  1
  Pd  Pd26  1  0.499245  0.499245  0.747125  1
  Pd  Pd27  1  0.291060  0.005856  0.005856  1
  Pd  Pd28  1  0.696970  0.998507  0.998507  1
  Pd  Pd29  1  0.005856  0.291060  0.005856  1
  Pd  Pd30  1  0.998507  0.696970  0.998507  1
  Pd  Pd31  1  0.005856  0.005856  0.291060  1
  Pd  Pd32  1  0.998507  0.998507  0.696970  1
