# generated using pymatgen
data_Ce4Mn2B6Sb
_symmetry_space_group_name_H-M   'P 1'
_cell_length_a   5.29610966
_cell_length_b   5.29610957
_cell_length_c   8.32611637
_cell_angle_alpha   71.45545367
_cell_angle_beta   71.45545218
_cell_angle_gamma   60.00000873
_symmetry_Int_Tables_number   1
_chemical_formula_structural   Ce4Mn2B6Sb
_chemical_formula_sum   'Ce4 Mn2 B6 Sb1'
_cell_volume   188.11714740
_cell_formula_units_Z   1
loop_
 _symmetry_equiv_pos_site_id
 _symmetry_equiv_pos_as_xyz
  1  'x, y, z'
loop_
 _atom_site_type_symbol
 _atom_site_label
 _atom_site_symmetry_multiplicity
 _atom_site_fract_x
 _atom_site_fract_y
 _atom_site_fract_z
 _atom_site_occupancy
  Ce  Ce0  1  0.745713  0.745713  0.762860  1
  Ce  Ce1  1  0.254287  0.254287  0.237140  1
  Ce  Ce2  1  0.587676  0.587676  0.236972  1
  Ce  Ce3  1  0.412324  0.412324  0.763028  1
  Mn  Mn4  1  0.884757  0.884757  0.345728  1
  Mn  Mn5  1  0.115243  0.115243  0.654272  1
  B  B6  1  0.500000  0.167917  0.500000  1
  B  B7  1  0.832083  0.500000  0.500000  1
  B  B8  1  0.167917  0.832083  0.500000  1
  B  B9  1  0.167917  0.500000  0.500000  1
  B  B10  1  0.832083  0.167917  0.500000  1
  B  B11  1  0.500000  0.832083  0.500000  1
  Sb  Sb12  1  0.000000  0.000000  0.000000  1
