# generated using pymatgen
data_CaNd3Hf2(ThSb5)2
_symmetry_space_group_name_H-M   'P 1'
_cell_length_a   9.60845481
_cell_length_b   9.54916245
_cell_length_c   6.26440400
_cell_angle_alpha   90.00000000
_cell_angle_beta   90.00000000
_cell_angle_gamma   120.42662162
_symmetry_Int_Tables_number   1
_chemical_formula_structural   CaNd3Hf2(ThSb5)2
_chemical_formula_sum   'Ca1 Nd3 Hf2 Th2 Sb10'
_cell_volume   495.61692222
_cell_formula_units_Z   1
loop_
 _symmetry_equiv_pos_site_id
 _symmetry_equiv_pos_as_xyz
  1  'x, y, z'
loop_
 _atom_site_type_symbol
 _atom_site_label
 _atom_site_symmetry_multiplicity
 _atom_site_fract_x
 _atom_site_fract_y
 _atom_site_fract_z
 _atom_site_occupancy
  Ca  Ca0  1  0.999822  0.620383  0.250000  1
  Nd  Nd1  1  0.000891  0.385691  0.750000  1
  Nd  Nd2  1  0.384585  0.383059  0.250000  1
  Nd  Nd3  1  0.617615  0.618362  0.750000  1
  Hf  Hf4  1  0.000044  0.998490  0.001769  1
  Hf  Hf5  1  0.000044  0.998490  0.498231  1
  Th  Th6  1  0.619738  0.997687  0.250000  1
  Th  Th7  1  0.376472  0.999618  0.750000  1
  Sb  Sb8  1  0.267367  0.002246  0.250000  1
  Sb  Sb9  1  0.734119  0.999687  0.750000  1
  Sb  Sb10  1  0.003222  0.265248  0.250000  1
  Sb  Sb11  1  0.996816  0.735983  0.750000  1
  Sb  Sb12  1  0.738112  0.737401  0.250000  1
  Sb  Sb13  1  0.260415  0.262476  0.750000  1
  Sb  Sb14  1  0.336753  0.668397  0.999941  1
  Sb  Sb15  1  0.663617  0.329193  0.999147  1
  Sb  Sb16  1  0.663617  0.329193  0.500853  1
  Sb  Sb17  1  0.336753  0.668397  0.500059  1
