# generated using pymatgen
data_Tb2Dy4FeCl10
_symmetry_space_group_name_H-M   'P 1'
_cell_length_a   7.11037549
_cell_length_b   8.79691585
_cell_length_c   8.85274073
_cell_angle_alpha   108.45474346
_cell_angle_beta   96.38093183
_cell_angle_gamma   105.71204525
_symmetry_Int_Tables_number   1
_chemical_formula_structural   Tb2Dy4FeCl10
_chemical_formula_sum   'Tb2 Dy4 Fe1 Cl10'
_cell_volume   493.74028846
_cell_formula_units_Z   1
loop_
 _symmetry_equiv_pos_site_id
 _symmetry_equiv_pos_as_xyz
  1  'x, y, z'
loop_
 _atom_site_type_symbol
 _atom_site_label
 _atom_site_symmetry_multiplicity
 _atom_site_fract_x
 _atom_site_fract_y
 _atom_site_fract_z
 _atom_site_occupancy
  Tb  Tb0  1  0.631126  0.053653  0.757452  1
  Tb  Tb1  1  0.368874  0.946347  0.242548  1
  Dy  Dy2  1  0.861844  0.137104  0.187016  1
  Dy  Dy3  1  0.138156  0.862896  0.812984  1
  Dy  Dy4  1  0.533102  0.703210  0.904305  1
  Dy  Dy5  1  0.466898  0.296790  0.095695  1
  Fe  Fe6  1  0.500000  0.000000  0.000000  1
  Cl  Cl7  1  0.740174  0.080600  0.452301  1
  Cl  Cl8  1  0.259826  0.919400  0.547699  1
  Cl  Cl9  1  0.953979  0.825467  0.077299  1
  Cl  Cl10  1  0.046021  0.174533  0.922701  1
  Cl  Cl11  1  0.283380  0.248587  0.342293  1
  Cl  Cl12  1  0.716620  0.751413  0.657707  1
  Cl  Cl13  1  0.589590  0.372596  0.837230  1
  Cl  Cl14  1  0.410410  0.627404  0.162770  1
  Cl  Cl15  1  0.841731  0.447977  0.274741  1
  Cl  Cl16  1  0.158269  0.552023  0.725259  1
