# generated using pymatgen
data_Ca8Ti3CrO16
_symmetry_space_group_name_H-M   'P 1'
_cell_length_a   5.41390255
_cell_length_b   6.82291902
_cell_length_c   11.48153907
_cell_angle_alpha   90.00161416
_cell_angle_beta   89.96803520
_cell_angle_gamma   89.99230204
_symmetry_Int_Tables_number   1
_chemical_formula_structural   Ca8Ti3CrO16
_chemical_formula_sum   'Ca8 Ti3 Cr1 O16'
_cell_volume   424.11212369
_cell_formula_units_Z   1
loop_
 _symmetry_equiv_pos_site_id
 _symmetry_equiv_pos_as_xyz
  1  'x, y, z'
loop_
 _atom_site_type_symbol
 _atom_site_label
 _atom_site_symmetry_multiplicity
 _atom_site_fract_x
 _atom_site_fract_y
 _atom_site_fract_z
 _atom_site_occupancy
  Ca  Ca0  1  0.005793  0.750001  0.721459  1
  Ca  Ca1  1  0.993454  0.250077  0.279247  1
  Ca  Ca2  1  0.505062  0.249993  0.777678  1
  Ca  Ca3  1  0.493070  0.750047  0.222483  1
  Ca  Ca4  1  0.498172  0.499632  0.499769  1
  Ca  Ca5  1  0.999825  0.000168  0.000010  1
  Ca  Ca6  1  0.999805  0.499905  0.000006  1
  Ca  Ca7  1  0.498167  0.000362  0.499784  1
  Ti  Ti8  1  0.434657  0.249985  0.096054  1
  Ti  Ti9  1  0.933851  0.749935  0.404555  1
  Ti  Ti10  1  0.564979  0.750034  0.904097  1
  Cr  Cr11  1  0.065518  0.249981  0.596313  1
  O  O12  1  0.782539  0.749948  0.548347  1
  O  O13  1  0.779947  0.539827  0.336984  1
  O  O14  1  0.718617  0.539850  0.836426  1
  O  O15  1  0.733649  0.249985  0.592552  1
  O  O16  1  0.715526  0.750034  0.048004  1
  O  O17  1  0.280360  0.460422  0.163283  1
  O  O18  1  0.220937  0.457593  0.662146  1
  O  O19  1  0.275297  0.749947  0.407147  1
  O  O20  1  0.779902  0.960158  0.336954  1
  O  O21  1  0.223580  0.750033  0.906124  1
  O  O22  1  0.216890  0.249989  0.453461  1
  O  O23  1  0.718620  0.960137  0.836429  1
  O  O24  1  0.221010  0.042313  0.662155  1
  O  O25  1  0.284434  0.249995  0.952029  1
  O  O26  1  0.280418  0.039655  0.163263  1
  O  O27  1  0.775924  0.249994  0.093238  1
