# generated using pymatgen
data_Ti3InRh4
_symmetry_space_group_name_H-M   'P 1'
_cell_length_a   7.95383419
_cell_length_b   7.95383355
_cell_length_c   7.95383519
_cell_angle_alpha   32.12042196
_cell_angle_beta   32.12042938
_cell_angle_gamma   32.12042485
_symmetry_Int_Tables_number   1
_chemical_formula_structural   Ti3InRh4
_chemical_formula_sum   'Ti3 In1 Rh4'
_cell_volume   126.41561217
_cell_formula_units_Z   1
loop_
 _symmetry_equiv_pos_site_id
 _symmetry_equiv_pos_as_xyz
  1  'x, y, z'
loop_
 _atom_site_type_symbol
 _atom_site_label
 _atom_site_symmetry_multiplicity
 _atom_site_fract_x
 _atom_site_fract_y
 _atom_site_fract_z
 _atom_site_occupancy
  Ti  Ti0  1  0.251670  0.251670  0.251670  1
  Ti  Ti1  1  0.748330  0.748330  0.748330  1
  Ti  Ti2  1  0.500000  0.500000  0.500000  1
  In  In3  1  0.000000  0.000000  0.000000  1
  Rh  Rh4  1  0.609553  0.609553  0.609553  1
  Rh  Rh5  1  0.131933  0.131933  0.131933  1
  Rh  Rh6  1  0.868067  0.868067  0.868067  1
  Rh  Rh7  1  0.390447  0.390447  0.390447  1
