# generated using pymatgen
data_TiSi(BW2)2
_symmetry_space_group_name_H-M   'P 1'
_cell_length_a   7.00278399
_cell_length_b   7.00278404
_cell_length_c   7.00278284
_cell_angle_alpha   128.73371777
_cell_angle_beta   128.73371025
_cell_angle_gamma   75.43941712
_symmetry_Int_Tables_number   1
_chemical_formula_structural   TiSi(BW2)2
_chemical_formula_sum   'Ti2 Si2 B4 W8'
_cell_volume   203.34972358
_cell_formula_units_Z   2
loop_
 _symmetry_equiv_pos_site_id
 _symmetry_equiv_pos_as_xyz
  1  'x, y, z'
loop_
 _atom_site_type_symbol
 _atom_site_label
 _atom_site_symmetry_multiplicity
 _atom_site_fract_x
 _atom_site_fract_y
 _atom_site_fract_z
 _atom_site_occupancy
  Ti  Ti0  1  0.000000  0.000000  0.000000  1
  Ti  Ti1  1  0.500000  0.500000  0.000000  1
  Si  Si2  1  0.250000  0.250000  0.000000  1
  Si  Si3  1  0.750000  0.750000  0.000000  1
  B  B4  1  0.624653  0.124653  0.749306  1
  B  B5  1  0.124653  0.375347  0.500000  1
  B  B6  1  0.875347  0.624653  0.500000  1
  B  B7  1  0.375347  0.875347  0.250694  1
  W  W8  1  0.524059  0.696857  0.500000  1
  W  W9  1  0.024059  0.524059  0.827201  1
  W  W10  1  0.696857  0.196857  0.172799  1
  W  W11  1  0.975941  0.475941  0.172799  1
  W  W12  1  0.196857  0.024059  0.500000  1
  W  W13  1  0.475941  0.303143  0.500000  1
  W  W14  1  0.803143  0.975941  0.500000  1
  W  W15  1  0.303143  0.803143  0.827201  1
