# generated using pymatgen
data_Nd11Dy(SiI3)4
_symmetry_space_group_name_H-M   'P 1'
_cell_length_a   10.79237506
_cell_length_b   10.79237503
_cell_length_c   10.82282025
_cell_angle_alpha   109.47035650
_cell_angle_beta   109.47035610
_cell_angle_gamma   109.35729563
_symmetry_Int_Tables_number   1
_chemical_formula_structural   Nd11Dy(SiI3)4
_chemical_formula_sum   'Nd11 Dy1 Si4 I12'
_cell_volume   971.78574247
_cell_formula_units_Z   1
loop_
 _symmetry_equiv_pos_site_id
 _symmetry_equiv_pos_as_xyz
  1  'x, y, z'
loop_
 _atom_site_type_symbol
 _atom_site_label
 _atom_site_symmetry_multiplicity
 _atom_site_fract_x
 _atom_site_fract_y
 _atom_site_fract_z
 _atom_site_occupancy
  Nd  Nd0  1  0.465720  0.482454  0.232792  1
  Nd  Nd1  1  0.751335  0.232697  0.268404  1
  Nd  Nd2  1  0.749066  0.017013  0.481896  1
  Nd  Nd3  1  0.232509  0.464658  0.482128  1
  Nd  Nd4  1  0.267303  0.748665  0.231596  1
  Nd  Nd5  1  0.035342  0.267491  0.017872  1
  Nd  Nd6  1  0.017546  0.034280  0.267208  1
  Nd  Nd7  1  0.482987  0.750934  0.018104  1
  Nd  Nd8  1  0.482850  0.232296  0.464868  1
  Nd  Nd9  1  0.018179  0.481821  0.750000  1
  Nd  Nd10  1  0.267704  0.017150  0.035132  1
  Dy  Dy11  1  0.229389  0.270611  0.750000  1
  Si  Si12  1  0.250237  0.249763  0.250000  1
  Si  Si13  1  0.499996  0.000004  0.250000  1
  Si  Si14  1  0.002712  0.249494  0.502517  1
  Si  Si15  1  0.250506  0.497288  0.997483  1
  I  I16  1  0.250053  0.757332  0.742130  1
  I  I17  1  0.508560  0.500181  0.758226  1
  I  I18  1  0.984522  0.741605  0.991924  1
  I  I19  1  0.742668  0.249947  0.757870  1
  I  I20  1  0.999819  0.991440  0.741774  1
  I  I21  1  0.250437  0.997977  0.512438  1
  I  I22  1  0.758395  0.515478  0.508076  1
  I  I23  1  0.502023  0.249563  0.987562  1
  I  I24  1  0.757905  0.742095  0.250000  1
  I  I25  1  0.742206  0.991995  0.984168  1
  I  I26  1  0.992025  0.507975  0.250000  1
  I  I27  1  0.508005  0.757794  0.515832  1
