# generated using pymatgen
data_La9Tb7(YPb4)4
_symmetry_space_group_name_H-M   'P 1'
_cell_length_a   8.32752857
_cell_length_b   8.40324577
_cell_length_c   15.94821800
_cell_angle_alpha   90.02748453
_cell_angle_beta   90.15777204
_cell_angle_gamma   90.19115657
_symmetry_Int_Tables_number   1
_chemical_formula_structural   La9Tb7(YPb4)4
_chemical_formula_sum   'La9 Tb7 Y4 Pb16'
_cell_volume   1116.01811777
_cell_formula_units_Z   1
loop_
 _symmetry_equiv_pos_site_id
 _symmetry_equiv_pos_as_xyz
  1  'x, y, z'
loop_
 _atom_site_type_symbol
 _atom_site_label
 _atom_site_symmetry_multiplicity
 _atom_site_fract_x
 _atom_site_fract_y
 _atom_site_fract_z
 _atom_site_occupancy
  La  La0  1  0.131412  0.339924  0.618161  1
  La  La1  1  0.476531  0.679922  0.597396  1
  La  La2  1  0.978759  0.821360  0.905350  1
  La  La3  1  0.521336  0.321472  0.096264  1
  La  La4  1  0.023862  0.177840  0.401430  1
  La  La5  1  0.521875  0.321793  0.401965  1
  La  La6  1  0.021120  0.178227  0.096605  1
  La  La7  1  0.479498  0.678895  0.904492  1
  La  La8  1  0.977276  0.821526  0.597121  1
  Tb  Tb9  1  0.634910  0.158961  0.622425  1
  Tb  Tb10  1  0.135481  0.341254  0.878752  1
  Tb  Tb11  1  0.364367  0.841825  0.121942  1
  Tb  Tb12  1  0.866042  0.657038  0.378489  1
  Tb  Tb13  1  0.367781  0.842278  0.375582  1
  Tb  Tb14  1  0.864578  0.658720  0.122012  1
  Tb  Tb15  1  0.634691  0.157949  0.880011  1
  Y  Y16  1  0.798207  0.495888  0.750988  1
  Y  Y17  1  0.300288  0.003979  0.751136  1
  Y  Y18  1  0.201167  0.504829  0.248492  1
  Y  Y19  1  0.701558  0.996006  0.250243  1
  Pb  Pb20  1  0.705948  0.959623  0.456363  1
  Pb  Pb21  1  0.203077  0.541346  0.043616  1
  Pb  Pb22  1  0.295985  0.041431  0.956868  1
  Pb  Pb23  1  0.784364  0.463228  0.543260  1
  Pb  Pb24  1  0.300991  0.033463  0.542520  1
  Pb  Pb25  1  0.797451  0.458749  0.956662  1
  Pb  Pb26  1  0.703456  0.958257  0.044692  1
  Pb  Pb27  1  0.206338  0.544593  0.451466  1
  Pb  Pb28  1  0.438836  0.371146  0.752703  1
  Pb  Pb29  1  0.934802  0.124679  0.752020  1
  Pb  Pb30  1  0.563492  0.628310  0.249311  1
  Pb  Pb31  1  0.062271  0.871489  0.249781  1
  Pb  Pb32  1  0.666864  0.853198  0.751137  1
  Pb  Pb33  1  0.166104  0.649843  0.752230  1
  Pb  Pb34  1  0.334249  0.147970  0.249000  1
  Pb  Pb35  1  0.835035  0.352987  0.249513  1
