# generated using pymatgen
data_YHo3Al4(IrPd)2
_symmetry_space_group_name_H-M   'P 1'
_cell_length_a   4.33942100
_cell_length_b   6.85968443
_cell_length_c   7.87301224
_cell_angle_alpha   89.85572674
_cell_angle_beta   90.00000000
_cell_angle_gamma   90.00000000
_symmetry_Int_Tables_number   1
_chemical_formula_structural   YHo3Al4(IrPd)2
_chemical_formula_sum   'Y1 Ho3 Al4 Ir2 Pd2'
_cell_volume   234.35567450
_cell_formula_units_Z   1
loop_
 _symmetry_equiv_pos_site_id
 _symmetry_equiv_pos_as_xyz
  1  'x, y, z'
loop_
 _atom_site_type_symbol
 _atom_site_label
 _atom_site_symmetry_multiplicity
 _atom_site_fract_x
 _atom_site_fract_y
 _atom_site_fract_z
 _atom_site_occupancy
  Y  Y0  1  0.250000  0.034144  0.678600  1
  Ho  Ho1  1  0.250000  0.534706  0.822465  1
  Ho  Ho2  1  0.750000  0.973644  0.317148  1
  Ho  Ho3  1  0.750000  0.473948  0.182847  1
  Al  Al4  1  0.250000  0.138997  0.066229  1
  Al  Al5  1  0.250000  0.638714  0.434018  1
  Al  Al6  1  0.750000  0.856018  0.941969  1
  Al  Al7  1  0.750000  0.355719  0.557966  1
  Ir  Ir8  1  0.250000  0.267979  0.379966  1
  Ir  Ir9  1  0.250000  0.767112  0.117933  1
  Pd  Pd10  1  0.750000  0.728101  0.620134  1
  Pd  Pd11  1  0.750000  0.230917  0.880725  1
