# generated using pymatgen
data_Cs4Li2ZrZnAs4
_symmetry_space_group_name_H-M   'P 1'
_cell_length_a   11.92463920
_cell_length_b   11.92463902
_cell_length_c   11.92463834
_cell_angle_alpha   148.06191063
_cell_angle_beta   45.28933695
_cell_angle_gamma   148.74943234
_symmetry_Int_Tables_number   1
_chemical_formula_structural   Cs4Li2ZrZnAs4
_chemical_formula_sum   'Cs4 Li2 Zr1 Zn1 As4'
_cell_volume   463.85559916
_cell_formula_units_Z   1
loop_
 _symmetry_equiv_pos_site_id
 _symmetry_equiv_pos_as_xyz
  1  'x, y, z'
loop_
 _atom_site_type_symbol
 _atom_site_label
 _atom_site_symmetry_multiplicity
 _atom_site_fract_x
 _atom_site_fract_y
 _atom_site_fract_z
 _atom_site_occupancy
  Cs  Cs0  1  0.368119  0.771924  0.124833  1
  Cs  Cs1  1  0.131881  0.256713  0.403803  1
  Cs  Cs2  1  0.852908  0.728075  0.596197  1
  Cs  Cs3  1  0.647092  0.243287  0.875167  1
  Li  Li4  1  0.750001  0.250001  0.500000  1
  Li  Li5  1  0.250001  0.750001  0.500000  1
  Zr  Zr6  1  0.250001  0.250001  0.000000  1
  Zn  Zn7  1  0.750000  0.750000  0.000000  1
  As  As8  1  0.936392  0.235447  0.170681  1
  As  As9  1  0.563607  0.734288  0.299056  1
  As  As10  1  0.435233  0.264553  0.700945  1
  As  As11  1  0.064767  0.765712  0.829319  1
