# generated using pymatgen
data_Dy11Th5(ZnRu)4
_symmetry_space_group_name_H-M   'P 1'
_cell_length_a   9.55947563
_cell_length_b   9.61960707
_cell_length_c   9.61960575
_cell_angle_alpha   59.83619937
_cell_angle_beta   60.20656002
_cell_angle_gamma   60.20656323
_symmetry_Int_Tables_number   1
_chemical_formula_structural   Dy11Th5(ZnRu)4
_chemical_formula_sum   'Dy11 Th5 Zn4 Ru4'
_cell_volume   626.66979720
_cell_formula_units_Z   1
loop_
 _symmetry_equiv_pos_site_id
 _symmetry_equiv_pos_as_xyz
  1  'x, y, z'
loop_
 _atom_site_type_symbol
 _atom_site_label
 _atom_site_symmetry_multiplicity
 _atom_site_fract_x
 _atom_site_fract_y
 _atom_site_fract_z
 _atom_site_occupancy
  Dy  Dy0  1  0.189594  0.810406  0.810406  1
  Dy  Dy1  1  0.195096  0.806342  0.188244  1
  Dy  Dy2  1  0.810319  0.188244  0.806342  1
  Dy  Dy3  1  0.195096  0.188244  0.806342  1
  Dy  Dy4  1  0.810319  0.806342  0.188244  1
  Dy  Dy5  1  0.932489  0.567511  0.567511  1
  Dy  Dy6  1  0.564851  0.935149  0.935149  1
  Dy  Dy7  1  0.562856  0.936064  0.564274  1
  Dy  Dy8  1  0.936806  0.564274  0.936064  1
  Dy  Dy9  1  0.562856  0.564274  0.936064  1
  Dy  Dy10  1  0.936806  0.936064  0.564274  1
  Th  Th11  1  0.345387  0.353046  0.353046  1
  Th  Th12  1  0.350768  0.351320  0.947144  1
  Th  Th13  1  0.350768  0.947144  0.351320  1
  Th  Th14  1  0.948521  0.353046  0.353046  1
  Th  Th15  1  0.812855  0.187145  0.187145  1
  Zn  Zn16  1  0.580847  0.579491  0.579491  1
  Zn  Zn17  1  0.579468  0.582849  0.258212  1
  Zn  Zn18  1  0.579468  0.258212  0.582849  1
  Zn  Zn19  1  0.260170  0.579491  0.579491  1
  Ru  Ru20  1  0.129292  0.147417  0.147417  1
  Ru  Ru21  1  0.144750  0.141977  0.568525  1
  Ru  Ru22  1  0.144750  0.568525  0.141977  1
  Ru  Ru23  1  0.575874  0.147417  0.147417  1
