# generated using pymatgen
data_EuTmLuSe4
_symmetry_space_group_name_H-M   'P 1'
_cell_length_a   4.07987100
_cell_length_b   12.42898600
_cell_length_c   14.73904800
_cell_angle_alpha   90.00000000
_cell_angle_beta   90.00000000
_cell_angle_gamma   90.00000000
_symmetry_Int_Tables_number   1
_chemical_formula_structural   EuTmLuSe4
_chemical_formula_sum   'Eu4 Tm4 Lu4 Se16'
_cell_volume   747.39736699
_cell_formula_units_Z   4
loop_
 _symmetry_equiv_pos_site_id
 _symmetry_equiv_pos_as_xyz
  1  'x, y, z'
loop_
 _atom_site_type_symbol
 _atom_site_label
 _atom_site_symmetry_multiplicity
 _atom_site_fract_x
 _atom_site_fract_y
 _atom_site_fract_z
 _atom_site_occupancy
  Eu  Eu0  1  0.750000  0.740371  0.834240  1
  Eu  Eu1  1  0.250000  0.259629  0.165760  1
  Eu  Eu2  1  0.750000  0.240371  0.665760  1
  Eu  Eu3  1  0.250000  0.759629  0.334240  1
  Tm  Tm4  1  0.750000  0.062530  0.889030  1
  Tm  Tm5  1  0.250000  0.937470  0.110970  1
  Tm  Tm6  1  0.750000  0.562530  0.610970  1
  Tm  Tm7  1  0.250000  0.437470  0.389030  1
  Lu  Lu8  1  0.750000  0.082567  0.402657  1
  Lu  Lu9  1  0.250000  0.917433  0.597343  1
  Lu  Lu10  1  0.750000  0.582567  0.097343  1
  Lu  Lu11  1  0.250000  0.417433  0.902657  1
  Se  Se12  1  0.750000  0.293512  0.327355  1
  Se  Se13  1  0.250000  0.706488  0.672645  1
  Se  Se14  1  0.750000  0.793512  0.172645  1
  Se  Se15  1  0.250000  0.206488  0.827355  1
  Se  Se16  1  0.750000  0.370169  0.030792  1
  Se  Se17  1  0.250000  0.629831  0.969208  1
  Se  Se18  1  0.750000  0.870169  0.469208  1
  Se  Se19  1  0.250000  0.129831  0.530792  1
  Se  Se20  1  0.750000  0.972756  0.714652  1
  Se  Se21  1  0.250000  0.027244  0.285348  1
  Se  Se22  1  0.750000  0.472756  0.785348  1
  Se  Se23  1  0.250000  0.527244  0.214652  1
  Se  Se24  1  0.750000  0.091771  0.077975  1
  Se  Se25  1  0.250000  0.908229  0.922025  1
  Se  Se26  1  0.750000  0.591771  0.422025  1
  Se  Se27  1  0.250000  0.408229  0.577975  1
