# generated using pymatgen
data_Lu4Sc4Cr(B8Ru)3
_symmetry_space_group_name_H-M   'P 1'
_cell_length_a   3.50355400
_cell_length_b   8.92797827
_cell_length_c   11.28099704
_cell_angle_alpha   89.99090129
_cell_angle_beta   90.00000000
_cell_angle_gamma   90.00000000
_symmetry_Int_Tables_number   1
_chemical_formula_structural   Lu4Sc4Cr(B8Ru)3
_chemical_formula_sum   'Lu4 Sc4 Cr1 B24 Ru3'
_cell_volume   352.86567954
_cell_formula_units_Z   1
loop_
 _symmetry_equiv_pos_site_id
 _symmetry_equiv_pos_as_xyz
  1  'x, y, z'
loop_
 _atom_site_type_symbol
 _atom_site_label
 _atom_site_symmetry_multiplicity
 _atom_site_fract_x
 _atom_site_fract_y
 _atom_site_fract_z
 _atom_site_occupancy
  Lu  Lu0  1  0.000000  0.819587  0.084944  1
  Lu  Lu1  1  0.000000  0.182342  0.911586  1
  Lu  Lu2  1  0.000000  0.320117  0.416742  1
  Lu  Lu3  1  0.000000  0.677814  0.587434  1
  Sc  Sc4  1  0.000000  0.443994  0.127630  1
  Sc  Sc5  1  0.000000  0.554230  0.871384  1
  Sc  Sc6  1  0.000000  0.943268  0.372719  1
  Sc  Sc7  1  0.000000  0.057719  0.627546  1
  Cr  Cr8  1  0.000000  0.360685  0.680926  1
  B  B9  1  0.500000  0.053979  0.065735  1
  B  B10  1  0.500000  0.946227  0.933580  1
  B  B11  1  0.500000  0.553705  0.434198  1
  B  B12  1  0.500000  0.446490  0.566774  1
  B  B13  1  0.500000  0.252201  0.079901  1
  B  B14  1  0.500000  0.747211  0.919352  1
  B  B15  1  0.500000  0.751678  0.420173  1
  B  B16  1  0.500000  0.248455  0.580867  1
  B  B17  1  0.500000  0.293363  0.235543  1
  B  B18  1  0.500000  0.706134  0.764819  1
  B  B19  1  0.500000  0.793518  0.264825  1
  B  B20  1  0.500000  0.206748  0.734893  1
  B  B21  1  0.500000  0.129020  0.317454  1
  B  B22  1  0.500000  0.871222  0.683291  1
  B  B23  1  0.500000  0.628837  0.182700  1
  B  B24  1  0.500000  0.371297  0.816138  1
  B  B25  1  0.500000  0.480419  0.286787  1
  B  B26  1  0.500000  0.519606  0.713044  1
  B  B27  1  0.500000  0.980428  0.213248  1
  B  B28  1  0.500000  0.020149  0.786359  1
  B  B29  1  0.500000  0.099662  0.472586  1
  B  B30  1  0.500000  0.899909  0.527562  1
  B  B31  1  0.500000  0.599728  0.027354  1
  B  B32  1  0.500000  0.400258  0.972680  1
  Ru  Ru33  1  0.000000  0.139201  0.180754  1
  Ru  Ru34  1  0.000000  0.860854  0.819853  1
  Ru  Ru35  1  0.000000  0.639943  0.318621  1
