# generated using pymatgen
data_Zr5Hg2AuO
_symmetry_space_group_name_H-M   'P 1'
_cell_length_a   8.61892434
_cell_length_b   8.61892443
_cell_length_c   5.43966700
_cell_angle_alpha   90.00000000
_cell_angle_beta   90.00000000
_cell_angle_gamma   120.53330046
_symmetry_Int_Tables_number   1
_chemical_formula_structural   Zr5Hg2AuO
_chemical_formula_sum   'Zr10 Hg4 Au2 O2'
_cell_volume   348.05675158
_cell_formula_units_Z   2
loop_
 _symmetry_equiv_pos_site_id
 _symmetry_equiv_pos_as_xyz
  1  'x, y, z'
loop_
 _atom_site_type_symbol
 _atom_site_label
 _atom_site_symmetry_multiplicity
 _atom_site_fract_x
 _atom_site_fract_y
 _atom_site_fract_z
 _atom_site_occupancy
  Zr  Zr0  1  0.223030  0.002214  0.750000  1
  Zr  Zr1  1  0.776970  0.997786  0.250000  1
  Zr  Zr2  1  0.002214  0.223030  0.750000  1
  Zr  Zr3  1  0.997786  0.776970  0.250000  1
  Zr  Zr4  1  0.770649  0.770649  0.750000  1
  Zr  Zr5  1  0.229351  0.229351  0.250000  1
  Zr  Zr6  1  0.338676  0.661324  0.500000  1
  Zr  Zr7  1  0.661324  0.338676  0.500000  1
  Zr  Zr8  1  0.661324  0.338676  0.000000  1
  Zr  Zr9  1  0.338676  0.661324  0.000000  1
  Hg  Hg10  1  0.600498  0.003117  0.750000  1
  Hg  Hg11  1  0.399502  0.996883  0.250000  1
  Hg  Hg12  1  0.003117  0.600498  0.750000  1
  Hg  Hg13  1  0.996883  0.399502  0.250000  1
  Au  Au14  1  0.399789  0.399789  0.750000  1
  Au  Au15  1  0.600211  0.600211  0.250000  1
  O  O16  1  0.000000  0.000000  0.500000  1
  O  O17  1  0.000000  0.000000  0.000000  1
