# generated using pymatgen
data_Th10InBi3Pb4
_symmetry_space_group_name_H-M   'P 1'
_cell_length_a   9.79861360
_cell_length_b   9.80031631
_cell_length_c   6.67091000
_cell_angle_alpha   89.96000533
_cell_angle_beta   90.01999204
_cell_angle_gamma   120.00574459
_symmetry_Int_Tables_number   1
_chemical_formula_structural   Th10InBi3Pb4
_chemical_formula_sum   'Th10 In1 Bi3 Pb4'
_cell_volume   554.74729049
_cell_formula_units_Z   1
loop_
 _symmetry_equiv_pos_site_id
 _symmetry_equiv_pos_as_xyz
  1  'x, y, z'
loop_
 _atom_site_type_symbol
 _atom_site_label
 _atom_site_symmetry_multiplicity
 _atom_site_fract_x
 _atom_site_fract_y
 _atom_site_fract_z
 _atom_site_occupancy
  Th  Th0  1  0.667266  0.334154  0.501275  1
  Th  Th1  1  0.332734  0.666889  0.501275  1
  Th  Th2  1  0.332875  0.666682  0.999165  1
  Th  Th3  1  0.667125  0.333807  0.999165  1
  Th  Th4  1  0.715706  0.714425  0.246929  1
  Th  Th5  1  0.284294  0.998718  0.246929  1
  Th  Th6  1  0.000000  0.285020  0.246268  1
  Th  Th7  1  0.285220  0.285304  0.753300  1
  Th  Th8  1  0.714780  0.000084  0.753300  1
  Th  Th9  1  0.000000  0.714618  0.753297  1
  In  In10  1  0.000000  0.999501  0.998458  1
  Bi  Bi11  1  0.000000  0.000017  0.500056  1
  Bi  Bi12  1  0.378388  0.378236  0.249266  1
  Bi  Bi13  1  0.621612  0.999849  0.249266  1
  Pb  Pb14  1  0.000000  0.623081  0.249075  1
  Pb  Pb15  1  0.623046  0.622619  0.751115  1
  Pb  Pb16  1  0.376954  0.999574  0.751115  1
  Pb  Pb17  1  0.000000  0.377424  0.750746  1
