# generated using pymatgen
data_YbBi6(PO5)4
_symmetry_space_group_name_H-M   'P 1'
_cell_length_a   6.97729583
_cell_length_b   7.68732614
_cell_length_c   9.28691257
_cell_angle_alpha   106.94839197
_cell_angle_beta   93.76686141
_cell_angle_gamma   112.54311872
_symmetry_Int_Tables_number   1
_chemical_formula_structural   YbBi6(PO5)4
_chemical_formula_sum   'Yb1 Bi6 P4 O20'
_cell_volume   431.10885265
_cell_formula_units_Z   1
loop_
 _symmetry_equiv_pos_site_id
 _symmetry_equiv_pos_as_xyz
  1  'x, y, z'
loop_
 _atom_site_type_symbol
 _atom_site_label
 _atom_site_symmetry_multiplicity
 _atom_site_fract_x
 _atom_site_fract_y
 _atom_site_fract_z
 _atom_site_occupancy
  Yb  Yb0  1  0.000000  0.500000  0.000000  1
  Bi  Bi1  1  0.810969  0.802643  0.323073  1
  Bi  Bi2  1  0.336220  0.632689  0.512399  1
  Bi  Bi3  1  0.432939  0.291324  0.085161  1
  Bi  Bi4  1  0.567061  0.708676  0.914839  1
  Bi  Bi5  1  0.663780  0.367311  0.487601  1
  Bi  Bi6  1  0.189031  0.197357  0.676927  1
  P  P7  1  0.338475  0.886698  0.250452  1
  P  P8  1  0.661525  0.113302  0.749548  1
  P  P9  1  0.948248  0.234039  0.237741  1
  P  P10  1  0.051752  0.765961  0.762259  1
  O  O11  1  0.448739  0.472925  0.637628  1
  O  O12  1  0.149219  0.999363  0.833848  1
  O  O13  1  0.341365  0.806552  0.077414  1
  O  O14  1  0.224784  0.683803  0.759558  1
  O  O15  1  0.516355  0.874590  0.352219  1
  O  O16  1  0.892015  0.669590  0.855247  1
  O  O17  1  0.483645  0.125410  0.647781  1
  O  O18  1  0.054170  0.297402  0.410135  1
  O  O19  1  0.637734  0.893468  0.696070  1
  O  O20  1  0.850781  0.000637  0.166152  1
  O  O21  1  0.775216  0.316197  0.240442  1
  O  O22  1  0.945830  0.702598  0.589865  1
  O  O23  1  0.551261  0.527075  0.362372  1
  O  O24  1  0.881886  0.256272  0.732157  1
  O  O25  1  0.313533  0.409792  0.905045  1
  O  O26  1  0.658635  0.193448  0.922586  1
  O  O27  1  0.686467  0.590208  0.094955  1
  O  O28  1  0.107985  0.330410  0.144753  1
  O  O29  1  0.362266  0.106532  0.303930  1
  O  O30  1  0.118114  0.743728  0.267843  1
