# generated using pymatgen
data_Ti6Zn3PtO2
_symmetry_space_group_name_H-M   'P 1'
_cell_length_a   6.86412820
_cell_length_b   6.86681619
_cell_length_c   6.85177800
_cell_angle_alpha   90.00000000
_cell_angle_beta   90.00000000
_cell_angle_gamma   89.90844986
_symmetry_Int_Tables_number   1
_chemical_formula_structural   Ti6Zn3PtO2
_chemical_formula_sum   'Ti12 Zn6 Pt2 O4'
_cell_volume   322.95613344
_cell_formula_units_Z   2
loop_
 _symmetry_equiv_pos_site_id
 _symmetry_equiv_pos_as_xyz
  1  'x, y, z'
loop_
 _atom_site_type_symbol
 _atom_site_label
 _atom_site_symmetry_multiplicity
 _atom_site_fract_x
 _atom_site_fract_y
 _atom_site_fract_z
 _atom_site_occupancy
  Ti  Ti0  1  0.795451  0.958595  0.372160  1
  Ti  Ti1  1  0.704549  0.041405  0.872160  1
  Ti  Ti2  1  0.213068  0.457989  0.120622  1
  Ti  Ti3  1  0.286932  0.542011  0.620622  1
  Ti  Ti4  1  0.961826  0.370639  0.794375  1
  Ti  Ti5  1  0.045585  0.881788  0.709935  1
  Ti  Ti6  1  0.454415  0.118212  0.209935  1
  Ti  Ti7  1  0.538174  0.629361  0.294375  1
  Ti  Ti8  1  0.369530  0.795893  0.962467  1
  Ti  Ti9  1  0.879936  0.711937  0.043629  1
  Ti  Ti10  1  0.130470  0.204107  0.462467  1
  Ti  Ti11  1  0.620064  0.288063  0.543629  1
  Zn  Zn12  1  0.818051  0.321722  0.180557  1
  Zn  Zn13  1  0.681949  0.678278  0.680557  1
  Zn  Zn14  1  0.575315  0.436181  0.931398  1
  Zn  Zn15  1  0.438329  0.925396  0.569443  1
  Zn  Zn16  1  0.924685  0.563819  0.431398  1
  Zn  Zn17  1  0.061671  0.074604  0.069443  1
  Pt  Pt18  1  0.177031  0.820208  0.321444  1
  Pt  Pt19  1  0.322969  0.179792  0.821444  1
  O  O20  1  0.874284  0.125607  0.623184  1
  O  O21  1  0.625716  0.874393  0.123184  1
  O  O22  1  0.125565  0.627068  0.870785  1
  O  O23  1  0.374435  0.372932  0.370785  1
