# generated using pymatgen
data_Cs2Ti(TeO4)3
_symmetry_space_group_name_H-M   'P 1'
_cell_length_a   7.27696233
_cell_length_b   7.27696292
_cell_length_c   7.27719551
_cell_angle_alpha   60.32163935
_cell_angle_beta   60.32163709
_cell_angle_gamma   60.32596837
_symmetry_Int_Tables_number   1
_chemical_formula_structural   Cs2Ti(TeO4)3
_chemical_formula_sum   'Cs2 Ti1 Te3 O12'
_cell_volume   274.48111996
_cell_formula_units_Z   1
loop_
 _symmetry_equiv_pos_site_id
 _symmetry_equiv_pos_as_xyz
  1  'x, y, z'
loop_
 _atom_site_type_symbol
 _atom_site_label
 _atom_site_symmetry_multiplicity
 _atom_site_fract_x
 _atom_site_fract_y
 _atom_site_fract_z
 _atom_site_occupancy
  Cs  Cs0  1  0.125262  0.134954  0.629467  1
  Cs  Cs1  1  0.865046  0.874738  0.370533  1
  Ti  Ti2  1  0.497178  0.502822  0.000000  1
  Te  Te3  1  0.497671  0.002415  0.000131  1
  Te  Te4  1  0.997585  0.502329  0.999869  1
  Te  Te5  1  0.497611  0.502389  0.500000  1
  O  O6  1  0.821880  0.826737  0.930731  1
  O  O7  1  0.433964  0.438409  0.317900  1
  O  O8  1  0.433838  0.820612  0.936013  1
  O  O9  1  0.821785  0.433087  0.324198  1
  O  O10  1  0.815449  0.438433  0.936099  1
  O  O11  1  0.428738  0.826730  0.324349  1
  O  O12  1  0.173263  0.178120  0.069269  1
  O  O13  1  0.561591  0.566036  0.682100  1
  O  O14  1  0.561567  0.184551  0.063901  1
  O  O15  1  0.173270  0.571262  0.675651  1
  O  O16  1  0.179388  0.566162  0.063987  1
  O  O17  1  0.566913  0.178215  0.675802  1
