# generated using pymatgen
data_Er4Sc(InSb)2
_symmetry_space_group_name_H-M   'P 1'
_cell_length_a   8.66022654
_cell_length_b   8.66022750
_cell_length_c   7.96414900
_cell_angle_alpha   90.00000000
_cell_angle_beta   90.00000000
_cell_angle_gamma   125.24076518
_symmetry_Int_Tables_number   1
_chemical_formula_structural   Er4Sc(InSb)2
_chemical_formula_sum   'Er8 Sc2 In4 Sb4'
_cell_volume   487.84164069
_cell_formula_units_Z   2
loop_
 _symmetry_equiv_pos_site_id
 _symmetry_equiv_pos_as_xyz
  1  'x, y, z'
loop_
 _atom_site_type_symbol
 _atom_site_label
 _atom_site_symmetry_multiplicity
 _atom_site_fract_x
 _atom_site_fract_y
 _atom_site_fract_z
 _atom_site_occupancy
  Er  Er0  1  0.032376  0.306027  0.334106  1
  Er  Er1  1  0.967624  0.693973  0.665894  1
  Er  Er2  1  0.467624  0.193973  0.834106  1
  Er  Er3  1  0.806027  0.532376  0.165894  1
  Er  Er4  1  0.532376  0.806027  0.165894  1
  Er  Er5  1  0.193973  0.467624  0.834106  1
  Er  Er6  1  0.693973  0.967624  0.665894  1
  Er  Er7  1  0.306027  0.032376  0.334106  1
  Sc  Sc8  1  0.000000  0.000000  0.000000  1
  Sc  Sc9  1  0.500000  0.500000  0.500000  1
  In  In10  1  0.367390  0.367390  0.131296  1
  In  In11  1  0.632610  0.632610  0.868704  1
  In  In12  1  0.132610  0.132610  0.631296  1
  In  In13  1  0.867390  0.867390  0.368704  1
  Sb  Sb14  1  0.798762  0.201238  0.000000  1
  Sb  Sb15  1  0.201238  0.798762  0.000000  1
  Sb  Sb16  1  0.701238  0.298762  0.500000  1
  Sb  Sb17  1  0.298762  0.701238  0.500000  1
