# generated using pymatgen
data_YbHoAlIr3
_symmetry_space_group_name_H-M   'P 1'
_cell_length_a   5.12244501
_cell_length_b   5.12244372
_cell_length_c   5.12244361
_cell_angle_alpha   65.76814444
_cell_angle_beta   65.76815164
_cell_angle_gamma   65.76813616
_symmetry_Int_Tables_number   1
_chemical_formula_structural   YbHoAlIr3
_chemical_formula_sum   'Yb1 Ho1 Al1 Ir3'
_cell_volume   106.93140936
_cell_formula_units_Z   1
loop_
 _symmetry_equiv_pos_site_id
 _symmetry_equiv_pos_as_xyz
  1  'x, y, z'
loop_
 _atom_site_type_symbol
 _atom_site_label
 _atom_site_symmetry_multiplicity
 _atom_site_fract_x
 _atom_site_fract_y
 _atom_site_fract_z
 _atom_site_occupancy
  Yb  Yb0  1  0.998594  0.998594  0.998594  1
  Ho  Ho1  1  0.250892  0.250892  0.250892  1
  Al  Al2  1  0.624680  0.624680  0.624680  1
  Ir  Ir3  1  0.626324  0.626324  0.123187  1
  Ir  Ir4  1  0.626324  0.123187  0.626324  1
  Ir  Ir5  1  0.123187  0.626324  0.626324  1
