# generated using pymatgen
data_Pm4Mn3ZnO12
_symmetry_space_group_name_H-M   'P 1'
_cell_length_a   5.43345649
_cell_length_b   5.75595696
_cell_length_c   7.74851930
_cell_angle_alpha   90.14715184
_cell_angle_beta   90.37570848
_cell_angle_gamma   89.22109742
_symmetry_Int_Tables_number   1
_chemical_formula_structural   Pm4Mn3ZnO12
_chemical_formula_sum   'Pm4 Mn3 Zn1 O12'
_cell_volume   242.30459338
_cell_formula_units_Z   1
loop_
 _symmetry_equiv_pos_site_id
 _symmetry_equiv_pos_as_xyz
  1  'x, y, z'
loop_
 _atom_site_type_symbol
 _atom_site_label
 _atom_site_symmetry_multiplicity
 _atom_site_fract_x
 _atom_site_fract_y
 _atom_site_fract_z
 _atom_site_occupancy
  Pm  Pm0  1  0.984373  0.065754  0.248851  1
  Pm  Pm1  1  0.516893  0.569908  0.247351  1
  Pm  Pm2  1  0.483107  0.430092  0.752649  1
  Pm  Pm3  1  0.015627  0.934246  0.751149  1
  Mn  Mn4  1  0.000000  0.499999  0.000000  1
  Mn  Mn5  1  0.500001  0.000000  0.500000  1
  Mn  Mn6  1  0.000000  0.499999  0.500000  1
  Zn  Zn7  1  0.500001  0.000000  0.000000  1
  O  O8  1  0.712105  0.313910  0.049057  1
  O  O9  1  0.815328  0.787396  0.051808  1
  O  O10  1  0.100071  0.470131  0.241944  1
  O  O11  1  0.404228  0.973203  0.256686  1
  O  O12  1  0.713693  0.315665  0.448657  1
  O  O13  1  0.795343  0.808444  0.450327  1
  O  O14  1  0.204657  0.191556  0.549673  1
  O  O15  1  0.286307  0.684334  0.551343  1
  O  O16  1  0.595772  0.026798  0.743314  1
  O  O17  1  0.899929  0.529869  0.758056  1
  O  O18  1  0.184672  0.212604  0.948193  1
  O  O19  1  0.287895  0.686089  0.950944  1
