# generated using pymatgen
data_Cs3Os2O9
_symmetry_space_group_name_H-M   'P 1'
_cell_length_a   6.52735086
_cell_length_b   6.52350617
_cell_length_c   14.93109036
_cell_angle_alpha   91.79261254
_cell_angle_beta   89.74411821
_cell_angle_gamma   120.16513858
_symmetry_Int_Tables_number   1
_chemical_formula_structural   Cs3Os2O9
_chemical_formula_sum   'Cs6 Os4 O18'
_cell_volume   549.37093259
_cell_formula_units_Z   2
loop_
 _symmetry_equiv_pos_site_id
 _symmetry_equiv_pos_as_xyz
  1  'x, y, z'
loop_
 _atom_site_type_symbol
 _atom_site_label
 _atom_site_symmetry_multiplicity
 _atom_site_fract_x
 _atom_site_fract_y
 _atom_site_fract_z
 _atom_site_occupancy
  Cs  Cs0  1  0.662161  0.323566  0.250287  1
  Cs  Cs1  1  0.337839  0.676434  0.749713  1
  Cs  Cs2  1  0.661309  0.324102  0.923529  1
  Cs  Cs3  1  0.338691  0.675898  0.076471  1
  Cs  Cs4  1  0.328449  0.659273  0.423734  1
  Cs  Cs5  1  0.671551  0.340727  0.576266  1
  Os  Os6  1  0.011871  0.024423  0.149698  1
  Os  Os7  1  0.988129  0.975577  0.850302  1
  Os  Os8  1  0.015468  0.027400  0.650175  1
  Os  Os9  1  0.984532  0.972600  0.349825  1
  O  O10  1  0.273894  0.149013  0.400312  1
  O  O11  1  0.726106  0.850987  0.599688  1
  O  O12  1  0.140670  0.272216  0.893651  1
  O  O13  1  0.859330  0.727784  0.106349  1
  O  O14  1  0.249168  0.117826  0.745476  1
  O  O15  1  0.873621  0.743236  0.756815  1
  O  O16  1  0.872615  0.117747  0.746842  1
  O  O17  1  0.750832  0.882174  0.254524  1
  O  O18  1  0.126379  0.256764  0.243185  1
  O  O19  1  0.127385  0.882253  0.253158  1
  O  O20  1  0.855972  0.708233  0.408703  1
  O  O21  1  0.865911  0.141837  0.402556  1
  O  O22  1  0.144028  0.291767  0.591297  1
  O  O23  1  0.134089  0.858163  0.597444  1
  O  O24  1  0.714578  0.858505  0.909129  1
  O  O25  1  0.138180  0.852787  0.908832  1
  O  O26  1  0.285422  0.141495  0.090871  1
  O  O27  1  0.861820  0.147213  0.091168  1
