# generated using pymatgen
data_YTmNb6Fe8(Co2P3)4
_symmetry_space_group_name_H-M   'P 1'
_cell_length_a   11.98900100
_cell_length_b   11.98900174
_cell_length_c   3.65158800
_cell_angle_alpha   90.00000000
_cell_angle_beta   90.00000000
_cell_angle_gamma   120.00000071
_symmetry_Int_Tables_number   1
_chemical_formula_structural   YTmNb6Fe8(Co2P3)4
_chemical_formula_sum   'Y1 Tm1 Nb6 Fe8 Co8 P12'
_cell_volume   454.54660619
_cell_formula_units_Z   1
loop_
 _symmetry_equiv_pos_site_id
 _symmetry_equiv_pos_as_xyz
  1  'x, y, z'
loop_
 _atom_site_type_symbol
 _atom_site_label
 _atom_site_symmetry_multiplicity
 _atom_site_fract_x
 _atom_site_fract_y
 _atom_site_fract_z
 _atom_site_occupancy
  Y  Y0  1  0.333491  0.666748  0.000000  1
  Tm  Tm1  1  0.665772  0.333657  0.000000  1
  Nb  Nb2  1  0.816979  0.998943  0.500000  1
  Nb  Nb3  1  0.000277  0.816880  0.500000  1
  Nb  Nb4  1  0.183680  0.183263  0.500000  1
  Nb  Nb5  1  0.440834  0.000833  0.000000  1
  Nb  Nb6  1  0.999946  0.441150  0.000000  1
  Nb  Nb7  1  0.559714  0.559245  0.000000  1
  Fe  Fe8  1  0.273510  0.000824  0.500000  1
  Fe  Fe9  1  0.996690  0.271014  0.500000  1
  Fe  Fe10  1  0.727371  0.726652  0.500000  1
  Fe  Fe11  1  0.633428  0.809752  0.000000  1
  Fe  Fe12  1  0.190572  0.823323  0.000000  1
  Fe  Fe13  1  0.175476  0.366109  0.000000  1
  Fe  Fe14  1  0.368114  0.177921  0.000000  1
  Fe  Fe15  1  0.809692  0.631673  0.000000  1
  Co  Co16  1  0.821620  0.189037  0.000000  1
  Co  Co17  1  0.523068  0.878631  0.500000  1
  Co  Co18  1  0.122605  0.644020  0.500000  1
  Co  Co19  1  0.355393  0.478429  0.500000  1
  Co  Co20  1  0.480851  0.356699  0.500000  1
  Co  Co21  1  0.875224  0.518870  0.500000  1
  Co  Co22  1  0.645330  0.126151  0.500000  1
  Co  Co23  1  0.999797  0.999407  0.000000  1
  P  P24  1  0.174401  0.000385  0.000000  1
  P  P25  1  0.000860  0.173423  0.000000  1
  P  P26  1  0.826292  0.825034  0.000000  1
  P  P27  1  0.526537  0.694657  0.500000  1
  P  P28  1  0.305507  0.831826  0.500000  1
  P  P29  1  0.167995  0.473188  0.500000  1
  P  P30  1  0.475370  0.170119  0.500000  1
  P  P31  1  0.694038  0.524603  0.500000  1
  P  P32  1  0.830686  0.308448  0.500000  1
  P  P33  1  0.648428  0.998463  0.000000  1
  P  P34  1  0.000183  0.649963  0.000000  1
  P  P35  1  0.350270  0.350661  0.000000  1
