# generated using pymatgen
data_Li3Nd2LuPt3
_symmetry_space_group_name_H-M   'P 1'
_cell_length_a   7.26243200
_cell_length_b   7.28772291
_cell_length_c   4.14089600
_cell_angle_alpha   90.00000000
_cell_angle_beta   90.00000000
_cell_angle_gamma   120.11524715
_symmetry_Int_Tables_number   1
_chemical_formula_structural   Li3Nd2LuPt3
_chemical_formula_sum   'Li3 Nd2 Lu1 Pt3'
_cell_volume   189.58036911
_cell_formula_units_Z   1
loop_
 _symmetry_equiv_pos_site_id
 _symmetry_equiv_pos_as_xyz
  1  'x, y, z'
loop_
 _atom_site_type_symbol
 _atom_site_label
 _atom_site_symmetry_multiplicity
 _atom_site_fract_x
 _atom_site_fract_y
 _atom_site_fract_z
 _atom_site_occupancy
  Li  Li0  1  0.776543  0.767402  0.500000  1
  Li  Li1  1  0.223457  0.990859  0.500000  1
  Li  Li2  1  0.000000  0.232612  0.500000  1
  Nd  Nd3  1  0.410617  0.413231  0.000000  1
  Nd  Nd4  1  0.589383  0.002613  0.000000  1
  Lu  Lu5  1  0.000000  0.594766  0.000000  1
  Pt  Pt6  1  0.000000  0.987415  0.000000  1
  Pt  Pt7  1  0.686903  0.349001  0.500000  1
  Pt  Pt8  1  0.313097  0.662098  0.500000  1
