# generated using pymatgen
data_Nd16Y4Si15Sb
_symmetry_space_group_name_H-M   'P 1'
_cell_length_a   7.64454200
_cell_length_b   7.98138982
_cell_length_c   15.08942800
_cell_angle_alpha   90.00000000
_cell_angle_beta   90.00000000
_cell_angle_gamma   89.84603884
_symmetry_Int_Tables_number   1
_chemical_formula_structural   Nd16Y4Si15Sb
_chemical_formula_sum   'Nd16 Y4 Si15 Sb1'
_cell_volume   920.66408725
_cell_formula_units_Z   1
loop_
 _symmetry_equiv_pos_site_id
 _symmetry_equiv_pos_as_xyz
  1  'x, y, z'
loop_
 _atom_site_type_symbol
 _atom_site_label
 _atom_site_symmetry_multiplicity
 _atom_site_fract_x
 _atom_site_fract_y
 _atom_site_fract_z
 _atom_site_occupancy
  Nd  Nd0  1  0.808950  0.321464  0.622878  1
  Nd  Nd1  1  0.463447  0.685840  0.900273  1
  Nd  Nd2  1  0.963770  0.812071  0.898689  1
  Nd  Nd3  1  0.183245  0.680252  0.119957  1
  Nd  Nd4  1  0.703571  0.832549  0.117150  1
  Nd  Nd5  1  0.308434  0.179130  0.876286  1
  Nd  Nd6  1  0.183245  0.680252  0.380043  1
  Nd  Nd7  1  0.036546  0.184815  0.097978  1
  Nd  Nd8  1  0.308434  0.179130  0.623714  1
  Nd  Nd9  1  0.535267  0.308974  0.401355  1
  Nd  Nd10  1  0.808950  0.321464  0.877122  1
  Nd  Nd11  1  0.963770  0.812071  0.601311  1
  Nd  Nd12  1  0.463447  0.685840  0.599727  1
  Nd  Nd13  1  0.036546  0.184815  0.402022  1
  Nd  Nd14  1  0.703571  0.832549  0.382850  1
  Nd  Nd15  1  0.535267  0.308974  0.098645  1
  Y  Y16  1  0.139381  0.516343  0.750000  1
  Y  Y17  1  0.871402  0.483519  0.250000  1
  Y  Y18  1  0.363066  0.011550  0.250000  1
  Y  Y19  1  0.638744  0.986015  0.750000  1
  Si  Si20  1  0.230197  0.355920  0.250000  1
  Si  Si21  1  0.860954  0.524165  0.459226  1
  Si  Si22  1  0.511253  0.405260  0.750000  1
  Si  Si23  1  0.633687  0.026321  0.954498  1
  Si  Si24  1  0.010577  0.095921  0.750000  1
  Si  Si25  1  0.753386  0.626684  0.750000  1
  Si  Si26  1  0.744749  0.128557  0.250000  1
  Si  Si27  1  0.364536  0.972360  0.459860  1
  Si  Si28  1  0.991255  0.902739  0.250000  1
  Si  Si29  1  0.364536  0.972360  0.040140  1
  Si  Si30  1  0.633687  0.026321  0.545502  1
  Si  Si31  1  0.135620  0.473783  0.957181  1
  Si  Si32  1  0.135620  0.473783  0.542819  1
  Si  Si33  1  0.860954  0.524165  0.040774  1
  Si  Si34  1  0.254075  0.873975  0.750000  1
  Sb  Sb35  1  0.495857  0.610068  0.250000  1
