# generated using pymatgen
data_Na2CuAsSe3
_symmetry_space_group_name_H-M   'P 1'
_cell_length_a   17.60534700
_cell_length_b   5.94036449
_cell_length_c   7.50591903
_cell_angle_alpha   62.09522138
_cell_angle_beta   90.00000000
_cell_angle_gamma   90.00000000
_symmetry_Int_Tables_number   1
_chemical_formula_structural   Na2CuAsSe3
_chemical_formula_sum   'Na8 Cu4 As4 Se12'
_cell_volume   693.71244423
_cell_formula_units_Z   4
loop_
 _symmetry_equiv_pos_site_id
 _symmetry_equiv_pos_as_xyz
  1  'x, y, z'
loop_
 _atom_site_type_symbol
 _atom_site_label
 _atom_site_symmetry_multiplicity
 _atom_site_fract_x
 _atom_site_fract_y
 _atom_site_fract_z
 _atom_site_occupancy
  Na  Na0  1  0.037822  0.823659  0.326936  1
  Na  Na1  1  0.537822  0.176341  0.173064  1
  Na  Na2  1  0.134083  0.578485  0.897443  1
  Na  Na3  1  0.634083  0.421515  0.602557  1
  Na  Na4  1  0.865917  0.421515  0.102557  1
  Na  Na5  1  0.365917  0.578485  0.397443  1
  Na  Na6  1  0.962178  0.176341  0.673064  1
  Na  Na7  1  0.462178  0.823659  0.826936  1
  Cu  Cu8  1  0.222225  0.912158  0.081220  1
  Cu  Cu9  1  0.277775  0.912158  0.581220  1
  Cu  Cu10  1  0.777775  0.087842  0.918780  1
  Cu  Cu11  1  0.722225  0.087842  0.418780  1
  As  As12  1  0.175235  0.242010  0.528958  1
  As  As13  1  0.824765  0.757990  0.471042  1
  As  As14  1  0.324765  0.242010  0.028958  1
  As  As15  1  0.675235  0.757990  0.971042  1
  Se  Se16  1  0.199260  0.701321  0.436041  1
  Se  Se17  1  0.933147  0.677265  0.686744  1
  Se  Se18  1  0.616453  0.893255  0.641181  1
  Se  Se19  1  0.566853  0.677265  0.186744  1
  Se  Se20  1  0.300740  0.701321  0.936041  1
  Se  Se21  1  0.699260  0.298679  0.063959  1
  Se  Se22  1  0.116453  0.106745  0.858819  1
  Se  Se23  1  0.066853  0.322735  0.313256  1
  Se  Se24  1  0.433147  0.322735  0.813256  1
  Se  Se25  1  0.800740  0.298679  0.563959  1
  Se  Se26  1  0.883547  0.893255  0.141181  1
  Se  Se27  1  0.383547  0.106745  0.358819  1
