# generated using pymatgen
data_SrPr5DyCoI12
_symmetry_space_group_name_H-M   'P 1'
_cell_length_a   9.93919407
_cell_length_b   10.06278086
_cell_length_c   10.04290312
_cell_angle_alpha   106.16684343
_cell_angle_beta   106.48498076
_cell_angle_gamma   106.30688964
_symmetry_Int_Tables_number   1
_chemical_formula_structural   SrPr5DyCoI12
_chemical_formula_sum   'Sr1 Pr5 Dy1 Co1 I12'
_cell_volume   851.56063459
_cell_formula_units_Z   1
loop_
 _symmetry_equiv_pos_site_id
 _symmetry_equiv_pos_as_xyz
  1  'x, y, z'
loop_
 _atom_site_type_symbol
 _atom_site_label
 _atom_site_symmetry_multiplicity
 _atom_site_fract_x
 _atom_site_fract_y
 _atom_site_fract_z
 _atom_site_occupancy
  Sr  Sr0  1  0.500605  0.500101  0.499629  1
  Pr  Pr1  1  0.020560  0.096421  0.301916  1
  Pr  Pr2  1  0.097115  0.300186  0.020054  1
  Pr  Pr3  1  0.287091  0.019813  0.090404  1
  Pr  Pr4  1  0.902830  0.699400  0.979447  1
  Pr  Pr5  1  0.712086  0.979084  0.905436  1
  Dy  Dy6  1  0.978985  0.905969  0.709404  1
  Co  Co7  1  0.999236  0.999578  0.999295  1
  I  I8  1  0.542917  0.627147  0.854618  1
  I  I9  1  0.456813  0.373032  0.144649  1
  I  I10  1  0.311706  0.924551  0.768744  1
  I  I11  1  0.374324  0.143253  0.453211  1
  I  I12  1  0.927676  0.775461  0.327575  1
  I  I13  1  0.675455  0.072549  0.222839  1
  I  I14  1  0.070321  0.214337  0.675953  1
  I  I15  1  0.771984  0.322054  0.925158  1
  I  I16  1  0.227909  0.677994  0.074354  1
  I  I17  1  0.863301  0.557023  0.628411  1
  I  I18  1  0.142298  0.454173  0.371629  1
  I  I19  1  0.636788  0.857874  0.547275  1
