# generated using pymatgen
data_Ta2I4ClF3
_symmetry_space_group_name_H-M   'P 1'
_cell_length_a   7.79675067
_cell_length_b   7.79675027
_cell_length_c   7.80020435
_cell_angle_alpha   122.26498670
_cell_angle_beta   113.29939554
_cell_angle_gamma   94.02644243
_symmetry_Int_Tables_number   1
_chemical_formula_structural   Ta2I4ClF3
_chemical_formula_sum   'Ta2 I4 Cl1 F3'
_cell_volume   343.23676615
_cell_formula_units_Z   1
loop_
 _symmetry_equiv_pos_site_id
 _symmetry_equiv_pos_as_xyz
  1  'x, y, z'
loop_
 _atom_site_type_symbol
 _atom_site_label
 _atom_site_symmetry_multiplicity
 _atom_site_fract_x
 _atom_site_fract_y
 _atom_site_fract_z
 _atom_site_occupancy
  Ta  Ta0  1  0.993020  0.294581  0.287601  1
  Ta  Ta1  1  0.001191  0.708592  0.709784  1
  I  I2  1  0.811909  0.823505  0.989698  1
  I  I3  1  0.166193  0.177789  0.989698  1
  I  I4  1  0.778007  0.284652  0.495617  1
  I  I5  1  0.210965  0.717610  0.495617  1
  Cl  Cl6  1  0.273219  0.717641  0.990859  1
  F  F7  1  0.771754  0.285512  0.057266  1
  F  F8  1  0.213689  0.275594  0.489282  1
  F  F9  1  0.780054  0.714525  0.494579  1
