# generated using pymatgen
data_Dy8Mn3CrC8
_symmetry_space_group_name_H-M   'P 1'
_cell_length_a   5.04875100
_cell_length_b   6.35551229
_cell_length_c   9.72351161
_cell_angle_alpha   89.81299399
_cell_angle_beta   90.00000000
_cell_angle_gamma   90.00000000
_symmetry_Int_Tables_number   1
_chemical_formula_structural   Dy8Mn3CrC8
_chemical_formula_sum   'Dy8 Mn3 Cr1 C8'
_cell_volume   312.00053518
_cell_formula_units_Z   1
loop_
 _symmetry_equiv_pos_site_id
 _symmetry_equiv_pos_as_xyz
  1  'x, y, z'
loop_
 _atom_site_type_symbol
 _atom_site_label
 _atom_site_symmetry_multiplicity
 _atom_site_fract_x
 _atom_site_fract_y
 _atom_site_fract_z
 _atom_site_occupancy
  Dy  Dy0  1  0.250000  0.684926  0.553826  1
  Dy  Dy1  1  0.750000  0.314520  0.444877  1
  Dy  Dy2  1  0.750000  0.815351  0.055081  1
  Dy  Dy3  1  0.250000  0.185589  0.945417  1
  Dy  Dy4  1  0.250000  0.525503  0.214910  1
  Dy  Dy5  1  0.750000  0.472759  0.783032  1
  Dy  Dy6  1  0.750000  0.975010  0.715502  1
  Dy  Dy7  1  0.250000  0.023820  0.283412  1
  Mn  Mn8  1  0.750000  0.270641  0.143976  1
  Mn  Mn9  1  0.750000  0.770386  0.356394  1
  Mn  Mn10  1  0.250000  0.229595  0.641957  1
  Cr  Cr11  1  0.250000  0.728889  0.858094  1
  C  C12  1  0.250000  0.461826  0.759146  1
  C  C13  1  0.750000  0.535312  0.241002  1
  C  C14  1  0.750000  0.035288  0.260092  1
  C  C15  1  0.250000  0.966087  0.739299  1
  C  C16  1  0.250000  0.810353  0.038361  1
  C  C17  1  0.750000  0.192907  0.966686  1
  C  C18  1  0.750000  0.692155  0.533803  1
  C  C19  1  0.250000  0.309083  0.465133  1
