# generated using pymatgen
data_Ho4Re5Os3
_symmetry_space_group_name_H-M   'P 1'
_cell_length_a   5.36611768
_cell_length_b   5.29891798
_cell_length_c   8.98323000
_cell_angle_alpha   90.00000000
_cell_angle_beta   90.00000000
_cell_angle_gamma   119.58661505
_symmetry_Int_Tables_number   1
_chemical_formula_structural   Ho4Re5Os3
_chemical_formula_sum   'Ho4 Re5 Os3'
_cell_volume   222.12865239
_cell_formula_units_Z   1
loop_
 _symmetry_equiv_pos_site_id
 _symmetry_equiv_pos_as_xyz
  1  'x, y, z'
loop_
 _atom_site_type_symbol
 _atom_site_label
 _atom_site_symmetry_multiplicity
 _atom_site_fract_x
 _atom_site_fract_y
 _atom_site_fract_z
 _atom_site_occupancy
  Ho  Ho0  1  0.333925  0.666963  0.435584  1
  Ho  Ho1  1  0.668943  0.334471  0.565299  1
  Ho  Ho2  1  0.668943  0.334471  0.934701  1
  Ho  Ho3  1  0.333925  0.666963  0.064416  1
  Re  Re4  1  0.828705  0.168899  0.250000  1
  Re  Re5  1  0.828705  0.659805  0.250000  1
  Re  Re6  1  0.343302  0.171651  0.250000  1
  Re  Re7  1  0.163097  0.828783  0.750000  1
  Re  Re8  1  0.163097  0.334314  0.750000  1
  Os  Os9  1  0.011621  0.005810  0.499916  1
  Os  Os10  1  0.011621  0.005810  0.000084  1
  Os  Os11  1  0.644115  0.822057  0.750000  1
