# generated using pymatgen
data_Dy2Tm4Al24Os5Pd3
_symmetry_space_group_name_H-M   'P 1'
_cell_length_a   8.81671687
_cell_length_b   8.83021696
_cell_length_c   9.55283005
_cell_angle_alpha   90.15371176
_cell_angle_beta   89.66104585
_cell_angle_gamma   119.46745075
_symmetry_Int_Tables_number   1
_chemical_formula_structural   Dy2Tm4Al24Os5Pd3
_chemical_formula_sum   'Dy2 Tm4 Al24 Os5 Pd3'
_cell_volume   647.49881206
_cell_formula_units_Z   1
loop_
 _symmetry_equiv_pos_site_id
 _symmetry_equiv_pos_as_xyz
  1  'x, y, z'
loop_
 _atom_site_type_symbol
 _atom_site_label
 _atom_site_symmetry_multiplicity
 _atom_site_fract_x
 _atom_site_fract_y
 _atom_site_fract_z
 _atom_site_occupancy
  Dy  Dy0  1  0.187278  0.382210  0.250874  1
  Dy  Dy1  1  0.812722  0.617790  0.749126  1
  Tm  Tm2  1  0.611722  0.814631  0.252645  1
  Tm  Tm3  1  0.388278  0.185369  0.747355  1
  Tm  Tm4  1  0.196904  0.808785  0.251981  1
  Tm  Tm5  1  0.803096  0.191215  0.748019  1
  Al  Al6  1  0.335049  0.670854  0.030923  1
  Al  Al7  1  0.664951  0.329146  0.969077  1
  Al  Al8  1  0.669273  0.331500  0.528316  1
  Al  Al9  1  0.330727  0.668500  0.471684  1
  Al  Al10  1  0.157390  0.324936  0.576170  1
  Al  Al11  1  0.842610  0.675064  0.423830  1
  Al  Al12  1  0.673636  0.841231  0.575842  1
  Al  Al13  1  0.836931  0.676494  0.079411  1
  Al  Al14  1  0.326364  0.158769  0.424158  1
  Al  Al15  1  0.163069  0.323506  0.920589  1
  Al  Al16  1  0.163989  0.835166  0.575839  1
  Al  Al17  1  0.325613  0.158471  0.076477  1
  Al  Al18  1  0.836011  0.164834  0.424161  1
  Al  Al19  1  0.674387  0.841529  0.923523  1
  Al  Al20  1  0.831289  0.159076  0.077772  1
  Al  Al21  1  0.168711  0.840924  0.922228  1
  Al  Al22  1  0.561036  0.125269  0.249809  1
  Al  Al23  1  0.438964  0.874731  0.750191  1
  Al  Al24  1  0.874397  0.438400  0.252345  1
  Al  Al25  1  0.125603  0.561600  0.747655  1
  Al  Al26  1  0.562487  0.437701  0.249708  1
  Al  Al27  1  0.437513  0.562299  0.750292  1
  Al  Al28  1  0.997795  0.000752  0.250295  1
  Al  Al29  1  0.002205  0.999248  0.749705  1
  Os  Os30  1  0.500000  0.000000  0.000000  1
  Os  Os31  1  0.500000  0.000000  0.500000  1
  Os  Os32  1  0.000000  0.500000  0.500000  1
  Os  Os33  1  0.000000  0.000000  0.000000  1
  Os  Os34  1  0.000000  0.000000  0.500000  1
  Pd  Pd35  1  0.000000  0.500000  0.000000  1
  Pd  Pd36  1  0.500000  0.500000  0.000000  1
  Pd  Pd37  1  0.500000  0.500000  0.500000  1
