# generated using pymatgen
data_LaNd3Th4(AlRh)8
_symmetry_space_group_name_H-M   'P 1'
_cell_length_a   4.25518900
_cell_length_b   7.18317779
_cell_length_c   16.30911773
_cell_angle_alpha   89.82123716
_cell_angle_beta   90.00000000
_cell_angle_gamma   90.00000000
_symmetry_Int_Tables_number   1
_chemical_formula_structural   LaNd3Th4(AlRh)8
_chemical_formula_sum   'La1 Nd3 Th4 Al8 Rh8'
_cell_volume   498.49846391
_cell_formula_units_Z   1
loop_
 _symmetry_equiv_pos_site_id
 _symmetry_equiv_pos_as_xyz
  1  'x, y, z'
loop_
 _atom_site_type_symbol
 _atom_site_label
 _atom_site_symmetry_multiplicity
 _atom_site_fract_x
 _atom_site_fract_y
 _atom_site_fract_z
 _atom_site_occupancy
  La  La0  1  0.250000  0.153404  0.941315  1
  Nd  Nd1  1  0.250000  0.655019  0.558979  1
  Nd  Nd2  1  0.750000  0.344576  0.440778  1
  Nd  Nd3  1  0.750000  0.844205  0.060366  1
  Th  Th4  1  0.250000  0.523785  0.778868  1
  Th  Th5  1  0.750000  0.475684  0.221034  1
  Th  Th6  1  0.750000  0.975085  0.279852  1
  Th  Th7  1  0.250000  0.023574  0.720080  1
  Al  Al8  1  0.250000  0.649419  0.353095  1
  Al  Al9  1  0.750000  0.350324  0.646497  1
  Al  Al10  1  0.750000  0.847581  0.851267  1
  Al  Al11  1  0.250000  0.150516  0.148130  1
  Al  Al12  1  0.250000  0.509836  0.061194  1
  Al  Al13  1  0.750000  0.496068  0.939175  1
  Al  Al14  1  0.750000  0.992118  0.560615  1
  Al  Al15  1  0.250000  0.007759  0.439399  1
  Rh  Rh16  1  0.250000  0.759616  0.187554  1
  Rh  Rh17  1  0.750000  0.241557  0.812539  1
  Rh  Rh18  1  0.750000  0.739616  0.687061  1
  Rh  Rh19  1  0.250000  0.258643  0.312431  1
  Rh  Rh20  1  0.250000  0.714085  0.924974  1
  Rh  Rh21  1  0.750000  0.287808  0.074503  1
  Rh  Rh22  1  0.750000  0.785749  0.425981  1
  Rh  Rh23  1  0.250000  0.213974  0.574312  1
