# generated using pymatgen
data_PrTh(Co9Si4)2
_symmetry_space_group_name_H-M   'P 1'
_cell_length_a   7.93636826
_cell_length_b   7.93676058
_cell_length_c   7.93661403
_cell_angle_alpha   121.55207904
_cell_angle_beta   121.55712488
_cell_angle_gamma   87.32789986
_symmetry_Int_Tables_number   1
_chemical_formula_structural   PrTh(Co9Si4)2
_chemical_formula_sum   'Pr1 Th1 Co18 Si8'
_cell_volume   344.78241833
_cell_formula_units_Z   1
loop_
 _symmetry_equiv_pos_site_id
 _symmetry_equiv_pos_as_xyz
  1  'x, y, z'
loop_
 _atom_site_type_symbol
 _atom_site_label
 _atom_site_symmetry_multiplicity
 _atom_site_fract_x
 _atom_site_fract_y
 _atom_site_fract_z
 _atom_site_occupancy
  Pr  Pr0  1  0.250027  0.249980  0.000046  1
  Th  Th1  1  0.750042  0.749977  0.999972  1
  Co  Co2  1  0.690434  0.450825  0.502431  1
  Co  Co3  1  0.450804  0.948377  0.760414  1
  Co  Co4  1  0.187966  0.690395  0.239569  1
  Co  Co5  1  0.551559  0.049156  0.239568  1
  Co  Co6  1  0.948400  0.188012  0.497564  1
  Co  Co7  1  0.199054  0.930475  0.129995  1
  Co  Co8  1  0.800504  0.069028  0.869993  1
  Co  Co9  1  0.430922  0.699525  0.130014  1
  Co  Co10  1  0.569495  0.300943  0.869992  1
  Co  Co11  1  0.699541  0.569527  0.268622  1
  Co  Co12  1  0.300930  0.430957  0.731416  1
  Co  Co13  1  0.930489  0.800474  0.731416  1
  Co  Co14  1  0.312027  0.551617  0.502401  1
  Co  Co15  1  0.809585  0.312019  0.760419  1
  Co  Co16  1  0.000026  0.500022  0.500020  1
  Co  Co17  1  0.499954  0.999960  0.499951  1
  Co  Co18  1  0.069062  0.199065  0.268558  1
  Co  Co19  1  0.049203  0.809615  0.497583  1
  Si  Si20  1  0.288808  0.790306  0.837210  1
  Si  Si21  1  0.048424  0.547094  0.837375  1
  Si  Si22  1  0.546939  0.709695  0.498587  1
  Si  Si23  1  0.790323  0.952956  0.501455  1
  Si  Si24  1  0.451573  0.288879  0.498553  1
  Si  Si25  1  0.953096  0.451689  0.162809  1
  Si  Si26  1  0.709641  0.211127  0.162665  1
  Si  Si27  1  0.211174  0.048304  0.501402  1
