# generated using pymatgen
data_Hf6Nb4Ga12Fe5Co2
_symmetry_space_group_name_H-M   'P 1'
_cell_length_a   8.57595653
_cell_length_b   8.61166861
_cell_length_c   8.58536469
_cell_angle_alpha   60.10272903
_cell_angle_beta   60.09107891
_cell_angle_gamma   59.94744198
_symmetry_Int_Tables_number   1
_chemical_formula_structural   Hf6Nb4Ga12Fe5Co2
_chemical_formula_sum   'Hf6 Nb4 Ga12 Fe5 Co2'
_cell_volume   448.82276703
_cell_formula_units_Z   1
loop_
 _symmetry_equiv_pos_site_id
 _symmetry_equiv_pos_as_xyz
  1  'x, y, z'
loop_
 _atom_site_type_symbol
 _atom_site_label
 _atom_site_symmetry_multiplicity
 _atom_site_fract_x
 _atom_site_fract_y
 _atom_site_fract_z
 _atom_site_occupancy
  Hf  Hf0  1  0.697340  0.697178  0.304237  1
  Hf  Hf1  1  0.303895  0.695115  0.305231  1
  Hf  Hf2  1  0.695415  0.303733  0.304934  1
  Hf  Hf3  1  0.302452  0.302564  0.696757  1
  Hf  Hf4  1  0.693896  0.307241  0.692667  1
  Hf  Hf5  1  0.306892  0.694085  0.693040  1
  Nb  Nb6  1  0.879334  0.879300  0.362203  1
  Nb  Nb7  1  0.878147  0.361136  0.878637  1
  Nb  Nb8  1  0.360992  0.878198  0.878706  1
  Nb  Nb9  1  0.881405  0.881433  0.877352  1
  Ga  Ga10  1  0.119862  0.119902  0.640528  1
  Ga  Ga11  1  0.120211  0.640799  0.119806  1
  Ga  Ga12  1  0.640739  0.120241  0.119801  1
  Ga  Ga13  1  0.119320  0.119299  0.120256  1
  Ga  Ga14  1  0.659762  0.659557  0.023455  1
  Ga  Ga15  1  0.658735  0.020987  0.660652  1
  Ga  Ga16  1  0.020914  0.658657  0.660808  1
  Ga  Ga17  1  0.660598  0.660543  0.660216  1
  Ga  Ga18  1  0.339483  0.339592  0.982330  1
  Ga  Ga19  1  0.338043  0.985534  0.338429  1
  Ga  Ga20  1  0.985478  0.338169  0.338410  1
  Ga  Ga21  1  0.337193  0.337313  0.337195  1
  Fe  Fe22  1  0.999837  0.999953  0.999324  1
  Fe  Fe23  1  0.995917  0.995817  0.505238  1
  Fe  Fe24  1  0.503263  0.996458  0.504142  1
  Fe  Fe25  1  0.996475  0.503204  0.504285  1
  Fe  Fe26  1  0.504225  0.504029  0.996857  1
  Co  Co27  1  0.997129  0.502938  0.997289  1
  Co  Co28  1  0.503051  0.997024  0.997215  1
