# generated using pymatgen
data_SrI37
_symmetry_space_group_name_H-M   'P 1'
_cell_length_a   13.47789817
_cell_length_b   16.29573353
_cell_length_c   15.44686969
_cell_angle_alpha   95.60181085
_cell_angle_beta   50.19733467
_cell_angle_gamma   79.55721602
_symmetry_Int_Tables_number   1
_chemical_formula_structural   SrI37
_chemical_formula_sum   'Sr1 I37'
_cell_volume   2458.61641067
_cell_formula_units_Z   1
loop_
 _symmetry_equiv_pos_site_id
 _symmetry_equiv_pos_as_xyz
  1  'x, y, z'
loop_
 _atom_site_type_symbol
 _atom_site_label
 _atom_site_symmetry_multiplicity
 _atom_site_fract_x
 _atom_site_fract_y
 _atom_site_fract_z
 _atom_site_occupancy
  Sr  Sr0  1  0.500000  0.000000  0.000000  1
  I  I1  1  0.836772  0.283743  0.105097  1
  I  I2  1  0.163228  0.716257  0.894903  1
  I  I3  1  0.740409  0.074927  0.338880  1
  I  I4  1  0.259591  0.925073  0.661120  1
  I  I5  1  0.106146  0.351716  0.190312  1
  I  I6  1  0.893854  0.648284  0.809688  1
  I  I7  1  0.803188  0.517786  0.251561  1
  I  I8  1  0.196812  0.482214  0.748439  1
  I  I9  1  0.689174  0.300249  0.483648  1
  I  I10  1  0.310826  0.699751  0.516352  1
  I  I11  1  0.992027  0.162101  0.434075  1
  I  I12  1  0.007973  0.837899  0.565925  1
  I  I13  1  0.985030  0.997133  0.295200  1
  I  I14  1  0.014970  0.002867  0.704800  1
  I  I15  1  0.977529  0.305414  0.566612  1
  I  I16  1  0.022471  0.694586  0.433388  1
  I  I17  1  0.597649  0.370155  0.146203  1
  I  I18  1  0.402351  0.629845  0.853797  1
  I  I19  1  0.107395  0.491784  0.317664  1
  I  I20  1  0.892605  0.508216  0.682336  1
  I  I21  1  0.000000  0.500000  0.000000  1
  I  I22  1  0.570738  0.946049  0.163745  1
  I  I23  1  0.429262  0.053951  0.836255  1
  I  I24  1  0.289020  0.051208  0.300603  1
  I  I25  1  0.710980  0.948792  0.699397  1
  I  I26  1  0.485405  0.152994  0.387181  1
  I  I27  1  0.514595  0.847006  0.612819  1
  I  I28  1  0.087521  0.198463  0.062246  1
  I  I29  1  0.912479  0.801537  0.937754  1
  I  I30  1  0.668876  0.689316  0.420009  1
  I  I31  1  0.331124  0.310684  0.579991  1
  I  I32  1  0.675646  0.136933  0.945547  1
  I  I33  1  0.324354  0.863067  0.054453  1
  I  I34  1  0.400107  0.237671  0.069607  1
  I  I35  1  0.599893  0.762329  0.930393  1
  I  I36  1  0.559635  0.459447  0.654432  1
  I  I37  1  0.440365  0.540553  0.345568  1
