# generated using pymatgen
data_CrFeSbOsO8
_symmetry_space_group_name_H-M   'P 1'
_cell_length_a   4.62871445
_cell_length_b   6.26843860
_cell_length_c   9.78363898
_cell_angle_alpha   71.31572222
_cell_angle_beta   91.17936512
_cell_angle_gamma   89.99999974
_symmetry_Int_Tables_number   1
_chemical_formula_structural   CrFeSbOsO8
_chemical_formula_sum   'Cr2 Fe2 Sb2 Os2 O16'
_cell_volume   268.84648992
_cell_formula_units_Z   2
loop_
 _symmetry_equiv_pos_site_id
 _symmetry_equiv_pos_as_xyz
  1  'x, y, z'
loop_
 _atom_site_type_symbol
 _atom_site_label
 _atom_site_symmetry_multiplicity
 _atom_site_fract_x
 _atom_site_fract_y
 _atom_site_fract_z
 _atom_site_occupancy
  Cr  Cr0  1  0.500000  0.873861  0.750000  1
  Cr  Cr1  1  0.500000  0.376139  0.750000  1
  Fe  Fe2  1  0.500000  0.125000  0.250000  1
  Fe  Fe3  1  0.500000  0.625000  0.250000  1
  Sb  Sb4  1  0.998048  0.249154  0.501691  1
  Sb  Sb5  1  0.001952  0.000846  0.998309  1
  Os  Os6  1  0.998829  0.749776  0.500448  1
  Os  Os7  1  0.001171  0.500224  0.999552  1
  O  O8  1  0.703815  0.573922  0.852156  1
  O  O9  1  0.687802  0.326491  0.347018  1
  O  O10  1  0.691465  0.077415  0.845169  1
  O  O11  1  0.712662  0.822869  0.354261  1
  O  O12  1  0.296185  0.676078  0.647844  1
  O  O13  1  0.287338  0.427131  0.145739  1
  O  O14  1  0.308535  0.172585  0.654831  1
  O  O15  1  0.312198  0.923509  0.152982  1
  O  O16  1  0.193426  0.304225  0.902754  1
  O  O17  1  0.191662  0.043355  0.405079  1
  O  O18  1  0.193426  0.793020  0.902754  1
  O  O19  1  0.191662  0.551565  0.405079  1
  O  O20  1  0.806574  0.456980  0.597246  1
  O  O21  1  0.808338  0.206645  0.094921  1
  O  O22  1  0.806574  0.945775  0.597246  1
  O  O23  1  0.808338  0.698435  0.094921  1
