# generated using pymatgen
data_Dy3Tm13(Tl3Co)2
_symmetry_space_group_name_H-M   'P 1'
_cell_length_a   10.26328800
_cell_length_b   10.26328788
_cell_length_c   6.94202900
_cell_angle_alpha   90.00000000
_cell_angle_beta   90.00000000
_cell_angle_gamma   120.00000038
_symmetry_Int_Tables_number   1
_chemical_formula_structural   Dy3Tm13(Tl3Co)2
_chemical_formula_sum   'Dy3 Tm13 Tl6 Co2'
_cell_volume   633.27170005
_cell_formula_units_Z   1
loop_
 _symmetry_equiv_pos_site_id
 _symmetry_equiv_pos_as_xyz
  1  'x, y, z'
loop_
 _atom_site_type_symbol
 _atom_site_label
 _atom_site_symmetry_multiplicity
 _atom_site_fract_x
 _atom_site_fract_y
 _atom_site_fract_z
 _atom_site_occupancy
  Dy  Dy0  1  0.536094  0.072188  0.514187  1
  Dy  Dy1  1  0.927812  0.463906  0.514187  1
  Dy  Dy2  1  0.536094  0.463906  0.514187  1
  Tm  Tm3  1  0.462913  0.925825  0.014791  1
  Tm  Tm4  1  0.074175  0.537087  0.014791  1
  Tm  Tm5  1  0.462913  0.537087  0.014791  1
  Tm  Tm6  1  0.178474  0.356947  0.719155  1
  Tm  Tm7  1  0.643053  0.821526  0.719155  1
  Tm  Tm8  1  0.178474  0.821526  0.719155  1
  Tm  Tm9  1  0.821636  0.643272  0.216468  1
  Tm  Tm10  1  0.356728  0.178364  0.216468  1
  Tm  Tm11  1  0.821636  0.178364  0.216468  1
  Tm  Tm12  1  0.666667  0.333333  0.906034  1
  Tm  Tm13  1  0.333333  0.666667  0.404714  1
  Tm  Tm14  1  0.000000  0.000000  0.499734  1
  Tm  Tm15  1  0.000000  0.000000  0.000192  1
  Tl  Tl16  1  0.837675  0.675351  0.763814  1
  Tl  Tl17  1  0.324649  0.162325  0.763814  1
  Tl  Tl18  1  0.837675  0.162325  0.763814  1
  Tl  Tl19  1  0.162861  0.325723  0.263388  1
  Tl  Tl20  1  0.674277  0.837139  0.263388  1
  Tl  Tl21  1  0.162861  0.837139  0.263388  1
  Co  Co22  1  0.666667  0.333333  0.284997  1
  Co  Co23  1  0.333333  0.666667  0.786926  1
