# generated using pymatgen
data_Y6Co2P12Ir13Rh3
_symmetry_space_group_name_H-M   'P 1'
_cell_length_a   3.92494800
_cell_length_b   11.13324228
_cell_length_c   12.79162214
_cell_angle_alpha   90.04514294
_cell_angle_beta   90.00000000
_cell_angle_gamma   90.00000000
_symmetry_Int_Tables_number   1
_chemical_formula_structural   Y6Co2P12Ir13Rh3
_chemical_formula_sum   'Y6 Co2 P12 Ir13 Rh3'
_cell_volume   558.96041754
_cell_formula_units_Z   1
loop_
 _symmetry_equiv_pos_site_id
 _symmetry_equiv_pos_as_xyz
  1  'x, y, z'
loop_
 _atom_site_type_symbol
 _atom_site_label
 _atom_site_symmetry_multiplicity
 _atom_site_fract_x
 _atom_site_fract_y
 _atom_site_fract_z
 _atom_site_occupancy
  Y  Y0  1  0.000000  0.499941  0.521707  1
  Y  Y1  1  0.500000  0.000004  0.478059  1
  Y  Y2  1  0.500000  0.816093  0.200447  1
  Y  Y3  1  0.500000  0.184435  0.200310  1
  Y  Y4  1  0.000000  0.683481  0.799640  1
  Y  Y5  1  0.000000  0.316072  0.799589  1
  Co  Co6  1  0.000000  0.499888  0.978827  1
  Co  Co7  1  0.500000  0.000503  0.021383  1
  P  P8  1  0.500000  0.499505  0.881397  1
  P  P9  1  0.000000  0.000533  0.118499  1
  P  P10  1  0.500000  0.500163  0.355250  1
  P  P11  1  0.000000  0.000004  0.644864  1
  P  P12  1  0.500000  0.315445  0.619378  1
  P  P13  1  0.500000  0.684666  0.619449  1
  P  P14  1  0.000000  0.184527  0.380640  1
  P  P15  1  0.000000  0.815356  0.380458  1
  P  P16  1  0.500000  0.851517  0.896837  1
  P  P17  1  0.500000  0.147914  0.896563  1
  P  P18  1  0.000000  0.648133  0.103242  1
  P  P19  1  0.000000  0.352351  0.103336  1
  Ir  Ir20  1  0.500000  0.499980  0.702489  1
  Ir  Ir21  1  0.000000  0.000032  0.297140  1
  Ir  Ir22  1  0.500000  0.661510  0.996714  1
  Ir  Ir23  1  0.000000  0.163048  0.003804  1
  Ir  Ir24  1  0.000000  0.838302  0.003398  1
  Ir  Ir25  1  0.500000  0.292469  0.429403  1
  Ir  Ir26  1  0.500000  0.707408  0.429295  1
  Ir  Ir27  1  0.000000  0.207546  0.570707  1
  Ir  Ir28  1  0.000000  0.792743  0.570652  1
  Ir  Ir29  1  0.500000  0.871274  0.714466  1
  Ir  Ir30  1  0.500000  0.128527  0.713787  1
  Ir  Ir31  1  0.000000  0.628364  0.285427  1
  Ir  Ir32  1  0.000000  0.371104  0.286459  1
  Rh  Rh33  1  0.500000  0.497849  0.175342  1
  Rh  Rh34  1  0.000000  0.001011  0.824835  1
  Rh  Rh35  1  0.500000  0.338296  0.996202  1
