# generated using pymatgen
data_Dy3Ho7(SiHg)4
_symmetry_space_group_name_H-M   'P 1'
_cell_length_a   8.75712968
_cell_length_b   8.75338525
_cell_length_c   7.54569907
_cell_angle_alpha   89.98641492
_cell_angle_beta   90.00347633
_cell_angle_gamma   129.14811204
_symmetry_Int_Tables_number   1
_chemical_formula_structural   Dy3Ho7(SiHg)4
_chemical_formula_sum   'Dy3 Ho7 Si4 Hg4'
_cell_volume   448.56807176
_cell_formula_units_Z   1
loop_
 _symmetry_equiv_pos_site_id
 _symmetry_equiv_pos_as_xyz
  1  'x, y, z'
loop_
 _atom_site_type_symbol
 _atom_site_label
 _atom_site_symmetry_multiplicity
 _atom_site_fract_x
 _atom_site_fract_y
 _atom_site_fract_z
 _atom_site_occupancy
  Dy  Dy0  1  0.053836  0.308763  0.324293  1
  Dy  Dy1  1  0.946181  0.691276  0.675658  1
  Dy  Dy2  1  0.446185  0.191322  0.824358  1
  Ho  Ho3  1  0.808470  0.553877  0.175572  1
  Ho  Ho4  1  0.553776  0.808474  0.175538  1
  Ho  Ho5  1  0.191581  0.446221  0.824466  1
  Ho  Ho6  1  0.691458  0.946078  0.675625  1
  Ho  Ho7  1  0.308467  0.053848  0.324370  1
  Ho  Ho8  1  0.999946  0.999985  0.000023  1
  Ho  Ho9  1  0.499979  0.500071  0.499942  1
  Si  Si10  1  0.380407  0.380339  0.122248  1
  Si  Si11  1  0.619664  0.619923  0.877932  1
  Si  Si12  1  0.119687  0.119877  0.622243  1
  Si  Si13  1  0.880094  0.880109  0.377618  1
  Hg  Hg14  1  0.782783  0.217315  0.999946  1
  Hg  Hg15  1  0.217314  0.782453  0.000342  1
  Hg  Hg16  1  0.717069  0.282424  0.499807  1
  Hg  Hg17  1  0.283103  0.717646  0.500019  1
