# generated using pymatgen
data_Dy3Tm(Al3Rh)6
_symmetry_space_group_name_H-M   'P 1'
_cell_length_a   7.54182440
_cell_length_b   7.54632182
_cell_length_c   9.44968900
_cell_angle_alpha   90.00000000
_cell_angle_beta   90.00000000
_cell_angle_gamma   119.26002002
_symmetry_Int_Tables_number   1
_chemical_formula_structural   Dy3Tm(Al3Rh)6
_chemical_formula_sum   'Dy3 Tm1 Al18 Rh6'
_cell_volume   469.19152576
_cell_formula_units_Z   1
loop_
 _symmetry_equiv_pos_site_id
 _symmetry_equiv_pos_as_xyz
  1  'x, y, z'
loop_
 _atom_site_type_symbol
 _atom_site_label
 _atom_site_symmetry_multiplicity
 _atom_site_fract_x
 _atom_site_fract_y
 _atom_site_fract_z
 _atom_site_occupancy
  Dy  Dy0  1  0.994334  0.672616  0.250000  1
  Dy  Dy1  1  0.005861  0.327602  0.750000  1
  Dy  Dy2  1  0.672456  0.994057  0.250000  1
  Tm  Tm3  1  0.327226  0.005824  0.750000  1
  Al  Al4  1  0.128997  0.128402  0.250000  1
  Al  Al5  1  0.871864  0.871338  0.750000  1
  Al  Al6  1  0.000864  0.335912  0.075394  1
  Al  Al7  1  0.999741  0.664523  0.924147  1
  Al  Al8  1  0.999741  0.664523  0.575853  1
  Al  Al9  1  0.335806  0.000523  0.425922  1
  Al  Al10  1  0.000864  0.335912  0.424606  1
  Al  Al11  1  0.663206  0.999254  0.576039  1
  Al  Al12  1  0.663206  0.999254  0.923961  1
  Al  Al13  1  0.335806  0.000523  0.074078  1
  Al  Al14  1  0.332881  0.332342  0.549545  1
  Al  Al15  1  0.667255  0.667284  0.452595  1
  Al  Al16  1  0.667255  0.667284  0.047405  1
  Al  Al17  1  0.332881  0.332342  0.950455  1
  Al  Al18  1  0.340241  0.550739  0.250000  1
  Al  Al19  1  0.659019  0.449092  0.750000  1
  Al  Al20  1  0.550413  0.339670  0.250000  1
  Al  Al21  1  0.449922  0.660814  0.750000  1
  Rh  Rh22  1  0.672136  0.327637  0.999589  1
  Rh  Rh23  1  0.327476  0.671915  0.999609  1
  Rh  Rh24  1  0.327476  0.671915  0.500391  1
  Rh  Rh25  1  0.672136  0.327637  0.500411  1
  Rh  Rh26  1  0.000470  0.000533  0.999236  1
  Rh  Rh27  1  0.000470  0.000533  0.500764  1
