# generated using pymatgen
data_Dy2Tm2MnRu7
_symmetry_space_group_name_H-M   'P 1'
_cell_length_a   5.32672218
_cell_length_b   5.33137089
_cell_length_c   8.63308866
_cell_angle_alpha   90.00000000
_cell_angle_beta   89.96735053
_cell_angle_gamma   59.97110580
_symmetry_Int_Tables_number   1
_chemical_formula_structural   Dy2Tm2MnRu7
_chemical_formula_sum   'Dy2 Tm2 Mn1 Ru7'
_cell_volume   212.26048856
_cell_formula_units_Z   1
loop_
 _symmetry_equiv_pos_site_id
 _symmetry_equiv_pos_as_xyz
  1  'x, y, z'
loop_
 _atom_site_type_symbol
 _atom_site_label
 _atom_site_symmetry_multiplicity
 _atom_site_fract_x
 _atom_site_fract_y
 _atom_site_fract_z
 _atom_site_occupancy
  Dy  Dy0  1  0.333387  0.333306  0.565124  1
  Dy  Dy1  1  0.666613  0.666694  0.434876  1
  Tm  Tm2  1  0.666564  0.666718  0.066984  1
  Tm  Tm3  1  0.333436  0.333282  0.933016  1
  Mn  Mn4  1  0.000000  0.000000  0.000000  1
  Ru  Ru5  1  0.000000  0.000000  0.500000  1
  Ru  Ru6  1  0.828767  0.342592  0.755355  1
  Ru  Ru7  1  0.342633  0.828683  0.755346  1
  Ru  Ru8  1  0.828767  0.828640  0.755355  1
  Ru  Ru9  1  0.171233  0.657408  0.244645  1
  Ru  Ru10  1  0.657367  0.171317  0.244654  1
  Ru  Ru11  1  0.171233  0.171360  0.244645  1
