# generated using pymatgen
data_Er4Al18FeCoPd4
_symmetry_space_group_name_H-M   'P 1'
_cell_length_a   7.55681983
_cell_length_b   7.55681992
_cell_length_c   9.37494548
_cell_angle_alpha   89.88310830
_cell_angle_beta   89.88310745
_cell_angle_gamma   119.90567955
_symmetry_Int_Tables_number   1
_chemical_formula_structural   Er4Al18FeCoPd4
_chemical_formula_sum   'Er4 Al18 Fe1 Co1 Pd4'
_cell_volume   464.07257466
_cell_formula_units_Z   1
loop_
 _symmetry_equiv_pos_site_id
 _symmetry_equiv_pos_as_xyz
  1  'x, y, z'
loop_
 _atom_site_type_symbol
 _atom_site_label
 _atom_site_symmetry_multiplicity
 _atom_site_fract_x
 _atom_site_fract_y
 _atom_site_fract_z
 _atom_site_occupancy
  Er  Er0  1  0.993915  0.663562  0.249704  1
  Er  Er1  1  0.006085  0.336438  0.750296  1
  Er  Er2  1  0.663562  0.993915  0.249704  1
  Er  Er3  1  0.336438  0.006085  0.750296  1
  Al  Al4  1  0.111529  0.111529  0.249091  1
  Al  Al5  1  0.888471  0.888471  0.750909  1
  Al  Al6  1  0.998868  0.321623  0.074798  1
  Al  Al7  1  0.001132  0.678377  0.925202  1
  Al  Al8  1  0.000870  0.676633  0.575310  1
  Al  Al9  1  0.323367  0.999130  0.424690  1
  Al  Al10  1  0.999130  0.323367  0.424690  1
  Al  Al11  1  0.676633  0.000870  0.575310  1
  Al  Al12  1  0.678377  0.001132  0.925202  1
  Al  Al13  1  0.321623  0.998868  0.074798  1
  Al  Al14  1  0.323858  0.323858  0.554786  1
  Al  Al15  1  0.676142  0.676142  0.445214  1
  Al  Al16  1  0.677507  0.677507  0.054527  1
  Al  Al17  1  0.322493  0.322493  0.945473  1
  Al  Al18  1  0.339067  0.542708  0.249932  1
  Al  Al19  1  0.660933  0.457292  0.750068  1
  Al  Al20  1  0.542708  0.339067  0.249932  1
  Al  Al21  1  0.457292  0.660933  0.750068  1
  Fe  Fe22  1  0.000000  0.000000  0.000000  1
  Co  Co23  1  0.000000  0.000000  0.500000  1
  Pd  Pd24  1  0.672637  0.327363  0.000000  1
  Pd  Pd25  1  0.327363  0.672637  0.000000  1
  Pd  Pd26  1  0.327286  0.672714  0.500000  1
  Pd  Pd27  1  0.672714  0.327286  0.500000  1
