# generated using pymatgen
data_NbV10Si10W
_symmetry_space_group_name_H-M   'P 1'
_cell_length_a   9.18687741
_cell_length_b   9.18687758
_cell_length_c   7.55134805
_cell_angle_alpha   65.63140809
_cell_angle_beta   65.63140725
_cell_angle_gamma   30.56897323
_symmetry_Int_Tables_number   1
_chemical_formula_structural   NbV10Si10W
_chemical_formula_sum   'Nb1 V10 Si10 W1'
_cell_volume   292.98003268
_cell_formula_units_Z   1
loop_
 _symmetry_equiv_pos_site_id
 _symmetry_equiv_pos_as_xyz
  1  'x, y, z'
loop_
 _atom_site_type_symbol
 _atom_site_label
 _atom_site_symmetry_multiplicity
 _atom_site_fract_x
 _atom_site_fract_y
 _atom_site_fract_z
 _atom_site_occupancy
  Nb  Nb0  1  0.357740  0.357740  0.254685  1
  V  V1  1  0.559513  0.060371  0.688451  1
  V  V2  1  0.940156  0.438586  0.311438  1
  V  V3  1  0.438586  0.940156  0.311438  1
  V  V4  1  0.060371  0.559513  0.688451  1
  V  V5  1  0.936666  0.936666  0.316889  1
  V  V6  1  0.063709  0.063709  0.681787  1
  V  V7  1  0.564444  0.564444  0.189024  1
  V  V8  1  0.435352  0.435352  0.812041  1
  V  V9  1  0.858022  0.858022  0.023471  1
  V  V10  1  0.142444  0.142444  0.975538  1
  Si  Si11  1  0.786807  0.786807  0.414157  1
  Si  Si12  1  0.211585  0.211585  0.589811  1
  Si  Si13  1  0.714094  0.714094  0.990402  1
  Si  Si14  1  0.284802  0.284802  0.006970  1
  Si  Si15  1  0.248635  0.753721  0.998135  1
  Si  Si16  1  0.753721  0.248635  0.998135  1
  Si  Si17  1  0.563420  0.563420  0.525123  1
  Si  Si18  1  0.437571  0.437571  0.478858  1
  Si  Si19  1  0.935760  0.935760  0.653265  1
  Si  Si20  1  0.063827  0.063827  0.347042  1
  W  W21  1  0.642775  0.642775  0.744892  1
