# generated using pymatgen
data_Sm8Y12Sn15Sb
_symmetry_space_group_name_H-M   'P 1'
_cell_length_a   8.09342996
_cell_length_b   8.21876543
_cell_length_c   15.49801800
_cell_angle_alpha   90.03015800
_cell_angle_beta   90.26252950
_cell_angle_gamma   90.04267932
_symmetry_Int_Tables_number   1
_chemical_formula_structural   Sm8Y12Sn15Sb
_chemical_formula_sum   'Sm8 Y12 Sn15 Sb1'
_cell_volume   1030.88594601
_cell_formula_units_Z   1
loop_
 _symmetry_equiv_pos_site_id
 _symmetry_equiv_pos_as_xyz
  1  'x, y, z'
loop_
 _atom_site_type_symbol
 _atom_site_label
 _atom_site_symmetry_multiplicity
 _atom_site_fract_x
 _atom_site_fract_y
 _atom_site_fract_z
 _atom_site_occupancy
  Sm  Sm0  1  0.520050  0.322105  0.901939  1
  Sm  Sm1  1  0.018015  0.178974  0.597417  1
  Sm  Sm2  1  0.481920  0.678661  0.402342  1
  Sm  Sm3  1  0.978313  0.821059  0.098470  1
  Sm  Sm4  1  0.481027  0.678157  0.097659  1
  Sm  Sm5  1  0.981785  0.820971  0.402346  1
  Sm  Sm6  1  0.518200  0.320916  0.597498  1
  Sm  Sm7  1  0.018795  0.179263  0.901672  1
  Y  Y8  1  0.366825  0.836652  0.878586  1
  Y  Y9  1  0.865364  0.663670  0.622593  1
  Y  Y10  1  0.634588  0.163560  0.377196  1
  Y  Y11  1  0.133107  0.337108  0.122361  1
  Y  Y12  1  0.634627  0.163550  0.121556  1
  Y  Y13  1  0.135123  0.336386  0.377227  1
  Y  Y14  1  0.365156  0.836390  0.622416  1
  Y  Y15  1  0.865858  0.663530  0.877630  1
  Y  Y16  1  0.197113  0.502291  0.749717  1
  Y  Y17  1  0.697002  0.997409  0.750575  1
  Y  Y18  1  0.802757  0.497629  0.250521  1
  Y  Y19  1  0.302954  0.001993  0.250920  1
  Sn  Sn20  1  0.797243  0.461647  0.458201  1
  Sn  Sn21  1  0.702871  0.961514  0.541685  1
  Sn  Sn22  1  0.204538  0.537617  0.958296  1
  Sn  Sn23  1  0.708597  0.962677  0.957861  1
  Sn  Sn24  1  0.202678  0.538130  0.541609  1
  Sn  Sn25  1  0.297545  0.038125  0.458162  1
  Sn  Sn26  1  0.795756  0.462691  0.042108  1
  Sn  Sn27  1  0.563680  0.621711  0.750196  1
  Sn  Sn28  1  0.064539  0.878802  0.750756  1
  Sn  Sn29  1  0.436307  0.378316  0.249019  1
  Sn  Sn30  1  0.936024  0.121150  0.249250  1
  Sn  Sn31  1  0.327279  0.144635  0.749968  1
  Sn  Sn32  1  0.827189  0.355326  0.749785  1
  Sn  Sn33  1  0.672027  0.855305  0.249858  1
  Sn  Sn34  1  0.172578  0.644894  0.249711  1
  Sb  Sb35  1  0.292571  0.037187  0.042895  1
