# generated using pymatgen
data_TbDy3Lu(ReO6)2
_symmetry_space_group_name_H-M   'P 1'
_cell_length_a   6.82026699
_cell_length_b   6.82026715
_cell_length_c   7.49443202
_cell_angle_alpha   73.74582100
_cell_angle_beta   73.74581920
_cell_angle_gamma   49.15646986
_symmetry_Int_Tables_number   1
_chemical_formula_structural   TbDy3Lu(ReO6)2
_chemical_formula_sum   'Tb1 Dy3 Lu1 Re2 O12'
_cell_volume   250.92156809
_cell_formula_units_Z   1
loop_
 _symmetry_equiv_pos_site_id
 _symmetry_equiv_pos_as_xyz
  1  'x, y, z'
loop_
 _atom_site_type_symbol
 _atom_site_label
 _atom_site_symmetry_multiplicity
 _atom_site_fract_x
 _atom_site_fract_y
 _atom_site_fract_z
 _atom_site_occupancy
  Tb  Tb0  1  0.197209  0.197209  0.641394  1
  Dy  Dy1  1  0.184267  0.184267  0.177437  1
  Dy  Dy2  1  0.802697  0.802697  0.358540  1
  Dy  Dy3  1  0.815746  0.815746  0.822590  1
  Lu  Lu4  1  0.500056  0.500056  0.499904  1
  Re  Re5  1  0.713673  0.286227  0.000104  1
  Re  Re6  1  0.286227  0.713673  0.000104  1
  O  O7  1  0.413688  0.917977  0.914250  1
  O  O8  1  0.917977  0.413688  0.914250  1
  O  O9  1  0.899512  0.401753  0.428526  1
  O  O10  1  0.401753  0.899512  0.428526  1
  O  O11  1  0.502045  0.502045  0.208378  1
  O  O12  1  0.998759  0.998759  0.177582  1
  O  O13  1  0.000870  0.000870  0.822863  1
  O  O14  1  0.497933  0.497933  0.791579  1
  O  O15  1  0.081565  0.586645  0.086286  1
  O  O16  1  0.586645  0.081565  0.086286  1
  O  O17  1  0.099613  0.599765  0.570700  1
  O  O18  1  0.599765  0.099613  0.570700  1
