# generated using pymatgen
data_Tb4Co11(Ni3P4)3
_symmetry_space_group_name_H-M   'P 1'
_cell_length_a   3.70049600
_cell_length_b   10.31526922
_cell_length_c   11.85763352
_cell_angle_alpha   90.14417670
_cell_angle_beta   90.00000000
_cell_angle_gamma   90.00000000
_symmetry_Int_Tables_number   1
_chemical_formula_structural   Tb4Co11(Ni3P4)3
_chemical_formula_sum   'Tb4 Co11 Ni9 P12'
_cell_volume   452.62355883
_cell_formula_units_Z   1
loop_
 _symmetry_equiv_pos_site_id
 _symmetry_equiv_pos_as_xyz
  1  'x, y, z'
loop_
 _atom_site_type_symbol
 _atom_site_label
 _atom_site_symmetry_multiplicity
 _atom_site_fract_x
 _atom_site_fract_y
 _atom_site_fract_z
 _atom_site_occupancy
  Tb  Tb0  1  0.250000  0.582178  0.702865  1
  Tb  Tb1  1  0.250000  0.918570  0.203867  1
  Tb  Tb2  1  0.750000  0.417949  0.296706  1
  Tb  Tb3  1  0.750000  0.081653  0.797362  1
  Co  Co4  1  0.250000  0.277762  0.675501  1
  Co  Co5  1  0.750000  0.777915  0.824314  1
  Co  Co6  1  0.750000  0.722507  0.324297  1
  Co  Co7  1  0.250000  0.880662  0.697967  1
  Co  Co8  1  0.250000  0.620270  0.197257  1
  Co  Co9  1  0.750000  0.119419  0.302957  1
  Co  Co10  1  0.750000  0.381233  0.801616  1
  Co  Co11  1  0.250000  0.466904  0.932515  1
  Co  Co12  1  0.250000  0.032105  0.433592  1
  Co  Co13  1  0.750000  0.532855  0.066537  1
  Co  Co14  1  0.750000  0.967146  0.567723  1
  Ni  Ni15  1  0.250000  0.711384  0.987720  1
  Ni  Ni16  1  0.250000  0.787244  0.489553  1
  Ni  Ni17  1  0.750000  0.285410  0.008463  1
  Ni  Ni18  1  0.750000  0.211998  0.511328  1
  Ni  Ni19  1  0.250000  0.408706  0.485606  1
  Ni  Ni20  1  0.250000  0.092507  0.986848  1
  Ni  Ni21  1  0.750000  0.591567  0.514050  1
  Ni  Ni22  1  0.750000  0.907460  0.014210  1
  Ni  Ni23  1  0.250000  0.223525  0.176593  1
  P  P24  1  0.250000  0.424056  0.112190  1
  P  P25  1  0.250000  0.079112  0.613220  1
  P  P26  1  0.750000  0.579476  0.886549  1
  P  P27  1  0.750000  0.920514  0.387813  1
  P  P28  1  0.250000  0.272770  0.864781  1
  P  P29  1  0.250000  0.227008  0.368493  1
  P  P30  1  0.750000  0.727803  0.134985  1
  P  P31  1  0.750000  0.772699  0.634509  1
  P  P32  1  0.250000  0.606568  0.387779  1
  P  P33  1  0.250000  0.893717  0.887897  1
  P  P34  1  0.750000  0.394049  0.611707  1
  P  P35  1  0.750000  0.103302  0.110627  1
