# generated using pymatgen
data_NdY15Cd4Pd3Ru
_symmetry_space_group_name_H-M   'P 1'
_cell_length_a   9.77925588
_cell_length_b   9.77925725
_cell_length_c   9.77925702
_cell_angle_alpha   59.52073110
_cell_angle_beta   59.52073302
_cell_angle_gamma   59.52072826
_symmetry_Int_Tables_number   1
_chemical_formula_structural   NdY15Cd4Pd3Ru
_chemical_formula_sum   'Nd1 Y15 Cd4 Pd3 Ru1'
_cell_volume   654.09887999
_cell_formula_units_Z   1
loop_
 _symmetry_equiv_pos_site_id
 _symmetry_equiv_pos_as_xyz
  1  'x, y, z'
loop_
 _atom_site_type_symbol
 _atom_site_label
 _atom_site_symmetry_multiplicity
 _atom_site_fract_x
 _atom_site_fract_y
 _atom_site_fract_z
 _atom_site_occupancy
  Nd  Nd0  1  0.353738  0.353738  0.353738  1
  Y  Y1  1  0.350541  0.350541  0.943457  1
  Y  Y2  1  0.350541  0.943457  0.350541  1
  Y  Y3  1  0.943457  0.350541  0.350541  1
  Y  Y4  1  0.817920  0.187547  0.187547  1
  Y  Y5  1  0.188357  0.810567  0.810567  1
  Y  Y6  1  0.187547  0.817920  0.187547  1
  Y  Y7  1  0.810567  0.188357  0.810567  1
  Y  Y8  1  0.187547  0.187547  0.817920  1
  Y  Y9  1  0.810567  0.810567  0.188357  1
  Y  Y10  1  0.934028  0.566306  0.566306  1
  Y  Y11  1  0.561245  0.936002  0.936002  1
  Y  Y12  1  0.566306  0.934028  0.566306  1
  Y  Y13  1  0.936002  0.561245  0.936002  1
  Y  Y14  1  0.566306  0.566306  0.934028  1
  Y  Y15  1  0.936002  0.936002  0.561245  1
  Cd  Cd16  1  0.580630  0.580630  0.580630  1
  Cd  Cd17  1  0.583117  0.583117  0.253112  1
  Cd  Cd18  1  0.583117  0.253112  0.583117  1
  Cd  Cd19  1  0.253112  0.583117  0.583117  1
  Pd  Pd20  1  0.142786  0.142786  0.569814  1
  Pd  Pd21  1  0.142786  0.569814  0.142786  1
  Pd  Pd22  1  0.569814  0.142786  0.142786  1
  Ru  Ru23  1  0.143966  0.143966  0.143966  1
