# generated using pymatgen
data_Nd16Hg4PdRu3
_symmetry_space_group_name_H-M   'P 1'
_cell_length_a   9.88336175
_cell_length_b   9.92549673
_cell_length_c   9.92549700
_cell_angle_alpha   60.00000243
_cell_angle_beta   59.85887567
_cell_angle_gamma   59.85888402
_symmetry_Int_Tables_number   1
_chemical_formula_structural   Nd16Hg4PdRu3
_chemical_formula_sum   'Nd16 Hg4 Pd1 Ru3'
_cell_volume   687.01236054
_cell_formula_units_Z   1
loop_
 _symmetry_equiv_pos_site_id
 _symmetry_equiv_pos_as_xyz
  1  'x, y, z'
loop_
 _atom_site_type_symbol
 _atom_site_label
 _atom_site_symmetry_multiplicity
 _atom_site_fract_x
 _atom_site_fract_y
 _atom_site_fract_z
 _atom_site_occupancy
  Nd  Nd0  1  0.345060  0.352677  0.352677  1
  Nd  Nd1  1  0.345060  0.352677  0.949586  1
  Nd  Nd2  1  0.345060  0.949586  0.352677  1
  Nd  Nd3  1  0.956354  0.347882  0.347882  1
  Nd  Nd4  1  0.815694  0.191151  0.191151  1
  Nd  Nd5  1  0.190313  0.810010  0.810010  1
  Nd  Nd6  1  0.190313  0.810010  0.189668  1
  Nd  Nd7  1  0.815694  0.191151  0.802006  1
  Nd  Nd8  1  0.190313  0.189668  0.810010  1
  Nd  Nd9  1  0.815694  0.802006  0.191151  1
  Nd  Nd10  1  0.936439  0.562479  0.562479  1
  Nd  Nd11  1  0.557931  0.938420  0.938420  1
  Nd  Nd12  1  0.557931  0.938420  0.565231  1
  Nd  Nd13  1  0.936439  0.562479  0.938603  1
  Nd  Nd14  1  0.557931  0.565231  0.938420  1
  Nd  Nd15  1  0.936439  0.938603  0.562479  1
  Hg  Hg16  1  0.584088  0.583232  0.583232  1
  Hg  Hg17  1  0.584088  0.583232  0.249448  1
  Hg  Hg18  1  0.584088  0.249448  0.583232  1
  Hg  Hg19  1  0.249225  0.583592  0.583592  1
  Pd  Pd20  1  0.574781  0.141740  0.141740  1
  Ru  Ru21  1  0.143690  0.138007  0.138007  1
  Ru  Ru22  1  0.143690  0.138007  0.580295  1
  Ru  Ru23  1  0.143690  0.580295  0.138007  1
