# generated using pymatgen
data_Y6TcB14Os
_symmetry_space_group_name_H-M   'P 1'
_cell_length_a   8.09233513
_cell_length_b   8.09233519
_cell_length_c   9.35847400
_cell_angle_alpha   90.00000000
_cell_angle_beta   90.00000000
_cell_angle_gamma   154.74389989
_symmetry_Int_Tables_number   1
_chemical_formula_structural   Y6TcB14Os
_chemical_formula_sum   'Y6 Tc1 B14 Os1'
_cell_volume   261.48080442
_cell_formula_units_Z   1
loop_
 _symmetry_equiv_pos_site_id
 _symmetry_equiv_pos_as_xyz
  1  'x, y, z'
loop_
 _atom_site_type_symbol
 _atom_site_label
 _atom_site_symmetry_multiplicity
 _atom_site_fract_x
 _atom_site_fract_y
 _atom_site_fract_z
 _atom_site_occupancy
  Y  Y0  1  0.894540  0.105460  0.440320  1
  Y  Y1  1  0.105395  0.894605  0.561944  1
  Y  Y2  1  0.894540  0.105460  0.059680  1
  Y  Y3  1  0.105395  0.894605  0.938056  1
  Y  Y4  1  0.243438  0.756562  0.250000  1
  Y  Y5  1  0.757706  0.242294  0.750000  1
  Tc  Tc6  1  0.947063  0.052937  0.750000  1
  B  B7  1  0.726864  0.273136  0.465587  1
  B  B8  1  0.272500  0.727500  0.533964  1
  B  B9  1  0.726864  0.273136  0.034413  1
  B  B10  1  0.272500  0.727500  0.966036  1
  B  B11  1  0.631611  0.368389  0.151032  1
  B  B12  1  0.368207  0.631793  0.848750  1
  B  B13  1  0.631611  0.368389  0.348968  1
  B  B14  1  0.368207  0.631793  0.651250  1
  B  B15  1  0.520740  0.479260  0.096268  1
  B  B16  1  0.479127  0.520873  0.904309  1
  B  B17  1  0.520740  0.479260  0.403732  1
  B  B18  1  0.479127  0.520873  0.595691  1
  B  B19  1  0.457388  0.542612  0.250000  1
  B  B20  1  0.542397  0.457603  0.750000  1
  Os  Os21  1  0.054038  0.945962  0.250000  1
