# generated using pymatgen
data_Na3Ni(RhO3)2
_symmetry_space_group_name_H-M   'P 1'
_cell_length_a   3.12415600
_cell_length_b   7.07905196
_cell_length_c   6.35428023
_cell_angle_alpha   104.31271008
_cell_angle_beta   90.00888491
_cell_angle_gamma   102.74328044
_symmetry_Int_Tables_number   1
_chemical_formula_structural   Na3Ni(RhO3)2
_chemical_formula_sum   'Na3 Ni1 Rh2 O6'
_cell_volume   132.59304998
_cell_formula_units_Z   1
loop_
 _symmetry_equiv_pos_site_id
 _symmetry_equiv_pos_as_xyz
  1  'x, y, z'
loop_
 _atom_site_type_symbol
 _atom_site_label
 _atom_site_symmetry_multiplicity
 _atom_site_fract_x
 _atom_site_fract_y
 _atom_site_fract_z
 _atom_site_occupancy
  Na  Na0  1  0.666544  0.333217  0.833375  1
  Na  Na1  1  0.003592  0.007293  0.500461  1
  Na  Na2  1  0.329738  0.659467  0.165997  1
  Ni  Ni3  1  0.666814  0.333511  0.333812  1
  Rh  Rh4  1  0.001275  0.002670  0.006762  1
  Rh  Rh5  1  0.332104  0.663882  0.659803  1
  O  O6  1  0.506663  0.013402  0.221038  1
  O  O7  1  0.826659  0.653305  0.445666  1
  O  O8  1  0.845388  0.690392  0.883226  1
  O  O9  1  0.487810  0.976067  0.783066  1
  O  O10  1  0.180100  0.359806  0.560193  1
  O  O11  1  0.153316  0.306994  0.106597  1
