# generated using pymatgen
data_CoTc6(PbO12)2
_symmetry_space_group_name_H-M   'P 1'
_cell_length_a   10.96266600
_cell_length_b   10.96266578
_cell_length_c   5.48781800
_cell_angle_alpha   90.00000000
_cell_angle_beta   90.00000000
_cell_angle_gamma   120.00000065
_symmetry_Int_Tables_number   1
_chemical_formula_structural   CoTc6(PbO12)2
_chemical_formula_sum   'Co1 Tc6 Pb2 O24'
_cell_volume   571.16644489
_cell_formula_units_Z   1
loop_
 _symmetry_equiv_pos_site_id
 _symmetry_equiv_pos_as_xyz
  1  'x, y, z'
loop_
 _atom_site_type_symbol
 _atom_site_label
 _atom_site_symmetry_multiplicity
 _atom_site_fract_x
 _atom_site_fract_y
 _atom_site_fract_z
 _atom_site_occupancy
  Co  Co0  1  0.000000  0.000000  0.842741  1
  Tc  Tc1  1  0.329928  0.000000  0.975002  1
  Tc  Tc2  1  0.000000  0.329928  0.975002  1
  Tc  Tc3  1  0.670072  0.670072  0.975002  1
  Tc  Tc4  1  0.305593  0.305593  0.512402  1
  Tc  Tc5  1  0.000000  0.694407  0.512402  1
  Tc  Tc6  1  0.694407  0.000000  0.512402  1
  Pb  Pb7  1  0.333333  0.666667  0.372947  1
  Pb  Pb8  1  0.666667  0.333333  0.372947  1
  O  O9  1  0.641665  0.641665  0.667407  1
  O  O10  1  0.000000  0.358335  0.667407  1
  O  O11  1  0.358335  0.000000  0.667407  1
  O  O12  1  0.155141  0.155141  0.619413  1
  O  O13  1  0.000000  0.844859  0.619413  1
  O  O14  1  0.844859  0.000000  0.619413  1
  O  O15  1  0.308064  0.458335  0.614357  1
  O  O16  1  0.541665  0.849728  0.614357  1
  O  O17  1  0.150272  0.691936  0.614357  1
  O  O18  1  0.171115  0.000000  0.023532  1
  O  O19  1  0.000000  0.171115  0.023532  1
  O  O20  1  0.828885  0.828885  0.023532  1
  O  O21  1  0.471268  0.149523  0.105373  1
  O  O22  1  0.850477  0.321744  0.105373  1
  O  O23  1  0.678256  0.528732  0.105373  1
  O  O24  1  0.149523  0.471268  0.105373  1
  O  O25  1  0.321744  0.850477  0.105373  1
  O  O26  1  0.528732  0.678256  0.105373  1
  O  O27  1  0.692777  0.000000  0.199939  1
  O  O28  1  0.000000  0.692777  0.199939  1
  O  O29  1  0.307223  0.307223  0.199939  1
  O  O30  1  0.691936  0.150272  0.614357  1
  O  O31  1  0.849728  0.541665  0.614357  1
  O  O32  1  0.458335  0.308064  0.614357  1
