# generated using pymatgen
data_Li2Zn20NiPd3
_symmetry_space_group_name_H-M   'P 1'
_cell_length_a   7.89585134
_cell_length_b   7.89585145
_cell_length_c   7.88140070
_cell_angle_alpha   70.75046324
_cell_angle_beta   70.75045475
_cell_angle_gamma   109.64742252
_symmetry_Int_Tables_number   1
_chemical_formula_structural   Li2Zn20NiPd3
_chemical_formula_sum   'Li2 Zn20 Ni1 Pd3'
_cell_volume   379.48786011
_cell_formula_units_Z   1
loop_
 _symmetry_equiv_pos_site_id
 _symmetry_equiv_pos_as_xyz
  1  'x, y, z'
loop_
 _atom_site_type_symbol
 _atom_site_label
 _atom_site_symmetry_multiplicity
 _atom_site_fract_x
 _atom_site_fract_y
 _atom_site_fract_z
 _atom_site_occupancy
  Li  Li0  1  0.998974  0.353272  0.647050  1
  Li  Li1  1  0.353272  0.998974  0.647050  1
  Zn  Zn2  1  0.003418  0.003418  0.786181  1
  Zn  Zn3  1  0.781380  0.781380  0.223270  1
  Zn  Zn4  1  0.214290  0.000856  0.002161  1
  Zn  Zn5  1  0.000856  0.214290  0.002161  1
  Zn  Zn6  1  0.262837  0.262837  0.385944  1
  Zn  Zn7  1  0.004526  0.739552  0.642001  1
  Zn  Zn8  1  0.739552  0.004526  0.642001  1
  Zn  Zn9  1  0.656981  0.656981  0.620268  1
  Zn  Zn10  1  0.370388  0.646984  0.352240  1
  Zn  Zn11  1  0.646984  0.370388  0.352240  1
  Zn  Zn12  1  0.350666  0.729622  0.992385  1
  Zn  Zn13  1  0.624741  0.270337  0.723402  1
  Zn  Zn14  1  0.345447  0.000942  0.275724  1
  Zn  Zn15  1  0.729622  0.350666  0.992385  1
  Zn  Zn16  1  0.000942  0.345447  0.275724  1
  Zn  Zn17  1  0.270337  0.624741  0.723402  1
  Zn  Zn18  1  0.643933  0.643933  0.999045  1
  Zn  Zn19  1  0.000900  0.646718  0.356127  1
  Zn  Zn20  1  0.646718  0.000900  0.356127  1
  Zn  Zn21  1  0.352601  0.352601  0.005655  1
  Ni  Ni22  1  0.001994  0.001994  0.343803  1
  Pd  Pd23  1  0.349400  0.349400  0.653127  1
  Pd  Pd24  1  0.651641  0.997599  0.000263  1
  Pd  Pd25  1  0.997599  0.651641  0.000263  1
