# generated using pymatgen
data_LiCe2SmIn3Pd2
_symmetry_space_group_name_H-M   'P 1'
_cell_length_a   7.82929122
_cell_length_b   7.82929177
_cell_length_c   3.96327900
_cell_angle_alpha   90.00000000
_cell_angle_beta   90.00000000
_cell_angle_gamma   120.68337110
_symmetry_Int_Tables_number   1
_chemical_formula_structural   LiCe2SmIn3Pd2
_chemical_formula_sum   'Li1 Ce2 Sm1 In3 Pd2'
_cell_volume   208.92876145
_cell_formula_units_Z   1
loop_
 _symmetry_equiv_pos_site_id
 _symmetry_equiv_pos_as_xyz
  1  'x, y, z'
loop_
 _atom_site_type_symbol
 _atom_site_label
 _atom_site_symmetry_multiplicity
 _atom_site_fract_x
 _atom_site_fract_y
 _atom_site_fract_z
 _atom_site_occupancy
  Li  Li0  1  0.000840  0.000840  0.500000  1
  Ce  Ce1  1  0.581500  0.999844  0.500000  1
  Ce  Ce2  1  0.999844  0.581500  0.500000  1
  Sm  Sm3  1  0.416725  0.416725  0.500000  1
  In  In4  1  0.248968  0.999023  0.000000  1
  In  In5  1  0.999023  0.248968  0.000000  1
  In  In6  1  0.750364  0.750364  0.000000  1
  Pd  Pd7  1  0.332288  0.670450  0.000000  1
  Pd  Pd8  1  0.670450  0.332288  0.000000  1
