# generated using pymatgen
data_TbPr3(SbAu)4
_symmetry_space_group_name_H-M   'P 1'
_cell_length_a   4.64896900
_cell_length_b   4.64896903
_cell_length_c   16.57722200
_cell_angle_alpha   90.00000000
_cell_angle_beta   90.00000000
_cell_angle_gamma   120.00000691
_symmetry_Int_Tables_number   1
_chemical_formula_structural   TbPr3(SbAu)4
_chemical_formula_sum   'Tb1 Pr3 Sb4 Au4'
_cell_volume   310.28133988
_cell_formula_units_Z   1
loop_
 _symmetry_equiv_pos_site_id
 _symmetry_equiv_pos_as_xyz
  1  'x, y, z'
loop_
 _atom_site_type_symbol
 _atom_site_label
 _atom_site_symmetry_multiplicity
 _atom_site_fract_x
 _atom_site_fract_y
 _atom_site_fract_z
 _atom_site_occupancy
  Tb  Tb0  1  0.000000  0.000000  0.250000  1
  Pr  Pr1  1  0.000000  0.000000  0.498021  1
  Pr  Pr2  1  0.000000  0.000000  0.001979  1
  Pr  Pr3  1  0.000000  0.000000  0.750000  1
  Sb  Sb4  1  0.333333  0.666667  0.385722  1
  Sb  Sb5  1  0.666667  0.333333  0.611109  1
  Sb  Sb6  1  0.666667  0.333333  0.888891  1
  Sb  Sb7  1  0.333333  0.666667  0.114278  1
  Au  Au8  1  0.666667  0.333333  0.336857  1
  Au  Au9  1  0.333333  0.666667  0.657027  1
  Au  Au10  1  0.333333  0.666667  0.842973  1
  Au  Au11  1  0.666667  0.333333  0.163143  1
