# generated using pymatgen
data_Y4Er8TcOs3
_symmetry_space_group_name_H-M   'P 1'
_cell_length_a   6.27521103
_cell_length_b   7.43256451
_cell_length_c   8.99667800
_cell_angle_alpha   90.00000000
_cell_angle_beta   90.00000000
_cell_angle_gamma   90.06420515
_symmetry_Int_Tables_number   1
_chemical_formula_structural   Y4Er8TcOs3
_chemical_formula_sum   'Y4 Er8 Tc1 Os3'
_cell_volume   419.61299246
_cell_formula_units_Z   1
loop_
 _symmetry_equiv_pos_site_id
 _symmetry_equiv_pos_as_xyz
  1  'x, y, z'
loop_
 _atom_site_type_symbol
 _atom_site_label
 _atom_site_symmetry_multiplicity
 _atom_site_fract_x
 _atom_site_fract_y
 _atom_site_fract_z
 _atom_site_occupancy
  Y  Y0  1  0.872940  0.538677  0.250000  1
  Y  Y1  1  0.625519  0.038622  0.250000  1
  Y  Y2  1  0.128631  0.460880  0.750000  1
  Y  Y3  1  0.370921  0.961462  0.750000  1
  Er  Er4  1  0.335876  0.674521  0.062602  1
  Er  Er5  1  0.164909  0.175351  0.437244  1
  Er  Er6  1  0.666078  0.324763  0.562517  1
  Er  Er7  1  0.835194  0.825125  0.937035  1
  Er  Er8  1  0.666078  0.324763  0.937483  1
  Er  Er9  1  0.835194  0.825125  0.562965  1
  Er  Er10  1  0.335876  0.674521  0.437398  1
  Er  Er11  1  0.164909  0.175351  0.062756  1
  Tc  Tc12  1  0.042421  0.883559  0.250000  1
  Os  Os13  1  0.456469  0.382862  0.250000  1
  Os  Os14  1  0.956036  0.117781  0.750000  1
  Os  Os15  1  0.542947  0.616637  0.750000  1
