# generated using pymatgen
data_Hf16Ni4Ir3WN2
_symmetry_space_group_name_H-M   'P 1'
_cell_length_a   8.66254640
_cell_length_b   8.60497338
_cell_length_c   8.66254621
_cell_angle_alpha   119.94072437
_cell_angle_beta   120.34043138
_cell_angle_gamma   89.94674377
_symmetry_Int_Tables_number   1
_chemical_formula_structural   Hf16Ni4Ir3WN2
_chemical_formula_sum   'Hf16 Ni4 Ir3 W1 N2'
_cell_volume   454.85092934
_cell_formula_units_Z   1
loop_
 _symmetry_equiv_pos_site_id
 _symmetry_equiv_pos_as_xyz
  1  'x, y, z'
loop_
 _atom_site_type_symbol
 _atom_site_label
 _atom_site_symmetry_multiplicity
 _atom_site_fract_x
 _atom_site_fract_y
 _atom_site_fract_z
 _atom_site_occupancy
  Hf  Hf0  1  0.934946  0.182168  0.747222  1
  Hf  Hf1  1  0.321885  0.571862  0.749977  1
  Hf  Hf2  1  0.931169  0.569506  0.754659  1
  Hf  Hf3  1  0.311591  0.174174  0.743522  1
  Hf  Hf4  1  0.930652  0.174174  0.362584  1
  Hf  Hf5  1  0.314846  0.569506  0.138336  1
  Hf  Hf6  1  0.056676  0.807495  0.250819  1
  Hf  Hf7  1  0.688724  0.443867  0.255142  1
  Hf  Hf8  1  0.057789  0.438728  0.244704  1
  Hf  Hf9  1  0.692175  0.812987  0.259854  1
  Hf  Hf10  1  0.053133  0.812987  0.620812  1
  Hf  Hf11  1  0.694024  0.438728  0.880939  1
  Hf  Hf12  1  0.487578  0.010745  0.023165  1
  Hf  Hf13  1  0.482629  0.449386  0.466758  1
  Hf  Hf14  1  0.480903  0.018800  0.463744  1
  Hf  Hf15  1  0.055056  0.018800  0.037895  1
  Ni  Ni16  1  0.271340  0.235704  0.464364  1
  Ni  Ni17  1  0.275158  0.812450  0.037292  1
  Ni  Ni18  1  0.279437  0.227064  0.044580  1
  Ni  Ni19  1  0.682482  0.227064  0.447626  1
  Ir  Ir20  1  0.710125  0.131723  0.921599  1
  Ir  Ir21  1  0.709224  0.789471  0.916701  1
  Ir  Ir22  1  0.372770  0.789471  0.580246  1
  W  W23  1  0.706365  0.793888  0.587524  1
  N  N24  1  0.998446  0.499660  0.001214  1
  N  N25  1  0.000877  0.999597  0.498721  1
