# generated using pymatgen
data_Dy3Er3Al24Ru7Au
_symmetry_space_group_name_H-M   'P 1'
_cell_length_a   8.83459974
_cell_length_b   8.82838861
_cell_length_c   9.54953651
_cell_angle_alpha   89.86386017
_cell_angle_beta   90.11071604
_cell_angle_gamma   119.95298506
_symmetry_Int_Tables_number   1
_chemical_formula_structural   Dy3Er3Al24Ru7Au
_chemical_formula_sum   'Dy3 Er3 Al24 Ru7 Au1'
_cell_volume   645.33528537
_cell_formula_units_Z   1
loop_
 _symmetry_equiv_pos_site_id
 _symmetry_equiv_pos_as_xyz
  1  'x, y, z'
loop_
 _atom_site_type_symbol
 _atom_site_label
 _atom_site_symmetry_multiplicity
 _atom_site_fract_x
 _atom_site_fract_y
 _atom_site_fract_z
 _atom_site_occupancy
  Dy  Dy0  1  0.192619  0.386410  0.249699  1
  Dy  Dy1  1  0.807178  0.613551  0.750237  1
  Dy  Dy2  1  0.613473  0.807317  0.249724  1
  Er  Er3  1  0.387404  0.192936  0.750281  1
  Er  Er4  1  0.195007  0.804816  0.253500  1
  Er  Er5  1  0.805230  0.194845  0.746342  1
  Al  Al6  1  0.327718  0.672112  0.023511  1
  Al  Al7  1  0.671834  0.327778  0.976004  1
  Al  Al8  1  0.666299  0.333069  0.517600  1
  Al  Al9  1  0.333161  0.666591  0.482862  1
  Al  Al10  1  0.162304  0.323981  0.578400  1
  Al  Al11  1  0.837931  0.675730  0.421945  1
  Al  Al12  1  0.675810  0.838009  0.578296  1
  Al  Al13  1  0.849338  0.678220  0.080248  1
  Al  Al14  1  0.324074  0.161884  0.422327  1
  Al  Al15  1  0.150805  0.321636  0.919402  1
  Al  Al16  1  0.162875  0.837822  0.578820  1
  Al  Al17  1  0.321626  0.150608  0.079935  1
  Al  Al18  1  0.837283  0.162665  0.421475  1
  Al  Al19  1  0.678250  0.849344  0.919487  1
  Al  Al20  1  0.837267  0.162681  0.077437  1
  Al  Al21  1  0.162816  0.837745  0.922166  1
  Al  Al22  1  0.560282  0.121207  0.248267  1
  Al  Al23  1  0.439488  0.879461  0.751594  1
  Al  Al24  1  0.878820  0.439627  0.248337  1
  Al  Al25  1  0.121183  0.560416  0.751641  1
  Al  Al26  1  0.563955  0.435890  0.255740  1
  Al  Al27  1  0.435798  0.563331  0.744432  1
  Al  Al28  1  0.999858  0.000032  0.250147  1
  Al  Al29  1  0.001079  0.000396  0.749853  1
  Ru  Ru30  1  0.499845  0.000141  0.999769  1
  Ru  Ru31  1  0.999860  0.499918  0.999941  1
  Ru  Ru32  1  0.499881  0.000087  0.500132  1
  Ru  Ru33  1  0.999836  0.499911  0.500087  1
  Ru  Ru34  1  0.499893  0.499742  0.500216  1
  Ru  Ru35  1  0.999940  0.999977  0.999984  1
  Ru  Ru36  1  0.999913  0.999989  0.499987  1
  Au  Au37  1  0.500068  0.500129  0.000174  1
