# generated using pymatgen
data_Er16MgTl(Co2Ag)2
_symmetry_space_group_name_H-M   'P 1'
_cell_length_a   9.41226396
_cell_length_b   9.40011407
_cell_length_c   9.40011464
_cell_angle_alpha   59.89102978
_cell_angle_beta   59.86216483
_cell_angle_gamma   59.86215680
_symmetry_Int_Tables_number   1
_chemical_formula_structural   Er16MgTl(Co2Ag)2
_chemical_formula_sum   'Er16 Mg1 Tl1 Co4 Ag2'
_cell_volume   586.38109231
_cell_formula_units_Z   1
loop_
 _symmetry_equiv_pos_site_id
 _symmetry_equiv_pos_as_xyz
  1  'x, y, z'
loop_
 _atom_site_type_symbol
 _atom_site_label
 _atom_site_symmetry_multiplicity
 _atom_site_fract_x
 _atom_site_fract_y
 _atom_site_fract_z
 _atom_site_occupancy
  Er  Er0  1  0.595562  0.595436  0.595436  1
  Er  Er1  1  0.596743  0.596813  0.212293  1
  Er  Er2  1  0.596743  0.212293  0.596813  1
  Er  Er3  1  0.205216  0.599138  0.599138  1
  Er  Er4  1  0.060445  0.438364  0.438364  1
  Er  Er5  1  0.436522  0.061740  0.061740  1
  Er  Er6  1  0.435167  0.063462  0.436363  1
  Er  Er7  1  0.059631  0.438312  0.060982  1
  Er  Er8  1  0.435167  0.436363  0.063462  1
  Er  Er9  1  0.059631  0.060982  0.438312  1
  Er  Er10  1  0.188528  0.813422  0.813422  1
  Er  Er11  1  0.811386  0.189351  0.189351  1
  Er  Er12  1  0.811652  0.193348  0.813548  1
  Er  Er13  1  0.186224  0.812682  0.190537  1
  Er  Er14  1  0.811652  0.813548  0.193348  1
  Er  Er15  1  0.186224  0.190537  0.812682  1
  Mg  Mg16  1  0.531023  0.820085  0.820085  1
  Tl  Tl17  1  0.833984  0.831596  0.831596  1
  Co  Co18  1  0.388408  0.392500  0.392500  1
  Co  Co19  1  0.389731  0.391408  0.827123  1
  Co  Co20  1  0.389731  0.827123  0.391408  1
  Co  Co21  1  0.826455  0.390984  0.390984  1
  Ag  Ag22  1  0.832090  0.832186  0.498329  1
  Ag  Ag23  1  0.832090  0.498329  0.832186  1
