# generated using pymatgen
data_Lu2USn3IrRh2
_symmetry_space_group_name_H-M   'P 1'
_cell_length_a   7.45048660
_cell_length_b   7.56943164
_cell_length_c   3.84525000
_cell_angle_alpha   90.00000000
_cell_angle_beta   90.00000000
_cell_angle_gamma   120.35628410
_symmetry_Int_Tables_number   1
_chemical_formula_structural   Lu2USn3IrRh2
_chemical_formula_sum   'Lu2 U1 Sn3 Ir1 Rh2'
_cell_volume   187.12538848
_cell_formula_units_Z   1
loop_
 _symmetry_equiv_pos_site_id
 _symmetry_equiv_pos_as_xyz
  1  'x, y, z'
loop_
 _atom_site_type_symbol
 _atom_site_label
 _atom_site_symmetry_multiplicity
 _atom_site_fract_x
 _atom_site_fract_y
 _atom_site_fract_z
 _atom_site_occupancy
  Lu  Lu0  1  0.407329  0.402981  0.500000  1
  Lu  Lu1  1  0.596033  0.003398  0.500000  1
  U  U2  1  0.999137  0.584260  0.500000  1
  Sn  Sn3  1  0.724864  0.741341  0.000000  1
  Sn  Sn4  1  0.271665  0.011288  0.000000  1
  Sn  Sn5  1  0.002269  0.247261  0.000000  1
  Ir  Ir6  1  0.692980  0.357593  0.000000  1
  Rh  Rh7  1  0.306885  0.664684  0.000000  1
  Rh  Rh8  1  0.998838  0.987194  0.500000  1
