# generated using pymatgen
data_HgAu2(SeO4)4
_symmetry_space_group_name_H-M   'P 1'
_cell_length_a   6.87605765
_cell_length_b   6.87571777
_cell_length_c   9.35891723
_cell_angle_alpha   69.84197832
_cell_angle_beta   69.83658263
_cell_angle_gamma   88.38984549
_symmetry_Int_Tables_number   1
_chemical_formula_structural   HgAu2(SeO4)4
_chemical_formula_sum   'Hg1 Au2 Se4 O16'
_cell_volume   387.83949836
_cell_formula_units_Z   1
loop_
 _symmetry_equiv_pos_site_id
 _symmetry_equiv_pos_as_xyz
  1  'x, y, z'
loop_
 _atom_site_type_symbol
 _atom_site_label
 _atom_site_symmetry_multiplicity
 _atom_site_fract_x
 _atom_site_fract_y
 _atom_site_fract_z
 _atom_site_occupancy
  Hg  Hg0  1  0.000000  0.000000  0.000000  1
  Au  Au1  1  0.000000  0.000000  0.500000  1
  Au  Au2  1  0.500000  0.500000  0.500000  1
  Se  Se3  1  0.061293  0.568654  0.748621  1
  Se  Se4  1  0.568665  0.061299  0.748625  1
  Se  Se5  1  0.938707  0.431346  0.251379  1
  Se  Se6  1  0.431335  0.938701  0.251375  1
  O  O7  1  0.331502  0.616510  0.671707  1
  O  O8  1  0.616489  0.331532  0.671703  1
  O  O9  1  0.668498  0.383490  0.328293  1
  O  O10  1  0.383511  0.668468  0.328297  1
  O  O11  1  0.974998  0.683500  0.880991  1
  O  O12  1  0.683474  0.975057  0.880950  1
  O  O13  1  0.025002  0.316500  0.119009  1
  O  O14  1  0.316526  0.024943  0.119050  1
  O  O15  1  0.976696  0.683452  0.585375  1
  O  O16  1  0.683461  0.976697  0.585359  1
  O  O17  1  0.023304  0.316548  0.414625  1
  O  O18  1  0.316539  0.023303  0.414641  1
  O  O19  1  0.991124  0.317659  0.798158  1
  O  O20  1  0.317647  0.991125  0.798163  1
  O  O21  1  0.008876  0.682341  0.201842  1
  O  O22  1  0.682353  0.008875  0.201837  1
