# generated using pymatgen
data_K5Rb11Nb2(SnAs5)2
_symmetry_space_group_name_H-M   'P 1'
_cell_length_a   16.92467928
_cell_length_b   16.92467834
_cell_length_c   13.85354447
_cell_angle_alpha   85.72304041
_cell_angle_beta   85.72304164
_cell_angle_gamma   33.90395757
_symmetry_Int_Tables_number   1
_chemical_formula_structural   K5Rb11Nb2(SnAs5)2
_chemical_formula_sum   'K10 Rb22 Nb4 Sn4 As20'
_cell_volume   2206.77576053
_cell_formula_units_Z   2
loop_
 _symmetry_equiv_pos_site_id
 _symmetry_equiv_pos_as_xyz
  1  'x, y, z'
loop_
 _atom_site_type_symbol
 _atom_site_label
 _atom_site_symmetry_multiplicity
 _atom_site_fract_x
 _atom_site_fract_y
 _atom_site_fract_z
 _atom_site_occupancy
  K  K0  1  0.934157  0.836399  0.898513  1
  K  K1  1  0.163601  0.065843  0.601487  1
  K  K2  1  0.583132  0.373656  0.895297  1
  K  K3  1  0.626344  0.416868  0.604703  1
  K  K4  1  0.414364  0.627410  0.103172  1
  K  K5  1  0.372590  0.585636  0.396828  1
  K  K6  1  0.925746  0.629118  0.828708  1
  K  K7  1  0.370882  0.074254  0.671292  1
  K  K8  1  0.073654  0.371134  0.171231  1
  K  K9  1  0.628866  0.926346  0.328769  1
  Rb  Rb10  1  0.473647  0.819347  0.038084  1
  Rb  Rb11  1  0.180653  0.526353  0.461916  1
  Rb  Rb12  1  0.529217  0.179048  0.961503  1
  Rb  Rb13  1  0.820952  0.470783  0.538497  1
  Rb  Rb14  1  0.276488  0.194339  0.946287  1
  Rb  Rb15  1  0.805661  0.723512  0.553713  1
  Rb  Rb16  1  0.722571  0.806113  0.052803  1
  Rb  Rb17  1  0.193887  0.277429  0.447197  1
  Rb  Rb18  1  0.395349  0.735051  0.793200  1
  Rb  Rb19  1  0.264949  0.604651  0.706800  1
  Rb  Rb20  1  0.603331  0.266287  0.206628  1
  Rb  Rb21  1  0.733713  0.396669  0.293372  1
  Rb  Rb22  1  0.644124  0.714403  0.772696  1
  Rb  Rb23  1  0.285597  0.355876  0.727304  1
  Rb  Rb24  1  0.354840  0.286507  0.225315  1
  Rb  Rb25  1  0.713493  0.645160  0.274685  1
  Rb  Rb26  1  0.007234  0.065653  0.876144  1
  Rb  Rb27  1  0.934347  0.992766  0.623856  1
  Rb  Rb28  1  0.990019  0.936334  0.121219  1
  Rb  Rb29  1  0.063666  0.009981  0.378781  1
  Rb  Rb30  1  0.074911  0.151400  0.102696  1
  Rb  Rb31  1  0.848600  0.925089  0.397304  1
  Nb  Nb32  1  0.994768  0.317119  0.819587  1
  Nb  Nb33  1  0.682881  0.005232  0.680413  1
  Nb  Nb34  1  0.005550  0.682237  0.176955  1
  Nb  Nb35  1  0.317763  0.994450  0.323045  1
  Sn  Sn36  1  0.717447  0.464355  0.958245  1
  Sn  Sn37  1  0.535645  0.282553  0.541755  1
  Sn  Sn38  1  0.281619  0.536509  0.039824  1
  Sn  Sn39  1  0.463491  0.718381  0.460176  1
  As  As40  1  0.775286  0.284578  0.069300  1
  As  As41  1  0.715422  0.224714  0.430700  1
  As  As42  1  0.217499  0.720659  0.929198  1
  As  As43  1  0.279341  0.782501  0.570802  1
  As  As44  1  0.884583  0.461908  0.974639  1
  As  As45  1  0.538092  0.115417  0.525361  1
  As  As46  1  0.116525  0.536543  0.022354  1
  As  As47  1  0.463457  0.883475  0.477646  1
  As  As48  1  0.028153  0.401320  0.693433  1
  As  As49  1  0.598680  0.971847  0.806567  1
  As  As50  1  0.971291  0.599919  0.304472  1
  As  As51  1  0.400081  0.028709  0.195528  1
  As  As52  1  0.225335  0.055942  0.847322  1
  As  As53  1  0.944058  0.774665  0.652678  1
  As  As54  1  0.775986  0.942952  0.146982  1
  As  As55  1  0.057048  0.224014  0.353018  1
  As  As56  1  0.803200  0.382562  0.765747  1
  As  As57  1  0.617438  0.196800  0.734253  1
  As  As58  1  0.196260  0.617483  0.232402  1
  As  As59  1  0.382517  0.803740  0.267598  1
