# generated using pymatgen
data_Ca4EuAu4
_symmetry_space_group_name_H-M   'P 1'
_cell_length_a   8.18731000
_cell_length_b   7.86066776
_cell_length_c   8.15526302
_cell_angle_alpha   70.76552842
_cell_angle_beta   90.00000000
_cell_angle_gamma   90.00000000
_symmetry_Int_Tables_number   1
_chemical_formula_structural   Ca4EuAu4
_chemical_formula_sum   'Ca8 Eu2 Au8'
_cell_volume   495.55593303
_cell_formula_units_Z   2
loop_
 _symmetry_equiv_pos_site_id
 _symmetry_equiv_pos_as_xyz
  1  'x, y, z'
loop_
 _atom_site_type_symbol
 _atom_site_label
 _atom_site_symmetry_multiplicity
 _atom_site_fract_x
 _atom_site_fract_y
 _atom_site_fract_z
 _atom_site_occupancy
  Ca  Ca0  1  0.820907  0.430875  0.692761  1
  Ca  Ca1  1  0.330561  0.252110  0.744614  1
  Ca  Ca2  1  0.999246  0.000597  0.999191  1
  Ca  Ca3  1  0.679093  0.930875  0.692761  1
  Ca  Ca4  1  0.829840  0.247227  0.255845  1
  Ca  Ca5  1  0.169439  0.752110  0.744614  1
  Ca  Ca6  1  0.670160  0.747227  0.255845  1
  Ca  Ca7  1  0.500754  0.500597  0.999191  1
  Eu  Eu8  1  0.321511  0.067677  0.308196  1
  Eu  Eu9  1  0.178489  0.567677  0.308196  1
  Au  Au10  1  0.867753  0.630240  0.987561  1
  Au  Au11  1  0.966193  0.856121  0.417637  1
  Au  Au12  1  0.131743  0.370354  0.011238  1
  Au  Au13  1  0.533807  0.356121  0.417637  1
  Au  Au14  1  0.368257  0.870354  0.011238  1
  Au  Au15  1  0.467348  0.644798  0.582958  1
  Au  Au16  1  0.032652  0.144798  0.582958  1
  Au  Au17  1  0.632247  0.130240  0.987561  1
