# generated using pymatgen
data_SrLa(Ga3Pt)2
_symmetry_space_group_name_H-M   'P 1'
_cell_length_a   6.20208848
_cell_length_b   6.20208642
_cell_length_c   6.02062900
_cell_angle_alpha   90.00000000
_cell_angle_beta   90.00000000
_cell_angle_gamma   117.69403340
_symmetry_Int_Tables_number   1
_chemical_formula_structural   SrLa(Ga3Pt)2
_chemical_formula_sum   'Sr1 La1 Ga6 Pt2'
_cell_volume   205.05849692
_cell_formula_units_Z   1
loop_
 _symmetry_equiv_pos_site_id
 _symmetry_equiv_pos_as_xyz
  1  'x, y, z'
loop_
 _atom_site_type_symbol
 _atom_site_label
 _atom_site_symmetry_multiplicity
 _atom_site_fract_x
 _atom_site_fract_y
 _atom_site_fract_z
 _atom_site_occupancy
  Sr  Sr0  1  0.765288  0.234712  0.250000  1
  La  La1  1  0.231110  0.768890  0.750000  1
  Ga  Ga2  1  0.659645  0.340355  0.750000  1
  Ga  Ga3  1  0.342466  0.657534  0.250000  1
  Ga  Ga4  1  0.725046  0.725051  0.997717  1
  Ga  Ga5  1  0.725046  0.725051  0.502283  1
  Ga  Ga6  1  0.274949  0.274954  0.997717  1
  Ga  Ga7  1  0.274949  0.274954  0.502283  1
  Pt  Pt8  1  0.895087  0.104913  0.750000  1
  Pt  Pt9  1  0.106413  0.893587  0.250000  1
