# generated using pymatgen
data_DyYHo2Pt4F28
_symmetry_space_group_name_H-M   'P 1'
_cell_length_a   5.54882800
_cell_length_b   8.87888874
_cell_length_c   11.99042900
_cell_angle_alpha   62.49017263
_cell_angle_beta   89.99928020
_cell_angle_gamma   90.00260189
_symmetry_Int_Tables_number   1
_chemical_formula_structural   DyYHo2Pt4F28
_chemical_formula_sum   'Dy1 Y1 Ho2 Pt4 F28'
_cell_volume   523.94383748
_cell_formula_units_Z   1
loop_
 _symmetry_equiv_pos_site_id
 _symmetry_equiv_pos_as_xyz
  1  'x, y, z'
loop_
 _atom_site_type_symbol
 _atom_site_label
 _atom_site_symmetry_multiplicity
 _atom_site_fract_x
 _atom_site_fract_y
 _atom_site_fract_z
 _atom_site_occupancy
  Dy  Dy0  1  0.761083  0.813609  0.764474  1
  Y  Y1  1  0.261124  0.186434  0.735513  1
  Ho  Ho2  1  0.238922  0.185493  0.235773  1
  Ho  Ho3  1  0.738927  0.814515  0.264219  1
  Pt  Pt4  1  0.758924  0.271979  0.957594  1
  Pt  Pt5  1  0.258908  0.728043  0.542399  1
  Pt  Pt6  1  0.240935  0.726970  0.044105  1
  Pt  Pt7  1  0.740922  0.273056  0.455899  1
  F  F8  1  0.435551  0.702531  0.916332  1
  F  F9  1  0.935321  0.297567  0.583568  1
  F  F10  1  0.563136  0.296626  0.084835  1
  F  F11  1  0.063134  0.703377  0.415162  1
  F  F12  1  0.440464  0.278548  0.541665  1
  F  F13  1  0.940276  0.721564  0.958141  1
  F  F14  1  0.560125  0.722822  0.456528  1
  F  F15  1  0.060120  0.277187  0.043474  1
  F  F16  1  0.774963  0.520937  0.858669  1
  F  F17  1  0.274979  0.479271  0.641271  1
  F  F18  1  0.225297  0.477649  0.141985  1
  F  F19  1  0.725299  0.522351  0.358022  1
  F  F20  1  0.754037  0.022868  0.050999  1
  F  F21  1  0.254041  0.977126  0.449005  1
  F  F22  1  0.245691  0.975893  0.950681  1
  F  F23  1  0.745702  0.023933  0.549502  1
  F  F24  1  0.966070  0.724761  0.635750  1
  F  F25  1  0.466236  0.275332  0.864346  1
  F  F26  1  0.034151  0.274656  0.363139  1
  F  F27  1  0.534147  0.725357  0.136860  1
  F  F28  1  0.050727  0.746106  0.175879  1
  F  F29  1  0.550730  0.253906  0.324123  1
  F  F30  1  0.947350  0.254240  0.824870  1
  F  F31  1  0.447642  0.745844  0.675183  1
  F  F32  1  0.416790  0.970641  0.232847  1
  F  F33  1  0.916794  0.029368  0.267157  1
  F  F34  1  0.586125  0.030226  0.767694  1
  F  F35  1  0.085356  0.969214  0.732339  1
