# generated using pymatgen
data_Rb4TiCrS6
_symmetry_space_group_name_H-M   'P 1'
_cell_length_a   6.90413122
_cell_length_b   7.45700311
_cell_length_c   8.59522100
_cell_angle_alpha   74.02645245
_cell_angle_beta   69.07560427
_cell_angle_gamma   65.76617756
_symmetry_Int_Tables_number   1
_chemical_formula_structural   Rb4TiCrS6
_chemical_formula_sum   'Rb4 Ti1 Cr1 S6'
_cell_volume   372.58958388
_cell_formula_units_Z   1
loop_
 _symmetry_equiv_pos_site_id
 _symmetry_equiv_pos_as_xyz
  1  'x, y, z'
loop_
 _atom_site_type_symbol
 _atom_site_label
 _atom_site_symmetry_multiplicity
 _atom_site_fract_x
 _atom_site_fract_y
 _atom_site_fract_z
 _atom_site_occupancy
  Rb  Rb0  1  0.659675  0.447292  0.691080  1
  Rb  Rb1  1  0.334757  0.560810  0.310619  1
  Rb  Rb2  1  0.910242  0.800642  0.863961  1
  Rb  Rb3  1  0.087988  0.197201  0.137818  1
  Ti  Ti4  1  0.374762  0.054447  0.672867  1
  Cr  Cr5  1  0.626642  0.944894  0.326441  1
  S  S6  1  0.282899  0.959758  0.480143  1
  S  S7  1  0.730406  0.032495  0.505179  1
  S  S8  1  0.377637  0.830956  0.905954  1
  S  S9  1  0.622797  0.158669  0.104067  1
  S  S10  1  0.173622  0.365721  0.724117  1
  S  S11  1  0.818571  0.647115  0.277756  1
