# generated using pymatgen
data_NpTcB4
_symmetry_space_group_name_H-M   'P 1'
_cell_length_a   3.56817400
_cell_length_b   5.96002400
_cell_length_c   11.54964000
_cell_angle_alpha   90.00000000
_cell_angle_beta   90.00000000
_cell_angle_gamma   90.00000000
_symmetry_Int_Tables_number   1
_chemical_formula_structural   NpTcB4
_chemical_formula_sum   'Np4 Tc4 B16'
_cell_volume   245.61929500
_cell_formula_units_Z   4
loop_
 _symmetry_equiv_pos_site_id
 _symmetry_equiv_pos_as_xyz
  1  'x, y, z'
loop_
 _atom_site_type_symbol
 _atom_site_label
 _atom_site_symmetry_multiplicity
 _atom_site_fract_x
 _atom_site_fract_y
 _atom_site_fract_z
 _atom_site_occupancy
  Np  Np0  1  0.000000  0.626147  0.349410  1
  Np  Np1  1  0.000000  0.373853  0.650590  1
  Np  Np2  1  0.000000  0.126147  0.150590  1
  Np  Np3  1  0.000000  0.873853  0.849410  1
  Tc  Tc4  1  0.000000  0.637607  0.092153  1
  Tc  Tc5  1  0.000000  0.362393  0.907847  1
  Tc  Tc6  1  0.000000  0.137607  0.407847  1
  Tc  Tc7  1  0.000000  0.862393  0.592153  1
  B  B8  1  0.500000  0.787744  0.187247  1
  B  B9  1  0.500000  0.212256  0.812753  1
  B  B10  1  0.500000  0.287744  0.312753  1
  B  B11  1  0.500000  0.712256  0.687247  1
  B  B12  1  0.500000  0.865912  0.031659  1
  B  B13  1  0.500000  0.134088  0.968341  1
  B  B14  1  0.500000  0.365912  0.468341  1
  B  B15  1  0.500000  0.634088  0.531659  1
  B  B16  1  0.500000  0.885379  0.453112  1
  B  B17  1  0.500000  0.114621  0.546888  1
  B  B18  1  0.500000  0.385379  0.046888  1
  B  B19  1  0.500000  0.614621  0.953112  1
  B  B20  1  0.500000  0.973357  0.307624  1
  B  B21  1  0.500000  0.026643  0.692376  1
  B  B22  1  0.500000  0.473357  0.192376  1
  B  B23  1  0.500000  0.526643  0.807624  1
