# generated using pymatgen
data_Li3TbY2InGe2
_symmetry_space_group_name_H-M   'P 1'
_cell_length_a   7.31387708
_cell_length_b   7.30224813
_cell_length_c   4.22687000
_cell_angle_alpha   90.00000000
_cell_angle_beta   90.00000000
_cell_angle_gamma   119.94740958
_symmetry_Int_Tables_number   1
_chemical_formula_structural   Li3TbY2InGe2
_chemical_formula_sum   'Li3 Tb1 Y2 In1 Ge2'
_cell_volume   195.60667483
_cell_formula_units_Z   1
loop_
 _symmetry_equiv_pos_site_id
 _symmetry_equiv_pos_as_xyz
  1  'x, y, z'
loop_
 _atom_site_type_symbol
 _atom_site_label
 _atom_site_symmetry_multiplicity
 _atom_site_fract_x
 _atom_site_fract_y
 _atom_site_fract_z
 _atom_site_occupancy
  Li  Li0  1  0.252950  0.000342  0.500000  1
  Li  Li1  1  0.747050  0.747393  0.500000  1
  Li  Li2  1  0.000000  0.252363  0.500000  1
  Tb  Tb3  1  0.000000  0.560622  0.000000  1
  Y  Y4  1  0.560956  0.000522  0.000000  1
  Y  Y5  1  0.439044  0.439566  0.000000  1
  In  In6  1  0.000000  0.000088  0.000000  1
  Ge  Ge7  1  0.333720  0.666413  0.500000  1
  Ge  Ge8  1  0.666280  0.332692  0.500000  1
