# generated using pymatgen
data_Ce2Ho3Sn3Hg
_symmetry_space_group_name_H-M   'P 1'
_cell_length_a   6.43735200
_cell_length_b   9.41153664
_cell_length_c   9.41153600
_cell_angle_alpha   119.99999776
_cell_angle_beta   90.00000000
_cell_angle_gamma   90.00000000
_symmetry_Int_Tables_number   1
_chemical_formula_structural   Ce2Ho3Sn3Hg
_chemical_formula_sum   'Ce4 Ho6 Sn6 Hg2'
_cell_volume   493.80893504
_cell_formula_units_Z   2
loop_
 _symmetry_equiv_pos_site_id
 _symmetry_equiv_pos_as_xyz
  1  'x, y, z'
loop_
 _atom_site_type_symbol
 _atom_site_label
 _atom_site_symmetry_multiplicity
 _atom_site_fract_x
 _atom_site_fract_y
 _atom_site_fract_z
 _atom_site_occupancy
  Ce  Ce0  1  0.000000  0.666667  0.333333  1
  Ce  Ce1  1  0.000000  0.333333  0.666667  1
  Ce  Ce2  1  0.500000  0.333333  0.666667  1
  Ce  Ce3  1  0.500000  0.666667  0.333333  1
  Ho  Ho4  1  0.750000  0.715339  0.715339  1
  Ho  Ho5  1  0.250000  0.284661  0.284661  1
  Ho  Ho6  1  0.750000  0.000000  0.284661  1
  Ho  Ho7  1  0.250000  0.000000  0.715339  1
  Ho  Ho8  1  0.750000  0.284661  0.000000  1
  Ho  Ho9  1  0.250000  0.715339  0.000000  1
  Sn  Sn10  1  0.750000  0.370580  0.370580  1
  Sn  Sn11  1  0.250000  0.629420  0.629420  1
  Sn  Sn12  1  0.750000  0.000000  0.629420  1
  Sn  Sn13  1  0.250000  0.000000  0.370580  1
  Sn  Sn14  1  0.750000  0.629420  0.000000  1
  Sn  Sn15  1  0.250000  0.370580  0.000000  1
  Hg  Hg16  1  0.000000  0.000000  0.000000  1
  Hg  Hg17  1  0.500000  0.000000  0.000000  1
