# generated using pymatgen
data_La4Nd6RuRh3
_symmetry_space_group_name_H-M   'P 1'
_cell_length_a   9.16813916
_cell_length_b   9.19218815
_cell_length_c   7.33820729
_cell_angle_alpha   84.36122811
_cell_angle_beta   84.33593302
_cell_angle_gamma   42.56317327
_symmetry_Int_Tables_number   1
_chemical_formula_structural   La4Nd6RuRh3
_chemical_formula_sum   'La4 Nd6 Ru1 Rh3'
_cell_volume   415.96463034
_cell_formula_units_Z   1
loop_
 _symmetry_equiv_pos_site_id
 _symmetry_equiv_pos_as_xyz
  1  'x, y, z'
loop_
 _atom_site_type_symbol
 _atom_site_label
 _atom_site_symmetry_multiplicity
 _atom_site_fract_x
 _atom_site_fract_y
 _atom_site_fract_z
 _atom_site_occupancy
  La  La0  1  0.009245  0.802048  0.913715  1
  La  La1  1  0.202481  0.986462  0.587355  1
  La  La2  1  0.983347  0.203230  0.087227  1
  La  La3  1  0.793126  0.016298  0.406540  1
  Nd  Nd4  1  0.360801  0.210976  0.817449  1
  Nd  Nd5  1  0.791054  0.639626  0.683872  1
  Nd  Nd6  1  0.640111  0.792719  0.183055  1
  Nd  Nd7  1  0.212823  0.357583  0.315353  1
  Nd  Nd8  1  0.571640  0.426150  0.751643  1
  Nd  Nd9  1  0.427098  0.572960  0.249936  1
  Ru  Ru10  1  0.607926  0.169967  0.083143  1
  Rh  Rh11  1  0.177001  0.599894  0.580450  1
  Rh  Rh12  1  0.401145  0.821479  0.919051  1
  Rh  Rh13  1  0.822202  0.400608  0.421209  1
