# generated using pymatgen
data_K4AlZn7Ag12
_symmetry_space_group_name_H-M   'P 1'
_cell_length_a   5.56411567
_cell_length_b   7.03942748
_cell_length_c   14.01649600
_cell_angle_alpha   89.99411531
_cell_angle_beta   89.93422036
_cell_angle_gamma   89.85858157
_symmetry_Int_Tables_number   1
_chemical_formula_structural   K4AlZn7Ag12
_chemical_formula_sum   'K4 Al1 Zn7 Ag12'
_cell_volume   548.99872361
_cell_formula_units_Z   1
loop_
 _symmetry_equiv_pos_site_id
 _symmetry_equiv_pos_as_xyz
  1  'x, y, z'
loop_
 _atom_site_type_symbol
 _atom_site_label
 _atom_site_symmetry_multiplicity
 _atom_site_fract_x
 _atom_site_fract_y
 _atom_site_fract_z
 _atom_site_occupancy
  K  K0  1  0.250093  0.125200  0.081479  1
  K  K1  1  0.250076  0.374059  0.581831  1
  K  K2  1  0.749838  0.875309  0.917342  1
  K  K3  1  0.749490  0.625372  0.419145  1
  Al  Al4  1  0.001685  0.633462  0.145128  1
  Zn  Zn5  1  0.002534  0.865830  0.645686  1
  Zn  Zn6  1  0.498051  0.634969  0.144741  1
  Zn  Zn7  1  0.502507  0.134674  0.355081  1
  Zn  Zn8  1  0.997773  0.365538  0.853965  1
  Zn  Zn9  1  0.997584  0.134103  0.355678  1
  Zn  Zn10  1  0.501708  0.365640  0.854166  1
  Zn  Zn11  1  0.497915  0.866035  0.645812  1
  Ag  Ag12  1  0.249786  0.074275  0.782024  1
  Ag  Ag13  1  0.248441  0.424783  0.281281  1
  Ag  Ag14  1  0.752540  0.924037  0.218013  1
  Ag  Ag15  1  0.750448  0.574812  0.718275  1
  Ag  Ag16  1  0.249742  0.667701  0.781748  1
  Ag  Ag17  1  0.250499  0.832792  0.281845  1
  Ag  Ag18  1  0.751840  0.333479  0.218649  1
  Ag  Ag19  1  0.750131  0.167949  0.717845  1
  Ag  Ag20  1  0.247511  0.571148  0.985190  1
  Ag  Ag21  1  0.250389  0.929361  0.485220  1
  Ag  Ag22  1  0.749758  0.430448  0.014433  1
  Ag  Ag23  1  0.749662  0.069023  0.515426  1
