# generated using pymatgen
data_Y3TmInRu
_symmetry_space_group_name_H-M   'P 1'
_cell_length_a   9.67730911
_cell_length_b   9.67741858
_cell_length_c   9.72747105
_cell_angle_alpha   59.33120316
_cell_angle_beta   59.33175543
_cell_angle_gamma   59.33433170
_symmetry_Int_Tables_number   1
_chemical_formula_structural   Y3TmInRu
_chemical_formula_sum   'Y12 Tm4 In4 Ru4'
_cell_volume   634.37805817
_cell_formula_units_Z   4
loop_
 _symmetry_equiv_pos_site_id
 _symmetry_equiv_pos_as_xyz
  1  'x, y, z'
loop_
 _atom_site_type_symbol
 _atom_site_label
 _atom_site_symmetry_multiplicity
 _atom_site_fract_x
 _atom_site_fract_y
 _atom_site_fract_z
 _atom_site_occupancy
  Y  Y0  1  0.061237  0.061232  0.442939  1
  Y  Y1  1  0.441435  0.059198  0.442972  1
  Y  Y2  1  0.061043  0.442222  0.060891  1
  Y  Y3  1  0.043101  0.651633  0.653392  1
  Y  Y4  1  0.445209  0.445212  0.055660  1
  Y  Y5  1  0.651638  0.043096  0.653395  1
  Y  Y6  1  0.191841  0.811560  0.191369  1
  Y  Y7  1  0.189341  0.189342  0.813100  1
  Y  Y8  1  0.809853  0.809854  0.190871  1
  Y  Y9  1  0.442218  0.061048  0.060897  1
  Y  Y10  1  0.811559  0.191848  0.191366  1
  Y  Y11  1  0.059199  0.441431  0.442976  1
  Tm  Tm12  1  0.810032  0.191233  0.809094  1
  Tm  Tm13  1  0.191230  0.810030  0.809089  1
  Tm  Tm14  1  0.654898  0.654897  0.039433  1
  Tm  Tm15  1  0.649206  0.649194  0.647908  1
  In  In16  1  0.416866  0.416860  0.416518  1
  In  In17  1  0.746408  0.418710  0.416708  1
  In  In18  1  0.418709  0.746409  0.416705  1
  In  In19  1  0.417675  0.417700  0.747436  1
  Ru  Ru20  1  0.853348  0.853357  0.424054  1
  Ru  Ru21  1  0.861707  0.861699  0.860735  1
  Ru  Ru22  1  0.424307  0.847930  0.856246  1
  Ru  Ru23  1  0.847940  0.424304  0.856243  1
