# generated using pymatgen
data_Nd5InBi2P
_symmetry_space_group_name_H-M   'P 1'
_cell_length_a   9.52852901
_cell_length_b   9.50230876
_cell_length_c   6.97339400
_cell_angle_alpha   90.00000000
_cell_angle_beta   90.00000000
_cell_angle_gamma   119.90901345
_symmetry_Int_Tables_number   1
_chemical_formula_structural   Nd5InBi2P
_chemical_formula_sum   'Nd10 In2 Bi4 P2'
_cell_volume   547.30231266
_cell_formula_units_Z   2
loop_
 _symmetry_equiv_pos_site_id
 _symmetry_equiv_pos_as_xyz
  1  'x, y, z'
loop_
 _atom_site_type_symbol
 _atom_site_label
 _atom_site_symmetry_multiplicity
 _atom_site_fract_x
 _atom_site_fract_y
 _atom_site_fract_z
 _atom_site_occupancy
  Nd  Nd0  1  0.660697  0.329493  0.997643  1
  Nd  Nd1  1  0.339303  0.668796  0.997643  1
  Nd  Nd2  1  0.339303  0.668796  0.502357  1
  Nd  Nd3  1  0.660697  0.329493  0.502357  1
  Nd  Nd4  1  0.760082  0.763166  0.750000  1
  Nd  Nd5  1  0.239918  0.003084  0.750000  1
  Nd  Nd6  1  0.000000  0.238841  0.750000  1
  Nd  Nd7  1  0.236490  0.237669  0.250000  1
  Nd  Nd8  1  0.763510  0.001179  0.250000  1
  Nd  Nd9  1  0.000000  0.761729  0.250000  1
  In  In10  1  0.398583  0.398133  0.750000  1
  In  In11  1  0.601417  0.999550  0.750000  1
  Bi  Bi12  1  0.000000  0.602634  0.750000  1
  Bi  Bi13  1  0.601631  0.601375  0.250000  1
  Bi  Bi14  1  0.398369  0.999744  0.250000  1
  Bi  Bi15  1  0.000000  0.397447  0.250000  1
  P  P16  1  0.000000  0.999436  0.000566  1
  P  P17  1  0.000000  0.999436  0.499434  1
