# generated using pymatgen
data_Sr21Ga8BiSb6
_symmetry_space_group_name_H-M   'P 1'
_cell_length_a   12.05114723
_cell_length_b   12.05114745
_cell_length_c   12.05114700
_cell_angle_alpha   60.00000399
_cell_angle_beta   60.00000337
_cell_angle_gamma   60.00000128
_symmetry_Int_Tables_number   1
_chemical_formula_structural   Sr21Ga8BiSb6
_chemical_formula_sum   'Sr21 Ga8 Bi1 Sb6'
_cell_volume   1237.57123701
_cell_formula_units_Z   1
loop_
 _symmetry_equiv_pos_site_id
 _symmetry_equiv_pos_as_xyz
  1  'x, y, z'
loop_
 _atom_site_type_symbol
 _atom_site_label
 _atom_site_symmetry_multiplicity
 _atom_site_fract_x
 _atom_site_fract_y
 _atom_site_fract_z
 _atom_site_occupancy
  Sr  Sr0  1  0.868365  0.868365  0.394904  1
  Sr  Sr1  1  0.605096  0.131635  0.131635  1
  Sr  Sr2  1  0.868365  0.394904  0.868365  1
  Sr  Sr3  1  0.131635  0.131635  0.131635  1
  Sr  Sr4  1  0.394904  0.868365  0.868365  1
  Sr  Sr5  1  0.868365  0.868365  0.868365  1
  Sr  Sr6  1  0.174506  0.825494  0.500000  1
  Sr  Sr7  1  0.825494  0.500000  0.500000  1
  Sr  Sr8  1  0.131635  0.131635  0.605096  1
  Sr  Sr9  1  0.825494  0.174506  0.500000  1
  Sr  Sr10  1  0.174506  0.500000  0.500000  1
  Sr  Sr11  1  0.131635  0.605096  0.131635  1
  Sr  Sr12  1  0.500000  0.500000  0.174506  1
  Sr  Sr13  1  0.500000  0.174506  0.825494  1
  Sr  Sr14  1  0.500000  0.825494  0.174506  1
  Sr  Sr15  1  0.500000  0.500000  0.825494  1
  Sr  Sr16  1  0.500000  0.174506  0.500000  1
  Sr  Sr17  1  0.174506  0.500000  0.825494  1
  Sr  Sr18  1  0.000000  0.000000  0.000000  1
  Sr  Sr19  1  0.500000  0.825494  0.500000  1
  Sr  Sr20  1  0.825494  0.500000  0.174506  1
  Ga  Ga21  1  0.693431  0.919709  0.693431  1
  Ga  Ga22  1  0.693431  0.693431  0.919709  1
  Ga  Ga23  1  0.693431  0.693431  0.693431  1
  Ga  Ga24  1  0.306569  0.080291  0.306569  1
  Ga  Ga25  1  0.919709  0.693431  0.693431  1
  Ga  Ga26  1  0.306569  0.306569  0.080291  1
  Ga  Ga27  1  0.080291  0.306569  0.306569  1
  Ga  Ga28  1  0.306569  0.306569  0.306569  1
  Bi  Bi29  1  0.500000  0.500000  0.500000  1
  Sb  Sb30  1  0.790023  0.209977  0.790023  1
  Sb  Sb31  1  0.790023  0.209977  0.209977  1
  Sb  Sb32  1  0.209977  0.790023  0.209977  1
  Sb  Sb33  1  0.209977  0.790023  0.790023  1
  Sb  Sb34  1  0.790023  0.790023  0.209977  1
  Sb  Sb35  1  0.209977  0.209977  0.790023  1
