# generated using pymatgen
data_Yb2YSi6(Pd3Pt)5
_symmetry_space_group_name_H-M   'P 1'
_cell_length_a   8.71066018
_cell_length_b   8.72431885
_cell_length_c   8.74175200
_cell_angle_alpha   59.93394551
_cell_angle_beta   59.88192328
_cell_angle_gamma   59.61868444
_symmetry_Int_Tables_number   1
_chemical_formula_structural   Yb2YSi6(Pd3Pt)5
_chemical_formula_sum   'Yb2 Y1 Si6 Pd15 Pt5'
_cell_volume   467.73128994
_cell_formula_units_Z   1
loop_
 _symmetry_equiv_pos_site_id
 _symmetry_equiv_pos_as_xyz
  1  'x, y, z'
loop_
 _atom_site_type_symbol
 _atom_site_label
 _atom_site_symmetry_multiplicity
 _atom_site_fract_x
 _atom_site_fract_y
 _atom_site_fract_z
 _atom_site_occupancy
  Yb  Yb0  1  0.749906  0.751106  0.749493  1
  Yb  Yb1  1  0.999933  0.000043  0.000011  1
  Y  Y2  1  0.250346  0.250407  0.249624  1
  Si  Si3  1  0.730463  0.269188  0.268587  1
  Si  Si4  1  0.270238  0.729941  0.730696  1
  Si  Si5  1  0.270238  0.729941  0.269125  1
  Si  Si6  1  0.730464  0.269187  0.731761  1
  Si  Si7  1  0.269302  0.268743  0.730978  1
  Si  Si8  1  0.730127  0.730662  0.269605  1
  Pd  Pd9  1  0.619706  0.148503  0.615896  1
  Pd  Pd10  1  0.851166  0.380629  0.384103  1
  Pd  Pd11  1  0.147400  0.617828  0.617387  1
  Pd  Pd12  1  0.343119  0.000763  0.000376  1
  Pd  Pd13  1  0.655767  0.000934  0.000153  1
  Pd  Pd14  1  0.999693  0.344432  0.655936  1
  Pd  Pd15  1  0.999852  0.656614  0.343814  1
  Pd  Pd16  1  0.999693  0.344431  0.999940  1
  Pd  Pd17  1  0.655767  0.000934  0.343146  1
  Pd  Pd18  1  0.999852  0.656614  0.999719  1
  Pd  Pd19  1  0.343119  0.000764  0.655743  1
  Pd  Pd20  1  0.000228  0.001214  0.343664  1
  Pd  Pd21  1  0.000228  0.001213  0.654895  1
  Pd  Pd22  1  0.656416  0.344220  0.999683  1
  Pd  Pd23  1  0.343428  0.657601  0.999486  1
  Pt  Pt24  1  0.382345  0.382551  0.386460  1
  Pt  Pt25  1  0.618934  0.615102  0.614206  1
  Pt  Pt26  1  0.382345  0.382551  0.848644  1
  Pt  Pt27  1  0.380990  0.848784  0.385113  1
  Pt  Pt28  1  0.618935  0.615102  0.151756  1
