# generated using pymatgen
data_Tb4Dy2CoCl10
_symmetry_space_group_name_H-M   'P 1'
_cell_length_a   7.11481278
_cell_length_b   8.78300010
_cell_length_c   8.92749108
_cell_angle_alpha   108.73192980
_cell_angle_beta   96.56625390
_cell_angle_gamma   105.55146116
_symmetry_Int_Tables_number   1
_chemical_formula_structural   Tb4Dy2CoCl10
_chemical_formula_sum   'Tb4 Dy2 Co1 Cl10'
_cell_volume   496.54551231
_cell_formula_units_Z   1
loop_
 _symmetry_equiv_pos_site_id
 _symmetry_equiv_pos_as_xyz
  1  'x, y, z'
loop_
 _atom_site_type_symbol
 _atom_site_label
 _atom_site_symmetry_multiplicity
 _atom_site_fract_x
 _atom_site_fract_y
 _atom_site_fract_z
 _atom_site_occupancy
  Tb  Tb0  1  0.533023  0.704799  0.904648  1
  Tb  Tb1  1  0.466977  0.295201  0.095352  1
  Tb  Tb2  1  0.634479  0.055279  0.755603  1
  Tb  Tb3  1  0.365521  0.944721  0.244397  1
  Dy  Dy4  1  0.861639  0.138042  0.186565  1
  Dy  Dy5  1  0.138361  0.861958  0.813435  1
  Co  Co6  1  0.500000  0.000000  0.000000  1
  Cl  Cl7  1  0.738690  0.079288  0.449727  1
  Cl  Cl8  1  0.261310  0.920712  0.550273  1
  Cl  Cl9  1  0.952074  0.825973  0.076102  1
  Cl  Cl10  1  0.047926  0.174027  0.923898  1
  Cl  Cl11  1  0.280285  0.246565  0.341339  1
  Cl  Cl12  1  0.719715  0.753435  0.658661  1
  Cl  Cl13  1  0.589253  0.372500  0.836807  1
  Cl  Cl14  1  0.410747  0.627500  0.163193  1
  Cl  Cl15  1  0.844113  0.449713  0.274187  1
  Cl  Cl16  1  0.155887  0.550287  0.725813  1
