# generated using pymatgen
data_La2Te2MoO10
_symmetry_space_group_name_H-M   'P 1'
_cell_length_a   7.06863203
_cell_length_b   7.06857561
_cell_length_c   12.31385815
_cell_angle_alpha   90.25525543
_cell_angle_beta   90.25499602
_cell_angle_gamma   47.66318146
_symmetry_Int_Tables_number   1
_chemical_formula_structural   La2Te2MoO10
_chemical_formula_sum   'La4 Te4 Mo2 O20'
_cell_volume   454.79673396
_cell_formula_units_Z   2
loop_
 _symmetry_equiv_pos_site_id
 _symmetry_equiv_pos_as_xyz
  1  'x, y, z'
loop_
 _atom_site_type_symbol
 _atom_site_label
 _atom_site_symmetry_multiplicity
 _atom_site_fract_x
 _atom_site_fract_y
 _atom_site_fract_z
 _atom_site_occupancy
  La  La0  1  0.352624  0.840000  0.446301  1
  La  La1  1  0.839980  0.352648  0.946296  1
  La  La2  1  0.160020  0.647352  0.053704  1
  La  La3  1  0.647376  0.160000  0.553699  1
  Te  Te4  1  0.059793  0.550157  0.358485  1
  Te  Te5  1  0.940207  0.449843  0.641515  1
  Te  Te6  1  0.550152  0.059795  0.858485  1
  Te  Te7  1  0.449848  0.940205  0.141515  1
  Mo  Mo8  1  0.194951  0.805050  0.750001  1
  Mo  Mo9  1  0.805049  0.194950  0.249999  1
  O  O10  1  0.463975  0.699895  0.059391  1
  O  O11  1  0.699894  0.463978  0.559389  1
  O  O12  1  0.918992  0.097592  0.106058  1
  O  O13  1  0.983710  0.765071  0.239887  1
  O  O14  1  0.757314  0.795797  0.445917  1
  O  O15  1  0.016290  0.234929  0.760113  1
  O  O16  1  0.081008  0.902408  0.893942  1
  O  O17  1  0.097591  0.918991  0.606060  1
  O  O18  1  0.242686  0.204203  0.554083  1
  O  O19  1  0.765068  0.983708  0.739889  1
  O  O20  1  0.286811  0.499913  0.730359  1
  O  O21  1  0.713189  0.500087  0.269641  1
  O  O22  1  0.536025  0.300105  0.940609  1
  O  O23  1  0.795795  0.757317  0.945917  1
  O  O24  1  0.234932  0.016292  0.260111  1
  O  O25  1  0.500087  0.713194  0.769637  1
  O  O26  1  0.204205  0.242683  0.054083  1
  O  O27  1  0.902409  0.081009  0.393940  1
  O  O28  1  0.300106  0.536022  0.440611  1
  O  O29  1  0.499913  0.286806  0.230363  1
