# generated using pymatgen
data_Sm8Hf12Si15P
_symmetry_space_group_name_H-M   'P 1'
_cell_length_a   7.33324481
_cell_length_b   7.33768792
_cell_length_c   13.49822473
_cell_angle_alpha   89.80435214
_cell_angle_beta   89.95547156
_cell_angle_gamma   90.01289041
_symmetry_Int_Tables_number   1
_chemical_formula_structural   Sm8Hf12Si15P
_chemical_formula_sum   'Sm8 Hf12 Si15 P1'
_cell_volume   726.32233764
_cell_formula_units_Z   1
loop_
 _symmetry_equiv_pos_site_id
 _symmetry_equiv_pos_as_xyz
  1  'x, y, z'
loop_
 _atom_site_type_symbol
 _atom_site_label
 _atom_site_symmetry_multiplicity
 _atom_site_fract_x
 _atom_site_fract_y
 _atom_site_fract_z
 _atom_site_occupancy
  Sm  Sm0  1  0.998403  0.344092  0.216603  1
  Sm  Sm1  1  0.006112  0.656964  0.714638  1
  Sm  Sm2  1  0.156352  0.494750  0.464236  1
  Sm  Sm3  1  0.507633  0.841780  0.034742  1
  Sm  Sm4  1  0.843384  0.504275  0.965395  1
  Sm  Sm5  1  0.494329  0.156604  0.534076  1
  Sm  Sm6  1  0.344636  0.995077  0.785260  1
  Sm  Sm7  1  0.652147  0.007740  0.284892  1
  Hf  Hf8  1  0.174710  0.175010  0.000447  1
  Hf  Hf9  1  0.825899  0.826408  0.499572  1
  Hf  Hf10  1  0.324319  0.675316  0.250550  1
  Hf  Hf11  1  0.674366  0.325697  0.749856  1
  Hf  Hf12  1  0.153469  0.998119  0.372351  1
  Hf  Hf13  1  0.849526  0.004895  0.874553  1
  Hf  Hf14  1  0.504190  0.651164  0.624020  1
  Hf  Hf15  1  0.350047  0.495504  0.875844  1
  Hf  Hf16  1  0.493362  0.345927  0.127858  1
  Hf  Hf17  1  0.649806  0.503649  0.375880  1
  Hf  Hf18  1  0.995934  0.151255  0.625650  1
  Hf  Hf19  1  0.001372  0.846654  0.125146  1
  Si  Si20  1  0.636110  0.704150  0.815146  1
  Si  Si21  1  0.202956  0.864881  0.564139  1
  Si  Si22  1  0.135646  0.795378  0.934040  1
  Si  Si23  1  0.795655  0.137041  0.066762  1
  Si  Si24  1  0.864639  0.203752  0.433938  1
  Si  Si25  1  0.296731  0.363702  0.684064  1
  Si  Si26  1  0.702952  0.633988  0.185653  1
  Si  Si27  1  0.290574  0.039943  0.180856  1
  Si  Si28  1  0.707229  0.950994  0.685150  1
  Si  Si29  1  0.451213  0.793401  0.435708  1
  Si  Si30  1  0.207289  0.547895  0.064630  1
  Si  Si31  1  0.549598  0.206906  0.936611  1
  Si  Si32  1  0.793125  0.451418  0.564400  1
  Si  Si33  1  0.049883  0.293182  0.814110  1
  Si  Si34  1  0.950194  0.708563  0.315065  1
  P  P35  1  0.366212  0.303928  0.318157  1
