# generated using pymatgen
data_TbEr7Ga12CoPd3
_symmetry_space_group_name_H-M   'P 1'
_cell_length_a   6.96244600
_cell_length_b   8.84253257
_cell_length_c   8.84253300
_cell_angle_alpha   119.99999788
_cell_angle_beta   90.00000000
_cell_angle_gamma   90.00000000
_symmetry_Int_Tables_number   1
_chemical_formula_structural   TbEr7Ga12CoPd3
_chemical_formula_sum   'Tb1 Er7 Ga12 Co1 Pd3'
_cell_volume   471.46107059
_cell_formula_units_Z   1
loop_
 _symmetry_equiv_pos_site_id
 _symmetry_equiv_pos_as_xyz
  1  'x, y, z'
loop_
 _atom_site_type_symbol
 _atom_site_label
 _atom_site_symmetry_multiplicity
 _atom_site_fract_x
 _atom_site_fract_y
 _atom_site_fract_z
 _atom_site_occupancy
  Tb  Tb0  1  0.743238  0.000000  0.000000  1
  Er  Er1  1  0.247480  0.000000  0.000000  1
  Er  Er2  1  0.751070  0.481148  0.518852  1
  Er  Er3  1  0.255409  0.523981  0.476019  1
  Er  Er4  1  0.751070  0.037704  0.518852  1
  Er  Er5  1  0.255409  0.952037  0.476019  1
  Er  Er6  1  0.751070  0.481148  0.962296  1
  Er  Er7  1  0.255409  0.523981  0.047963  1
  Ga  Ga8  1  0.956250  0.833123  0.166877  1
  Ga  Ga9  1  0.047706  0.167776  0.832224  1
  Ga  Ga10  1  0.956250  0.333756  0.166877  1
  Ga  Ga11  1  0.454252  0.166814  0.833186  1
  Ga  Ga12  1  0.047706  0.664447  0.832224  1
  Ga  Ga13  1  0.545543  0.825905  0.174095  1
  Ga  Ga14  1  0.956250  0.833123  0.666244  1
  Ga  Ga15  1  0.454252  0.666370  0.833186  1
  Ga  Ga16  1  0.047706  0.167776  0.335553  1
  Ga  Ga17  1  0.545543  0.348192  0.174095  1
  Ga  Ga18  1  0.454252  0.166814  0.333630  1
  Ga  Ga19  1  0.545543  0.825905  0.651808  1
  Co  Co20  1  0.515953  0.666667  0.333333  1
  Pd  Pd21  1  0.961097  0.666667  0.333333  1
  Pd  Pd22  1  0.032344  0.333333  0.666667  1
  Pd  Pd23  1  0.469199  0.333333  0.666667  1
