# generated using pymatgen
data_HoIn2AuO7
_symmetry_space_group_name_H-M   'P 1'
_cell_length_a   6.37539748
_cell_length_b   6.37539707
_cell_length_c   7.33892800
_cell_angle_alpha   90.00000000
_cell_angle_beta   90.00000000
_cell_angle_gamma   109.53621089
_symmetry_Int_Tables_number   1
_chemical_formula_structural   HoIn2AuO7
_chemical_formula_sum   'Ho2 In4 Au2 O14'
_cell_volume   281.12300704
_cell_formula_units_Z   2
loop_
 _symmetry_equiv_pos_site_id
 _symmetry_equiv_pos_as_xyz
  1  'x, y, z'
loop_
 _atom_site_type_symbol
 _atom_site_label
 _atom_site_symmetry_multiplicity
 _atom_site_fract_x
 _atom_site_fract_y
 _atom_site_fract_z
 _atom_site_occupancy
  Ho  Ho0  1  0.502407  0.502407  0.500000  1
  Ho  Ho1  1  0.497593  0.497593  0.000000  1
  In  In2  1  0.002686  0.476143  0.748711  1
  In  In3  1  0.997314  0.523857  0.248711  1
  In  In4  1  0.523857  0.997314  0.751289  1
  In  In5  1  0.476143  0.002686  0.251289  1
  Au  Au6  1  0.999864  0.999864  0.500000  1
  Au  Au7  1  0.000136  0.000136  0.000000  1
  O  O8  1  0.643224  0.356776  0.750000  1
  O  O9  1  0.356776  0.643224  0.250000  1
  O  O10  1  0.920590  0.079410  0.750000  1
  O  O11  1  0.079410  0.920590  0.250000  1
  O  O12  1  0.913540  0.662821  0.522546  1
  O  O13  1  0.086460  0.337179  0.022546  1
  O  O14  1  0.337179  0.086460  0.977454  1
  O  O15  1  0.662821  0.913540  0.477454  1
  O  O16  1  0.363600  0.636400  0.750000  1
  O  O17  1  0.636400  0.363600  0.250000  1
  O  O18  1  0.914995  0.663857  0.975796  1
  O  O19  1  0.085005  0.336143  0.475796  1
  O  O20  1  0.336143  0.085005  0.524204  1
  O  O21  1  0.663857  0.914995  0.024204  1
