# generated using pymatgen
data_Ce3Ga5
_symmetry_space_group_name_H-M   'P 1'
_cell_length_a   6.20463854
_cell_length_b   6.20686668
_cell_length_c   9.55639000
_cell_angle_alpha   90.00000000
_cell_angle_beta   90.00000000
_cell_angle_gamma   101.88106729
_symmetry_Int_Tables_number   1
_chemical_formula_structural   Ce3Ga5
_chemical_formula_sum   'Ce6 Ga10'
_cell_volume   360.14534307
_cell_formula_units_Z   2
loop_
 _symmetry_equiv_pos_site_id
 _symmetry_equiv_pos_as_xyz
  1  'x, y, z'
loop_
 _atom_site_type_symbol
 _atom_site_label
 _atom_site_symmetry_multiplicity
 _atom_site_fract_x
 _atom_site_fract_y
 _atom_site_fract_z
 _atom_site_occupancy
  Ce  Ce0  1  0.366790  0.366331  0.750000  1
  Ce  Ce1  1  0.791224  0.208808  0.000097  1
  Ce  Ce2  1  0.633210  0.633669  0.250000  1
  Ce  Ce3  1  0.208776  0.791192  0.500097  1
  Ce  Ce4  1  0.791224  0.208808  0.499903  1
  Ce  Ce5  1  0.208776  0.791192  0.999903  1
  Ga  Ga6  1  0.978903  0.978827  0.750000  1
  Ga  Ga7  1  0.704973  0.705120  0.940751  1
  Ga  Ga8  1  0.516671  0.925214  0.750000  1
  Ga  Ga9  1  0.295027  0.294880  0.440751  1
  Ga  Ga10  1  0.074582  0.483023  0.250000  1
  Ga  Ga11  1  0.021097  0.021173  0.250000  1
  Ga  Ga12  1  0.295027  0.294880  0.059249  1
  Ga  Ga13  1  0.483329  0.074786  0.250000  1
  Ga  Ga14  1  0.704973  0.705120  0.559249  1
  Ga  Ga15  1  0.925418  0.516977  0.750000  1
