# generated using pymatgen
data_Sc4Tc2NiOs5
_symmetry_space_group_name_H-M   'P 1'
_cell_length_a   5.17550922
_cell_length_b   5.06757883
_cell_length_c   8.66483600
_cell_angle_alpha   90.00000000
_cell_angle_beta   90.00000000
_cell_angle_gamma   119.31253095
_symmetry_Int_Tables_number   1
_chemical_formula_structural   Sc4Tc2NiOs5
_chemical_formula_sum   'Sc4 Tc2 Ni1 Os5'
_cell_volume   198.15800217
_cell_formula_units_Z   1
loop_
 _symmetry_equiv_pos_site_id
 _symmetry_equiv_pos_as_xyz
  1  'x, y, z'
loop_
 _atom_site_type_symbol
 _atom_site_label
 _atom_site_symmetry_multiplicity
 _atom_site_fract_x
 _atom_site_fract_y
 _atom_site_fract_z
 _atom_site_occupancy
  Sc  Sc0  1  0.331049  0.665525  0.433691  1
  Sc  Sc1  1  0.666815  0.333408  0.561105  1
  Sc  Sc2  1  0.666815  0.333408  0.938895  1
  Sc  Sc3  1  0.331049  0.665525  0.066309  1
  Tc  Tc4  1  0.170232  0.343417  0.750000  1
  Tc  Tc5  1  0.170232  0.826813  0.750000  1
  Ni  Ni6  1  0.340151  0.170076  0.250000  1
  Os  Os7  1  0.833359  0.657959  0.250000  1
  Os  Os8  1  0.659818  0.829908  0.750000  1
  Os  Os9  1  0.998561  0.999280  0.004102  1
  Os  Os10  1  0.833359  0.175400  0.250000  1
  Os  Os11  1  0.998561  0.999280  0.495898  1
