# generated using pymatgen
data_PrTh(P3Ru)8
_symmetry_space_group_name_H-M   'P 1'
_cell_length_a   8.10536100
_cell_length_b   8.10536100
_cell_length_c   8.10536100
_cell_angle_alpha   90.00000000
_cell_angle_beta   90.00000000
_cell_angle_gamma   90.00000000
_symmetry_Int_Tables_number   1
_chemical_formula_structural   PrTh(P3Ru)8
_chemical_formula_sum   'Pr1 Th1 P24 Ru8'
_cell_volume   532.49690417
_cell_formula_units_Z   1
loop_
 _symmetry_equiv_pos_site_id
 _symmetry_equiv_pos_as_xyz
  1  'x, y, z'
loop_
 _atom_site_type_symbol
 _atom_site_label
 _atom_site_symmetry_multiplicity
 _atom_site_fract_x
 _atom_site_fract_y
 _atom_site_fract_z
 _atom_site_occupancy
  Pr  Pr0  1  0.500000  0.500000  0.500000  1
  Th  Th1  1  0.000000  0.000000  0.000000  1
  P  P2  1  0.356600  0.144237  0.000000  1
  P  P3  1  0.643400  0.144237  0.000000  1
  P  P4  1  0.356600  0.855762  0.000000  1
  P  P5  1  0.643400  0.855762  0.000000  1
  P  P6  1  0.356592  0.500000  0.142686  1
  P  P7  1  0.643408  0.500000  0.142686  1
  P  P8  1  0.000000  0.356600  0.144237  1
  P  P9  1  0.000000  0.643400  0.144237  1
  P  P10  1  0.500000  0.142686  0.356592  1
  P  P11  1  0.500000  0.857314  0.356592  1
  P  P12  1  0.144237  0.000000  0.356600  1
  P  P13  1  0.855762  0.000000  0.356600  1
  P  P14  1  0.142686  0.356592  0.500000  1
  P  P15  1  0.857314  0.356592  0.500000  1
  P  P16  1  0.142686  0.643408  0.500000  1
  P  P17  1  0.857314  0.643408  0.500000  1
  P  P18  1  0.144237  0.000000  0.643400  1
  P  P19  1  0.855762  0.000000  0.643400  1
  P  P20  1  0.500000  0.142686  0.643408  1
  P  P21  1  0.500000  0.857314  0.643408  1
  P  P22  1  0.000000  0.356600  0.855762  1
  P  P23  1  0.000000  0.643400  0.855762  1
  P  P24  1  0.356592  0.500000  0.857314  1
  P  P25  1  0.643408  0.500000  0.857314  1
  Ru  Ru26  1  0.249241  0.249241  0.249241  1
  Ru  Ru27  1  0.750759  0.249241  0.249241  1
  Ru  Ru28  1  0.249241  0.750759  0.249241  1
  Ru  Ru29  1  0.750759  0.750759  0.249241  1
  Ru  Ru30  1  0.249241  0.249241  0.750759  1
  Ru  Ru31  1  0.750759  0.249241  0.750759  1
  Ru  Ru32  1  0.249241  0.750759  0.750759  1
  Ru  Ru33  1  0.750759  0.750759  0.750759  1
