# generated using pymatgen
data_Ho20Ir3Ru2Rh7
_symmetry_space_group_name_H-M   'P 1'
_cell_length_a   10.80806911
_cell_length_b   10.80692701
_cell_length_c   6.38730507
_cell_angle_alpha   90.00437329
_cell_angle_beta   90.01616130
_cell_angle_gamma   89.99686121
_symmetry_Int_Tables_number   1
_chemical_formula_structural   Ho20Ir3Ru2Rh7
_chemical_formula_sum   'Ho20 Ir3 Ru2 Rh7'
_cell_volume   746.05006321
_cell_formula_units_Z   1
loop_
 _symmetry_equiv_pos_site_id
 _symmetry_equiv_pos_as_xyz
  1  'x, y, z'
loop_
 _atom_site_type_symbol
 _atom_site_label
 _atom_site_symmetry_multiplicity
 _atom_site_fract_x
 _atom_site_fract_y
 _atom_site_fract_z
 _atom_site_occupancy
  Ho  Ho0  1  0.294578  0.087165  0.377705  1
  Ho  Ho1  1  0.294719  0.912876  0.877716  1
  Ho  Ho2  1  0.705436  0.086098  0.877933  1
  Ho  Ho3  1  0.705440  0.912822  0.377554  1
  Ho  Ho4  1  0.585774  0.793588  0.878586  1
  Ho  Ho5  1  0.585377  0.205849  0.377789  1
  Ho  Ho6  1  0.414347  0.793636  0.378358  1
  Ho  Ho7  1  0.413377  0.205982  0.878788  1
  Ho  Ho8  1  0.210208  0.412222  0.621191  1
  Ho  Ho9  1  0.210132  0.587745  0.121358  1
  Ho  Ho10  1  0.790345  0.412527  0.121857  1
  Ho  Ho11  1  0.790249  0.588762  0.620864  1
  Ho  Ho12  1  0.910529  0.709299  0.122072  1
  Ho  Ho13  1  0.911665  0.290687  0.621743  1
  Ho  Ho14  1  0.089398  0.709120  0.621960  1
  Ho  Ho15  1  0.089424  0.290728  0.122204  1
  Ho  Ho16  1  0.999979  0.999936  0.498578  1
  Ho  Ho17  1  0.000051  0.999998  0.998480  1
  Ho  Ho18  1  0.499741  0.500237  0.998379  1
  Ho  Ho19  1  0.499721  0.500169  0.498315  1
  Ir  Ir20  1  0.654574  0.651973  0.250235  1
  Ir  Ir21  1  0.345875  0.347548  0.249914  1
  Ir  Ir22  1  0.345458  0.652418  0.749987  1
  Ru  Ru23  1  0.500184  0.000459  0.124237  1
  Ru  Ru24  1  0.500170  0.000425  0.624457  1
  Rh  Rh25  1  0.848090  0.153997  0.250222  1
  Rh  Rh26  1  0.848436  0.846387  0.750105  1
  Rh  Rh27  1  0.151522  0.153603  0.750257  1
  Rh  Rh28  1  0.151570  0.846421  0.250187  1
  Rh  Rh29  1  0.654428  0.347661  0.750082  1
  Rh  Rh30  1  0.999558  0.499809  0.879288  1
  Rh  Rh31  1  0.999645  0.499854  0.379599  1
