# generated using pymatgen
data_Tb6Y2Ti9Si16W3
_symmetry_space_group_name_H-M   'P 1'
_cell_length_a   7.01338629
_cell_length_b   7.01301106
_cell_length_c   12.90944025
_cell_angle_alpha   90.02566446
_cell_angle_beta   89.99540521
_cell_angle_gamma   89.93974615
_symmetry_Int_Tables_number   1
_chemical_formula_structural   Tb6Y2Ti9Si16W3
_chemical_formula_sum   'Tb6 Y2 Ti9 Si16 W3'
_cell_volume   634.94982917
_cell_formula_units_Z   1
loop_
 _symmetry_equiv_pos_site_id
 _symmetry_equiv_pos_as_xyz
  1  'x, y, z'
loop_
 _atom_site_type_symbol
 _atom_site_label
 _atom_site_symmetry_multiplicity
 _atom_site_fract_x
 _atom_site_fract_y
 _atom_site_fract_z
 _atom_site_occupancy
  Tb  Tb0  1  0.500713  0.159457  0.216800  1
  Tb  Tb1  1  0.840903  0.498249  0.281818  1
  Tb  Tb2  1  0.159394  0.500759  0.783178  1
  Tb  Tb3  1  0.660137  0.999089  0.967105  1
  Tb  Tb4  1  0.002164  0.339784  0.533286  1
  Tb  Tb5  1  0.999144  0.660090  0.032866  1
  Y  Y6  1  0.339876  0.001998  0.466771  1
  Y  Y7  1  0.498401  0.841070  0.718104  1
  Ti  Ti8  1  0.672918  0.672815  0.500023  1
  Ti  Ti9  1  0.153499  0.009320  0.876508  1
  Ti  Ti10  1  0.490323  0.653822  0.125715  1
  Ti  Ti11  1  0.508390  0.345407  0.627803  1
  Ti  Ti12  1  0.653762  0.490263  0.874226  1
  Ti  Ti13  1  0.345265  0.508586  0.372294  1
  Ti  Ti14  1  0.847723  0.991468  0.375306  1
  Ti  Ti15  1  0.009494  0.153537  0.123462  1
  Ti  Ti16  1  0.991344  0.847599  0.624809  1
  Si  Si17  1  0.200603  0.128986  0.685076  1
  Si  Si18  1  0.370581  0.699756  0.935084  1
  Si  Si19  1  0.629286  0.298152  0.435181  1
  Si  Si20  1  0.699680  0.370649  0.064894  1
  Si  Si21  1  0.298378  0.629671  0.564976  1
  Si  Si22  1  0.800005  0.870966  0.185386  1
  Si  Si23  1  0.129155  0.200307  0.314912  1
  Si  Si24  1  0.870771  0.800058  0.814524  1
  Si  Si25  1  0.291497  0.953715  0.065151  1
  Si  Si26  1  0.545478  0.790839  0.314970  1
  Si  Si27  1  0.453256  0.208614  0.815549  1
  Si  Si28  1  0.790716  0.545735  0.685006  1
  Si  Si29  1  0.208924  0.453281  0.184345  1
  Si  Si30  1  0.708224  0.047848  0.566216  1
  Si  Si31  1  0.953741  0.291454  0.934865  1
  Si  Si32  1  0.048085  0.708514  0.433824  1
  W  W33  1  0.326985  0.326983  0.999981  1
  W  W34  1  0.173995  0.827179  0.249275  1
  W  W35  1  0.827188  0.173978  0.750711  1
