# generated using pymatgen
data_TiSiCl8
_symmetry_space_group_name_H-M   'P 1'
_cell_length_a   7.21388100
_cell_length_b   10.87693440
_cell_length_c   10.93054966
_cell_angle_alpha   78.14653708
_cell_angle_beta   90.00000000
_cell_angle_gamma   90.00000000
_symmetry_Int_Tables_number   1
_chemical_formula_structural   TiSiCl8
_chemical_formula_sum   'Ti2 Si2 Cl16'
_cell_volume   839.37588581
_cell_formula_units_Z   2
loop_
 _symmetry_equiv_pos_site_id
 _symmetry_equiv_pos_as_xyz
  1  'x, y, z'
loop_
 _atom_site_type_symbol
 _atom_site_label
 _atom_site_symmetry_multiplicity
 _atom_site_fract_x
 _atom_site_fract_y
 _atom_site_fract_z
 _atom_site_occupancy
  Ti  Ti0  1  0.424619  0.749515  0.636105  1
  Ti  Ti1  1  0.924619  0.250485  0.863895  1
  Si  Si2  1  0.574421  0.250969  0.364220  1
  Si  Si3  1  0.074421  0.749031  0.135780  1
  Cl  Cl4  1  0.577676  0.402857  0.220449  1
  Cl  Cl5  1  0.077676  0.597143  0.279551  1
  Cl  Cl6  1  0.425669  0.586183  0.790280  1
  Cl  Cl7  1  0.925669  0.413817  0.709720  1
  Cl  Cl8  1  0.639446  0.195419  0.916028  1
  Cl  Cl9  1  0.139446  0.804581  0.583972  1
  Cl  Cl10  1  0.340323  0.799907  0.088077  1
  Cl  Cl11  1  0.840323  0.200093  0.411923  1
  Cl  Cl12  1  0.071963  0.096776  0.805328  1
  Cl  Cl13  1  0.571963  0.903224  0.694672  1
  Cl  Cl14  1  0.940009  0.894982  0.187413  1
  Cl  Cl15  1  0.440009  0.105018  0.312587  1
  Cl  Cl16  1  0.064675  0.298322  0.024869  1
  Cl  Cl17  1  0.564675  0.701678  0.475131  1
  Cl  Cl18  1  0.941199  0.705901  0.985931  1
  Cl  Cl19  1  0.441199  0.294099  0.514069  1
