# generated using pymatgen
data_Dy4AlCo4
_symmetry_space_group_name_H-M   'P 1'
_cell_length_a   5.46352781
_cell_length_b   5.46352875
_cell_length_c   8.90723343
_cell_angle_alpha   70.89833153
_cell_angle_beta   70.89832918
_cell_angle_gamma   43.11116706
_symmetry_Int_Tables_number   1
_chemical_formula_structural   Dy4AlCo4
_chemical_formula_sum   'Dy4 Al1 Co4'
_cell_volume   170.08883840
_cell_formula_units_Z   1
loop_
 _symmetry_equiv_pos_site_id
 _symmetry_equiv_pos_as_xyz
  1  'x, y, z'
loop_
 _atom_site_type_symbol
 _atom_site_label
 _atom_site_symmetry_multiplicity
 _atom_site_fract_x
 _atom_site_fract_y
 _atom_site_fract_z
 _atom_site_occupancy
  Dy  Dy0  1  0.745552  0.745552  0.662163  1
  Dy  Dy1  1  0.254448  0.254448  0.337837  1
  Dy  Dy2  1  0.391090  0.391090  0.885763  1
  Dy  Dy3  1  0.608910  0.608910  0.114237  1
  Al  Al4  1  0.500000  0.500000  0.500000  1
  Co  Co5  1  0.036445  0.036445  0.644977  1
  Co  Co6  1  0.963555  0.963555  0.355023  1
  Co  Co7  1  0.092721  0.092721  0.879873  1
  Co  Co8  1  0.907279  0.907279  0.120127  1
