# generated using pymatgen
data_Ac5CoSb2
_symmetry_space_group_name_H-M   'P 1'
_cell_length_a   8.81653600
_cell_length_b   9.48642600
_cell_length_c   13.32715800
_cell_angle_alpha   90.00000000
_cell_angle_beta   90.00000000
_cell_angle_gamma   90.00000000
_symmetry_Int_Tables_number   1
_chemical_formula_structural   Ac5CoSb2
_chemical_formula_sum   'Ac20 Co4 Sb8'
_cell_volume   1114.64906228
_cell_formula_units_Z   4
loop_
 _symmetry_equiv_pos_site_id
 _symmetry_equiv_pos_as_xyz
  1  'x, y, z'
loop_
 _atom_site_type_symbol
 _atom_site_label
 _atom_site_symmetry_multiplicity
 _atom_site_fract_x
 _atom_site_fract_y
 _atom_site_fract_z
 _atom_site_occupancy
  Ac  Ac0  1  0.152210  0.750000  0.203049  1
  Ac  Ac1  1  0.652210  0.250000  0.296951  1
  Ac  Ac2  1  0.847790  0.250000  0.796951  1
  Ac  Ac3  1  0.347790  0.750000  0.703049  1
  Ac  Ac4  1  0.450206  0.750000  0.994566  1
  Ac  Ac5  1  0.950206  0.250000  0.505434  1
  Ac  Ac6  1  0.549794  0.250000  0.005434  1
  Ac  Ac7  1  0.049794  0.750000  0.494566  1
  Ac  Ac8  1  0.624646  0.750000  0.306535  1
  Ac  Ac9  1  0.124646  0.250000  0.193465  1
  Ac  Ac10  1  0.375354  0.250000  0.693465  1
  Ac  Ac11  1  0.875354  0.750000  0.806535  1
  Ac  Ac12  1  0.821639  0.964555  0.066612  1
  Ac  Ac13  1  0.321639  0.035445  0.433388  1
  Ac  Ac14  1  0.178361  0.464555  0.933388  1
  Ac  Ac15  1  0.678361  0.535445  0.566612  1
  Ac  Ac16  1  0.178361  0.035445  0.933388  1
  Ac  Ac17  1  0.678361  0.964555  0.566612  1
  Ac  Ac18  1  0.821639  0.535445  0.066612  1
  Ac  Ac19  1  0.321639  0.464555  0.433388  1
  Co  Co20  1  0.429489  0.750000  0.491251  1
  Co  Co21  1  0.929489  0.250000  0.008749  1
  Co  Co22  1  0.570511  0.250000  0.508749  1
  Co  Co23  1  0.070511  0.750000  0.991251  1
  Sb  Sb24  1  0.927579  0.996253  0.327523  1
  Sb  Sb25  1  0.427579  0.003747  0.172477  1
  Sb  Sb26  1  0.072421  0.496253  0.672477  1
  Sb  Sb27  1  0.572421  0.503747  0.827523  1
  Sb  Sb28  1  0.072421  0.003747  0.672477  1
  Sb  Sb29  1  0.572421  0.996253  0.827523  1
  Sb  Sb30  1  0.927579  0.503747  0.327523  1
  Sb  Sb31  1  0.427579  0.496253  0.172477  1
