# generated using pymatgen
data_Hf3Nb3Al16Co7
_symmetry_space_group_name_H-M   'P 1'
_cell_length_a   8.39331167
_cell_length_b   8.41868619
_cell_length_c   8.43827636
_cell_angle_alpha   59.72381140
_cell_angle_beta   60.02232515
_cell_angle_gamma   60.25377161
_symmetry_Int_Tables_number   1
_chemical_formula_structural   Hf3Nb3Al16Co7
_chemical_formula_sum   'Hf3 Nb3 Al16 Co7'
_cell_volume   421.59694196
_cell_formula_units_Z   1
loop_
 _symmetry_equiv_pos_site_id
 _symmetry_equiv_pos_as_xyz
  1  'x, y, z'
loop_
 _atom_site_type_symbol
 _atom_site_label
 _atom_site_symmetry_multiplicity
 _atom_site_fract_x
 _atom_site_fract_y
 _atom_site_fract_z
 _atom_site_occupancy
  Hf  Hf0  1  0.689994  0.310006  0.689999  1
  Hf  Hf1  1  0.312764  0.313847  0.686144  1
  Hf  Hf2  1  0.686144  0.687246  0.312766  1
  Nb  Nb3  1  0.689122  0.310867  0.310204  1
  Nb  Nb4  1  0.310217  0.689795  0.689132  1
  Nb  Nb5  1  0.315226  0.684770  0.315215  1
  Al  Al6  1  0.337761  0.338301  0.333880  1
  Al  Al7  1  0.660485  0.665579  0.664933  1
  Al  Al8  1  0.334448  0.339503  0.990984  1
  Al  Al9  1  0.333876  0.990044  0.337762  1
  Al  Al10  1  0.661671  0.662255  0.009958  1
  Al  Al11  1  0.664935  0.009013  0.660481  1
  Al  Al12  1  0.990975  0.335057  0.334449  1
  Al  Al13  1  0.009968  0.666128  0.661669  1
  Al  Al14  1  0.117460  0.116778  0.120500  1
  Al  Al15  1  0.884253  0.879190  0.880145  1
  Al  Al16  1  0.120824  0.115742  0.643579  1
  Al  Al17  1  0.120505  0.645265  0.117454  1
  Al  Al18  1  0.883220  0.882547  0.354741  1
  Al  Al19  1  0.880138  0.356413  0.884259  1
  Al  Al20  1  0.643580  0.119857  0.120823  1
  Al  Al21  1  0.354740  0.879494  0.883225  1
  Co  Co22  1  0.500042  0.999620  0.000380  1
  Co  Co23  1  0.000379  0.499957  0.500042  1
  Co  Co24  1  0.998677  0.501323  0.998679  1
  Co  Co25  1  0.498678  0.001321  0.498677  1
  Co  Co26  1  0.000724  0.999278  0.499513  1
  Co  Co27  1  0.499513  0.500487  0.000725  1
  Co  Co28  1  0.999683  0.000318  0.999684  1
