# generated using pymatgen
data_NdEr4Ge5P7Ir19
_symmetry_space_group_name_H-M   'P 1'
_cell_length_a   12.92940782
_cell_length_b   12.91026274
_cell_length_c   3.99230500
_cell_angle_alpha   90.00000000
_cell_angle_beta   90.00000000
_cell_angle_gamma   120.27965230
_symmetry_Int_Tables_number   1
_chemical_formula_structural   NdEr4Ge5P7Ir19
_chemical_formula_sum   'Nd1 Er4 Ge5 P7 Ir19'
_cell_volume   575.48939333
_cell_formula_units_Z   1
loop_
 _symmetry_equiv_pos_site_id
 _symmetry_equiv_pos_as_xyz
  1  'x, y, z'
loop_
 _atom_site_type_symbol
 _atom_site_label
 _atom_site_symmetry_multiplicity
 _atom_site_fract_x
 _atom_site_fract_y
 _atom_site_fract_z
 _atom_site_occupancy
  Nd  Nd0  1  0.664987  0.329510  0.000000  1
  Er  Er1  1  0.333811  0.669166  0.000000  1
  Er  Er2  1  0.821019  0.817366  0.500000  1
  Er  Er3  1  0.179292  0.003386  0.500000  1
  Er  Er4  1  0.999251  0.179079  0.500000  1
  Ge  Ge5  1  0.675615  0.152596  0.500000  1
  Ge  Ge6  1  0.840497  0.517769  0.500000  1
  Ge  Ge7  1  0.639871  0.641856  0.000000  1
  Ge  Ge8  1  0.356250  0.998950  0.000000  1
  Ge  Ge9  1  0.001629  0.359442  0.000000  1
  P  P10  1  0.478363  0.318473  0.500000  1
  P  P11  1  0.178361  0.695450  0.500000  1
  P  P12  1  0.516833  0.823080  0.500000  1
  P  P13  1  0.304309  0.487322  0.500000  1
  P  P14  1  0.176729  0.184028  0.000000  1
  P  P15  1  0.821901  0.992462  0.000000  1
  P  P16  1  0.004175  0.824700  0.000000  1
  Ir  Ir17  1  0.811773  0.167519  0.000000  1
  Ir  Ir18  1  0.827301  0.637659  0.000000  1
  Ir  Ir19  1  0.365103  0.197334  0.000000  1
  Ir  Ir20  1  0.178281  0.792720  0.000000  1
  Ir  Ir21  1  0.612307  0.820439  0.000000  1
  Ir  Ir22  1  0.207536  0.386097  0.000000  1
  Ir  Ir23  1  0.455626  0.445773  0.000000  1
  Ir  Ir24  1  0.552669  0.014563  0.000000  1
  Ir  Ir25  1  0.988291  0.543589  0.000000  1
  Ir  Ir26  1  0.281876  0.287745  0.500000  1
  Ir  Ir27  1  0.725562  0.988566  0.500000  1
  Ir  Ir28  1  0.009224  0.730330  0.500000  1
  Ir  Ir29  1  0.870544  0.346293  0.500000  1
  Ir  Ir30  1  0.642199  0.509498  0.500000  1
  Ir  Ir31  1  0.475630  0.133902  0.500000  1
  Ir  Ir32  1  0.369238  0.869861  0.500000  1
  Ir  Ir33  1  0.499854  0.631208  0.500000  1
  Ir  Ir34  1  0.130285  0.500230  0.500000  1
  Ir  Ir35  1  0.003806  0.002038  0.000000  1
