# generated using pymatgen
data_Li3Tb4LuPt4
_symmetry_space_group_name_H-M   'P 1'
_cell_length_a   4.06344400
_cell_length_b   7.19778991
_cell_length_c   8.75312002
_cell_angle_alpha   88.62641236
_cell_angle_beta   90.00000000
_cell_angle_gamma   90.00000000
_symmetry_Int_Tables_number   1
_chemical_formula_structural   Li3Tb4LuPt4
_chemical_formula_sum   'Li3 Tb4 Lu1 Pt4'
_cell_volume   255.93608015
_cell_formula_units_Z   1
loop_
 _symmetry_equiv_pos_site_id
 _symmetry_equiv_pos_as_xyz
  1  'x, y, z'
loop_
 _atom_site_type_symbol
 _atom_site_label
 _atom_site_symmetry_multiplicity
 _atom_site_fract_x
 _atom_site_fract_y
 _atom_site_fract_z
 _atom_site_occupancy
  Li  Li0  1  0.750000  0.627613  0.445055  1
  Li  Li1  1  0.250000  0.376489  0.551656  1
  Li  Li2  1  0.750000  0.146012  0.071049  1
  Tb  Tb3  1  0.750000  0.521218  0.808210  1
  Tb  Tb4  1  0.250000  0.960169  0.328378  1
  Tb  Tb5  1  0.250000  0.445779  0.181624  1
  Tb  Tb6  1  0.750000  0.056053  0.662385  1
  Lu  Lu7  1  0.250000  0.871085  0.943784  1
  Pt  Pt8  1  0.250000  0.760003  0.632189  1
  Pt  Pt9  1  0.250000  0.247188  0.874005  1
  Pt  Pt10  1  0.750000  0.737038  0.126924  1
  Pt  Pt11  1  0.750000  0.251353  0.374740  1
