# generated using pymatgen
data_Yb3UO6
_symmetry_space_group_name_H-M   'P 1'
_cell_length_a   6.69903145
_cell_length_b   6.69903250
_cell_length_c   6.69903140
_cell_angle_alpha   91.33934545
_cell_angle_beta   91.33934950
_cell_angle_gamma   91.33934427
_symmetry_Int_Tables_number   1
_chemical_formula_structural   Yb3UO6
_chemical_formula_sum   'Yb6 U2 O12'
_cell_volume   300.38231520
_cell_formula_units_Z   2
loop_
 _symmetry_equiv_pos_site_id
 _symmetry_equiv_pos_as_xyz
  1  'x, y, z'
loop_
 _atom_site_type_symbol
 _atom_site_label
 _atom_site_symmetry_multiplicity
 _atom_site_fract_x
 _atom_site_fract_y
 _atom_site_fract_z
 _atom_site_occupancy
  Yb  Yb0  1  0.938878  0.442785  0.749338  1
  Yb  Yb1  1  0.749338  0.938878  0.442785  1
  Yb  Yb2  1  0.557215  0.250662  0.061122  1
  Yb  Yb3  1  0.250662  0.061122  0.557215  1
  Yb  Yb4  1  0.061122  0.557215  0.250662  1
  Yb  Yb5  1  0.442785  0.749338  0.938878  1
  U  U6  1  0.000000  0.000000  0.000000  1
  U  U7  1  0.500000  0.500000  0.500000  1
  O  O8  1  0.296323  0.063805  0.922551  1
  O  O9  1  0.063805  0.922551  0.296323  1
  O  O10  1  0.922551  0.296323  0.063805  1
  O  O11  1  0.703677  0.936195  0.077449  1
  O  O12  1  0.936195  0.077449  0.703677  1
  O  O13  1  0.077449  0.703677  0.936195  1
  O  O14  1  0.202769  0.410601  0.539589  1
  O  O15  1  0.410601  0.539589  0.202769  1
  O  O16  1  0.460411  0.797231  0.589399  1
  O  O17  1  0.589399  0.460411  0.797231  1
  O  O18  1  0.797231  0.589399  0.460411  1
  O  O19  1  0.539589  0.202769  0.410601  1
