# generated using pymatgen
data_EuNpB6Ru
_symmetry_space_group_name_H-M   'P 1'
_cell_length_a   3.62522000
_cell_length_b   9.35033700
_cell_length_c   11.44005600
_cell_angle_alpha   90.00000000
_cell_angle_beta   90.00000000
_cell_angle_gamma   90.00000000
_symmetry_Int_Tables_number   1
_chemical_formula_structural   EuNpB6Ru
_chemical_formula_sum   'Eu4 Np4 B24 Ru4'
_cell_volume   387.78390655
_cell_formula_units_Z   4
loop_
 _symmetry_equiv_pos_site_id
 _symmetry_equiv_pos_as_xyz
  1  'x, y, z'
loop_
 _atom_site_type_symbol
 _atom_site_label
 _atom_site_symmetry_multiplicity
 _atom_site_fract_x
 _atom_site_fract_y
 _atom_site_fract_z
 _atom_site_occupancy
  Eu  Eu0  1  0.000000  0.339241  0.406891  1
  Eu  Eu1  1  0.000000  0.660759  0.593109  1
  Eu  Eu2  1  0.000000  0.839241  0.093109  1
  Eu  Eu3  1  0.000000  0.160759  0.906891  1
  Np  Np4  1  0.000000  0.959764  0.402114  1
  Np  Np5  1  0.000000  0.040236  0.597886  1
  Np  Np6  1  0.000000  0.459764  0.097886  1
  Np  Np7  1  0.000000  0.540236  0.902114  1
  B  B8  1  0.500000  0.554832  0.429167  1
  B  B9  1  0.500000  0.445168  0.570833  1
  B  B10  1  0.500000  0.054832  0.070833  1
  B  B11  1  0.500000  0.945168  0.929167  1
  B  B12  1  0.500000  0.744727  0.421978  1
  B  B13  1  0.500000  0.255273  0.578022  1
  B  B14  1  0.500000  0.244727  0.078022  1
  B  B15  1  0.500000  0.755273  0.921978  1
  B  B16  1  0.500000  0.804655  0.275223  1
  B  B17  1  0.500000  0.195345  0.724777  1
  B  B18  1  0.500000  0.304655  0.224777  1
  B  B19  1  0.500000  0.695345  0.775223  1
  B  B20  1  0.500000  0.645379  0.188561  1
  B  B21  1  0.500000  0.354621  0.811439  1
  B  B22  1  0.500000  0.145379  0.311439  1
  B  B23  1  0.500000  0.854621  0.688561  1
  B  B24  1  0.500000  0.991867  0.220899  1
  B  B25  1  0.500000  0.008133  0.779101  1
  B  B26  1  0.500000  0.491867  0.279101  1
  B  B27  1  0.500000  0.508133  0.720899  1
  B  B28  1  0.500000  0.640274  0.038853  1
  B  B29  1  0.500000  0.359726  0.961147  1
  B  B30  1  0.500000  0.140274  0.461147  1
  B  B31  1  0.500000  0.859726  0.538853  1
  Ru  Ru32  1  0.000000  0.648177  0.317855  1
  Ru  Ru33  1  0.000000  0.351823  0.682145  1
  Ru  Ru34  1  0.000000  0.148177  0.182145  1
  Ru  Ru35  1  0.000000  0.851823  0.817855  1
