# generated using pymatgen
data_Ho3In3Ir2Au
_symmetry_space_group_name_H-M   'P 1'
_cell_length_a   7.70199700
_cell_length_b   7.70199720
_cell_length_c   3.86484300
_cell_angle_alpha   90.00000000
_cell_angle_beta   90.00000000
_cell_angle_gamma   119.99999601
_symmetry_Int_Tables_number   1
_chemical_formula_structural   Ho3In3Ir2Au
_chemical_formula_sum   'Ho3 In3 Ir2 Au1'
_cell_volume   198.54968707
_cell_formula_units_Z   1
loop_
 _symmetry_equiv_pos_site_id
 _symmetry_equiv_pos_as_xyz
  1  'x, y, z'
loop_
 _atom_site_type_symbol
 _atom_site_label
 _atom_site_symmetry_multiplicity
 _atom_site_fract_x
 _atom_site_fract_y
 _atom_site_fract_z
 _atom_site_occupancy
  Ho  Ho0  1  0.411667  0.388095  0.500000  1
  Ho  Ho1  1  0.611905  0.023572  0.500000  1
  Ho  Ho2  1  0.976428  0.588333  0.500000  1
  In  In3  1  0.740999  0.741152  0.000000  1
  In  In4  1  0.258848  0.999847  0.000000  1
  In  In5  1  0.000153  0.259001  0.000000  1
  Ir  Ir6  1  0.666667  0.333333  0.000000  1
  Ir  Ir7  1  0.000000  0.000000  0.500000  1
  Au  Au8  1  0.333333  0.666667  0.000000  1
