# generated using pymatgen
data_Y7Tm5Os4
_symmetry_space_group_name_H-M   'P 1'
_cell_length_a   7.40884066
_cell_length_b   9.00611804
_cell_length_c   6.31400479
_cell_angle_alpha   89.76723565
_cell_angle_beta   89.91479182
_cell_angle_gamma   89.81593325
_symmetry_Int_Tables_number   1
_chemical_formula_structural   Y7Tm5Os4
_chemical_formula_sum   'Y7 Tm5 Os4'
_cell_volume   421.29518904
_cell_formula_units_Z   1
loop_
 _symmetry_equiv_pos_site_id
 _symmetry_equiv_pos_as_xyz
  1  'x, y, z'
loop_
 _atom_site_type_symbol
 _atom_site_label
 _atom_site_symmetry_multiplicity
 _atom_site_fract_x
 _atom_site_fract_y
 _atom_site_fract_z
 _atom_site_occupancy
  Y  Y0  1  0.039439  0.252944  0.629441  1
  Y  Y1  1  0.959828  0.747672  0.369898  1
  Y  Y2  1  0.460579  0.747619  0.129876  1
  Y  Y3  1  0.539950  0.252375  0.871011  1
  Y  Y4  1  0.175143  0.063548  0.167898  1
  Y  Y5  1  0.824297  0.937061  0.832599  1
  Y  Y6  1  0.325601  0.936908  0.666650  1
  Tm  Tm7  1  0.825500  0.562445  0.833415  1
  Tm  Tm8  1  0.674181  0.064303  0.332520  1
  Tm  Tm9  1  0.174116  0.437743  0.166489  1
  Tm  Tm10  1  0.674862  0.436783  0.333679  1
  Tm  Tm11  1  0.325853  0.562362  0.666208  1
  Os  Os12  1  0.384418  0.253394  0.458041  1
  Os  Os13  1  0.617244  0.746881  0.540194  1
  Os  Os14  1  0.117056  0.744518  0.958889  1
  Os  Os15  1  0.881934  0.253446  0.043191  1
