# generated using pymatgen
data_Mn2AlGa3Br16
_symmetry_space_group_name_H-M   'P 1'
_cell_length_a   10.68101267
_cell_length_b   10.62882479
_cell_length_c   12.64840000
_cell_angle_alpha   55.34852751
_cell_angle_beta   55.45602115
_cell_angle_gamma   48.80264296
_symmetry_Int_Tables_number   1
_chemical_formula_structural   Mn2AlGa3Br16
_chemical_formula_sum   'Mn2 Al1 Ga3 Br16'
_cell_volume   844.72027794
_cell_formula_units_Z   1
loop_
 _symmetry_equiv_pos_site_id
 _symmetry_equiv_pos_as_xyz
  1  'x, y, z'
loop_
 _atom_site_type_symbol
 _atom_site_label
 _atom_site_symmetry_multiplicity
 _atom_site_fract_x
 _atom_site_fract_y
 _atom_site_fract_z
 _atom_site_occupancy
  Mn  Mn0  1  0.994157  0.005790  0.250434  1
  Mn  Mn1  1  0.005769  0.993881  0.749747  1
  Al  Al2  1  0.322171  0.842208  0.471114  1
  Ga  Ga3  1  0.158605  0.676119  0.030296  1
  Ga  Ga4  1  0.676170  0.158847  0.530002  1
  Ga  Ga5  1  0.841176  0.323747  0.970192  1
  Br  Br6  1  0.608856  0.700063  0.448639  1
  Br  Br7  1  0.302781  0.383872  0.052159  1
  Br  Br8  1  0.385806  0.302819  0.551392  1
  Br  Br9  1  0.697169  0.616133  0.947942  1
  Br  Br10  1  0.166314  0.125083  0.488454  1
  Br  Br11  1  0.873934  0.836024  0.008827  1
  Br  Br12  1  0.836757  0.872138  0.509189  1
  Br  Br13  1  0.126115  0.163529  0.991624  1
  Br  Br14  1  0.306011  0.858209  0.284933  1
  Br  Br15  1  0.142243  0.693903  0.219023  1
  Br  Br16  1  0.694517  0.141963  0.718665  1
  Br  Br17  1  0.858714  0.305886  0.780891  1
  Br  Br18  1  0.162795  0.712218  0.675589  1
  Br  Br19  1  0.285395  0.842025  0.820672  1
  Br  Br20  1  0.840505  0.287478  0.320802  1
  Br  Br21  1  0.714041  0.158065  0.179416  1
