# generated using pymatgen
data_Pr8Er11TmSi16
_symmetry_space_group_name_H-M   'P 1'
_cell_length_a   7.48310801
_cell_length_b   7.77642901
_cell_length_c   14.76625200
_cell_angle_alpha   90.00000000
_cell_angle_beta   90.00000000
_cell_angle_gamma   89.99568203
_symmetry_Int_Tables_number   1
_chemical_formula_structural   Pr8Er11TmSi16
_chemical_formula_sum   'Pr8 Er11 Tm1 Si16'
_cell_volume   859.27563926
_cell_formula_units_Z   1
loop_
 _symmetry_equiv_pos_site_id
 _symmetry_equiv_pos_as_xyz
  1  'x, y, z'
loop_
 _atom_site_type_symbol
 _atom_site_label
 _atom_site_symmetry_multiplicity
 _atom_site_fract_x
 _atom_site_fract_y
 _atom_site_fract_z
 _atom_site_occupancy
  Pr  Pr0  1  0.019667  0.177309  0.402272  1
  Pr  Pr1  1  0.519688  0.322697  0.402268  1
  Pr  Pr2  1  0.480260  0.677235  0.902231  1
  Pr  Pr3  1  0.480260  0.677235  0.597769  1
  Pr  Pr4  1  0.980377  0.822716  0.597753  1
  Pr  Pr5  1  0.980377  0.822716  0.902247  1
  Pr  Pr6  1  0.519688  0.322697  0.097732  1
  Pr  Pr7  1  0.019667  0.177309  0.097728  1
  Er  Er8  1  0.323341  0.177999  0.623440  1
  Er  Er9  1  0.676571  0.822025  0.376573  1
  Er  Er10  1  0.654969  0.990231  0.750000  1
  Er  Er11  1  0.176552  0.678001  0.376586  1
  Er  Er12  1  0.823495  0.322045  0.876543  1
  Er  Er13  1  0.823495  0.322045  0.623457  1
  Er  Er14  1  0.844968  0.490232  0.250000  1
  Er  Er15  1  0.344989  0.009776  0.250000  1
  Er  Er16  1  0.323341  0.177999  0.876560  1
  Er  Er17  1  0.176552  0.678001  0.123414  1
  Er  Er18  1  0.676571  0.822025  0.123427  1
  Tm  Tm19  1  0.155068  0.509782  0.750000  1
  Si  Si20  1  0.275087  0.879680  0.750000  1
  Si  Si21  1  0.470783  0.615453  0.250000  1
  Si  Si22  1  0.029249  0.115468  0.750000  1
  Si  Si23  1  0.529009  0.384638  0.750000  1
  Si  Si24  1  0.147186  0.467967  0.539704  1
  Si  Si25  1  0.970781  0.884566  0.250000  1
  Si  Si26  1  0.724898  0.120101  0.250000  1
  Si  Si27  1  0.852829  0.532075  0.039620  1
  Si  Si28  1  0.352838  0.967928  0.039630  1
  Si  Si29  1  0.147186  0.467967  0.960296  1
  Si  Si30  1  0.647173  0.032062  0.539628  1
  Si  Si31  1  0.352838  0.967928  0.460370  1
  Si  Si32  1  0.852829  0.532075  0.460380  1
  Si  Si33  1  0.775368  0.620049  0.750000  1
  Si  Si34  1  0.224874  0.379908  0.250000  1
  Si  Si35  1  0.647173  0.032062  0.960372  1
