# generated using pymatgen
data_YHo4(In2Pt)2
_symmetry_space_group_name_H-M   'P 1'
_cell_length_a   3.61014100
_cell_length_b   8.16483600
_cell_length_c   18.24959900
_cell_angle_alpha   90.00000000
_cell_angle_beta   90.00000000
_cell_angle_gamma   90.00000000
_symmetry_Int_Tables_number   1
_chemical_formula_structural   YHo4(In2Pt)2
_chemical_formula_sum   'Y2 Ho8 In8 Pt4'
_cell_volume   537.92899797
_cell_formula_units_Z   2
loop_
 _symmetry_equiv_pos_site_id
 _symmetry_equiv_pos_as_xyz
  1  'x, y, z'
loop_
 _atom_site_type_symbol
 _atom_site_label
 _atom_site_symmetry_multiplicity
 _atom_site_fract_x
 _atom_site_fract_y
 _atom_site_fract_z
 _atom_site_occupancy
  Y  Y0  1  0.000000  0.000000  0.000000  1
  Y  Y1  1  0.000000  0.500000  0.500000  1
  Ho  Ho2  1  0.000000  0.116884  0.414377  1
  Ho  Ho3  1  0.000000  0.883116  0.585623  1
  Ho  Ho4  1  0.000000  0.383116  0.914377  1
  Ho  Ho5  1  0.000000  0.616884  0.085623  1
  Ho  Ho6  1  0.000000  0.243357  0.220108  1
  Ho  Ho7  1  0.000000  0.756643  0.779892  1
  Ho  Ho8  1  0.000000  0.256643  0.720108  1
  Ho  Ho9  1  0.000000  0.743357  0.279892  1
  In  In10  1  0.500000  0.423831  0.350539  1
  In  In11  1  0.500000  0.576169  0.649461  1
  In  In12  1  0.500000  0.076169  0.850539  1
  In  In13  1  0.500000  0.923831  0.149461  1
  In  In14  1  0.500000  0.292751  0.066731  1
  In  In15  1  0.500000  0.707249  0.933269  1
  In  In16  1  0.500000  0.207249  0.566731  1
  In  In17  1  0.500000  0.792751  0.433269  1
  Pt  Pt18  1  0.500000  0.024617  0.303312  1
  Pt  Pt19  1  0.500000  0.975383  0.696688  1
  Pt  Pt20  1  0.500000  0.475383  0.803312  1
  Pt  Pt21  1  0.500000  0.524617  0.196688  1
