# generated using pymatgen
data_KGd6GaI12
_symmetry_space_group_name_H-M   'P 1'
_cell_length_a   9.74478796
_cell_length_b   9.74478897
_cell_length_c   9.74478800
_cell_angle_alpha   107.12999799
_cell_angle_beta   107.12999369
_cell_angle_gamma   107.12998945
_symmetry_Int_Tables_number   1
_chemical_formula_structural   KGd6GaI12
_chemical_formula_sum   'K1 Gd6 Ga1 I12'
_cell_volume   767.91099459
_cell_formula_units_Z   1
loop_
 _symmetry_equiv_pos_site_id
 _symmetry_equiv_pos_as_xyz
  1  'x, y, z'
loop_
 _atom_site_type_symbol
 _atom_site_label
 _atom_site_symmetry_multiplicity
 _atom_site_fract_x
 _atom_site_fract_y
 _atom_site_fract_z
 _atom_site_occupancy
  K  K0  1  0.000000  0.000000  0.000000  1
  Gd  Gd1  1  0.819416  0.529065  0.601469  1
  Gd  Gd2  1  0.529065  0.601469  0.819416  1
  Gd  Gd3  1  0.180584  0.470935  0.398531  1
  Gd  Gd4  1  0.470935  0.398531  0.180584  1
  Gd  Gd5  1  0.601469  0.819416  0.529065  1
  Gd  Gd6  1  0.398531  0.180584  0.470935  1
  Ga  Ga7  1  0.500000  0.500000  0.500000  1
  I  I8  1  0.736015  0.182879  0.583118  1
  I  I9  1  0.951069  0.867821  0.623494  1
  I  I10  1  0.583118  0.736015  0.182879  1
  I  I11  1  0.132179  0.376506  0.048931  1
  I  I12  1  0.623494  0.951069  0.867821  1
  I  I13  1  0.867821  0.623494  0.951069  1
  I  I14  1  0.048931  0.132179  0.376506  1
  I  I15  1  0.817121  0.416882  0.263985  1
  I  I16  1  0.376506  0.048931  0.132179  1
  I  I17  1  0.263985  0.817121  0.416882  1
  I  I18  1  0.182879  0.583118  0.736015  1
  I  I19  1  0.416882  0.263985  0.817121  1
