# generated using pymatgen
data_MnTe28
_symmetry_space_group_name_H-M   'P 1'
_cell_length_a   8.23217847
_cell_length_b   13.78691703
_cell_length_c   14.72060248
_cell_angle_alpha   133.49536986
_cell_angle_beta   109.32575657
_cell_angle_gamma   86.32563670
_symmetry_Int_Tables_number   1
_chemical_formula_structural   MnTe28
_chemical_formula_sum   'Mn1 Te28'
_cell_volume   1110.52564870
_cell_formula_units_Z   1
loop_
 _symmetry_equiv_pos_site_id
 _symmetry_equiv_pos_as_xyz
  1  'x, y, z'
loop_
 _atom_site_type_symbol
 _atom_site_label
 _atom_site_symmetry_multiplicity
 _atom_site_fract_x
 _atom_site_fract_y
 _atom_site_fract_z
 _atom_site_occupancy
  Mn  Mn0  1  0.500000  0.000000  0.000000  1
  Te  Te1  1  0.052493  0.116034  0.394104  1
  Te  Te2  1  0.545810  0.107686  0.382725  1
  Te  Te3  1  0.267524  0.319412  0.808974  1
  Te  Te4  1  0.774133  0.327347  0.826595  1
  Te  Te5  1  0.178313  0.547638  0.701977  1
  Te  Te6  1  0.677354  0.554949  0.697967  1
  Te  Te7  1  0.454190  0.892314  0.617275  1
  Te  Te8  1  0.947507  0.883966  0.605896  1
  Te  Te9  1  0.225867  0.672653  0.173405  1
  Te  Te10  1  0.732476  0.680588  0.191026  1
  Te  Te11  1  0.322646  0.445051  0.302033  1
  Te  Te12  1  0.821687  0.452362  0.298023  1
  Te  Te13  1  0.795269  0.075950  0.803814  1
  Te  Te14  1  0.345753  0.058032  0.860354  1
  Te  Te15  1  0.803362  0.614901  0.969258  1
  Te  Te16  1  0.406002  0.666248  0.028296  1
  Te  Te17  1  0.562695  0.251416  0.247181  1
  Te  Te18  1  0.072394  0.298461  0.286639  1
  Te  Te19  1  0.654247  0.941968  0.139646  1
  Te  Te20  1  0.204731  0.924050  0.196186  1
  Te  Te21  1  0.593998  0.333752  0.971704  1
  Te  Te22  1  0.196638  0.385099  0.030742  1
  Te  Te23  1  0.927606  0.701539  0.713361  1
  Te  Te24  1  0.437305  0.748584  0.752819  1
  Te  Te25  1  0.925451  0.341054  0.637682  1
  Te  Te26  1  0.403325  0.280763  0.607915  1
  Te  Te27  1  0.596675  0.719237  0.392085  1
  Te  Te28  1  0.074549  0.658946  0.362318  1
