# generated using pymatgen
data_Lu4ReTc4Ru3
_symmetry_space_group_name_H-M   'P 1'
_cell_length_a   5.24431923
_cell_length_b   5.31523141
_cell_length_c   9.01957200
_cell_angle_alpha   90.00000000
_cell_angle_beta   90.00000000
_cell_angle_gamma   121.65064389
_symmetry_Int_Tables_number   1
_chemical_formula_structural   Lu4ReTc4Ru3
_chemical_formula_sum   'Lu4 Re1 Tc4 Ru3'
_cell_volume   214.02337762
_cell_formula_units_Z   1
loop_
 _symmetry_equiv_pos_site_id
 _symmetry_equiv_pos_as_xyz
  1  'x, y, z'
loop_
 _atom_site_type_symbol
 _atom_site_label
 _atom_site_symmetry_multiplicity
 _atom_site_fract_x
 _atom_site_fract_y
 _atom_site_fract_z
 _atom_site_occupancy
  Lu  Lu0  1  0.337414  0.666025  0.435418  1
  Lu  Lu1  1  0.664100  0.334054  0.563557  1
  Lu  Lu2  1  0.664100  0.334054  0.936443  1
  Lu  Lu3  1  0.337414  0.666025  0.064582  1
  Re  Re4  1  0.334273  0.170720  0.250000  1
  Tc  Tc5  1  0.169060  0.341444  0.750000  1
  Tc  Tc6  1  0.172158  0.828353  0.750000  1
  Tc  Tc7  1  0.822934  0.657878  0.250000  1
  Tc  Tc8  1  0.657241  0.829445  0.750000  1
  Ru  Ru9  1  0.009520  0.999112  0.001470  1
  Ru  Ru10  1  0.822268  0.173776  0.250000  1
  Ru  Ru11  1  0.009520  0.999112  0.498530  1
