# generated using pymatgen
data_Rb2Mg3Te4
_symmetry_space_group_name_H-M   'P 1'
_cell_length_a   10.62568949
_cell_length_b   10.62568955
_cell_length_c   10.62568995
_cell_angle_alpha   143.27610018
_cell_angle_beta   105.13160079
_cell_angle_gamma   86.41304641
_symmetry_Int_Tables_number   1
_chemical_formula_structural   Rb2Mg3Te4
_chemical_formula_sum   'Rb4 Mg6 Te8'
_cell_volume   669.77145509
_cell_formula_units_Z   2
loop_
 _symmetry_equiv_pos_site_id
 _symmetry_equiv_pos_as_xyz
  1  'x, y, z'
loop_
 _atom_site_type_symbol
 _atom_site_label
 _atom_site_symmetry_multiplicity
 _atom_site_fract_x
 _atom_site_fract_y
 _atom_site_fract_z
 _atom_site_occupancy
  Rb  Rb0  1  0.877035  0.731921  0.608956  1
  Rb  Rb1  1  0.377035  0.768079  0.145114  1
  Rb  Rb2  1  0.622965  0.231921  0.854886  1
  Rb  Rb3  1  0.122965  0.268079  0.391044  1
  Mg  Mg4  1  0.980282  0.250000  0.730282  1
  Mg  Mg5  1  0.750000  0.750000  0.000000  1
  Mg  Mg6  1  0.480282  0.750000  0.730282  1
  Mg  Mg7  1  0.519718  0.250000  0.269718  1
  Mg  Mg8  1  0.250000  0.250000  0.000000  1
  Mg  Mg9  1  0.019718  0.750000  0.269718  1
  Te  Te10  1  0.273186  0.917648  0.907630  1
  Te  Te11  1  0.226814  0.134445  0.644462  1
  Te  Te12  1  0.773186  0.865555  0.355538  1
  Te  Te13  1  0.010017  0.365555  0.092370  1
  Te  Te14  1  0.726814  0.082352  0.092370  1
  Te  Te15  1  0.510017  0.417648  0.644462  1
  Te  Te16  1  0.489983  0.582352  0.355538  1
  Te  Te17  1  0.989983  0.634445  0.907630  1
