# generated using pymatgen
data_Lu2Th2Sc(In2Rh)2
_symmetry_space_group_name_H-M   'P 1'
_cell_length_a   3.77547600
_cell_length_b   7.92656432
_cell_length_c   17.73757169
_cell_angle_alpha   90.16619960
_cell_angle_beta   90.00000000
_cell_angle_gamma   90.00000000
_symmetry_Int_Tables_number   1
_chemical_formula_structural   Lu2Th2Sc(In2Rh)2
_chemical_formula_sum   'Lu4 Th4 Sc2 In8 Rh4'
_cell_volume   530.82215241
_cell_formula_units_Z   2
loop_
 _symmetry_equiv_pos_site_id
 _symmetry_equiv_pos_as_xyz
  1  'x, y, z'
loop_
 _atom_site_type_symbol
 _atom_site_label
 _atom_site_symmetry_multiplicity
 _atom_site_fract_x
 _atom_site_fract_y
 _atom_site_fract_z
 _atom_site_occupancy
  Lu  Lu0  1  0.000000  0.000000  0.000000  1
  Lu  Lu1  1  0.000000  0.500000  0.500000  1
  Lu  Lu2  1  0.000000  0.894247  0.586131  1
  Lu  Lu3  1  0.000000  0.105753  0.413869  1
  Th  Th4  1  0.000000  0.762856  0.784085  1
  Th  Th5  1  0.000000  0.237144  0.215915  1
  Th  Th6  1  0.000000  0.264508  0.717902  1
  Th  Th7  1  0.000000  0.735492  0.282098  1
  Sc  Sc8  1  0.000000  0.395617  0.913941  1
  Sc  Sc9  1  0.000000  0.604383  0.086059  1
  In  In10  1  0.500000  0.795318  0.442864  1
  In  In11  1  0.500000  0.204682  0.557136  1
  In  In12  1  0.500000  0.304117  0.054699  1
  In  In13  1  0.500000  0.695883  0.945301  1
  In  In14  1  0.500000  0.903672  0.141562  1
  In  In15  1  0.500000  0.096328  0.858438  1
  In  In16  1  0.500000  0.409457  0.356828  1
  In  In17  1  0.500000  0.590543  0.643172  1
  Rh  Rh18  1  0.500000  0.982264  0.699003  1
  Rh  Rh19  1  0.500000  0.017736  0.300997  1
  Rh  Rh20  1  0.500000  0.480636  0.804494  1
  Rh  Rh21  1  0.500000  0.519364  0.195506  1
