# generated using pymatgen
data_Y20Ir8Os3Pd
_symmetry_space_group_name_H-M   'P 1'
_cell_length_a   10.91874370
_cell_length_b   10.91794167
_cell_length_c   6.45177532
_cell_angle_alpha   90.02494775
_cell_angle_beta   90.02628437
_cell_angle_gamma   89.96866859
_symmetry_Int_Tables_number   1
_chemical_formula_structural   Y20Ir8Os3Pd
_chemical_formula_sum   'Y20 Ir8 Os3 Pd1'
_cell_volume   769.11720128
_cell_formula_units_Z   1
loop_
 _symmetry_equiv_pos_site_id
 _symmetry_equiv_pos_as_xyz
  1  'x, y, z'
loop_
 _atom_site_type_symbol
 _atom_site_label
 _atom_site_symmetry_multiplicity
 _atom_site_fract_x
 _atom_site_fract_y
 _atom_site_fract_z
 _atom_site_occupancy
  Y  Y0  1  0.293021  0.085745  0.378672  1
  Y  Y1  1  0.294797  0.913803  0.878141  1
  Y  Y2  1  0.703334  0.084053  0.871212  1
  Y  Y3  1  0.704040  0.908773  0.380111  1
  Y  Y4  1  0.585673  0.793225  0.879627  1
  Y  Y5  1  0.581011  0.206720  0.378113  1
  Y  Y6  1  0.412357  0.793455  0.378669  1
  Y  Y7  1  0.413421  0.205960  0.879360  1
  Y  Y8  1  0.208744  0.413277  0.622526  1
  Y  Y9  1  0.207666  0.588591  0.119321  1
  Y  Y10  1  0.791888  0.418587  0.119512  1
  Y  Y11  1  0.792118  0.587718  0.622785  1
  Y  Y12  1  0.913383  0.708242  0.119382  1
  Y  Y13  1  0.914867  0.294741  0.631953  1
  Y  Y14  1  0.087333  0.707192  0.624490  1
  Y  Y15  1  0.092631  0.294781  0.117359  1
  Y  Y16  1  0.001464  0.997530  0.500670  1
  Y  Y17  1  0.002363  0.998407  0.997553  1
  Y  Y18  1  0.499463  0.499877  0.998461  1
  Y  Y19  1  0.500214  0.500418  0.499153  1
  Ir  Ir20  1  0.848531  0.848660  0.749975  1
  Ir  Ir21  1  0.150124  0.152493  0.749216  1
  Ir  Ir22  1  0.151677  0.846517  0.250122  1
  Ir  Ir23  1  0.654172  0.346941  0.749669  1
  Ir  Ir24  1  0.653470  0.650907  0.249684  1
  Ir  Ir25  1  0.347169  0.348512  0.249942  1
  Ir  Ir26  1  0.347136  0.652030  0.749512  1
  Ir  Ir27  1  0.000027  0.498993  0.375595  1
  Os  Os28  1  0.500649  0.999909  0.127912  1
  Os  Os29  1  0.500144  0.999709  0.625380  1
  Os  Os30  1  0.000312  0.499770  0.875676  1
  Pd  Pd31  1  0.846800  0.154466  0.250247  1
