# generated using pymatgen
data_NdSmP7Ru12
_symmetry_space_group_name_H-M   'P 1'
_cell_length_a   9.45489700
_cell_length_b   9.45489626
_cell_length_c   3.97483900
_cell_angle_alpha   90.00000000
_cell_angle_beta   90.00000000
_cell_angle_gamma   119.99999816
_symmetry_Int_Tables_number   1
_chemical_formula_structural   NdSmP7Ru12
_chemical_formula_sum   'Nd1 Sm1 P7 Ru12'
_cell_volume   307.72568854
_cell_formula_units_Z   1
loop_
 _symmetry_equiv_pos_site_id
 _symmetry_equiv_pos_as_xyz
  1  'x, y, z'
loop_
 _atom_site_type_symbol
 _atom_site_label
 _atom_site_symmetry_multiplicity
 _atom_site_fract_x
 _atom_site_fract_y
 _atom_site_fract_z
 _atom_site_occupancy
  Nd  Nd0  1  0.333333  0.666667  0.000000  1
  Sm  Sm1  1  0.666667  0.333333  0.500000  1
  P  P2  1  0.604318  0.717729  0.500000  1
  P  P3  1  0.000000  0.000000  0.000000  1
  P  P4  1  0.282271  0.886589  0.500000  1
  P  P5  1  0.113411  0.395682  0.500000  1
  P  P6  1  0.888393  0.574768  0.000000  1
  P  P7  1  0.425232  0.313625  0.000000  1
  P  P8  1  0.686375  0.111607  0.000000  1
  Ru  Ru9  1  0.559134  0.952126  0.500000  1
  Ru  Ru10  1  0.392994  0.440866  0.500000  1
  Ru  Ru11  1  0.914403  0.120109  0.500000  1
  Ru  Ru12  1  0.205706  0.085597  0.500000  1
  Ru  Ru13  1  0.879891  0.794294  0.500000  1
  Ru  Ru14  1  0.729380  0.892762  0.000000  1
  Ru  Ru15  1  0.107238  0.836617  0.000000  1
  Ru  Ru16  1  0.163383  0.270620  0.000000  1
  Ru  Ru17  1  0.421359  0.066181  0.000000  1
  Ru  Ru18  1  0.933819  0.355180  0.000000  1
  Ru  Ru19  1  0.644820  0.578641  0.000000  1
  Ru  Ru20  1  0.047874  0.607006  0.500000  1
