# generated using pymatgen
data_TbLu5HfCo17P12
_symmetry_space_group_name_H-M   'P 1'
_cell_length_a   3.67426800
_cell_length_b   10.52378600
_cell_length_c   12.19770200
_cell_angle_alpha   90.00000000
_cell_angle_beta   90.00000000
_cell_angle_gamma   90.00000000
_symmetry_Int_Tables_number   1
_chemical_formula_structural   TbLu5HfCo17P12
_chemical_formula_sum   'Tb1 Lu5 Hf1 Co17 P12'
_cell_volume   471.65110644
_cell_formula_units_Z   1
loop_
 _symmetry_equiv_pos_site_id
 _symmetry_equiv_pos_as_xyz
  1  'x, y, z'
loop_
 _atom_site_type_symbol
 _atom_site_label
 _atom_site_symmetry_multiplicity
 _atom_site_fract_x
 _atom_site_fract_y
 _atom_site_fract_z
 _atom_site_occupancy
  Tb  Tb0  1  0.500000  0.000000  0.476080  1
  Lu  Lu1  1  0.000000  0.500000  0.529435  1
  Lu  Lu2  1  0.500000  0.822168  0.207372  1
  Lu  Lu3  1  0.500000  0.177832  0.207372  1
  Lu  Lu4  1  0.000000  0.681971  0.796147  1
  Lu  Lu5  1  0.000000  0.318029  0.796147  1
  Hf  Hf6  1  0.500000  0.500000  0.155059  1
  Co  Co7  1  0.000000  0.000000  0.835871  1
  Co  Co8  1  0.500000  0.500000  0.702690  1
  Co  Co9  1  0.000000  0.000000  0.294767  1
  Co  Co10  1  0.000000  0.500000  0.984410  1
  Co  Co11  1  0.500000  0.000000  0.013916  1
  Co  Co12  1  0.500000  0.327388  0.988589  1
  Co  Co13  1  0.500000  0.672612  0.988589  1
  Co  Co14  1  0.000000  0.162100  0.001764  1
  Co  Co15  1  0.000000  0.837900  0.001764  1
  Co  Co16  1  0.500000  0.295362  0.434465  1
  Co  Co17  1  0.500000  0.704638  0.434465  1
  Co  Co18  1  0.000000  0.203014  0.570724  1
  Co  Co19  1  0.000000  0.796986  0.570724  1
  Co  Co20  1  0.500000  0.878929  0.707604  1
  Co  Co21  1  0.500000  0.121071  0.707604  1
  Co  Co22  1  0.000000  0.623535  0.295618  1
  Co  Co23  1  0.000000  0.376465  0.295618  1
  P  P24  1  0.500000  0.500000  0.880625  1
  P  P25  1  0.000000  0.000000  0.117322  1
  P  P26  1  0.500000  0.500000  0.363333  1
  P  P27  1  0.000000  0.000000  0.654056  1
  P  P28  1  0.500000  0.311156  0.618701  1
  P  P29  1  0.500000  0.688844  0.618701  1
  P  P30  1  0.000000  0.188320  0.384926  1
  P  P31  1  0.000000  0.811680  0.384926  1
  P  P32  1  0.500000  0.851306  0.887537  1
  P  P33  1  0.500000  0.148694  0.887537  1
  P  P34  1  0.000000  0.665686  0.102770  1
  P  P35  1  0.000000  0.334314  0.102770  1
