# generated using pymatgen
data_TbSmHo2(Mo2O7)2
_symmetry_space_group_name_H-M   'P 1'
_cell_length_a   7.42874645
_cell_length_b   7.42874565
_cell_length_c   7.46096407
_cell_angle_alpha   59.14841016
_cell_angle_beta   59.14841858
_cell_angle_gamma   58.88467201
_symmetry_Int_Tables_number   1
_chemical_formula_structural   TbSmHo2(Mo2O7)2
_chemical_formula_sum   'Tb1 Sm1 Ho2 Mo4 O14'
_cell_volume   284.90478723
_cell_formula_units_Z   1
loop_
 _symmetry_equiv_pos_site_id
 _symmetry_equiv_pos_as_xyz
  1  'x, y, z'
loop_
 _atom_site_type_symbol
 _atom_site_label
 _atom_site_symmetry_multiplicity
 _atom_site_fract_x
 _atom_site_fract_y
 _atom_site_fract_z
 _atom_site_occupancy
  Tb  Tb0  1  0.125000  0.125000  0.625000  1
  Sm  Sm1  1  0.125000  0.125000  0.125000  1
  Ho  Ho2  1  0.625000  0.125000  0.125000  1
  Ho  Ho3  1  0.125000  0.625000  0.125000  1
  Mo  Mo4  1  0.625000  0.625000  0.625000  1
  Mo  Mo5  1  0.125000  0.625000  0.625000  1
  Mo  Mo6  1  0.625000  0.125000  0.625000  1
  Mo  Mo7  1  0.625000  0.625000  0.125000  1
  O  O8  1  0.286356  0.286356  0.706251  1
  O  O9  1  0.286633  0.707353  0.289247  1
  O  O10  1  0.963367  0.542647  0.960753  1
  O  O11  1  0.707353  0.286633  0.289247  1
  O  O12  1  0.999261  0.999261  0.999837  1
  O  O13  1  0.532023  0.532023  0.970728  1
  O  O14  1  0.286420  0.709768  0.718682  1
  O  O15  1  0.540232  0.963580  0.531318  1
  O  O16  1  0.542647  0.963367  0.960753  1
  O  O17  1  0.717977  0.717977  0.279272  1
  O  O18  1  0.250739  0.250739  0.250163  1
  O  O19  1  0.963644  0.963644  0.543749  1
  O  O20  1  0.963580  0.540232  0.531318  1
  O  O21  1  0.709768  0.286420  0.718682  1
