# generated using pymatgen
data_KTa4AsO13
_symmetry_space_group_name_H-M   'P 1'
_cell_length_a   7.44311021
_cell_length_b   7.44311111
_cell_length_c   10.14688000
_cell_angle_alpha   90.00000000
_cell_angle_beta   90.00000000
_cell_angle_gamma   91.43773116
_symmetry_Int_Tables_number   1
_chemical_formula_structural   KTa4AsO13
_chemical_formula_sum   'K2 Ta8 As2 O26'
_cell_volume   561.95913003
_cell_formula_units_Z   2
loop_
 _symmetry_equiv_pos_site_id
 _symmetry_equiv_pos_as_xyz
  1  'x, y, z'
loop_
 _atom_site_type_symbol
 _atom_site_label
 _atom_site_symmetry_multiplicity
 _atom_site_fract_x
 _atom_site_fract_y
 _atom_site_fract_z
 _atom_site_occupancy
  K  K0  1  0.442678  0.442678  0.441354  1
  K  K1  1  0.557322  0.557322  0.941354  1
  Ta  Ta2  1  0.552555  0.896135  0.251117  1
  Ta  Ta3  1  0.103865  0.447445  0.751117  1
  Ta  Ta4  1  0.447445  0.103865  0.751117  1
  Ta  Ta5  1  0.896135  0.552555  0.251117  1
  Ta  Ta6  1  0.174038  0.828789  0.500463  1
  Ta  Ta7  1  0.171211  0.825962  0.000463  1
  Ta  Ta8  1  0.828789  0.174038  0.500463  1
  Ta  Ta9  1  0.825962  0.171211  0.000463  1
  As  As10  1  0.165531  0.165531  0.248801  1
  As  As11  1  0.834469  0.834469  0.748801  1
  O  O12  1  0.662987  0.662987  0.250620  1
  O  O13  1  0.337013  0.337013  0.750620  1
  O  O14  1  0.390768  0.132714  0.253933  1
  O  O15  1  0.867286  0.609232  0.753933  1
  O  O16  1  0.609232  0.867286  0.753933  1
  O  O17  1  0.132714  0.390768  0.253933  1
  O  O18  1  0.798340  0.364429  0.384555  1
  O  O19  1  0.635041  0.197891  0.613310  1
  O  O20  1  0.802109  0.364959  0.113310  1
  O  O21  1  0.635571  0.201660  0.884555  1
  O  O22  1  0.197891  0.635041  0.613310  1
  O  O23  1  0.364429  0.798340  0.384555  1
  O  O24  1  0.201660  0.635571  0.884555  1
  O  O25  1  0.364959  0.802109  0.113310  1
  O  O26  1  0.069417  0.069417  0.390830  1
  O  O27  1  0.929851  0.929851  0.607214  1
  O  O28  1  0.070149  0.070149  0.107214  1
  O  O29  1  0.930583  0.930583  0.890830  1
  O  O30  1  0.695418  0.998240  0.386927  1
  O  O31  1  0.005662  0.306219  0.610484  1
  O  O32  1  0.693781  0.994338  0.110484  1
  O  O33  1  0.001760  0.304582  0.886927  1
  O  O34  1  0.306219  0.005662  0.610484  1
  O  O35  1  0.998240  0.695418  0.386927  1
  O  O36  1  0.304582  0.001760  0.886927  1
  O  O37  1  0.994338  0.693781  0.110484  1
