# generated using pymatgen
data_Dy10Si16Ag
_symmetry_space_group_name_H-M   'P 1'
_cell_length_a   6.75569745
_cell_length_b   8.22761411
_cell_length_c   11.13819356
_cell_angle_alpha   111.67506322
_cell_angle_beta   107.65394570
_cell_angle_gamma   89.99999752
_symmetry_Int_Tables_number   1
_chemical_formula_structural   Dy10Si16Ag
_chemical_formula_sum   'Dy10 Si16 Ag1'
_cell_volume   543.82512268
_cell_formula_units_Z   1
loop_
 _symmetry_equiv_pos_site_id
 _symmetry_equiv_pos_as_xyz
  1  'x, y, z'
loop_
 _atom_site_type_symbol
 _atom_site_label
 _atom_site_symmetry_multiplicity
 _atom_site_fract_x
 _atom_site_fract_y
 _atom_site_fract_z
 _atom_site_occupancy
  Dy  Dy0  1  0.237296  0.248213  0.000000  1
  Dy  Dy1  1  0.237296  0.751787  0.000000  1
  Dy  Dy2  1  0.836863  0.359126  0.207473  1
  Dy  Dy3  1  0.836863  0.848348  0.207473  1
  Dy  Dy4  1  0.437683  0.451047  0.400511  1
  Dy  Dy5  1  0.437683  0.949464  0.400511  1
  Dy  Dy6  1  0.037172  0.050536  0.599490  1
  Dy  Dy7  1  0.037172  0.548953  0.599490  1
  Dy  Dy8  1  0.629389  0.151652  0.792526  1
  Dy  Dy9  1  0.629389  0.640875  0.792526  1
  Si  Si10  1  0.926046  0.000000  0.000000  1
  Si  Si11  1  0.608278  0.500000  0.000000  1
  Si  Si12  1  0.128849  0.583490  0.166980  1
  Si  Si13  1  0.499506  0.600449  0.200899  1
  Si  Si14  1  0.498346  0.105494  0.210989  1
  Si  Si15  1  0.159191  0.116728  0.233455  1
  Si  Si16  1  0.810139  0.201339  0.402679  1
  Si  Si17  1  0.100948  0.698663  0.397326  1
  Si  Si18  1  0.759109  0.712999  0.425998  1
  Si  Si19  1  0.333111  0.287001  0.574002  1
  Si  Si20  1  0.703622  0.301337  0.602673  1
  Si  Si21  1  0.407459  0.798661  0.597321  1
  Si  Si22  1  0.925735  0.883272  0.766545  1
  Si  Si23  1  0.287356  0.894505  0.789010  1
  Si  Si24  1  0.298607  0.399551  0.799102  1
  Si  Si25  1  0.961869  0.416510  0.833020  1
  Ag  Ag26  1  0.573527  0.000000  0.000000  1
