# generated using pymatgen
data_Zr6Ti4Al3Ga9Rh7
_symmetry_space_group_name_H-M   'P 1'
_cell_length_a   8.79557196
_cell_length_b   8.79557280
_cell_length_c   8.79557292
_cell_angle_alpha   59.88260388
_cell_angle_beta   59.88260051
_cell_angle_gamma   59.88260285
_symmetry_Int_Tables_number   1
_chemical_formula_structural   Zr6Ti4Al3Ga9Rh7
_chemical_formula_sum   'Zr6 Ti4 Al3 Ga9 Rh7'
_cell_volume   479.86491164
_cell_formula_units_Z   1
loop_
 _symmetry_equiv_pos_site_id
 _symmetry_equiv_pos_as_xyz
  1  'x, y, z'
loop_
 _atom_site_type_symbol
 _atom_site_label
 _atom_site_symmetry_multiplicity
 _atom_site_fract_x
 _atom_site_fract_y
 _atom_site_fract_z
 _atom_site_occupancy
  Zr  Zr0  1  0.694279  0.694279  0.305961  1
  Zr  Zr1  1  0.305409  0.695216  0.305409  1
  Zr  Zr2  1  0.695216  0.305409  0.305409  1
  Zr  Zr3  1  0.305409  0.305409  0.695216  1
  Zr  Zr4  1  0.694279  0.305961  0.694279  1
  Zr  Zr5  1  0.305961  0.694279  0.694279  1
  Ti  Ti6  1  0.878760  0.878760  0.364128  1
  Ti  Ti7  1  0.878760  0.364128  0.878760  1
  Ti  Ti8  1  0.364128  0.878760  0.878760  1
  Ti  Ti9  1  0.878217  0.878217  0.878217  1
  Al  Al10  1  0.120542  0.120542  0.638411  1
  Al  Al11  1  0.120542  0.638411  0.120542  1
  Al  Al12  1  0.638411  0.120542  0.120542  1
  Ga  Ga13  1  0.118811  0.118811  0.118811  1
  Ga  Ga14  1  0.659556  0.659556  0.020645  1
  Ga  Ga15  1  0.659556  0.020645  0.659556  1
  Ga  Ga16  1  0.020645  0.659556  0.659556  1
  Ga  Ga17  1  0.659620  0.659620  0.659620  1
  Ga  Ga18  1  0.340529  0.340529  0.979834  1
  Ga  Ga19  1  0.340529  0.979834  0.340529  1
  Ga  Ga20  1  0.979834  0.340529  0.340529  1
  Ga  Ga21  1  0.340435  0.340435  0.340435  1
  Rh  Rh22  1  0.998151  0.998151  0.998151  1
  Rh  Rh23  1  0.998359  0.998359  0.503600  1
  Rh  Rh24  1  0.501718  0.998669  0.501718  1
  Rh  Rh25  1  0.998669  0.501718  0.501718  1
  Rh  Rh26  1  0.501718  0.501718  0.998669  1
  Rh  Rh27  1  0.998359  0.503600  0.998359  1
  Rh  Rh28  1  0.503600  0.998359  0.998359  1
