# generated using pymatgen
data_VHgF7
_symmetry_space_group_name_H-M   'P 1'
_cell_length_a   10.22443000
_cell_length_b   7.32159168
_cell_length_c   8.11790483
_cell_angle_alpha   78.58589468
_cell_angle_beta   90.00000000
_cell_angle_gamma   90.00000000
_symmetry_Int_Tables_number   1
_chemical_formula_structural   VHgF7
_chemical_formula_sum   'V4 Hg4 F28'
_cell_volume   595.68028492
_cell_formula_units_Z   4
loop_
 _symmetry_equiv_pos_site_id
 _symmetry_equiv_pos_as_xyz
  1  'x, y, z'
loop_
 _atom_site_type_symbol
 _atom_site_label
 _atom_site_symmetry_multiplicity
 _atom_site_fract_x
 _atom_site_fract_y
 _atom_site_fract_z
 _atom_site_occupancy
  V  V0  1  0.562177  0.194435  0.204570  1
  V  V1  1  0.062177  0.805565  0.295430  1
  V  V2  1  0.437823  0.805565  0.795430  1
  V  V3  1  0.937823  0.194435  0.704570  1
  Hg  Hg4  1  0.251500  0.282473  0.904992  1
  Hg  Hg5  1  0.751500  0.717527  0.595008  1
  Hg  Hg6  1  0.748500  0.717527  0.095008  1
  Hg  Hg7  1  0.248500  0.282473  0.404992  1
  F  F8  1  0.697275  0.356515  0.151440  1
  F  F9  1  0.197275  0.643485  0.348560  1
  F  F10  1  0.302725  0.643485  0.848560  1
  F  F11  1  0.802725  0.356515  0.651440  1
  F  F12  1  0.640127  0.078547  0.393085  1
  F  F13  1  0.140127  0.921453  0.106915  1
  F  F14  1  0.359873  0.921453  0.606915  1
  F  F15  1  0.859873  0.078547  0.893085  1
  F  F16  1  0.481317  0.305511  0.006629  1
  F  F17  1  0.981317  0.694489  0.493371  1
  F  F18  1  0.518683  0.694489  0.993371  1
  F  F19  1  0.018683  0.305511  0.506629  1
  F  F20  1  0.415357  0.055463  0.254660  1
  F  F21  1  0.915357  0.944537  0.245340  1
  F  F22  1  0.584643  0.944537  0.745340  1
  F  F23  1  0.084643  0.055463  0.754660  1
  F  F24  1  0.632780  0.026401  0.093203  1
  F  F25  1  0.132780  0.973599  0.406797  1
  F  F26  1  0.367220  0.973599  0.906797  1
  F  F27  1  0.867220  0.026401  0.593203  1
  F  F28  1  0.483094  0.362405  0.314155  1
  F  F29  1  0.983094  0.637595  0.185845  1
  F  F30  1  0.516906  0.637595  0.685845  1
  F  F31  1  0.016906  0.362405  0.814155  1
  F  F32  1  0.186548  0.316763  0.147215  1
  F  F33  1  0.686548  0.683237  0.352785  1
  F  F34  1  0.813452  0.683237  0.852785  1
  F  F35  1  0.313452  0.316763  0.647215  1
