# generated using pymatgen
data_Y4Th(B3Ru)2
_symmetry_space_group_name_H-M   'P 1'
_cell_length_a   5.52916948
_cell_length_b   5.52916775
_cell_length_c   8.43811249
_cell_angle_alpha   70.87497230
_cell_angle_beta   70.87496949
_cell_angle_gamma   59.99998840
_symmetry_Int_Tables_number   1
_chemical_formula_structural   Y4Th(B3Ru)2
_chemical_formula_sum   'Y4 Th1 B6 Ru2'
_cell_volume   206.80209911
_cell_formula_units_Z   1
loop_
 _symmetry_equiv_pos_site_id
 _symmetry_equiv_pos_as_xyz
  1  'x, y, z'
loop_
 _atom_site_type_symbol
 _atom_site_label
 _atom_site_symmetry_multiplicity
 _atom_site_fract_x
 _atom_site_fract_y
 _atom_site_fract_z
 _atom_site_occupancy
  Y  Y0  1  0.750557  0.750557  0.748330  1
  Y  Y1  1  0.249443  0.249443  0.251670  1
  Y  Y2  1  0.582985  0.582985  0.251044  1
  Y  Y3  1  0.417015  0.417015  0.748956  1
  Th  Th4  1  0.000000  0.000000  0.000000  1
  B  B5  1  0.500000  0.172155  0.500000  1
  B  B6  1  0.827845  0.500000  0.500000  1
  B  B7  1  0.172155  0.827845  0.500000  1
  B  B8  1  0.172155  0.500000  0.500000  1
  B  B9  1  0.827845  0.172155  0.500000  1
  B  B10  1  0.500000  0.827845  0.500000  1
  Ru  Ru11  1  0.889543  0.889543  0.331369  1
  Ru  Ru12  1  0.110457  0.110457  0.668631  1
