# generated using pymatgen
data_Lu2GaB2Ir3Rh2
_symmetry_space_group_name_H-M   'P 1'
_cell_length_a   9.46767900
_cell_length_b   9.46767900
_cell_length_c   3.16957900
_cell_angle_alpha   90.00000000
_cell_angle_beta   90.00000000
_cell_angle_gamma   90.00000000
_symmetry_Int_Tables_number   1
_chemical_formula_structural   Lu2GaB2Ir3Rh2
_chemical_formula_sum   'Lu4 Ga2 B4 Ir6 Rh4'
_cell_volume   284.11138055
_cell_formula_units_Z   2
loop_
 _symmetry_equiv_pos_site_id
 _symmetry_equiv_pos_as_xyz
  1  'x, y, z'
loop_
 _atom_site_type_symbol
 _atom_site_label
 _atom_site_symmetry_multiplicity
 _atom_site_fract_x
 _atom_site_fract_y
 _atom_site_fract_z
 _atom_site_occupancy
  Lu  Lu0  1  0.823428  0.324509  0.000000  1
  Lu  Lu1  1  0.324509  0.176572  0.000000  1
  Lu  Lu2  1  0.675491  0.823428  0.000000  1
  Lu  Lu3  1  0.176572  0.675491  0.000000  1
  Ga  Ga4  1  0.000000  0.000000  0.000000  1
  Ga  Ga5  1  0.500000  0.500000  0.000000  1
  B  B6  1  0.624429  0.121937  0.000000  1
  B  B7  1  0.121937  0.375571  0.000000  1
  B  B8  1  0.878063  0.624429  0.000000  1
  B  B9  1  0.375571  0.878063  0.000000  1
  Ir  Ir10  1  0.069923  0.218509  0.500000  1
  Ir  Ir11  1  0.218509  0.930077  0.500000  1
  Ir  Ir12  1  0.781491  0.069923  0.500000  1
  Ir  Ir13  1  0.930077  0.781491  0.500000  1
  Ir  Ir14  1  0.500000  0.000000  0.500000  1
  Ir  Ir15  1  0.000000  0.500000  0.500000  1
  Rh  Rh16  1  0.429670  0.717391  0.500000  1
  Rh  Rh17  1  0.570330  0.282609  0.500000  1
  Rh  Rh18  1  0.717391  0.570330  0.500000  1
  Rh  Rh19  1  0.282609  0.429670  0.500000  1
