# generated using pymatgen
data_Ba3Ag2(ClO2)2
_symmetry_space_group_name_H-M   'P 1'
_cell_length_a   4.33976871
_cell_length_b   4.33976857
_cell_length_c   12.39792503
_cell_angle_alpha   100.07982406
_cell_angle_beta   100.07982090
_cell_angle_gamma   89.99999989
_symmetry_Int_Tables_number   1
_chemical_formula_structural   Ba3Ag2(ClO2)2
_chemical_formula_sum   'Ba3 Ag2 Cl2 O4'
_cell_volume   226.23192716
_cell_formula_units_Z   1
loop_
 _symmetry_equiv_pos_site_id
 _symmetry_equiv_pos_as_xyz
  1  'x, y, z'
loop_
 _atom_site_type_symbol
 _atom_site_label
 _atom_site_symmetry_multiplicity
 _atom_site_fract_x
 _atom_site_fract_y
 _atom_site_fract_z
 _atom_site_occupancy
  Ba  Ba0  1  0.000000  0.000000  0.000000  1
  Ba  Ba1  1  0.153998  0.153998  0.307997  1
  Ba  Ba2  1  0.846002  0.846002  0.692002  1
  Ag  Ag3  1  0.573484  0.573484  0.146967  1
  Ag  Ag4  1  0.426517  0.426517  0.853033  1
  Cl  Cl5  1  0.702838  0.702838  0.405675  1
  Cl  Cl6  1  0.297163  0.297163  0.594326  1
  O  O7  1  0.578333  0.078332  0.156663  1
  O  O8  1  0.078332  0.578333  0.156663  1
  O  O9  1  0.921668  0.421668  0.843336  1
  O  O10  1  0.421668  0.921668  0.843336  1
