# generated using pymatgen
data_Ho5Ga4P8Ir19
_symmetry_space_group_name_H-M   'P 1'
_cell_length_a   12.90187816
_cell_length_b   12.88327672
_cell_length_c   3.95911900
_cell_angle_alpha   90.00000000
_cell_angle_beta   90.00000000
_cell_angle_gamma   120.06072893
_symmetry_Int_Tables_number   1
_chemical_formula_structural   Ho5Ga4P8Ir19
_chemical_formula_sum   'Ho5 Ga4 P8 Ir19'
_cell_volume   569.56378684
_cell_formula_units_Z   1
loop_
 _symmetry_equiv_pos_site_id
 _symmetry_equiv_pos_as_xyz
  1  'x, y, z'
loop_
 _atom_site_type_symbol
 _atom_site_label
 _atom_site_symmetry_multiplicity
 _atom_site_fract_x
 _atom_site_fract_y
 _atom_site_fract_z
 _atom_site_occupancy
  Ho  Ho0  1  0.335420  0.669212  0.500000  1
  Ho  Ho1  1  0.665979  0.331696  0.500000  1
  Ho  Ho2  1  0.180444  0.180737  0.000000  1
  Ho  Ho3  1  0.818370  0.999247  0.000000  1
  Ho  Ho4  1  0.002161  0.816871  0.000000  1
  Ga  Ga5  1  0.318088  0.834497  0.000000  1
  Ga  Ga6  1  0.356663  0.357711  0.500000  1
  Ga  Ga7  1  0.641718  0.000884  0.500000  1
  Ga  Ga8  1  0.997003  0.638594  0.500000  1
  P  P9  1  0.173383  0.484575  0.000000  1
  P  P10  1  0.521040  0.690294  0.000000  1
  P  P11  1  0.823796  0.306259  0.000000  1
  P  P12  1  0.482269  0.174958  0.000000  1
  P  P13  1  0.691685  0.514921  0.000000  1
  P  P14  1  0.822864  0.819066  0.500000  1
  P  P15  1  0.178438  0.001046  0.500000  1
  P  P16  1  0.000080  0.179875  0.500000  1
  Ir  Ir17  1  0.190793  0.825365  0.500000  1
  Ir  Ir18  1  0.174595  0.381882  0.500000  1
  Ir  Ir19  1  0.626056  0.795417  0.500000  1
  Ir  Ir20  1  0.825641  0.205282  0.500000  1
  Ir  Ir21  1  0.385132  0.178249  0.500000  1
  Ir  Ir22  1  0.790877  0.615121  0.500000  1
  Ir  Ir23  1  0.128617  0.633429  0.000000  1
  Ir  Ir24  1  0.362748  0.497526  0.000000  1
  Ir  Ir25  1  0.521904  0.870964  0.000000  1
  Ir  Ir26  1  0.633812  0.132283  0.000000  1
  Ir  Ir27  1  0.496948  0.365947  0.000000  1
  Ir  Ir28  1  0.866068  0.500731  0.000000  1
  Ir  Ir29  1  0.547529  0.550453  0.500000  1
  Ir  Ir30  1  0.443831  0.993092  0.500000  1
  Ir  Ir31  1  0.997937  0.447338  0.500000  1
  Ir  Ir32  1  0.719371  0.715986  0.000000  1
  Ir  Ir33  1  0.279806  0.007988  0.000000  1
  Ir  Ir34  1  0.000132  0.281896  0.000000  1
  Ir  Ir35  1  0.998804  0.000606  0.500000  1
