# generated using pymatgen
data_Hf8Nb11Si16W
_symmetry_space_group_name_H-M   'P 1'
_cell_length_a   6.65824097
_cell_length_b   6.84914024
_cell_length_c   13.08156000
_cell_angle_alpha   90.00000000
_cell_angle_beta   90.00000000
_cell_angle_gamma   89.93057270
_symmetry_Int_Tables_number   1
_chemical_formula_structural   Hf8Nb11Si16W
_chemical_formula_sum   'Hf8 Nb11 Si16 W1'
_cell_volume   596.56090164
_cell_formula_units_Z   1
loop_
 _symmetry_equiv_pos_site_id
 _symmetry_equiv_pos_as_xyz
  1  'x, y, z'
loop_
 _atom_site_type_symbol
 _atom_site_label
 _atom_site_symmetry_multiplicity
 _atom_site_fract_x
 _atom_site_fract_y
 _atom_site_fract_z
 _atom_site_occupancy
  Hf  Hf0  1  0.497524  0.673301  0.593633  1
  Hf  Hf1  1  0.997315  0.827535  0.906522  1
  Hf  Hf2  1  0.502555  0.327135  0.093413  1
  Hf  Hf3  1  0.003647  0.172683  0.406435  1
  Hf  Hf4  1  0.502555  0.327135  0.406587  1
  Hf  Hf5  1  0.003647  0.172683  0.093565  1
  Hf  Hf6  1  0.497524  0.673301  0.906367  1
  Hf  Hf7  1  0.997315  0.827535  0.593478  1
  Nb  Nb8  1  0.664988  0.170536  0.622371  1
  Nb  Nb9  1  0.165565  0.329094  0.876666  1
  Nb  Nb10  1  0.333962  0.829837  0.124154  1
  Nb  Nb11  1  0.834152  0.669655  0.375856  1
  Nb  Nb12  1  0.333962  0.829837  0.375846  1
  Nb  Nb13  1  0.834152  0.669655  0.124144  1
  Nb  Nb14  1  0.664988  0.170536  0.877629  1
  Nb  Nb15  1  0.165565  0.329094  0.623334  1
  Nb  Nb16  1  0.838534  0.498374  0.750000  1
  Nb  Nb17  1  0.338280  0.001966  0.750000  1
  Nb  Nb18  1  0.161450  0.500147  0.250000  1
  Si  Si19  1  0.671182  0.964037  0.458876  1
  Si  Si20  1  0.171117  0.535931  0.039181  1
  Si  Si21  1  0.328843  0.035654  0.961485  1
  Si  Si22  1  0.829092  0.464476  0.539017  1
  Si  Si23  1  0.328843  0.035654  0.538515  1
  Si  Si24  1  0.829092  0.464476  0.960983  1
  Si  Si25  1  0.671182  0.964037  0.041124  1
  Si  Si26  1  0.171117  0.535931  0.460819  1
  Si  Si27  1  0.463960  0.386965  0.750000  1
  Si  Si28  1  0.962762  0.112977  0.750000  1
  Si  Si29  1  0.537041  0.614310  0.250000  1
  Si  Si30  1  0.032518  0.888957  0.250000  1
  Si  Si31  1  0.705187  0.861802  0.750000  1
  Si  Si32  1  0.205007  0.638654  0.750000  1
  Si  Si33  1  0.299027  0.137767  0.250000  1
  Si  Si34  1  0.794458  0.357271  0.250000  1
  W  W35  1  0.661892  0.001056  0.250000  1
