# generated using pymatgen
data_Y5Pd2Rh
_symmetry_space_group_name_H-M   'P 1'
_cell_length_a   11.19832300
_cell_length_b   11.19832300
_cell_length_c   6.32797800
_cell_angle_alpha   90.00000000
_cell_angle_beta   90.00000000
_cell_angle_gamma   90.00000000
_symmetry_Int_Tables_number   1
_chemical_formula_structural   Y5Pd2Rh
_chemical_formula_sum   'Y20 Pd8 Rh4'
_cell_volume   793.54386889
_cell_formula_units_Z   4
loop_
 _symmetry_equiv_pos_site_id
 _symmetry_equiv_pos_as_xyz
  1  'x, y, z'
loop_
 _atom_site_type_symbol
 _atom_site_label
 _atom_site_symmetry_multiplicity
 _atom_site_fract_x
 _atom_site_fract_y
 _atom_site_fract_z
 _atom_site_occupancy
  Y  Y0  1  0.294362  0.088049  0.373584  1
  Y  Y1  1  0.294362  0.911951  0.873584  1
  Y  Y2  1  0.705638  0.088049  0.873584  1
  Y  Y3  1  0.705638  0.911951  0.373584  1
  Y  Y4  1  0.588049  0.794362  0.873584  1
  Y  Y5  1  0.588049  0.205638  0.373584  1
  Y  Y6  1  0.411951  0.794362  0.373584  1
  Y  Y7  1  0.411951  0.205638  0.873584  1
  Y  Y8  1  0.205638  0.411951  0.626416  1
  Y  Y9  1  0.205638  0.588049  0.126416  1
  Y  Y10  1  0.794362  0.411951  0.126416  1
  Y  Y11  1  0.794362  0.588049  0.626416  1
  Y  Y12  1  0.911951  0.705638  0.126416  1
  Y  Y13  1  0.911951  0.294362  0.626416  1
  Y  Y14  1  0.088049  0.705638  0.626416  1
  Y  Y15  1  0.088049  0.294362  0.126416  1
  Y  Y16  1  0.000000  0.000000  0.500000  1
  Y  Y17  1  0.000000  0.000000  0.000000  1
  Y  Y18  1  0.500000  0.500000  0.000000  1
  Y  Y19  1  0.500000  0.500000  0.500000  1
  Pd  Pd20  1  0.845020  0.154980  0.250000  1
  Pd  Pd21  1  0.845020  0.845020  0.750000  1
  Pd  Pd22  1  0.154980  0.154980  0.750000  1
  Pd  Pd23  1  0.154980  0.845020  0.250000  1
  Pd  Pd24  1  0.654980  0.345020  0.750000  1
  Pd  Pd25  1  0.654980  0.654980  0.250000  1
  Pd  Pd26  1  0.345020  0.345020  0.250000  1
  Pd  Pd27  1  0.345020  0.654980  0.750000  1
  Rh  Rh28  1  0.500000  0.000000  0.124104  1
  Rh  Rh29  1  0.500000  0.000000  0.624104  1
  Rh  Rh30  1  0.000000  0.500000  0.875896  1
  Rh  Rh31  1  0.000000  0.500000  0.375896  1
