# generated using pymatgen
data_Ho6Fe7Co7(P3Rh)4
_symmetry_space_group_name_H-M   'P 1'
_cell_length_a   3.73289700
_cell_length_b   10.67495568
_cell_length_c   12.27624540
_cell_angle_alpha   89.79126029
_cell_angle_beta   90.00000000
_cell_angle_gamma   90.00000000
_symmetry_Int_Tables_number   1
_chemical_formula_structural   Ho6Fe7Co7(P3Rh)4
_chemical_formula_sum   'Ho6 Fe7 Co7 P12 Rh4'
_cell_volume   489.18684164
_cell_formula_units_Z   1
loop_
 _symmetry_equiv_pos_site_id
 _symmetry_equiv_pos_as_xyz
  1  'x, y, z'
loop_
 _atom_site_type_symbol
 _atom_site_label
 _atom_site_symmetry_multiplicity
 _atom_site_fract_x
 _atom_site_fract_y
 _atom_site_fract_z
 _atom_site_occupancy
  Ho  Ho0  1  0.000000  0.499339  0.521543  1
  Ho  Ho1  1  0.500000  0.001255  0.478747  1
  Ho  Ho2  1  0.500000  0.815568  0.204787  1
  Ho  Ho3  1  0.500000  0.183511  0.205214  1
  Ho  Ho4  1  0.000000  0.684798  0.795019  1
  Ho  Ho5  1  0.000000  0.315874  0.794431  1
  Fe  Fe6  1  0.000000  0.500246  0.989929  1
  Fe  Fe7  1  0.500000  0.999991  0.010288  1
  Fe  Fe8  1  0.500000  0.299035  0.429318  1
  Fe  Fe9  1  0.500000  0.699957  0.429443  1
  Fe  Fe10  1  0.000000  0.199161  0.570978  1
  Fe  Fe11  1  0.000000  0.799031  0.569198  1
  Fe  Fe12  1  0.500000  0.882247  0.710572  1
  Co  Co13  1  0.500000  0.119031  0.711281  1
  Co  Co14  1  0.000000  0.619044  0.289252  1
  Co  Co15  1  0.000000  0.380094  0.289303  1
  Co  Co16  1  0.500000  0.331828  0.994744  1
  Co  Co17  1  0.500000  0.669059  0.993989  1
  Co  Co18  1  0.000000  0.169349  0.005795  1
  Co  Co19  1  0.000000  0.831335  0.005264  1
  P  P20  1  0.500000  0.300064  0.612782  1
  P  P21  1  0.500000  0.701491  0.614172  1
  P  P22  1  0.000000  0.198532  0.387477  1
  P  P23  1  0.000000  0.799878  0.386891  1
  P  P24  1  0.500000  0.500636  0.890655  1
  P  P25  1  0.000000  0.999635  0.108850  1
  P  P26  1  0.500000  0.845627  0.893631  1
  P  P27  1  0.500000  0.156381  0.895712  1
  P  P28  1  0.000000  0.655797  0.104205  1
  P  P29  1  0.000000  0.344184  0.104947  1
  P  P30  1  0.500000  0.499716  0.351336  1
  P  P31  1  0.000000  0.996509  0.649715  1
  Rh  Rh32  1  0.500000  0.500489  0.159736  1
  Rh  Rh33  1  0.000000  0.002007  0.841182  1
  Rh  Rh34  1  0.500000  0.499928  0.700850  1
  Rh  Rh35  1  0.000000  0.999370  0.298763  1
