# generated using pymatgen
data_MnV11Si3As
_symmetry_space_group_name_H-M   'P 1'
_cell_length_a   4.68348900
_cell_length_b   4.68827600
_cell_length_c   9.36993900
_cell_angle_alpha   90.00000000
_cell_angle_beta   90.00000000
_cell_angle_gamma   90.00000000
_symmetry_Int_Tables_number   1
_chemical_formula_structural   MnV11Si3As
_chemical_formula_sum   'Mn1 V11 Si3 As1'
_cell_volume   205.74033323
_cell_formula_units_Z   1
loop_
 _symmetry_equiv_pos_site_id
 _symmetry_equiv_pos_as_xyz
  1  'x, y, z'
loop_
 _atom_site_type_symbol
 _atom_site_label
 _atom_site_symmetry_multiplicity
 _atom_site_fract_x
 _atom_site_fract_y
 _atom_site_fract_z
 _atom_site_occupancy
  Mn  Mn0  1  0.749678  0.000000  0.500000  1
  V  V1  1  0.000003  0.500000  0.129930  1
  V  V2  1  0.998856  0.500000  0.623171  1
  V  V3  1  0.500378  0.249937  0.745571  1
  V  V4  1  0.500378  0.249937  0.254429  1
  V  V5  1  0.755414  0.000000  0.000000  1
  V  V6  1  0.000003  0.500000  0.870070  1
  V  V7  1  0.998856  0.500000  0.376829  1
  V  V8  1  0.500378  0.750063  0.745571  1
  V  V9  1  0.500378  0.750063  0.254429  1
  V  V10  1  0.246717  0.000000  0.000000  1
  V  V11  1  0.249088  0.000000  0.500000  1
  Si  Si12  1  0.499926  0.500000  0.500000  1
  Si  Si13  1  0.000798  0.000000  0.747725  1
  Si  Si14  1  0.000798  0.000000  0.252275  1
  As  As15  1  0.498351  0.500000  0.000000  1
