# generated using pymatgen
data_Ho5Er3Zn(Si4Pd)3
_symmetry_space_group_name_H-M   'P 1'
_cell_length_a   8.12493709
_cell_length_b   8.12317237
_cell_length_c   8.05415702
_cell_angle_alpha   89.99868561
_cell_angle_beta   90.00721707
_cell_angle_gamma   120.02227851
_symmetry_Int_Tables_number   1
_chemical_formula_structural   Ho5Er3Zn(Si4Pd)3
_chemical_formula_sum   'Ho5 Er3 Zn1 Si12 Pd3'
_cell_volume   460.25536075
_cell_formula_units_Z   1
loop_
 _symmetry_equiv_pos_site_id
 _symmetry_equiv_pos_as_xyz
  1  'x, y, z'
loop_
 _atom_site_type_symbol
 _atom_site_label
 _atom_site_symmetry_multiplicity
 _atom_site_fract_x
 _atom_site_fract_y
 _atom_site_fract_z
 _atom_site_occupancy
  Ho  Ho0  1  0.003862  0.501949  0.749087  1
  Ho  Ho1  1  0.501875  0.498128  0.251074  1
  Ho  Ho2  1  0.498090  0.501936  0.749094  1
  Ho  Ho3  1  0.000006  0.999992  0.250055  1
  Ho  Ho4  1  0.999996  0.999985  0.748467  1
  Er  Er5  1  0.501927  0.003850  0.251221  1
  Er  Er6  1  0.498189  0.996375  0.748923  1
  Er  Er7  1  0.996139  0.498070  0.251234  1
  Zn  Zn8  1  0.333302  0.666918  0.011634  1
  Si  Si9  1  0.165388  0.330961  0.997816  1
  Si  Si10  1  0.833209  0.666148  0.001091  1
  Si  Si11  1  0.669006  0.834716  0.997733  1
  Si  Si12  1  0.834343  0.668449  0.501423  1
  Si  Si13  1  0.333857  0.166676  0.001016  1
  Si  Si14  1  0.165696  0.331649  0.497955  1
  Si  Si15  1  0.165618  0.834621  0.997787  1
  Si  Si16  1  0.331573  0.165545  0.501501  1
  Si  Si17  1  0.832940  0.166825  0.001109  1
  Si  Si18  1  0.668314  0.834409  0.498043  1
  Si  Si19  1  0.834072  0.165683  0.501406  1
  Si  Si20  1  0.165980  0.834270  0.497965  1
  Pd  Pd21  1  0.666643  0.332851  0.994832  1
  Pd  Pd22  1  0.666652  0.332863  0.504114  1
  Pd  Pd23  1  0.333322  0.667130  0.495421  1
