# generated using pymatgen
data_Er4CoCu2Si4Ru
_symmetry_space_group_name_H-M   'P 1'
_cell_length_a   4.16791200
_cell_length_b   6.84552471
_cell_length_c   7.30373101
_cell_angle_alpha   91.23951547
_cell_angle_beta   90.00000000
_cell_angle_gamma   90.00000000
_symmetry_Int_Tables_number   1
_chemical_formula_structural   Er4CoCu2Si4Ru
_chemical_formula_sum   'Er4 Co1 Cu2 Si4 Ru1'
_cell_volume   208.33796487
_cell_formula_units_Z   1
loop_
 _symmetry_equiv_pos_site_id
 _symmetry_equiv_pos_as_xyz
  1  'x, y, z'
loop_
 _atom_site_type_symbol
 _atom_site_label
 _atom_site_symmetry_multiplicity
 _atom_site_fract_x
 _atom_site_fract_y
 _atom_site_fract_z
 _atom_site_occupancy
  Er  Er0  1  0.250000  0.993831  0.795633  1
  Er  Er1  1  0.750000  0.004578  0.201427  1
  Er  Er2  1  0.250000  0.492893  0.693024  1
  Er  Er3  1  0.750000  0.502386  0.307559  1
  Co  Co4  1  0.750000  0.351730  0.938449  1
  Cu  Cu5  1  0.750000  0.829346  0.575076  1
  Cu  Cu6  1  0.250000  0.171586  0.428002  1
  Si  Si7  1  0.250000  0.297227  0.084946  1
  Si  Si8  1  0.750000  0.698972  0.906215  1
  Si  Si9  1  0.250000  0.793205  0.393626  1
  Si  Si10  1  0.750000  0.208877  0.613641  1
  Ru  Ru11  1  0.250000  0.655369  0.062402  1
