# generated using pymatgen
data_Tm3LuGa20(OsRu)3
_symmetry_space_group_name_H-M   'P 1'
_cell_length_a   8.89818218
_cell_length_b   8.89816634
_cell_length_c   6.36334000
_cell_angle_alpha   90.00000000
_cell_angle_beta   90.00000000
_cell_angle_gamma   90.02741747
_symmetry_Int_Tables_number   1
_chemical_formula_structural   Tm3LuGa20(OsRu)3
_chemical_formula_sum   'Tm3 Lu1 Ga20 Os3 Ru3'
_cell_volume   503.83332810
_cell_formula_units_Z   1
loop_
 _symmetry_equiv_pos_site_id
 _symmetry_equiv_pos_as_xyz
  1  'x, y, z'
loop_
 _atom_site_type_symbol
 _atom_site_label
 _atom_site_symmetry_multiplicity
 _atom_site_fract_x
 _atom_site_fract_y
 _atom_site_fract_z
 _atom_site_occupancy
  Tm  Tm0  1  0.683443  0.183432  0.000000  1
  Tm  Tm1  1  0.816601  0.683438  0.000000  1
  Tm  Tm2  1  0.316600  0.816593  0.000000  1
  Lu  Lu3  1  0.183451  0.316577  0.000000  1
  Ga  Ga4  1  0.499448  0.999447  0.282914  1
  Ga  Ga5  1  0.499448  0.999447  0.717086  1
  Ga  Ga6  1  0.292651  0.561416  0.707337  1
  Ga  Ga7  1  0.000212  0.500013  0.282656  1
  Ga  Ga8  1  0.000212  0.500013  0.717344  1
  Ga  Ga9  1  0.061483  0.792675  0.707212  1
  Ga  Ga10  1  0.207218  0.061464  0.292524  1
  Ga  Ga11  1  0.061483  0.792675  0.292788  1
  Ga  Ga12  1  0.707198  0.439152  0.707699  1
  Ga  Ga13  1  0.207218  0.061464  0.707476  1
  Ga  Ga14  1  0.939222  0.207217  0.707823  1
  Ga  Ga15  1  0.707198  0.439152  0.292301  1
  Ga  Ga16  1  0.561339  0.707214  0.292734  1
  Ga  Ga17  1  0.939222  0.207217  0.292177  1
  Ga  Ga18  1  0.561339  0.707214  0.707266  1
  Ga  Ga19  1  0.793109  0.938235  0.292427  1
  Ga  Ga20  1  0.438107  0.293105  0.707783  1
  Ga  Ga21  1  0.793109  0.938235  0.707573  1
  Ga  Ga22  1  0.438107  0.293105  0.292217  1
  Ga  Ga23  1  0.292651  0.561416  0.292663  1
  Os  Os24  1  0.999909  0.000387  0.000000  1
  Os  Os25  1  0.678175  0.178182  0.500000  1
  Os  Os26  1  0.499926  0.499652  0.000000  1
  Ru  Ru27  1  0.178041  0.321877  0.500000  1
  Ru  Ru28  1  0.321978  0.821971  0.500000  1
  Ru  Ru29  1  0.821903  0.678015  0.500000  1
