# generated using pymatgen
data_Ba3Pr(U2Se5)4
_symmetry_space_group_name_H-M   'P 1'
_cell_length_a   7.89043188
_cell_length_b   8.75936037
_cell_length_c   12.34685943
_cell_angle_alpha   89.54384613
_cell_angle_beta   90.05797765
_cell_angle_gamma   90.31254311
_symmetry_Int_Tables_number   1
_chemical_formula_structural   Ba3Pr(U2Se5)4
_chemical_formula_sum   'Ba3 Pr1 U8 Se20'
_cell_volume   853.31473302
_cell_formula_units_Z   1
loop_
 _symmetry_equiv_pos_site_id
 _symmetry_equiv_pos_as_xyz
  1  'x, y, z'
loop_
 _atom_site_type_symbol
 _atom_site_label
 _atom_site_symmetry_multiplicity
 _atom_site_fract_x
 _atom_site_fract_y
 _atom_site_fract_z
 _atom_site_occupancy
  Ba  Ba0  1  0.553706  0.506833  0.169695  1
  Ba  Ba1  1  0.948510  0.507165  0.668852  1
  Ba  Ba2  1  0.449576  0.492453  0.826778  1
  Pr  Pr3  1  0.047593  0.498990  0.331769  1
  U  U4  1  0.023548  0.001361  0.318451  1
  U  U5  1  0.512466  0.000014  0.182307  1
  U  U6  1  0.977680  0.001533  0.680881  1
  U  U7  1  0.475806  0.999010  0.817033  1
  U  U8  1  0.069941  0.753862  0.009365  1
  U  U9  1  0.573677  0.243297  0.488689  1
  U  U10  1  0.927898  0.242360  0.995437  1
  U  U11  1  0.432010  0.756371  0.506808  1
  Se  Se12  1  0.663346  0.955616  0.398564  1
  Se  Se13  1  0.162204  0.044158  0.098738  1
  Se  Se14  1  0.335048  0.045131  0.594146  1
  Se  Se15  1  0.836209  0.955009  0.902385  1
  Se  Se16  1  0.450454  0.788030  0.001996  1
  Se  Se17  1  0.957835  0.218136  0.493755  1
  Se  Se18  1  0.548245  0.208738  0.000065  1
  Se  Se19  1  0.048735  0.784745  0.496605  1
  Se  Se20  1  0.849249  0.770424  0.194017  1
  Se  Se21  1  0.331358  0.226341  0.312689  1
  Se  Se22  1  0.161076  0.219015  0.813677  1
  Se  Se23  1  0.660837  0.781630  0.687881  1
  Se  Se24  1  0.305507  0.762389  0.285983  1
  Se  Se25  1  0.817032  0.236905  0.220746  1
  Se  Se26  1  0.688319  0.225686  0.711580  1
  Se  Se27  1  0.189157  0.774201  0.783500  1
  Se  Se28  1  0.162415  0.463055  0.094237  1
  Se  Se29  1  0.694009  0.539699  0.427163  1
  Se  Se30  1  0.826880  0.537067  0.925716  1
  Se  Se31  1  0.319673  0.460775  0.560491  1
