# generated using pymatgen
data_La10Mg4IrRu5
_symmetry_space_group_name_H-M   'P 1'
_cell_length_a   8.78375804
_cell_length_b   8.72492605
_cell_length_c   8.78375924
_cell_angle_alpha   109.38028408
_cell_angle_beta   109.81692064
_cell_angle_gamma   109.48771352
_symmetry_Int_Tables_number   1
_chemical_formula_structural   La10Mg4IrRu5
_chemical_formula_sum   'La10 Mg4 Ir1 Ru5'
_cell_volume   516.45570645
_cell_formula_units_Z   1
loop_
 _symmetry_equiv_pos_site_id
 _symmetry_equiv_pos_as_xyz
  1  'x, y, z'
loop_
 _atom_site_type_symbol
 _atom_site_label
 _atom_site_symmetry_multiplicity
 _atom_site_fract_x
 _atom_site_fract_y
 _atom_site_fract_z
 _atom_site_occupancy
  La  La0  1  0.790051  0.000177  0.001003  1
  La  La1  1  0.250264  0.320548  0.069749  1
  La  La2  1  0.713232  0.708130  0.211016  1
  La  La3  1  0.178940  0.933039  0.250843  1
  La  La4  1  0.000825  0.499824  0.289872  1
  La  La5  1  0.749201  0.179452  0.429716  1
  La  La6  1  0.502887  0.791872  0.505104  1
  La  La7  1  0.929999  0.750000  0.679999  1
  La  La8  1  0.317803  0.566961  0.745901  1
  La  La9  1  0.568282  0.250000  0.818281  1
  Mg  Mg10  1  0.404801  0.000015  0.998776  1
  Mg  Mg11  1  0.501435  0.405980  0.500558  1
  Mg  Mg12  1  0.094578  0.094020  0.595455  1
  Mg  Mg13  1  0.998761  0.499985  0.904786  1
  Ir  Ir14  1  0.380656  0.750000  0.130656  1
  Ru  Ru15  1  0.632556  0.384716  0.250534  1
  Ru  Ru16  1  0.117758  0.250000  0.367758  1
  Ru  Ru17  1  0.251346  0.865321  0.616133  1
  Ru  Ru18  1  0.865816  0.115284  0.747840  1
  Ru  Ru19  1  0.750810  0.634679  0.886024  1
