# generated using pymatgen
data_Hf13Mn3(Ir2N)4
_symmetry_space_group_name_H-M   'P 1'
_cell_length_a   8.53452804
_cell_length_b   8.57491632
_cell_length_c   8.57491500
_cell_angle_alpha   59.99993950
_cell_angle_beta   59.84335618
_cell_angle_gamma   59.84336449
_symmetry_Int_Tables_number   1
_chemical_formula_structural   Hf13Mn3(Ir2N)4
_chemical_formula_sum   'Hf13 Mn3 Ir8 N4'
_cell_volume   442.68185569
_cell_formula_units_Z   1
loop_
 _symmetry_equiv_pos_site_id
 _symmetry_equiv_pos_as_xyz
  1  'x, y, z'
loop_
 _atom_site_type_symbol
 _atom_site_label
 _atom_site_symmetry_multiplicity
 _atom_site_fract_x
 _atom_site_fract_y
 _atom_site_fract_z
 _atom_site_occupancy
  Hf  Hf0  1  0.124997  0.624996  0.625002  1
  Hf  Hf1  1  0.810366  0.808934  0.190353  1
  Hf  Hf2  1  0.192627  0.183720  0.811831  1
  Hf  Hf3  1  0.810337  0.190358  0.808950  1
  Hf  Hf4  1  0.192633  0.811812  0.183720  1
  Hf  Hf5  1  0.192635  0.811811  0.811845  1
  Hf  Hf6  1  0.810346  0.190351  0.190357  1
  Hf  Hf7  1  0.439632  0.441064  0.059652  1
  Hf  Hf8  1  0.057373  0.066280  0.438166  1
  Hf  Hf9  1  0.439660  0.059644  0.441051  1
  Hf  Hf10  1  0.057379  0.438177  0.066279  1
  Hf  Hf11  1  0.057365  0.438184  0.438157  1
  Hf  Hf12  1  0.439646  0.059646  0.059649  1
  Mn  Mn13  1  0.624991  0.125035  0.624982  1
  Mn  Mn14  1  0.625026  0.625000  0.124993  1
  Mn  Mn15  1  0.624997  0.625003  0.624998  1
  Ir  Ir16  1  0.750519  0.416493  0.416499  1
  Ir  Ir17  1  0.422308  0.755097  0.411302  1
  Ir  Ir18  1  0.422321  0.411301  0.755085  1
  Ir  Ir19  1  0.422324  0.411292  0.411290  1
  Ir  Ir20  1  0.499480  0.833501  0.833514  1
  Ir  Ir21  1  0.827692  0.494888  0.838704  1
  Ir  Ir22  1  0.827674  0.838700  0.494912  1
  Ir  Ir23  1  0.827679  0.838712  0.838706  1
  N  N24  1  0.624992  0.125001  0.125002  1
  N  N25  1  0.125000  0.624997  0.125000  1
  N  N26  1  0.125000  0.125001  0.624997  1
  N  N27  1  0.125002  0.124998  0.125001  1
