# generated using pymatgen
data_La9DyC4I15
_symmetry_space_group_name_H-M   'P 1'
_cell_length_a   9.88965044
_cell_length_b   10.80864578
_cell_length_c   11.89233078
_cell_angle_alpha   93.69285340
_cell_angle_beta   114.27096822
_cell_angle_gamma   109.48464620
_symmetry_Int_Tables_number   1
_chemical_formula_structural   La9DyC4I15
_chemical_formula_sum   'La9 Dy1 C4 I15'
_cell_volume   1062.02993412
_cell_formula_units_Z   1
loop_
 _symmetry_equiv_pos_site_id
 _symmetry_equiv_pos_as_xyz
  1  'x, y, z'
loop_
 _atom_site_type_symbol
 _atom_site_label
 _atom_site_symmetry_multiplicity
 _atom_site_fract_x
 _atom_site_fract_y
 _atom_site_fract_z
 _atom_site_occupancy
  La  La0  1  0.343405  0.746239  0.165522  1
  La  La1  1  0.779433  0.884566  0.259526  1
  La  La2  1  0.529016  0.186778  0.103957  1
  La  La3  1  0.220855  0.114389  0.741731  1
  La  La4  1  0.402835  0.459455  0.656870  1
  La  La5  1  0.471908  0.812547  0.897953  1
  La  La6  1  0.705529  0.567184  0.044653  1
  La  La7  1  0.294562  0.432401  0.955907  1
  La  La8  1  0.656851  0.254197  0.832955  1
  Dy  Dy9  1  0.594219  0.544978  0.334135  1
  C  C10  1  0.482046  0.299925  0.937211  1
  C  C11  1  0.518522  0.698613  0.063675  1
  C  C12  1  0.452578  0.361421  0.833547  1
  C  C13  1  0.547213  0.636929  0.166985  1
  I  I14  1  0.205282  0.906408  0.937269  1
  I  I15  1  0.102201  0.186496  0.465637  1
  I  I16  1  0.148927  0.554377  0.703149  1
  I  I17  1  0.404298  0.966797  0.645428  1
  I  I18  1  0.716646  0.734539  0.822225  1
  I  I19  1  0.296323  0.275810  0.186953  1
  I  I20  1  0.841506  0.449704  0.302373  1
  I  I21  1  0.884353  0.799467  0.528151  1
  I  I22  1  0.368992  0.626540  0.412256  1
  I  I23  1  0.057492  0.833672  0.221703  1
  I  I24  1  0.795248  0.095130  0.063144  1
  I  I25  1  0.641500  0.373810  0.582411  1
  I  I26  1  0.943386  0.165730  0.779114  1
  I  I27  1  0.594953  0.032081  0.355005  1
  I  I28  1  0.999918  0.499818  0.000556  1
