# generated using pymatgen
data_Ga12MoIr2Ru
_symmetry_space_group_name_H-M   'P 1'
_cell_length_a   6.59463831
_cell_length_b   6.58320698
_cell_length_c   6.89297300
_cell_angle_alpha   90.00000000
_cell_angle_beta   90.00000000
_cell_angle_gamma   89.56706041
_symmetry_Int_Tables_number   1
_chemical_formula_structural   Ga12MoIr2Ru
_chemical_formula_sum   'Ga12 Mo1 Ir2 Ru1'
_cell_volume   299.24208371
_cell_formula_units_Z   1
loop_
 _symmetry_equiv_pos_site_id
 _symmetry_equiv_pos_as_xyz
  1  'x, y, z'
loop_
 _atom_site_type_symbol
 _atom_site_label
 _atom_site_symmetry_multiplicity
 _atom_site_fract_x
 _atom_site_fract_y
 _atom_site_fract_z
 _atom_site_occupancy
  Ga  Ga0  1  0.999584  0.501606  0.500000  1
  Ga  Ga1  1  0.502605  0.002111  0.000000  1
  Ga  Ga2  1  0.498219  0.999367  0.500000  1
  Ga  Ga3  1  0.002552  0.492160  0.000000  1
  Ga  Ga4  1  0.343077  0.651835  0.237132  1
  Ga  Ga5  1  0.649919  0.345325  0.232582  1
  Ga  Ga6  1  0.162832  0.154644  0.736693  1
  Ga  Ga7  1  0.847633  0.839454  0.733798  1
  Ga  Ga8  1  0.649919  0.345325  0.767418  1
  Ga  Ga9  1  0.343077  0.651835  0.762868  1
  Ga  Ga10  1  0.847633  0.839454  0.266202  1
  Ga  Ga11  1  0.162832  0.154644  0.263307  1
  Mo  Mo12  1  0.154002  0.846988  0.500000  1
  Ir  Ir13  1  0.830426  0.169684  0.500000  1
  Ir  Ir14  1  0.661809  0.661676  0.000000  1
  Ru  Ru15  1  0.343879  0.343892  0.000000  1
