# generated using pymatgen
data_SmTh3(Pd2Pt)4
_symmetry_space_group_name_H-M   'P 1'
_cell_length_a   5.96628632
_cell_length_b   5.95028772
_cell_length_c   9.76296245
_cell_angle_alpha   89.91211119
_cell_angle_beta   89.91312800
_cell_angle_gamma   120.23164988
_symmetry_Int_Tables_number   1
_chemical_formula_structural   SmTh3(Pd2Pt)4
_chemical_formula_sum   'Sm1 Th3 Pd8 Pt4'
_cell_volume   299.45652343
_cell_formula_units_Z   1
loop_
 _symmetry_equiv_pos_site_id
 _symmetry_equiv_pos_as_xyz
  1  'x, y, z'
loop_
 _atom_site_type_symbol
 _atom_site_label
 _atom_site_symmetry_multiplicity
 _atom_site_fract_x
 _atom_site_fract_y
 _atom_site_fract_z
 _atom_site_occupancy
  Sm  Sm0  1  0.999613  0.999307  0.499227  1
  Th  Th1  1  0.999602  0.999118  0.000777  1
  Th  Th2  1  0.335467  0.669814  0.254119  1
  Th  Th3  1  0.664950  0.331346  0.745753  1
  Pd  Pd4  1  0.500178  0.499799  0.500391  1
  Pd  Pd5  1  0.999611  0.499866  0.500431  1
  Pd  Pd6  1  0.999616  0.499374  0.999507  1
  Pd  Pd7  1  0.352082  0.176994  0.249728  1
  Pd  Pd8  1  0.826332  0.176566  0.250241  1
  Pd  Pd9  1  0.174453  0.350059  0.750795  1
  Pd  Pd10  1  0.648376  0.823184  0.750405  1
  Pd  Pd11  1  0.173222  0.823511  0.749808  1
  Pt  Pt12  1  0.499965  0.999754  0.501256  1
  Pt  Pt13  1  0.499758  0.499239  0.999377  1
  Pt  Pt14  1  0.500110  0.999902  0.998930  1
  Pt  Pt15  1  0.826665  0.652167  0.249256  1
