# generated using pymatgen
data_Eu4Cu(AuO4)3
_symmetry_space_group_name_H-M   'P 1'
_cell_length_a   3.77685100
_cell_length_b   12.74479389
_cell_length_c   5.49514400
_cell_angle_alpha   90.00000000
_cell_angle_beta   90.00000000
_cell_angle_gamma   90.82647239
_symmetry_Int_Tables_number   1
_chemical_formula_structural   Eu4Cu(AuO4)3
_chemical_formula_sum   'Eu4 Cu1 Au3 O12'
_cell_volume   264.48226907
_cell_formula_units_Z   1
loop_
 _symmetry_equiv_pos_site_id
 _symmetry_equiv_pos_as_xyz
  1  'x, y, z'
loop_
 _atom_site_type_symbol
 _atom_site_label
 _atom_site_symmetry_multiplicity
 _atom_site_fract_x
 _atom_site_fract_y
 _atom_site_fract_z
 _atom_site_occupancy
  Eu  Eu0  1  0.750437  0.085544  0.249999  1
  Eu  Eu1  1  0.247216  0.576056  0.249999  1
  Eu  Eu2  1  0.725672  0.413488  0.749999  1
  Eu  Eu3  1  0.259212  0.921057  0.749999  1
  Cu  Cu4  1  0.057258  0.329783  0.249999  1
  Au  Au5  1  0.945677  0.830193  0.249999  1
  Au  Au6  1  0.067337  0.177180  0.749999  1
  Au  Au7  1  0.941308  0.667989  0.749999  1
  O  O8  1  0.806022  0.255042  0.014199  1
  O  O9  1  0.218215  0.749372  0.999927  1
  O  O10  1  0.263639  0.081129  0.997646  1
  O  O11  1  0.733780  0.572220  0.998322  1
  O  O12  1  0.263639  0.081129  0.502354  1
  O  O13  1  0.733780  0.572220  0.501678  1
  O  O14  1  0.806022  0.255042  0.485801  1
  O  O15  1  0.218215  0.749372  0.500073  1
  O  O16  1  0.235112  0.415972  0.487330  1
  O  O17  1  0.746180  0.925623  0.498777  1
  O  O18  1  0.235112  0.415972  0.012669  1
  O  O19  1  0.746180  0.925623  0.001222  1
