# generated using pymatgen
data_NaPa3(Al3Ir)6
_symmetry_space_group_name_H-M   'P 1'
_cell_length_a   7.60405113
_cell_length_b   7.62247960
_cell_length_c   9.33052700
_cell_angle_alpha   90.00000000
_cell_angle_beta   90.00000000
_cell_angle_gamma   119.64474930
_symmetry_Int_Tables_number   1
_chemical_formula_structural   NaPa3(Al3Ir)6
_chemical_formula_sum   'Na1 Pa3 Al18 Ir6'
_cell_volume   470.02576277
_cell_formula_units_Z   1
loop_
 _symmetry_equiv_pos_site_id
 _symmetry_equiv_pos_as_xyz
  1  'x, y, z'
loop_
 _atom_site_type_symbol
 _atom_site_label
 _atom_site_symmetry_multiplicity
 _atom_site_fract_x
 _atom_site_fract_y
 _atom_site_fract_z
 _atom_site_occupancy
  Na  Na0  1  0.327975  0.007243  0.750000  1
  Pa  Pa1  1  0.997179  0.672798  0.250000  1
  Pa  Pa2  1  0.999835  0.328464  0.750000  1
  Pa  Pa3  1  0.670659  0.994367  0.250000  1
  Al  Al4  1  0.135872  0.131008  0.250000  1
  Al  Al5  1  0.872317  0.875962  0.750000  1
  Al  Al6  1  0.005755  0.335948  0.077750  1
  Al  Al7  1  0.005824  0.673186  0.917583  1
  Al  Al8  1  0.005824  0.673186  0.582417  1
  Al  Al9  1  0.335677  0.004114  0.433140  1
  Al  Al10  1  0.005755  0.335948  0.422250  1
  Al  Al11  1  0.655616  0.996347  0.582309  1
  Al  Al12  1  0.655616  0.996347  0.917691  1
  Al  Al13  1  0.335677  0.004114  0.066860  1
  Al  Al14  1  0.333559  0.328886  0.560010  1
  Al  Al15  1  0.663351  0.662809  0.451467  1
  Al  Al16  1  0.663351  0.662809  0.048533  1
  Al  Al17  1  0.333559  0.328886  0.939990  1
  Al  Al18  1  0.344260  0.546259  0.250000  1
  Al  Al19  1  0.660913  0.447830  0.750000  1
  Al  Al20  1  0.546170  0.339232  0.250000  1
  Al  Al21  1  0.445861  0.653075  0.750000  1
  Ir  Ir22  1  0.680264  0.331534  0.003422  1
  Ir  Ir23  1  0.326641  0.670282  0.004456  1
  Ir  Ir24  1  0.326641  0.670282  0.495544  1
  Ir  Ir25  1  0.680264  0.331534  0.496578  1
  Ir  Ir26  1  0.992793  0.998773  0.005018  1
  Ir  Ir27  1  0.992793  0.998773  0.494982  1
