# generated using pymatgen
data_NaDyCuPt3
_symmetry_space_group_name_H-M   'P 1'
_cell_length_a   5.20849199
_cell_length_b   5.20849040
_cell_length_c   5.20849044
_cell_angle_alpha   63.01893168
_cell_angle_beta   63.01893901
_cell_angle_gamma   63.01893098
_symmetry_Int_Tables_number   1
_chemical_formula_structural   NaDyCuPt3
_chemical_formula_sum   'Na1 Dy1 Cu1 Pt3'
_cell_volume   106.60806970
_cell_formula_units_Z   1
loop_
 _symmetry_equiv_pos_site_id
 _symmetry_equiv_pos_as_xyz
  1  'x, y, z'
loop_
 _atom_site_type_symbol
 _atom_site_label
 _atom_site_symmetry_multiplicity
 _atom_site_fract_x
 _atom_site_fract_y
 _atom_site_fract_z
 _atom_site_occupancy
  Na  Na0  1  0.250603  0.250603  0.250603  1
  Dy  Dy1  1  0.001381  0.001381  0.001381  1
  Cu  Cu2  1  0.624389  0.624389  0.624389  1
  Pt  Pt3  1  0.623966  0.623966  0.125695  1
  Pt  Pt4  1  0.623966  0.125695  0.623966  1
  Pt  Pt5  1  0.125695  0.623966  0.623966  1
