# generated using pymatgen
data_Dy2Al3GaCu6
_symmetry_space_group_name_H-M   'P 1'
_cell_length_a   4.14017500
_cell_length_b   5.19221503
_cell_length_c   8.86731213
_cell_angle_alpha   89.94482050
_cell_angle_beta   90.00000000
_cell_angle_gamma   90.00000000
_symmetry_Int_Tables_number   1
_chemical_formula_structural   Dy2Al3GaCu6
_chemical_formula_sum   'Dy2 Al3 Ga1 Cu6'
_cell_volume   190.61767297
_cell_formula_units_Z   1
loop_
 _symmetry_equiv_pos_site_id
 _symmetry_equiv_pos_as_xyz
  1  'x, y, z'
loop_
 _atom_site_type_symbol
 _atom_site_label
 _atom_site_symmetry_multiplicity
 _atom_site_fract_x
 _atom_site_fract_y
 _atom_site_fract_z
 _atom_site_occupancy
  Dy  Dy0  1  0.000000  0.001238  0.999079  1
  Dy  Dy1  1  0.000000  0.498748  0.500896  1
  Al  Al2  1  0.500000  0.525279  0.999571  1
  Al  Al3  1  0.500000  0.974678  0.500463  1
  Al  Al4  1  0.500000  0.250028  0.249993  1
  Ga  Ga5  1  0.500000  0.249935  0.749989  1
  Cu  Cu6  1  0.000000  0.998883  0.333509  1
  Cu  Cu7  1  0.000000  0.504541  0.835087  1
  Cu  Cu8  1  0.000000  0.501238  0.166532  1
  Cu  Cu9  1  0.000000  0.995332  0.664807  1
  Cu  Cu10  1  0.500000  0.749720  0.750077  1
  Cu  Cu11  1  0.500000  0.750181  0.249996  1
