# generated using pymatgen
data_Li2Fe3Co9P7
_symmetry_space_group_name_H-M   'P 1'
_cell_length_a   8.85845300
_cell_length_b   8.85845296
_cell_length_c   3.52269100
_cell_angle_alpha   90.00000000
_cell_angle_beta   90.00000000
_cell_angle_gamma   120.00000389
_symmetry_Int_Tables_number   1
_chemical_formula_structural   Li2Fe3Co9P7
_chemical_formula_sum   'Li2 Fe3 Co9 P7'
_cell_volume   239.39822888
_cell_formula_units_Z   1
loop_
 _symmetry_equiv_pos_site_id
 _symmetry_equiv_pos_as_xyz
  1  'x, y, z'
loop_
 _atom_site_type_symbol
 _atom_site_label
 _atom_site_symmetry_multiplicity
 _atom_site_fract_x
 _atom_site_fract_y
 _atom_site_fract_z
 _atom_site_occupancy
  Li  Li0  1  0.666667  0.333333  0.000000  1
  Li  Li1  1  0.000000  0.000000  0.500000  1
  Fe  Fe2  1  0.553249  0.759276  0.500000  1
  Fe  Fe3  1  0.206027  0.446751  0.500000  1
  Fe  Fe4  1  0.240724  0.793973  0.500000  1
  Co  Co5  1  0.450798  0.506316  0.000000  1
  Co  Co6  1  0.382081  0.278952  0.500000  1
  Co  Co7  1  0.493684  0.944482  0.000000  1
  Co  Co8  1  0.896871  0.617919  0.500000  1
  Co  Co9  1  0.721048  0.103129  0.500000  1
  Co  Co10  1  0.055518  0.549202  0.000000  1
  Co  Co11  1  0.957975  0.232208  0.000000  1
  Co  Co12  1  0.767792  0.725767  0.000000  1
  Co  Co13  1  0.274233  0.042025  0.000000  1
  P  P14  1  0.622302  0.545653  0.500000  1
  P  P15  1  0.454347  0.076649  0.500000  1
  P  P16  1  0.333333  0.666667  0.000000  1
  P  P17  1  0.923351  0.377698  0.500000  1
  P  P18  1  0.748195  0.959462  0.000000  1
  P  P19  1  0.211267  0.251805  0.000000  1
  P  P20  1  0.040538  0.788733  0.000000  1
