# generated using pymatgen
data_Nd3Sn5Pd6
_symmetry_space_group_name_H-M   'P 1'
_cell_length_a   4.53059500
_cell_length_b   9.68893800
_cell_length_c   14.05354400
_cell_angle_alpha   90.00000000
_cell_angle_beta   90.00000000
_cell_angle_gamma   90.00000000
_symmetry_Int_Tables_number   1
_chemical_formula_structural   Nd3Sn5Pd6
_chemical_formula_sum   'Nd6 Sn10 Pd12'
_cell_volume   616.90355926
_cell_formula_units_Z   2
loop_
 _symmetry_equiv_pos_site_id
 _symmetry_equiv_pos_as_xyz
  1  'x, y, z'
loop_
 _atom_site_type_symbol
 _atom_site_label
 _atom_site_symmetry_multiplicity
 _atom_site_fract_x
 _atom_site_fract_y
 _atom_site_fract_z
 _atom_site_occupancy
  Nd  Nd0  1  0.000000  0.227063  0.000000  1
  Nd  Nd1  1  0.500000  0.772937  0.500000  1
  Nd  Nd2  1  0.000000  0.244464  0.323145  1
  Nd  Nd3  1  0.500000  0.755536  0.176855  1
  Nd  Nd4  1  0.000000  0.244464  0.676855  1
  Nd  Nd5  1  0.500000  0.755536  0.823145  1
  Sn  Sn6  1  0.000000  0.520881  0.118386  1
  Sn  Sn7  1  0.500000  0.479119  0.381614  1
  Sn  Sn8  1  0.000000  0.520881  0.881614  1
  Sn  Sn9  1  0.500000  0.479119  0.618386  1
  Sn  Sn10  1  0.000000  0.869308  0.327332  1
  Sn  Sn11  1  0.500000  0.130692  0.172668  1
  Sn  Sn12  1  0.000000  0.869308  0.672668  1
  Sn  Sn13  1  0.500000  0.130692  0.827332  1
  Sn  Sn14  1  0.000000  0.804344  0.000000  1
  Sn  Sn15  1  0.500000  0.195656  0.500000  1
  Pd  Pd16  1  0.000000  0.991069  0.145498  1
  Pd  Pd17  1  0.500000  0.008931  0.354502  1
  Pd  Pd18  1  0.000000  0.991069  0.854502  1
  Pd  Pd19  1  0.500000  0.008931  0.645498  1
  Pd  Pd20  1  0.500000  0.984967  0.000000  1
  Pd  Pd21  1  0.000000  0.015033  0.500000  1
  Pd  Pd22  1  0.000000  0.591989  0.306598  1
  Pd  Pd23  1  0.500000  0.408011  0.193402  1
  Pd  Pd24  1  0.000000  0.591989  0.693402  1
  Pd  Pd25  1  0.500000  0.408011  0.806598  1
  Pd  Pd26  1  0.500000  0.502135  0.000000  1
  Pd  Pd27  1  0.000000  0.497865  0.500000  1
