# generated using pymatgen
data_Ho9Tm(RuRh)2
_symmetry_space_group_name_H-M   'P 1'
_cell_length_a   6.36022461
_cell_length_b   7.20858771
_cell_length_c   8.48976753
_cell_angle_alpha   96.53703138
_cell_angle_beta   111.99846445
_cell_angle_gamma   89.99999481
_symmetry_Int_Tables_number   1
_chemical_formula_structural   Ho9Tm(RuRh)2
_chemical_formula_sum   'Ho9 Tm1 Ru2 Rh2'
_cell_volume   358.17093209
_cell_formula_units_Z   1
loop_
 _symmetry_equiv_pos_site_id
 _symmetry_equiv_pos_as_xyz
  1  'x, y, z'
loop_
 _atom_site_type_symbol
 _atom_site_label
 _atom_site_symmetry_multiplicity
 _atom_site_fract_x
 _atom_site_fract_y
 _atom_site_fract_z
 _atom_site_occupancy
  Ho  Ho0  1  0.792312  0.081859  0.812694  1
  Ho  Ho1  1  0.979617  0.418141  0.187306  1
  Ho  Ho2  1  0.208599  0.914423  0.183916  1
  Ho  Ho3  1  0.024682  0.585577  0.816084  1
  Ho  Ho4  1  0.209949  0.183131  0.564755  1
  Ho  Ho5  1  0.645194  0.316869  0.435245  1
  Ho  Ho6  1  0.789797  0.813089  0.437570  1
  Ho  Ho7  1  0.352226  0.686911  0.562430  1
  Ho  Ho8  1  0.422641  0.250000  0.000000  1
  Tm  Tm9  1  0.574968  0.750000  0.000000  1
  Ru  Ru10  1  0.396605  0.573600  0.219930  1
  Ru  Ru11  1  0.176677  0.926400  0.780070  1
  Rh  Rh12  1  0.602935  0.425940  0.779139  1
  Rh  Rh13  1  0.823795  0.074060  0.220861  1
