# generated using pymatgen
data_La2Nd3Ho3(CdPt)2
_symmetry_space_group_name_H-M   'P 1'
_cell_length_a   9.93826617
_cell_length_b   9.93827922
_cell_length_c   9.93041100
_cell_angle_alpha   60.02651411
_cell_angle_beta   60.02748660
_cell_angle_gamma   60.04404474
_symmetry_Int_Tables_number   1
_chemical_formula_structural   La2Nd3Ho3(CdPt)2
_chemical_formula_sum   'La4 Nd6 Ho6 Cd4 Pt4'
_cell_volume   694.05779438
_cell_formula_units_Z   2
loop_
 _symmetry_equiv_pos_site_id
 _symmetry_equiv_pos_as_xyz
  1  'x, y, z'
loop_
 _atom_site_type_symbol
 _atom_site_label
 _atom_site_symmetry_multiplicity
 _atom_site_fract_x
 _atom_site_fract_y
 _atom_site_fract_z
 _atom_site_occupancy
  La  La0  1  0.352467  0.352463  0.351962  1
  La  La1  1  0.352454  0.352484  0.943036  1
  La  La2  1  0.353321  0.940988  0.352813  1
  La  La3  1  0.941028  0.353300  0.352832  1
  Nd  Nd4  1  0.937137  0.563284  0.565005  1
  Nd  Nd5  1  0.563308  0.937113  0.934572  1
  Nd  Nd6  1  0.563308  0.937125  0.565016  1
  Nd  Nd7  1  0.937132  0.563299  0.934569  1
  Nd  Nd8  1  0.564642  0.564648  0.935353  1
  Nd  Nd9  1  0.936308  0.936315  0.563688  1
  Ho  Ho10  1  0.815319  0.184573  0.185455  1
  Ho  Ho11  1  0.184593  0.815339  0.814636  1
  Ho  Ho12  1  0.184582  0.815350  0.185445  1
  Ho  Ho13  1  0.815309  0.184574  0.814669  1
  Ho  Ho14  1  0.185256  0.185202  0.814779  1
  Ho  Ho15  1  0.815178  0.815228  0.184779  1
  Cd  Cd16  1  0.580604  0.580611  0.580789  1
  Cd  Cd17  1  0.580602  0.580605  0.258028  1
  Cd  Cd18  1  0.580964  0.256749  0.581153  1
  Cd  Cd19  1  0.256751  0.580962  0.581151  1
  Pt  Pt20  1  0.140142  0.140153  0.140333  1
  Pt  Pt21  1  0.140151  0.140163  0.579374  1
  Pt  Pt22  1  0.140120  0.579341  0.140280  1
  Pt  Pt23  1  0.579324  0.140133  0.140286  1
