# generated using pymatgen
data_Y2Er3P12Pd2Ru17
_symmetry_space_group_name_H-M   'P 1'
_cell_length_a   12.65135600
_cell_length_b   12.53761392
_cell_length_c   3.96986900
_cell_angle_alpha   90.00000000
_cell_angle_beta   90.00000000
_cell_angle_gamma   120.30093357
_symmetry_Int_Tables_number   1
_chemical_formula_structural   Y2Er3P12Pd2Ru17
_chemical_formula_sum   'Y2 Er3 P12 Pd2 Ru17'
_cell_volume   543.66805533
_cell_formula_units_Z   1
loop_
 _symmetry_equiv_pos_site_id
 _symmetry_equiv_pos_as_xyz
  1  'x, y, z'
loop_
 _atom_site_type_symbol
 _atom_site_label
 _atom_site_symmetry_multiplicity
 _atom_site_fract_x
 _atom_site_fract_y
 _atom_site_fract_z
 _atom_site_occupancy
  Y  Y0  1  0.818443  0.817611  0.500000  1
  Y  Y1  1  0.183382  0.000028  0.500000  1
  Er  Er2  1  0.000744  0.182055  0.500000  1
  Er  Er3  1  0.663960  0.327367  0.000000  1
  Er  Er4  1  0.336567  0.672517  0.000000  1
  P  P5  1  0.998110  0.812156  0.000000  1
  P  P6  1  0.185739  0.188180  0.000000  1
  P  P7  1  0.818328  0.000544  0.000000  1
  P  P8  1  0.692586  0.170059  0.500000  1
  P  P9  1  0.817723  0.516174  0.500000  1
  P  P10  1  0.477532  0.299986  0.500000  1
  P  P11  1  0.177671  0.699896  0.500000  1
  P  P12  1  0.522686  0.830084  0.500000  1
  P  P13  1  0.301422  0.483678  0.500000  1
  P  P14  1  0.000576  0.365860  0.000000  1
  P  P15  1  0.634165  0.633637  0.000000  1
  P  P16  1  0.374138  0.999993  0.000000  1
  Pd  Pd17  1  0.999044  0.551964  0.000000  1
  Pd  Pd18  1  0.446841  0.447815  0.000000  1
  Ru  Ru19  1  0.555595  0.000061  0.000000  1
  Ru  Ru20  1  0.997850  0.711548  0.500000  1
  Ru  Ru21  1  0.285732  0.288258  0.500000  1
  Ru  Ru22  1  0.718825  0.000390  0.500000  1
  Ru  Ru23  1  0.809213  0.185165  0.000000  1
  Ru  Ru24  1  0.812260  0.617552  0.000000  1
  Ru  Ru25  1  0.376590  0.192044  0.000000  1
  Ru  Ru26  1  0.184664  0.807972  0.000000  1
  Ru  Ru27  1  0.623415  0.815082  0.000000  1
  Ru  Ru28  1  0.193948  0.381750  0.000000  1
  Ru  Ru29  1  0.870815  0.364881  0.500000  1
  Ru  Ru30  1  0.629654  0.506508  0.500000  1
  Ru  Ru31  1  0.492463  0.124486  0.500000  1
  Ru  Ru32  1  0.368031  0.875498  0.500000  1
  Ru  Ru33  1  0.505765  0.634959  0.500000  1
  Ru  Ru34  1  0.123088  0.493191  0.500000  1
  Ru  Ru35  1  0.002436  0.001052  0.000000  1
