# generated using pymatgen
data_Nd2Cu7Pd3
_symmetry_space_group_name_H-M   'P 1'
_cell_length_a   4.11948600
_cell_length_b   5.13994893
_cell_length_c   9.34568710
_cell_angle_alpha   88.21011870
_cell_angle_beta   90.00000000
_cell_angle_gamma   90.00000000
_symmetry_Int_Tables_number   1
_chemical_formula_structural   Nd2Cu7Pd3
_chemical_formula_sum   'Nd2 Cu7 Pd3'
_cell_volume   197.78853984
_cell_formula_units_Z   1
loop_
 _symmetry_equiv_pos_site_id
 _symmetry_equiv_pos_as_xyz
  1  'x, y, z'
loop_
 _atom_site_type_symbol
 _atom_site_label
 _atom_site_symmetry_multiplicity
 _atom_site_fract_x
 _atom_site_fract_y
 _atom_site_fract_z
 _atom_site_occupancy
  Nd  Nd0  1  0.000000  0.237242  0.754120  1
  Nd  Nd1  1  0.000000  0.762758  0.245880  1
  Cu  Cu2  1  0.000000  0.272038  0.079335  1
  Cu  Cu3  1  0.000000  0.747745  0.568859  1
  Cu  Cu4  1  0.000000  0.727962  0.920665  1
  Cu  Cu5  1  0.000000  0.252255  0.431141  1
  Cu  Cu6  1  0.500000  0.500000  0.500000  1
  Cu  Cu7  1  0.500000  0.500000  0.000000  1
  Cu  Cu8  1  0.500000  0.000000  0.500000  1
  Pd  Pd9  1  0.500000  0.733878  0.744670  1
  Pd  Pd10  1  0.500000  0.266122  0.255330  1
  Pd  Pd11  1  0.500000  0.000000  0.000000  1
