# generated using pymatgen
data_BeFe5(SiW2)2
_symmetry_space_group_name_H-M   'P 1'
_cell_length_a   4.70967545
_cell_length_b   4.70967414
_cell_length_c   7.65856500
_cell_angle_alpha   90.00000000
_cell_angle_beta   90.00000000
_cell_angle_gamma   120.07543739
_symmetry_Int_Tables_number   1
_chemical_formula_structural   BeFe5(SiW2)2
_chemical_formula_sum   'Be1 Fe5 Si2 W4'
_cell_volume   147.00402992
_cell_formula_units_Z   1
loop_
 _symmetry_equiv_pos_site_id
 _symmetry_equiv_pos_as_xyz
  1  'x, y, z'
loop_
 _atom_site_type_symbol
 _atom_site_label
 _atom_site_symmetry_multiplicity
 _atom_site_fract_x
 _atom_site_fract_y
 _atom_site_fract_z
 _atom_site_occupancy
  Be  Be0  1  0.827778  0.172222  0.250000  1
  Fe  Fe1  1  0.830445  0.658637  0.250000  1
  Fe  Fe2  1  0.341363  0.169555  0.250000  1
  Fe  Fe3  1  0.169271  0.830729  0.750000  1
  Fe  Fe4  1  0.171267  0.342000  0.750000  1
  Fe  Fe5  1  0.658000  0.828733  0.750000  1
  Si  Si6  1  0.998182  0.001818  0.494746  1
  Si  Si7  1  0.998182  0.001818  0.005254  1
  W  W8  1  0.333186  0.666814  0.432405  1
  W  W9  1  0.669570  0.330430  0.561444  1
  W  W10  1  0.669570  0.330430  0.938556  1
  W  W11  1  0.333186  0.666814  0.067595  1
