# generated using pymatgen
data_Gd2Dy10InCo5
_symmetry_space_group_name_H-M   'P 1'
_cell_length_a   8.28783520
_cell_length_b   8.28783652
_cell_length_c   8.28783600
_cell_angle_alpha   107.05139962
_cell_angle_beta   110.68485612
_cell_angle_gamma   110.70416744
_symmetry_Int_Tables_number   1
_chemical_formula_structural   Gd2Dy10InCo5
_chemical_formula_sum   'Gd2 Dy10 In1 Co5'
_cell_volume   437.64628586
_cell_formula_units_Z   1
loop_
 _symmetry_equiv_pos_site_id
 _symmetry_equiv_pos_as_xyz
  1  'x, y, z'
loop_
 _atom_site_type_symbol
 _atom_site_label
 _atom_site_symmetry_multiplicity
 _atom_site_fract_x
 _atom_site_fract_y
 _atom_site_fract_z
 _atom_site_occupancy
  Gd  Gd0  1  0.481129  0.293943  0.187186  1
  Gd  Gd1  1  0.106758  0.293943  0.812814  1
  Dy  Dy2  1  0.893519  0.707257  0.186262  1
  Dy  Dy3  1  0.520996  0.707257  0.813738  1
  Dy  Dy4  1  0.305194  0.620391  0.315197  1
  Dy  Dy5  1  0.305194  0.989999  0.684803  1
  Dy  Dy6  1  0.694490  0.380717  0.686227  1
  Dy  Dy7  1  0.694490  0.008262  0.313773  1
  Dy  Dy8  1  0.191174  0.207484  0.399160  1
  Dy  Dy9  1  0.808325  0.792014  0.600840  1
  Dy  Dy10  1  0.191174  0.792014  0.983689  1
  Dy  Dy11  1  0.808325  0.207484  0.016311  1
  In  In12  1  0.000292  0.500292  0.500000  1
  Co  Co13  1  0.500581  0.613617  0.113036  1
  Co  Co14  1  0.500581  0.387544  0.886964  1
  Co  Co15  1  0.378770  0.999809  0.378962  1
  Co  Co16  1  0.620848  0.999809  0.621038  1
  Co  Co17  1  0.998160  0.998160  0.000000  1
