# generated using pymatgen
data_Sm2Ta3Si4
_symmetry_space_group_name_H-M   'P 1'
_cell_length_a   6.92626400
_cell_length_b   7.13117400
_cell_length_c   13.48719300
_cell_angle_alpha   90.00000000
_cell_angle_beta   90.00000000
_cell_angle_gamma   90.00000000
_symmetry_Int_Tables_number   1
_chemical_formula_structural   Sm2Ta3Si4
_chemical_formula_sum   'Sm8 Ta12 Si16'
_cell_volume   666.16474729
_cell_formula_units_Z   4
loop_
 _symmetry_equiv_pos_site_id
 _symmetry_equiv_pos_as_xyz
  1  'x, y, z'
loop_
 _atom_site_type_symbol
 _atom_site_label
 _atom_site_symmetry_multiplicity
 _atom_site_fract_x
 _atom_site_fract_y
 _atom_site_fract_z
 _atom_site_occupancy
  Sm  Sm0  1  0.006250  0.169740  0.095651  1
  Sm  Sm1  1  0.993750  0.830260  0.904349  1
  Sm  Sm2  1  0.493750  0.669740  0.904349  1
  Sm  Sm3  1  0.993750  0.830260  0.595651  1
  Sm  Sm4  1  0.506250  0.330260  0.095651  1
  Sm  Sm5  1  0.006250  0.169740  0.404349  1
  Sm  Sm6  1  0.506250  0.330260  0.404349  1
  Sm  Sm7  1  0.493750  0.669740  0.595651  1
  Ta  Ta8  1  0.159311  0.488075  0.750000  1
  Ta  Ta9  1  0.840689  0.511925  0.250000  1
  Ta  Ta10  1  0.340689  0.988075  0.250000  1
  Ta  Ta11  1  0.659311  0.011925  0.750000  1
  Ta  Ta12  1  0.334656  0.175302  0.625636  1
  Ta  Ta13  1  0.665344  0.824698  0.374364  1
  Ta  Ta14  1  0.165344  0.675302  0.374364  1
  Ta  Ta15  1  0.665344  0.824698  0.125636  1
  Ta  Ta16  1  0.834656  0.324698  0.625636  1
  Ta  Ta17  1  0.334656  0.175302  0.874364  1
  Ta  Ta18  1  0.834656  0.324698  0.874364  1
  Ta  Ta19  1  0.165344  0.675302  0.125636  1
  Si  Si20  1  0.038384  0.126934  0.750000  1
  Si  Si21  1  0.961616  0.873066  0.250000  1
  Si  Si22  1  0.461616  0.626934  0.250000  1
  Si  Si23  1  0.538384  0.373066  0.750000  1
  Si  Si24  1  0.293212  0.879106  0.750000  1
  Si  Si25  1  0.706788  0.120894  0.250000  1
  Si  Si26  1  0.206788  0.379106  0.250000  1
  Si  Si27  1  0.793212  0.620894  0.750000  1
  Si  Si28  1  0.159797  0.461732  0.541972  1
  Si  Si29  1  0.840203  0.538268  0.458028  1
  Si  Si30  1  0.340203  0.961732  0.458028  1
  Si  Si31  1  0.840203  0.538268  0.041972  1
  Si  Si32  1  0.659797  0.038268  0.541972  1
  Si  Si33  1  0.159797  0.461732  0.958028  1
  Si  Si34  1  0.659797  0.038268  0.958028  1
  Si  Si35  1  0.340203  0.961732  0.041972  1
