# generated using pymatgen
data_CeDy(Be12Ni)2
_symmetry_space_group_name_H-M   'P 1'
_cell_length_a   7.28917170
_cell_length_b   7.34180108
_cell_length_c   7.26103518
_cell_angle_alpha   59.88719636
_cell_angle_beta   59.85106351
_cell_angle_gamma   59.50958326
_symmetry_Int_Tables_number   1
_chemical_formula_structural   CeDy(Be12Ni)2
_chemical_formula_sum   'Ce1 Dy1 Be24 Ni2'
_cell_volume   273.19524995
_cell_formula_units_Z   1
loop_
 _symmetry_equiv_pos_site_id
 _symmetry_equiv_pos_as_xyz
  1  'x, y, z'
loop_
 _atom_site_type_symbol
 _atom_site_label
 _atom_site_symmetry_multiplicity
 _atom_site_fract_x
 _atom_site_fract_y
 _atom_site_fract_z
 _atom_site_occupancy
  Ce  Ce0  1  0.998012  0.001975  0.998026  1
  Dy  Dy1  1  0.500654  0.499357  0.500654  1
  Be  Be2  1  0.317068  0.539388  0.183042  1
  Be  Be3  1  0.183117  0.960437  0.317098  1
  Be  Be4  1  0.042414  0.685677  0.457457  1
  Be  Be5  1  0.457456  0.814451  0.042397  1
  Be  Be6  1  0.683409  0.035493  0.815638  1
  Be  Be7  1  0.815628  0.465413  0.683373  1
  Be  Be8  1  0.956247  0.545330  0.311565  1
  Be  Be9  1  0.543092  0.952508  0.190393  1
  Be  Be10  1  0.190397  0.314013  0.543089  1
  Be  Be11  1  0.311561  0.186844  0.956305  1
  Be  Be12  1  0.461240  0.034671  0.686582  1
  Be  Be13  1  0.038884  0.464718  0.813634  1
  Be  Be14  1  0.813641  0.682759  0.038841  1
  Be  Be15  1  0.686588  0.817538  0.461197  1
  Be  Be16  1  0.312233  0.957195  0.543180  1
  Be  Be17  1  0.187948  0.542733  0.955854  1
  Be  Be18  1  0.543214  0.187449  0.312191  1
  Be  Be19  1  0.955814  0.313395  0.188012  1
  Be  Be20  1  0.687078  0.461729  0.039160  1
  Be  Be21  1  0.813822  0.038620  0.461147  1
  Be  Be22  1  0.039191  0.812012  0.687072  1
  Be  Be23  1  0.461135  0.686505  0.813759  1
  Be  Be24  1  0.250058  0.249912  0.250141  1
  Be  Be25  1  0.749449  0.750555  0.749417  1
  Ni  Ni26  1  0.549170  0.308261  0.951589  1
  Ni  Ni27  1  0.951480  0.191061  0.549190  1
