# generated using pymatgen
data_LiGdCr4O14
_symmetry_space_group_name_H-M   'P 1'
_cell_length_a   7.33089925
_cell_length_b   7.33089880
_cell_length_c   7.33089913
_cell_angle_alpha   109.16583432
_cell_angle_beta   109.16583676
_cell_angle_gamma   110.08374434
_symmetry_Int_Tables_number   1
_chemical_formula_structural   LiGdCr4O14
_chemical_formula_sum   'Li1 Gd1 Cr4 O14'
_cell_volume   303.25815734
_cell_formula_units_Z   1
loop_
 _symmetry_equiv_pos_site_id
 _symmetry_equiv_pos_as_xyz
  1  'x, y, z'
loop_
 _atom_site_type_symbol
 _atom_site_label
 _atom_site_symmetry_multiplicity
 _atom_site_fract_x
 _atom_site_fract_y
 _atom_site_fract_z
 _atom_site_occupancy
  Li  Li0  1  0.494616  0.494616  0.000000  1
  Gd  Gd1  1  0.015080  0.015080  0.000000  1
  Cr  Cr2  1  0.820822  0.373784  0.785975  1
  Cr  Cr3  1  0.034847  0.820822  0.447038  1
  Cr  Cr4  1  0.373784  0.587809  0.552962  1
  Cr  Cr5  1  0.587809  0.034847  0.214025  1
  O  O6  1  0.228334  0.728334  0.500000  1
  O  O7  1  0.728334  0.228334  0.500000  1
  O  O8  1  0.962222  0.644595  0.878717  1
  O  O9  1  0.083503  0.962222  0.317626  1
  O  O10  1  0.644595  0.765877  0.682374  1
  O  O11  1  0.765877  0.083503  0.121283  1
  O  O12  1  0.490469  0.781735  0.172581  1
  O  O13  1  0.317887  0.490469  0.708735  1
  O  O14  1  0.781735  0.609153  0.291265  1
  O  O15  1  0.609153  0.317887  0.827419  1
  O  O16  1  0.380214  0.067835  0.086233  1
  O  O17  1  0.293981  0.380214  0.312380  1
  O  O18  1  0.067835  0.981600  0.687620  1
  O  O19  1  0.981600  0.293981  0.913767  1
