# generated using pymatgen
data_Nd4Y6Si7Rh
_symmetry_space_group_name_H-M   'P 1'
_cell_length_a   7.77382841
_cell_length_b   7.82999638
_cell_length_c   14.34140500
_cell_angle_alpha   90.00000000
_cell_angle_beta   90.00000000
_cell_angle_gamma   90.03662642
_symmetry_Int_Tables_number   1
_chemical_formula_structural   Nd4Y6Si7Rh
_chemical_formula_sum   'Nd8 Y12 Si14 Rh2'
_cell_volume   872.94749622
_cell_formula_units_Z   2
loop_
 _symmetry_equiv_pos_site_id
 _symmetry_equiv_pos_as_xyz
  1  'x, y, z'
loop_
 _atom_site_type_symbol
 _atom_site_label
 _atom_site_symmetry_multiplicity
 _atom_site_fract_x
 _atom_site_fract_y
 _atom_site_fract_z
 _atom_site_occupancy
  Nd  Nd0  1  0.634033  0.990684  0.459993  1
  Nd  Nd1  1  0.365967  0.009316  0.959993  1
  Nd  Nd2  1  0.986200  0.635753  0.539796  1
  Nd  Nd3  1  0.489869  0.857579  0.208069  1
  Nd  Nd4  1  0.510131  0.142421  0.708069  1
  Nd  Nd5  1  0.860838  0.497053  0.792109  1
  Nd  Nd6  1  0.139162  0.502947  0.292109  1
  Nd  Nd7  1  0.013800  0.364247  0.039796  1
  Y  Y8  1  0.491562  0.359242  0.121263  1
  Y  Y9  1  0.992008  0.137210  0.626753  1
  Y  Y10  1  0.863557  0.017250  0.878599  1
  Y  Y11  1  0.136443  0.982750  0.378599  1
  Y  Y12  1  0.508438  0.640758  0.621263  1
  Y  Y13  1  0.364774  0.495878  0.876076  1
  Y  Y14  1  0.635226  0.504122  0.376076  1
  Y  Y15  1  0.007992  0.862790  0.126753  1
  Y  Y16  1  0.312875  0.308442  0.502600  1
  Y  Y17  1  0.188182  0.825664  0.743431  1
  Y  Y18  1  0.811818  0.174336  0.243431  1
  Y  Y19  1  0.687125  0.691558  0.002600  1
  Si  Si20  1  0.931523  0.287327  0.437039  1
  Si  Si21  1  0.430546  0.207586  0.311182  1
  Si  Si22  1  0.569454  0.792414  0.811182  1
  Si  Si23  1  0.209362  0.437741  0.689929  1
  Si  Si24  1  0.790638  0.562259  0.189929  1
  Si  Si25  1  0.068477  0.712673  0.937039  1
  Si  Si26  1  0.795121  0.848973  0.690756  1
  Si  Si27  1  0.204879  0.151027  0.190756  1
  Si  Si28  1  0.844628  0.788150  0.311450  1
  Si  Si29  1  0.341211  0.693774  0.440050  1
  Si  Si30  1  0.658789  0.306226  0.940050  1
  Si  Si31  1  0.704549  0.344980  0.559323  1
  Si  Si32  1  0.295451  0.655020  0.059323  1
  Si  Si33  1  0.155372  0.211850  0.811450  1
  Rh  Rh34  1  0.288896  0.931956  0.561584  1
  Rh  Rh35  1  0.711104  0.068044  0.061584  1
