# generated using pymatgen
data_Pr4SiI6
_symmetry_space_group_name_H-M   'P 1'
_cell_length_a   4.38583900
_cell_length_b   14.57358600
_cell_length_c   15.36088600
_cell_angle_alpha   90.00000000
_cell_angle_beta   90.00000000
_cell_angle_gamma   90.00000000
_symmetry_Int_Tables_number   1
_chemical_formula_structural   Pr4SiI6
_chemical_formula_sum   'Pr8 Si2 I12'
_cell_volume   981.82792321
_cell_formula_units_Z   2
loop_
 _symmetry_equiv_pos_site_id
 _symmetry_equiv_pos_as_xyz
  1  'x, y, z'
loop_
 _atom_site_type_symbol
 _atom_site_label
 _atom_site_symmetry_multiplicity
 _atom_site_fract_x
 _atom_site_fract_y
 _atom_site_fract_z
 _atom_site_occupancy
  Pr  Pr0  1  0.500000  0.114982  0.345929  1
  Pr  Pr1  1  0.500000  0.885018  0.654071  1
  Pr  Pr2  1  0.500000  0.614982  0.154071  1
  Pr  Pr3  1  0.500000  0.385018  0.845929  1
  Pr  Pr4  1  0.000000  0.113567  0.575789  1
  Pr  Pr5  1  0.000000  0.886433  0.424211  1
  Pr  Pr6  1  0.000000  0.613567  0.924211  1
  Pr  Pr7  1  0.000000  0.386433  0.075789  1
  Si  Si8  1  0.500000  0.000000  0.500000  1
  Si  Si9  1  0.500000  0.500000  0.000000  1
  I  I10  1  0.500000  0.243891  0.161508  1
  I  I11  1  0.500000  0.756109  0.838492  1
  I  I12  1  0.500000  0.743891  0.338492  1
  I  I13  1  0.500000  0.256109  0.661508  1
  I  I14  1  0.000000  0.258484  0.413366  1
  I  I15  1  0.000000  0.741516  0.586634  1
  I  I16  1  0.000000  0.758484  0.086634  1
  I  I17  1  0.000000  0.241516  0.913366  1
  I  I18  1  0.000000  0.998958  0.240521  1
  I  I19  1  0.000000  0.001042  0.759479  1
  I  I20  1  0.000000  0.498958  0.259479  1
  I  I21  1  0.000000  0.501042  0.740521  1
