# generated using pymatgen
data_Dy7Sn22BiRh6
_symmetry_space_group_name_H-M   'P 1'
_cell_length_a   9.85120400
_cell_length_b   9.85120493
_cell_length_c   10.19283100
_cell_angle_alpha   90.00000000
_cell_angle_beta   90.00000000
_cell_angle_gamma   119.99999686
_symmetry_Int_Tables_number   1
_chemical_formula_structural   Dy7Sn22BiRh6
_chemical_formula_sum   'Dy7 Sn22 Bi1 Rh6'
_cell_volume   856.65141248
_cell_formula_units_Z   1
loop_
 _symmetry_equiv_pos_site_id
 _symmetry_equiv_pos_as_xyz
  1  'x, y, z'
loop_
 _atom_site_type_symbol
 _atom_site_label
 _atom_site_symmetry_multiplicity
 _atom_site_fract_x
 _atom_site_fract_y
 _atom_site_fract_z
 _atom_site_occupancy
  Dy  Dy0  1  0.000000  0.000000  0.000000  1
  Dy  Dy1  1  0.478700  0.521300  0.307721  1
  Dy  Dy2  1  0.521300  0.478700  0.692279  1
  Dy  Dy3  1  0.478700  0.957400  0.307721  1
  Dy  Dy4  1  0.521300  0.042600  0.692279  1
  Dy  Dy5  1  0.042600  0.521300  0.307721  1
  Dy  Dy6  1  0.957400  0.478700  0.692279  1
  Sn  Sn7  1  0.349751  0.000000  0.000000  1
  Sn  Sn8  1  0.650249  0.000000  0.000000  1
  Sn  Sn9  1  0.000000  0.349751  0.000000  1
  Sn  Sn10  1  0.000000  0.650249  0.000000  1
  Sn  Sn11  1  0.650249  0.650249  0.000000  1
  Sn  Sn12  1  0.349751  0.349751  0.000000  1
  Sn  Sn13  1  0.333333  0.666667  0.820366  1
  Sn  Sn14  1  0.666667  0.333333  0.179634  1
  Sn  Sn15  1  0.777489  0.222511  0.455356  1
  Sn  Sn16  1  0.222511  0.777489  0.544644  1
  Sn  Sn17  1  0.777489  0.554977  0.455356  1
  Sn  Sn18  1  0.222511  0.445023  0.544644  1
  Sn  Sn19  1  0.445023  0.222511  0.455356  1
  Sn  Sn20  1  0.554977  0.777489  0.544644  1
  Sn  Sn21  1  0.333333  0.666667  0.120255  1
  Sn  Sn22  1  0.666667  0.333333  0.879745  1
  Sn  Sn23  1  0.121859  0.878141  0.275784  1
  Sn  Sn24  1  0.878141  0.121859  0.724216  1
  Sn  Sn25  1  0.121859  0.243718  0.275784  1
  Sn  Sn26  1  0.878141  0.756282  0.724216  1
  Sn  Sn27  1  0.756282  0.878141  0.275784  1
  Sn  Sn28  1  0.243718  0.121859  0.724216  1
  Bi  Bi29  1  0.000000  0.000000  0.500000  1
  Rh  Rh30  1  0.831127  0.168873  0.199785  1
  Rh  Rh31  1  0.168873  0.831127  0.800215  1
  Rh  Rh32  1  0.831127  0.662251  0.199785  1
  Rh  Rh33  1  0.168873  0.337749  0.800215  1
  Rh  Rh34  1  0.337749  0.168873  0.199785  1
  Rh  Rh35  1  0.662251  0.831127  0.800215  1
