# generated using pymatgen
data_Sc8Re3B24Os
_symmetry_space_group_name_H-M   'P 1'
_cell_length_a   3.51287000
_cell_length_b   8.90196926
_cell_length_c   11.20284358
_cell_angle_alpha   90.06088099
_cell_angle_beta   90.00000000
_cell_angle_gamma   90.00000000
_symmetry_Int_Tables_number   1
_chemical_formula_structural   Sc8Re3B24Os
_chemical_formula_sum   'Sc8 Re3 B24 Os1'
_cell_volume   350.32908547
_cell_formula_units_Z   1
loop_
 _symmetry_equiv_pos_site_id
 _symmetry_equiv_pos_as_xyz
  1  'x, y, z'
loop_
 _atom_site_type_symbol
 _atom_site_label
 _atom_site_symmetry_multiplicity
 _atom_site_fract_x
 _atom_site_fract_y
 _atom_site_fract_z
 _atom_site_occupancy
  Sc  Sc0  1  0.000000  0.319808  0.414183  1
  Sc  Sc1  1  0.000000  0.679531  0.588386  1
  Sc  Sc2  1  0.000000  0.823144  0.083703  1
  Sc  Sc3  1  0.000000  0.178474  0.912823  1
  Sc  Sc4  1  0.000000  0.943125  0.371085  1
  Sc  Sc5  1  0.000000  0.055703  0.628420  1
  Sc  Sc6  1  0.000000  0.443586  0.128568  1
  Sc  Sc7  1  0.000000  0.556528  0.871695  1
  Re  Re8  1  0.000000  0.361709  0.678999  1
  Re  Re9  1  0.000000  0.138815  0.180467  1
  Re  Re10  1  0.000000  0.861420  0.820525  1
  B  B11  1  0.500000  0.553721  0.434791  1
  B  B12  1  0.500000  0.447274  0.564604  1
  B  B13  1  0.500000  0.053014  0.065133  1
  B  B14  1  0.500000  0.947422  0.934742  1
  B  B15  1  0.500000  0.752296  0.421049  1
  B  B16  1  0.500000  0.246226  0.578352  1
  B  B17  1  0.500000  0.253266  0.078571  1
  B  B18  1  0.500000  0.747045  0.921535  1
  B  B19  1  0.500000  0.793779  0.264067  1
  B  B20  1  0.500000  0.205289  0.735936  1
  B  B21  1  0.500000  0.295005  0.236578  1
  B  B22  1  0.500000  0.705254  0.764271  1
  B  B23  1  0.500000  0.629880  0.182551  1
  B  B24  1  0.500000  0.370668  0.817652  1
  B  B25  1  0.500000  0.129340  0.318151  1
  B  B26  1  0.500000  0.870236  0.682233  1
  B  B27  1  0.500000  0.978378  0.212357  1
  B  B28  1  0.500000  0.021312  0.787301  1
  B  B29  1  0.500000  0.479628  0.287885  1
  B  B30  1  0.500000  0.521423  0.712540  1
  B  B31  1  0.500000  0.598843  0.027677  1
  B  B32  1  0.500000  0.401916  0.973080  1
  B  B33  1  0.500000  0.097396  0.472806  1
  B  B34  1  0.500000  0.900770  0.527029  1
  Os  Os35  1  0.000000  0.638774  0.320256  1
