# generated using pymatgen
data_TaNb2GaAuN
_symmetry_space_group_name_H-M   'P 1'
_cell_length_a   7.10829100
_cell_length_b   7.11282500
_cell_length_c   7.10629100
_cell_angle_alpha   90.00000000
_cell_angle_beta   90.00000000
_cell_angle_gamma   90.00000000
_symmetry_Int_Tables_number   1
_chemical_formula_structural   TaNb2GaAuN
_chemical_formula_sum   'Ta4 Nb8 Ga4 Au4 N4'
_cell_volume   359.29428567
_cell_formula_units_Z   4
loop_
 _symmetry_equiv_pos_site_id
 _symmetry_equiv_pos_as_xyz
  1  'x, y, z'
loop_
 _atom_site_type_symbol
 _atom_site_label
 _atom_site_symmetry_multiplicity
 _atom_site_fract_x
 _atom_site_fract_y
 _atom_site_fract_z
 _atom_site_occupancy
  Ta  Ta0  1  0.785751  0.956361  0.377570  1
  Ta  Ta1  1  0.714249  0.043639  0.877570  1
  Ta  Ta2  1  0.214249  0.456361  0.122430  1
  Ta  Ta3  1  0.285751  0.543639  0.622430  1
  Nb  Nb4  1  0.954855  0.376154  0.784827  1
  Nb  Nb5  1  0.045145  0.876154  0.715173  1
  Nb  Nb6  1  0.454855  0.123846  0.215173  1
  Nb  Nb7  1  0.545145  0.623846  0.284827  1
  Nb  Nb8  1  0.378773  0.786647  0.956708  1
  Nb  Nb9  1  0.878773  0.713353  0.043292  1
  Nb  Nb10  1  0.121227  0.213353  0.456708  1
  Nb  Nb11  1  0.621227  0.286647  0.543292  1
  Ga  Ga12  1  0.571667  0.429743  0.929313  1
  Ga  Ga13  1  0.428333  0.929743  0.570687  1
  Ga  Ga14  1  0.928333  0.570257  0.429313  1
  Ga  Ga15  1  0.071667  0.070257  0.070687  1
  Au  Au16  1  0.179380  0.818236  0.320434  1
  Au  Au17  1  0.320620  0.181764  0.820434  1
  Au  Au18  1  0.820620  0.318236  0.179566  1
  Au  Au19  1  0.679380  0.681764  0.679566  1
  N  N20  1  0.873371  0.120218  0.623775  1
  N  N21  1  0.626629  0.879782  0.123775  1
  N  N22  1  0.126629  0.620218  0.876225  1
  N  N23  1  0.373371  0.379782  0.376225  1
