# generated using pymatgen
data_Hf6Ti4InGa4Bi
_symmetry_space_group_name_H-M   'P 1'
_cell_length_a   8.05081400
_cell_length_b   8.04943667
_cell_length_c   5.51981200
_cell_angle_alpha   90.00000000
_cell_angle_beta   90.00000000
_cell_angle_gamma   120.00566038
_symmetry_Int_Tables_number   1
_chemical_formula_structural   Hf6Ti4InGa4Bi
_chemical_formula_sum   'Hf6 Ti4 In1 Ga4 Bi1'
_cell_volume   309.76719643
_cell_formula_units_Z   1
loop_
 _symmetry_equiv_pos_site_id
 _symmetry_equiv_pos_as_xyz
  1  'x, y, z'
loop_
 _atom_site_type_symbol
 _atom_site_label
 _atom_site_symmetry_multiplicity
 _atom_site_fract_x
 _atom_site_fract_y
 _atom_site_fract_z
 _atom_site_occupancy
  Hf  Hf0  1  0.221121  0.000000  0.250000  1
  Hf  Hf1  1  0.775980  0.000000  0.750000  1
  Hf  Hf2  1  0.015705  0.257577  0.250000  1
  Hf  Hf3  1  0.988480  0.745246  0.750000  1
  Hf  Hf4  1  0.758127  0.742423  0.250000  1
  Hf  Hf5  1  0.243234  0.254754  0.750000  1
  Ti  Ti6  1  0.323312  0.647464  0.997367  1
  Ti  Ti7  1  0.675849  0.352536  0.997367  1
  Ti  Ti8  1  0.675849  0.352536  0.502633  1
  Ti  Ti9  1  0.323312  0.647464  0.502633  1
  In  In10  1  0.397497  0.000000  0.750000  1
  Ga  Ga11  1  0.006056  0.603509  0.250000  1
  Ga  Ga12  1  0.994282  0.395333  0.750000  1
  Ga  Ga13  1  0.402547  0.396491  0.250000  1
  Ga  Ga14  1  0.598949  0.604667  0.750000  1
  Bi  Bi15  1  0.599698  0.000000  0.250000  1
