# generated using pymatgen
data_CdBiRh2O7
_symmetry_space_group_name_H-M   'P 1'
_cell_length_a   7.25512296
_cell_length_b   7.25512304
_cell_length_c   7.11643900
_cell_angle_alpha   60.63033621
_cell_angle_beta   60.63033584
_cell_angle_gamma   61.10825158
_symmetry_Int_Tables_number   1
_chemical_formula_structural   CdBiRh2O7
_chemical_formula_sum   'Cd2 Bi2 Rh4 O14'
_cell_volume   269.57834674
_cell_formula_units_Z   2
loop_
 _symmetry_equiv_pos_site_id
 _symmetry_equiv_pos_as_xyz
  1  'x, y, z'
loop_
 _atom_site_type_symbol
 _atom_site_label
 _atom_site_symmetry_multiplicity
 _atom_site_fract_x
 _atom_site_fract_y
 _atom_site_fract_z
 _atom_site_occupancy
  Cd  Cd0  1  0.125000  0.125000  0.125000  1
  Cd  Cd1  1  0.125000  0.125000  0.625000  1
  Bi  Bi2  1  0.125000  0.625000  0.125000  1
  Bi  Bi3  1  0.625000  0.125000  0.125000  1
  Rh  Rh4  1  0.625000  0.625000  0.625000  1
  Rh  Rh5  1  0.625000  0.625000  0.125000  1
  Rh  Rh6  1  0.125000  0.625000  0.625000  1
  Rh  Rh7  1  0.625000  0.125000  0.625000  1
  O  O8  1  0.249798  0.249798  0.250202  1
  O  O9  1  0.294417  0.702407  0.289886  1
  O  O10  1  0.947959  0.947959  0.552041  1
  O  O11  1  0.547593  0.955583  0.536710  1
  O  O12  1  0.709181  0.709181  0.290819  1
  O  O13  1  0.955583  0.547593  0.536710  1
  O  O14  1  0.702407  0.294417  0.713290  1
  O  O15  1  0.302041  0.302041  0.697959  1
  O  O16  1  0.702407  0.294417  0.289886  1
  O  O17  1  0.294417  0.702407  0.713290  1
  O  O18  1  0.955583  0.547593  0.960114  1
  O  O19  1  0.540819  0.540819  0.959181  1
  O  O20  1  0.000202  0.000202  0.999798  1
  O  O21  1  0.547593  0.955583  0.960114  1
