# generated using pymatgen
data_Pr3Al12RuPtRh2
_symmetry_space_group_name_H-M   'P 1'
_cell_length_a   8.94778600
_cell_length_b   8.96820217
_cell_length_c   9.65708500
_cell_angle_alpha   90.00208336
_cell_angle_beta   90.00038196
_cell_angle_gamma   119.92436511
_symmetry_Int_Tables_number   1
_chemical_formula_structural   Pr3Al12RuPtRh2
_chemical_formula_sum   'Pr6 Al24 Ru2 Pt2 Rh4'
_cell_volume   671.62701466
_cell_formula_units_Z   2
loop_
 _symmetry_equiv_pos_site_id
 _symmetry_equiv_pos_as_xyz
  1  'x, y, z'
loop_
 _atom_site_type_symbol
 _atom_site_label
 _atom_site_symmetry_multiplicity
 _atom_site_fract_x
 _atom_site_fract_y
 _atom_site_fract_z
 _atom_site_occupancy
  Pr  Pr0  1  0.189756  0.379512  0.248309  1
  Pr  Pr1  1  0.810244  0.620488  0.751691  1
  Pr  Pr2  1  0.620834  0.809676  0.250272  1
  Pr  Pr3  1  0.379166  0.190324  0.749728  1
  Pr  Pr4  1  0.188846  0.809674  0.250271  1
  Pr  Pr5  1  0.811154  0.190326  0.749729  1
  Al  Al6  1  0.335518  0.671035  0.025788  1
  Al  Al7  1  0.664482  0.328965  0.974212  1
  Al  Al8  1  0.666827  0.333658  0.525249  1
  Al  Al9  1  0.333173  0.666342  0.474751  1
  Al  Al10  1  0.163615  0.327232  0.572314  1
  Al  Al11  1  0.836385  0.672768  0.427686  1
  Al  Al12  1  0.672633  0.836262  0.574707  1
  Al  Al13  1  0.837374  0.674746  0.076132  1
  Al  Al14  1  0.327367  0.163738  0.425293  1
  Al  Al15  1  0.162626  0.325254  0.923868  1
  Al  Al16  1  0.163628  0.836259  0.574707  1
  Al  Al17  1  0.325629  0.159374  0.077286  1
  Al  Al18  1  0.836372  0.163741  0.425293  1
  Al  Al19  1  0.674371  0.840626  0.922714  1
  Al  Al20  1  0.833745  0.159374  0.077285  1
  Al  Al21  1  0.166255  0.840626  0.922715  1
  Al  Al22  1  0.562851  0.125699  0.250106  1
  Al  Al23  1  0.437149  0.874301  0.749894  1
  Al  Al24  1  0.872203  0.435515  0.253144  1
  Al  Al25  1  0.127797  0.564485  0.746856  1
  Al  Al26  1  0.563312  0.435514  0.253144  1
  Al  Al27  1  0.436688  0.564486  0.746856  1
  Al  Al28  1  0.000758  0.001510  0.250329  1
  Al  Al29  1  0.999242  0.998490  0.749671  1
  Ru  Ru30  1  0.000000  0.000000  0.000000  1
  Ru  Ru31  1  0.000000  0.000000  0.500000  1
  Pt  Pt32  1  0.000000  0.500000  0.000000  1
  Pt  Pt33  1  0.500000  0.500000  0.000000  1
  Rh  Rh34  1  0.500000  0.000000  0.000000  1
  Rh  Rh35  1  0.500000  0.000000  0.500000  1
  Rh  Rh36  1  0.000000  0.500000  0.500000  1
  Rh  Rh37  1  0.500000  0.500000  0.500000  1
