# generated using pymatgen
data_Tm3Sn3GeIrRh
_symmetry_space_group_name_H-M   'P 1'
_cell_length_a   7.35116400
_cell_length_b   7.35116420
_cell_length_c   4.14991000
_cell_angle_alpha   90.00000000
_cell_angle_beta   90.00000000
_cell_angle_gamma   119.99999911
_symmetry_Int_Tables_number   1
_chemical_formula_structural   Tm3Sn3GeIrRh
_chemical_formula_sum   'Tm3 Sn3 Ge1 Ir1 Rh1'
_cell_volume   194.21445429
_cell_formula_units_Z   1
loop_
 _symmetry_equiv_pos_site_id
 _symmetry_equiv_pos_as_xyz
  1  'x, y, z'
loop_
 _atom_site_type_symbol
 _atom_site_label
 _atom_site_symmetry_multiplicity
 _atom_site_fract_x
 _atom_site_fract_y
 _atom_site_fract_z
 _atom_site_occupancy
  Tm  Tm0  1  0.014785  0.416150  0.000000  1
  Tm  Tm1  1  0.583850  0.598635  0.000000  1
  Tm  Tm2  1  0.401365  0.985215  0.000000  1
  Sn  Sn3  1  0.245891  0.258070  0.500000  1
  Sn  Sn4  1  0.012177  0.754109  0.500000  1
  Sn  Sn5  1  0.741930  0.987823  0.500000  1
  Ge  Ge6  1  0.666667  0.333333  0.500000  1
  Ir  Ir7  1  0.333333  0.666667  0.500000  1
  Rh  Rh8  1  0.000000  0.000000  0.000000  1
