# generated using pymatgen
data_Mg5Ga3Ir4
_symmetry_space_group_name_H-M   'P 1'
_cell_length_a   8.33937623
_cell_length_b   8.24104068
_cell_length_c   8.33869784
_cell_angle_alpha   119.61335285
_cell_angle_beta   91.33887818
_cell_angle_gamma   119.61070592
_symmetry_Int_Tables_number   1
_chemical_formula_structural   Mg5Ga3Ir4
_chemical_formula_sum   'Mg10 Ga6 Ir8'
_cell_volume   405.11652771
_cell_formula_units_Z   2
loop_
 _symmetry_equiv_pos_site_id
 _symmetry_equiv_pos_as_xyz
  1  'x, y, z'
loop_
 _atom_site_type_symbol
 _atom_site_label
 _atom_site_symmetry_multiplicity
 _atom_site_fract_x
 _atom_site_fract_y
 _atom_site_fract_z
 _atom_site_occupancy
  Mg  Mg0  1  0.426021  0.854506  0.178562  1
  Mg  Mg1  1  0.426021  0.250077  0.178562  1
  Mg  Mg2  1  0.175895  0.750066  0.428583  1
  Mg  Mg3  1  0.175895  0.354412  0.428583  1
  Mg  Mg4  1  0.821467  0.249882  0.573930  1
  Mg  Mg5  1  0.821467  0.645514  0.573930  1
  Mg  Mg6  1  0.425338  0.249945  0.574551  1
  Mg  Mg7  1  0.571455  0.145575  0.824069  1
  Mg  Mg8  1  0.175263  0.749981  0.824699  1
  Mg  Mg9  1  0.571455  0.749949  0.824069  1
  Ga  Ga10  1  0.002890  0.000831  0.997123  1
  Ga  Ga11  1  0.002890  0.499183  0.997123  1
  Ga  Ga12  1  0.503724  0.500823  0.997922  1
  Ga  Ga13  1  0.824364  0.250006  0.175647  1
  Ga  Ga14  1  0.574456  0.750067  0.425678  1
  Ga  Ga15  1  0.002087  0.999185  0.496283  1
  Ir  Ir16  1  0.226898  0.439901  0.152904  1
  Ir  Ir17  1  0.141865  0.928997  0.216128  1
  Ir  Ir18  1  0.786939  0.939768  0.213073  1
  Ir  Ir19  1  0.786940  0.560247  0.213073  1
  Ir  Ir20  1  0.212850  0.071200  0.787126  1
  Ir  Ir21  1  0.847032  0.060036  0.773041  1
  Ir  Ir22  1  0.212850  0.428777  0.787127  1
  Ir  Ir23  1  0.783942  0.571085  0.858226  1
