# generated using pymatgen
data_Na3NbS3O
_symmetry_space_group_name_H-M   'P 1'
_cell_length_a   6.07491900
_cell_length_b   9.95737700
_cell_length_c   12.25974600
_cell_angle_alpha   90.00000000
_cell_angle_beta   90.00000000
_cell_angle_gamma   90.00000000
_symmetry_Int_Tables_number   1
_chemical_formula_structural   Na3NbS3O
_chemical_formula_sum   'Na12 Nb4 S12 O4'
_cell_volume   741.59520747
_cell_formula_units_Z   4
loop_
 _symmetry_equiv_pos_site_id
 _symmetry_equiv_pos_as_xyz
  1  'x, y, z'
loop_
 _atom_site_type_symbol
 _atom_site_label
 _atom_site_symmetry_multiplicity
 _atom_site_fract_x
 _atom_site_fract_y
 _atom_site_fract_z
 _atom_site_occupancy
  Na  Na0  1  0.252791  0.043715  0.130826  1
  Na  Na1  1  0.252791  0.456284  0.130826  1
  Na  Na2  1  0.736739  0.750000  0.131808  1
  Na  Na3  1  0.236739  0.750000  0.368191  1
  Na  Na4  1  0.752791  0.043715  0.369174  1
  Na  Na5  1  0.752791  0.456284  0.369174  1
  Na  Na6  1  0.247209  0.543715  0.630826  1
  Na  Na7  1  0.247209  0.956285  0.630826  1
  Na  Na8  1  0.763262  0.250000  0.631809  1
  Na  Na9  1  0.263262  0.250000  0.868192  1
  Na  Na10  1  0.747209  0.543715  0.869175  1
  Na  Na11  1  0.747209  0.956285  0.869175  1
  Nb  Nb12  1  0.839264  0.250000  0.047988  1
  Nb  Nb13  1  0.339265  0.250000  0.452012  1
  Nb  Nb14  1  0.660736  0.750000  0.547988  1
  Nb  Nb15  1  0.160735  0.750000  0.952012  1
  S  S16  1  0.726431  0.052105  0.129555  1
  S  S17  1  0.726431  0.447894  0.129555  1
  S  S18  1  0.255986  0.750000  0.135611  1
  S  S19  1  0.755985  0.750000  0.364390  1
  S  S20  1  0.226431  0.052105  0.370445  1
  S  S21  1  0.226431  0.447894  0.370445  1
  S  S22  1  0.773570  0.552105  0.629555  1
  S  S23  1  0.773570  0.947894  0.629555  1
  S  S24  1  0.244014  0.250000  0.635610  1
  S  S25  1  0.744014  0.250000  0.864389  1
  S  S26  1  0.273570  0.552105  0.870445  1
  S  S27  1  0.273570  0.947894  0.870445  1
  O  O28  1  0.139748  0.250000  0.052369  1
  O  O29  1  0.639748  0.250000  0.447632  1
  O  O30  1  0.360252  0.750000  0.552368  1
  O  O31  1  0.860252  0.750000  0.947631  1
