# generated using pymatgen
data_Hf9Mo2Rh7
_symmetry_space_group_name_H-M   'P 1'
_cell_length_a   8.02608500
_cell_length_b   8.02608518
_cell_length_c   5.66866600
_cell_angle_alpha   90.00000000
_cell_angle_beta   90.00000000
_cell_angle_gamma   119.99999513
_symmetry_Int_Tables_number   1
_chemical_formula_structural   Hf9Mo2Rh7
_chemical_formula_sum   'Hf9 Mo2 Rh7'
_cell_volume   316.24163108
_cell_formula_units_Z   1
loop_
 _symmetry_equiv_pos_site_id
 _symmetry_equiv_pos_as_xyz
  1  'x, y, z'
loop_
 _atom_site_type_symbol
 _atom_site_label
 _atom_site_symmetry_multiplicity
 _atom_site_fract_x
 _atom_site_fract_y
 _atom_site_fract_z
 _atom_site_occupancy
  Hf  Hf0  1  0.667936  0.001065  0.222696  1
  Hf  Hf1  1  0.333128  0.332064  0.222696  1
  Hf  Hf2  1  0.998935  0.666871  0.222696  1
  Hf  Hf3  1  0.000000  0.000000  0.558616  1
  Hf  Hf4  1  0.666666  0.333333  0.558910  1
  Hf  Hf5  1  0.333334  0.666667  0.558841  1
  Hf  Hf6  1  0.333553  0.000926  0.894789  1
  Hf  Hf7  1  0.999074  0.332627  0.894789  1
  Hf  Hf8  1  0.667373  0.666447  0.894789  1
  Mo  Mo9  1  0.000000  0.000000  0.058870  1
  Mo  Mo10  1  0.666666  0.333333  0.058555  1
  Rh  Rh11  1  0.333334  0.666667  0.059323  1
  Rh  Rh12  1  0.333602  0.998093  0.393534  1
  Rh  Rh13  1  0.001907  0.335509  0.393534  1
  Rh  Rh14  1  0.664492  0.666398  0.393534  1
  Rh  Rh15  1  0.665128  0.998148  0.723894  1
  Rh  Rh16  1  0.333021  0.334873  0.723894  1
  Rh  Rh17  1  0.001852  0.666979  0.723894  1
