# generated using pymatgen
data_TbYb2U5(ReB6)4
_symmetry_space_group_name_H-M   'P 1'
_cell_length_a   3.64353200
_cell_length_b   9.27806426
_cell_length_c   11.39425655
_cell_angle_alpha   90.00418520
_cell_angle_beta   90.00000000
_cell_angle_gamma   90.00000000
_symmetry_Int_Tables_number   1
_chemical_formula_structural   TbYb2U5(ReB6)4
_chemical_formula_sum   'Tb1 Yb2 U5 Re4 B24'
_cell_volume   385.18197608
_cell_formula_units_Z   1
loop_
 _symmetry_equiv_pos_site_id
 _symmetry_equiv_pos_as_xyz
  1  'x, y, z'
loop_
 _atom_site_type_symbol
 _atom_site_label
 _atom_site_symmetry_multiplicity
 _atom_site_fract_x
 _atom_site_fract_y
 _atom_site_fract_z
 _atom_site_occupancy
  Tb  Tb0  1  0.000000  0.337697  0.408234  1
  Yb  Yb1  1  0.000000  0.662741  0.590936  1
  Yb  Yb2  1  0.000000  0.835651  0.092476  1
  U  U3  1  0.000000  0.163072  0.908039  1
  U  U4  1  0.000000  0.954460  0.396140  1
  U  U5  1  0.000000  0.041526  0.603426  1
  U  U6  1  0.000000  0.458765  0.104755  1
  U  U7  1  0.000000  0.544814  0.896239  1
  Re  Re8  1  0.000000  0.645712  0.317886  1
  Re  Re9  1  0.000000  0.350943  0.685412  1
  Re  Re10  1  0.000000  0.146616  0.177480  1
  Re  Re11  1  0.000000  0.858429  0.819607  1
  B  B12  1  0.500000  0.552574  0.431790  1
  B  B13  1  0.500000  0.447518  0.570540  1
  B  B14  1  0.500000  0.052938  0.067964  1
  B  B15  1  0.500000  0.949970  0.930672  1
  B  B16  1  0.500000  0.742737  0.422725  1
  B  B17  1  0.500000  0.256302  0.577474  1
  B  B18  1  0.500000  0.243141  0.076041  1
  B  B19  1  0.500000  0.756813  0.922104  1
  B  B20  1  0.500000  0.801402  0.274532  1
  B  B21  1  0.500000  0.196443  0.727119  1
  B  B22  1  0.500000  0.302462  0.224984  1
  B  B23  1  0.500000  0.699033  0.774616  1
  B  B24  1  0.500000  0.643286  0.188606  1
  B  B25  1  0.500000  0.354957  0.812484  1
  B  B26  1  0.500000  0.143784  0.310619  1
  B  B27  1  0.500000  0.856131  0.688518  1
  B  B28  1  0.500000  0.989405  0.219018  1
  B  B29  1  0.500000  0.013342  0.781812  1
  B  B30  1  0.500000  0.489341  0.280998  1
  B  B31  1  0.500000  0.511104  0.719323  1
  B  B32  1  0.500000  0.638691  0.037870  1
  B  B33  1  0.500000  0.357542  0.960649  1
  B  B34  1  0.500000  0.138612  0.460942  1
  B  B35  1  0.500000  0.862046  0.537969  1
