# generated using pymatgen
data_LaPr(Al2Cu3)2
_symmetry_space_group_name_H-M   'P 1'
_cell_length_a   4.23414900
_cell_length_b   5.18725223
_cell_length_c   9.21734571
_cell_angle_alpha   91.99437781
_cell_angle_beta   90.00000000
_cell_angle_gamma   90.00000000
_symmetry_Int_Tables_number   1
_chemical_formula_structural   LaPr(Al2Cu3)2
_chemical_formula_sum   'La1 Pr1 Al4 Cu6'
_cell_volume   202.32345132
_cell_formula_units_Z   1
loop_
 _symmetry_equiv_pos_site_id
 _symmetry_equiv_pos_as_xyz
  1  'x, y, z'
loop_
 _atom_site_type_symbol
 _atom_site_label
 _atom_site_symmetry_multiplicity
 _atom_site_fract_x
 _atom_site_fract_y
 _atom_site_fract_z
 _atom_site_occupancy
  La  La0  1  0.000000  0.999959  0.999911  1
  Pr  Pr1  1  0.000000  0.499996  0.500100  1
  Al  Al2  1  0.500000  0.000013  0.499993  1
  Al  Al3  1  0.500000  0.499987  0.999976  1
  Al  Al4  1  0.500000  0.251724  0.250688  1
  Al  Al5  1  0.500000  0.748272  0.749278  1
  Cu  Cu6  1  0.000000  0.994363  0.332125  1
  Cu  Cu7  1  0.000000  0.493880  0.830233  1
  Cu  Cu8  1  0.000000  0.506065  0.169964  1
  Cu  Cu9  1  0.000000  0.005611  0.667777  1
  Cu  Cu10  1  0.500000  0.749950  0.250819  1
  Cu  Cu11  1  0.500000  0.249981  0.749137  1
