# generated using pymatgen
data_Tb4ErIr2Ru
_symmetry_space_group_name_H-M   'P 1'
_cell_length_a   10.85871900
_cell_length_b   10.85871900
_cell_length_c   6.41778700
_cell_angle_alpha   90.00000000
_cell_angle_beta   90.00000000
_cell_angle_gamma   90.00000000
_symmetry_Int_Tables_number   1
_chemical_formula_structural   Tb4ErIr2Ru
_chemical_formula_sum   'Tb16 Er4 Ir8 Ru4'
_cell_volume   756.73267806
_cell_formula_units_Z   4
loop_
 _symmetry_equiv_pos_site_id
 _symmetry_equiv_pos_as_xyz
  1  'x, y, z'
loop_
 _atom_site_type_symbol
 _atom_site_label
 _atom_site_symmetry_multiplicity
 _atom_site_fract_x
 _atom_site_fract_y
 _atom_site_fract_z
 _atom_site_occupancy
  Tb  Tb0  1  0.293125  0.086660  0.379033  1
  Tb  Tb1  1  0.293125  0.913340  0.879033  1
  Tb  Tb2  1  0.706875  0.086660  0.879033  1
  Tb  Tb3  1  0.706875  0.913340  0.379033  1
  Tb  Tb4  1  0.586660  0.793125  0.879033  1
  Tb  Tb5  1  0.586660  0.206875  0.379033  1
  Tb  Tb6  1  0.413340  0.793125  0.379033  1
  Tb  Tb7  1  0.413340  0.206875  0.879033  1
  Tb  Tb8  1  0.206875  0.413340  0.620967  1
  Tb  Tb9  1  0.206875  0.586660  0.120967  1
  Tb  Tb10  1  0.793125  0.413340  0.120967  1
  Tb  Tb11  1  0.793125  0.586660  0.620967  1
  Tb  Tb12  1  0.913340  0.706875  0.120967  1
  Tb  Tb13  1  0.913340  0.293125  0.620967  1
  Tb  Tb14  1  0.086660  0.706875  0.620967  1
  Tb  Tb15  1  0.086660  0.293125  0.120967  1
  Er  Er16  1  0.000000  0.000000  0.500000  1
  Er  Er17  1  0.000000  0.000000  0.000000  1
  Er  Er18  1  0.500000  0.500000  0.000000  1
  Er  Er19  1  0.500000  0.500000  0.500000  1
  Ir  Ir20  1  0.848423  0.151577  0.250000  1
  Ir  Ir21  1  0.848423  0.848423  0.750000  1
  Ir  Ir22  1  0.151577  0.151577  0.750000  1
  Ir  Ir23  1  0.151577  0.848423  0.250000  1
  Ir  Ir24  1  0.651577  0.348423  0.750000  1
  Ir  Ir25  1  0.651577  0.651577  0.250000  1
  Ir  Ir26  1  0.348423  0.348423  0.250000  1
  Ir  Ir27  1  0.348423  0.651577  0.750000  1
  Ru  Ru28  1  0.500000  0.000000  0.121674  1
  Ru  Ru29  1  0.500000  0.000000  0.621674  1
  Ru  Ru30  1  0.000000  0.500000  0.878326  1
  Ru  Ru31  1  0.000000  0.500000  0.378326  1
