# generated using pymatgen
data_Ti10Sn5B2Sb
_symmetry_space_group_name_H-M   'P 1'
_cell_length_a   8.13143901
_cell_length_b   8.13143863
_cell_length_c   5.42613300
_cell_angle_alpha   90.00000000
_cell_angle_beta   90.00000000
_cell_angle_gamma   119.95079023
_symmetry_Int_Tables_number   1
_chemical_formula_structural   Ti10Sn5B2Sb
_chemical_formula_sum   'Ti10 Sn5 B2 Sb1'
_cell_volume   310.86440998
_cell_formula_units_Z   1
loop_
 _symmetry_equiv_pos_site_id
 _symmetry_equiv_pos_as_xyz
  1  'x, y, z'
loop_
 _atom_site_type_symbol
 _atom_site_label
 _atom_site_symmetry_multiplicity
 _atom_site_fract_x
 _atom_site_fract_y
 _atom_site_fract_z
 _atom_site_occupancy
  Ti  Ti0  1  0.664900  0.333382  0.999965  1
  Ti  Ti1  1  0.333382  0.664900  0.999965  1
  Ti  Ti2  1  0.333382  0.664900  0.500035  1
  Ti  Ti3  1  0.664900  0.333382  0.500035  1
  Ti  Ti4  1  0.774652  0.774652  0.750000  1
  Ti  Ti5  1  0.225027  0.000712  0.750000  1
  Ti  Ti6  1  0.000712  0.225027  0.750000  1
  Ti  Ti7  1  0.227676  0.227676  0.250000  1
  Ti  Ti8  1  0.775114  0.000193  0.250000  1
  Ti  Ti9  1  0.000193  0.775114  0.250000  1
  Sn  Sn10  1  0.602067  0.999882  0.750000  1
  Sn  Sn11  1  0.999882  0.602067  0.750000  1
  Sn  Sn12  1  0.603825  0.603825  0.250000  1
  Sn  Sn13  1  0.397551  0.999155  0.250000  1
  Sn  Sn14  1  0.999155  0.397551  0.250000  1
  B  B15  1  0.999793  0.999793  0.000963  1
  B  B16  1  0.999793  0.999793  0.499037  1
  Sb  Sb17  1  0.397995  0.397995  0.750000  1
