# generated using pymatgen
data_HoEr2Tm5(Si3Rh)4
_symmetry_space_group_name_H-M   'P 1'
_cell_length_a   8.12794000
_cell_length_b   8.13006623
_cell_length_c   7.78965500
_cell_angle_alpha   90.00000000
_cell_angle_beta   90.00000000
_cell_angle_gamma   119.99135726
_symmetry_Int_Tables_number   1
_chemical_formula_structural   HoEr2Tm5(Si3Rh)4
_chemical_formula_sum   'Ho1 Er2 Tm5 Si12 Rh4'
_cell_volume   445.82174144
_cell_formula_units_Z   1
loop_
 _symmetry_equiv_pos_site_id
 _symmetry_equiv_pos_as_xyz
  1  'x, y, z'
loop_
 _atom_site_type_symbol
 _atom_site_label
 _atom_site_symmetry_multiplicity
 _atom_site_fract_x
 _atom_site_fract_y
 _atom_site_fract_z
 _atom_site_occupancy
  Ho  Ho0  1  0.000031  0.000062  0.750000  1
  Er  Er1  1  0.509264  0.018530  0.250000  1
  Er  Er2  1  0.999969  0.999939  0.250000  1
  Tm  Tm3  1  0.981825  0.490983  0.250000  1
  Tm  Tm4  1  0.509157  0.490983  0.250000  1
  Tm  Tm5  1  0.490826  0.981652  0.750000  1
  Tm  Tm6  1  0.018340  0.509158  0.750000  1
  Tm  Tm7  1  0.490818  0.509158  0.750000  1
  Si  Si8  1  0.167017  0.832920  0.499934  1
  Si  Si9  1  0.166999  0.333996  0.499876  1
  Si  Si10  1  0.665904  0.832920  0.499934  1
  Si  Si11  1  0.334083  0.167116  0.999725  1
  Si  Si12  1  0.832939  0.665881  0.499961  1
  Si  Si13  1  0.833032  0.167116  0.999725  1
  Si  Si14  1  0.832939  0.665881  0.000039  1
  Si  Si15  1  0.166999  0.333996  0.000124  1
  Si  Si16  1  0.665904  0.832920  0.000066  1
  Si  Si17  1  0.334083  0.167116  0.500275  1
  Si  Si18  1  0.833032  0.167116  0.500275  1
  Si  Si19  1  0.167017  0.832920  0.000066  1
  Rh  Rh20  1  0.333163  0.666327  0.034252  1
  Rh  Rh21  1  0.666746  0.333491  0.964986  1
  Rh  Rh22  1  0.666746  0.333491  0.535014  1
  Rh  Rh23  1  0.333163  0.666327  0.465748  1
