# generated using pymatgen
data_Yb3Gd(CuH6)2
_symmetry_space_group_name_H-M   'P 1'
_cell_length_a   6.71529342
_cell_length_b   6.71529491
_cell_length_c   5.06262604
_cell_angle_alpha   89.99553279
_cell_angle_beta   89.99553500
_cell_angle_gamma   135.75879426
_symmetry_Int_Tables_number   1
_chemical_formula_structural   Yb3Gd(CuH6)2
_chemical_formula_sum   'Yb3 Gd1 Cu2 H12'
_cell_volume   159.28046389
_cell_formula_units_Z   1
loop_
 _symmetry_equiv_pos_site_id
 _symmetry_equiv_pos_as_xyz
  1  'x, y, z'
loop_
 _atom_site_type_symbol
 _atom_site_label
 _atom_site_symmetry_multiplicity
 _atom_site_fract_x
 _atom_site_fract_y
 _atom_site_fract_z
 _atom_site_occupancy
  Yb  Yb0  1  0.644683  0.355317  0.000000  1
  Yb  Yb1  1  0.856558  0.143442  0.500000  1
  Yb  Yb2  1  0.356760  0.643240  0.000000  1
  Gd  Gd3  1  0.148615  0.851385  0.500000  1
  Cu  Cu4  1  0.498794  0.501206  0.500000  1
  Cu  Cu5  1  0.998268  0.001732  0.000000  1
  H  H6  1  0.001467  0.503904  0.747897  1
  H  H7  1  0.496096  0.998533  0.252103  1
  H  H8  1  0.001397  0.503814  0.252101  1
  H  H9  1  0.496186  0.998603  0.747899  1
  H  H10  1  0.366487  0.633513  0.500000  1
  H  H11  1  0.866830  0.133170  0.000000  1
  H  H12  1  0.632071  0.367929  0.500000  1
  H  H13  1  0.131237  0.868763  0.000000  1
  H  H14  1  0.249575  0.247287  0.748251  1
  H  H15  1  0.752713  0.750425  0.251749  1
  H  H16  1  0.249808  0.247545  0.252144  1
  H  H17  1  0.752455  0.750192  0.747856  1
