# generated using pymatgen
data_Nb2Ni5Ru
_symmetry_space_group_name_H-M   'P 1'
_cell_length_a   5.24973300
_cell_length_b   5.30896816
_cell_length_c   4.26910300
_cell_angle_alpha   90.00000000
_cell_angle_beta   90.00000000
_cell_angle_gamma   119.63159821
_symmetry_Int_Tables_number   1
_chemical_formula_structural   Nb2Ni5Ru
_chemical_formula_sum   'Nb2 Ni5 Ru1'
_cell_volume   103.42246270
_cell_formula_units_Z   1
loop_
 _symmetry_equiv_pos_site_id
 _symmetry_equiv_pos_as_xyz
  1  'x, y, z'
loop_
 _atom_site_type_symbol
 _atom_site_label
 _atom_site_symmetry_multiplicity
 _atom_site_fract_x
 _atom_site_fract_y
 _atom_site_fract_z
 _atom_site_occupancy
  Nb  Nb0  1  0.670867  0.341733  0.250000  1
  Nb  Nb1  1  0.334156  0.668313  0.750000  1
  Ni  Ni2  1  0.832652  0.156313  0.750000  1
  Ni  Ni3  1  0.323662  0.156313  0.750000  1
  Ni  Ni4  1  0.838910  0.677818  0.750000  1
  Ni  Ni5  1  0.162889  0.839765  0.250000  1
  Ni  Ni6  1  0.676874  0.839765  0.250000  1
  Ru  Ru7  1  0.159990  0.319980  0.250000  1
