# generated using pymatgen
data_NbZn3(GaRh2)4
_symmetry_space_group_name_H-M   'P 1'
_cell_length_a   6.10972600
_cell_length_b   6.10992500
_cell_length_c   6.10127600
_cell_angle_alpha   89.99885514
_cell_angle_beta   89.99951202
_cell_angle_gamma   90.00016880
_symmetry_Int_Tables_number   1
_chemical_formula_structural   NbZn3(GaRh2)4
_chemical_formula_sum   'Nb1 Zn3 Ga4 Rh8'
_cell_volume   227.76043556
_cell_formula_units_Z   1
loop_
 _symmetry_equiv_pos_site_id
 _symmetry_equiv_pos_as_xyz
  1  'x, y, z'
loop_
 _atom_site_type_symbol
 _atom_site_label
 _atom_site_symmetry_multiplicity
 _atom_site_fract_x
 _atom_site_fract_y
 _atom_site_fract_z
 _atom_site_occupancy
  Nb  Nb0  1  0.749662  0.250002  0.000002  1
  Zn  Zn1  1  0.250490  0.750000  0.999991  1
  Zn  Zn2  1  0.750516  0.250000  0.499982  1
  Zn  Zn3  1  0.249503  0.750002  0.500023  1
  Ga  Ga4  1  0.250301  0.250001  0.999994  1
  Ga  Ga5  1  0.749592  0.749998  0.000005  1
  Ga  Ga6  1  0.750431  0.749999  0.499988  1
  Ga  Ga7  1  0.249547  0.250000  0.500011  1
  Rh  Rh8  1  0.001102  0.998872  0.251315  1
  Rh  Rh9  1  0.001100  0.501129  0.251315  1
  Rh  Rh10  1  0.498861  0.998907  0.251969  1
  Rh  Rh11  1  0.498863  0.501090  0.251969  1
  Rh  Rh12  1  0.498908  0.998909  0.748035  1
  Rh  Rh13  1  0.498906  0.501094  0.748033  1
  Rh  Rh14  1  0.001107  0.998875  0.748686  1
  Rh  Rh15  1  0.001110  0.501123  0.748682  1
