# generated using pymatgen
data_Er2Tm10Co4BiIr
_symmetry_space_group_name_H-M   'P 1'
_cell_length_a   8.23243834
_cell_length_b   8.23243790
_cell_length_c   8.22894661
_cell_angle_alpha   110.80863115
_cell_angle_beta   111.34448542
_cell_angle_gamma   106.32483615
_symmetry_Int_Tables_number   1
_chemical_formula_structural   Er2Tm10Co4BiIr
_chemical_formula_sum   'Er2 Tm10 Co4 Bi1 Ir1'
_cell_volume   428.24204213
_cell_formula_units_Z   1
loop_
 _symmetry_equiv_pos_site_id
 _symmetry_equiv_pos_as_xyz
  1  'x, y, z'
loop_
 _atom_site_type_symbol
 _atom_site_label
 _atom_site_symmetry_multiplicity
 _atom_site_fract_x
 _atom_site_fract_y
 _atom_site_fract_z
 _atom_site_occupancy
  Er  Er0  1  0.284081  0.182615  0.466696  1
  Er  Er1  1  0.715919  0.817385  0.533304  1
  Tm  Tm2  1  0.283902  0.817340  0.101242  1
  Tm  Tm3  1  0.716098  0.182660  0.898758  1
  Tm  Tm4  1  0.620439  0.311291  0.308820  1
  Tm  Tm5  1  0.379561  0.688709  0.691180  1
  Tm  Tm6  1  0.002472  0.311619  0.691180  1
  Tm  Tm7  1  0.997528  0.688381  0.308820  1
  Tm  Tm8  1  0.213229  0.411643  0.197896  1
  Tm  Tm9  1  0.786771  0.588357  0.802104  1
  Tm  Tm10  1  0.213749  0.015334  0.802104  1
  Tm  Tm11  1  0.786251  0.984666  0.197896  1
  Co  Co12  1  0.999987  0.376407  0.376394  1
  Co  Co13  1  0.000013  0.623593  0.623606  1
  Co  Co14  1  0.388519  0.888519  0.500000  1
  Co  Co15  1  0.611481  0.111481  0.500000  1
  Bi  Bi16  1  0.500000  0.500000  0.000000  1
  Ir  Ir17  1  0.000000  0.000000  0.000000  1
