# generated using pymatgen
data_YbHo3Pt3RhO14
_symmetry_space_group_name_H-M   'P 1'
_cell_length_a   7.25181395
_cell_length_b   7.24266554
_cell_length_c   7.22508755
_cell_angle_alpha   59.91950178
_cell_angle_beta   60.03357224
_cell_angle_gamma   60.04173401
_symmetry_Int_Tables_number   1
_chemical_formula_structural   YbHo3Pt3RhO14
_chemical_formula_sum   'Yb1 Ho3 Pt3 Rh1 O14'
_cell_volume   268.32116079
_cell_formula_units_Z   1
loop_
 _symmetry_equiv_pos_site_id
 _symmetry_equiv_pos_as_xyz
  1  'x, y, z'
loop_
 _atom_site_type_symbol
 _atom_site_label
 _atom_site_symmetry_multiplicity
 _atom_site_fract_x
 _atom_site_fract_y
 _atom_site_fract_z
 _atom_site_occupancy
  Yb  Yb0  1  0.625000  0.625000  0.125000  1
  Ho  Ho1  1  0.625000  0.625000  0.625000  1
  Ho  Ho2  1  0.625000  0.125000  0.625000  1
  Ho  Ho3  1  0.125000  0.625000  0.625000  1
  Pt  Pt4  1  0.125000  0.125000  0.125000  1
  Pt  Pt5  1  0.125000  0.625000  0.125000  1
  Pt  Pt6  1  0.125000  0.125000  0.625000  1
  Rh  Rh7  1  0.625000  0.125000  0.125000  1
  O  O8  1  0.033985  0.464757  0.466407  1
  O  O9  1  0.790182  0.791249  0.214243  1
  O  O10  1  0.790182  0.204326  0.214243  1
  O  O11  1  0.461012  0.038553  0.461880  1
  O  O12  1  0.751649  0.753396  0.741560  1
  O  O13  1  0.033985  0.034849  0.466407  1
  O  O14  1  0.040421  0.463944  0.031692  1
  O  O15  1  0.788988  0.211447  0.788120  1
  O  O16  1  0.209579  0.786056  0.218308  1
  O  O17  1  0.216015  0.215151  0.783593  1
  O  O18  1  0.498351  0.496604  0.508440  1
  O  O19  1  0.459818  0.045674  0.035757  1
  O  O20  1  0.459818  0.458751  0.035757  1
  O  O21  1  0.216015  0.785243  0.783593  1
