# generated using pymatgen
data_HoLu2Th3Si4
_symmetry_space_group_name_H-M   'P 1'
_cell_length_a   7.53069654
_cell_length_b   7.53069691
_cell_length_c   4.25461600
_cell_angle_alpha   90.00000000
_cell_angle_beta   90.00000000
_cell_angle_gamma   90.51923026
_symmetry_Int_Tables_number   1
_chemical_formula_structural   HoLu2Th3Si4
_chemical_formula_sum   'Ho1 Lu2 Th3 Si4'
_cell_volume   241.27529291
_cell_formula_units_Z   1
loop_
 _symmetry_equiv_pos_site_id
 _symmetry_equiv_pos_as_xyz
  1  'x, y, z'
loop_
 _atom_site_type_symbol
 _atom_site_label
 _atom_site_symmetry_multiplicity
 _atom_site_fract_x
 _atom_site_fract_y
 _atom_site_fract_z
 _atom_site_occupancy
  Ho  Ho0  1  0.676108  0.176108  0.500000  1
  Lu  Lu1  1  0.501035  0.501051  0.000000  1
  Lu  Lu2  1  0.001051  0.001035  0.000000  1
  Th  Th3  1  0.323466  0.823466  0.500000  1
  Th  Th4  1  0.177875  0.320068  0.500000  1
  Th  Th5  1  0.820068  0.677875  0.500000  1
  Si  Si6  1  0.117498  0.617498  0.000000  1
  Si  Si7  1  0.877605  0.377605  0.000000  1
  Si  Si8  1  0.619745  0.885549  0.000000  1
  Si  Si9  1  0.385549  0.119745  0.000000  1
