# generated using pymatgen
data_La(Ga2Pt)2
_symmetry_space_group_name_H-M   'P 1'
_cell_length_a   4.43037400
_cell_length_b   6.72638000
_cell_length_c   17.62095000
_cell_angle_alpha   90.00000000
_cell_angle_beta   90.00000000
_cell_angle_gamma   90.00000000
_symmetry_Int_Tables_number   1
_chemical_formula_structural   La(Ga2Pt)2
_chemical_formula_sum   'La4 Ga16 Pt8'
_cell_volume   525.11098951
_cell_formula_units_Z   4
loop_
 _symmetry_equiv_pos_site_id
 _symmetry_equiv_pos_as_xyz
  1  'x, y, z'
loop_
 _atom_site_type_symbol
 _atom_site_label
 _atom_site_symmetry_multiplicity
 _atom_site_fract_x
 _atom_site_fract_y
 _atom_site_fract_z
 _atom_site_occupancy
  La  La0  1  0.750000  0.991977  0.639795  1
  La  La1  1  0.250000  0.008023  0.360205  1
  La  La2  1  0.250000  0.491977  0.860205  1
  La  La3  1  0.750000  0.508023  0.139795  1
  Ga  Ga4  1  0.250000  0.277389  0.690560  1
  Ga  Ga5  1  0.750000  0.722611  0.309440  1
  Ga  Ga6  1  0.750000  0.777389  0.809440  1
  Ga  Ga7  1  0.250000  0.222611  0.190560  1
  Ga  Ga8  1  0.250000  0.677589  0.683356  1
  Ga  Ga9  1  0.750000  0.322411  0.316644  1
  Ga  Ga10  1  0.750000  0.177589  0.816644  1
  Ga  Ga11  1  0.250000  0.822411  0.183356  1
  Ga  Ga12  1  0.250000  0.162974  0.536119  1
  Ga  Ga13  1  0.750000  0.837026  0.463881  1
  Ga  Ga14  1  0.750000  0.662974  0.963881  1
  Ga  Ga15  1  0.250000  0.337026  0.036119  1
  Ga  Ga16  1  0.250000  0.484189  0.429320  1
  Ga  Ga17  1  0.750000  0.515811  0.570680  1
  Ga  Ga18  1  0.750000  0.984189  0.070680  1
  Ga  Ga19  1  0.250000  0.015811  0.929320  1
  Pt  Pt20  1  0.250000  0.748317  0.534964  1
  Pt  Pt21  1  0.750000  0.251683  0.465036  1
  Pt  Pt22  1  0.750000  0.248317  0.965036  1
  Pt  Pt23  1  0.250000  0.751683  0.034964  1
  Pt  Pt24  1  0.250000  0.973005  0.784110  1
  Pt  Pt25  1  0.750000  0.026995  0.215890  1
  Pt  Pt26  1  0.750000  0.473005  0.715890  1
  Pt  Pt27  1  0.250000  0.526995  0.284110  1
