# generated using pymatgen
data_Hf3Sc4Co8Si14Mo
_symmetry_space_group_name_H-M   'P 1'
_cell_length_a   9.40191732
_cell_length_b   9.40191982
_cell_length_c   9.38566364
_cell_angle_alpha   94.14875702
_cell_angle_beta   94.03900807
_cell_angle_gamma   149.03320734
_symmetry_Int_Tables_number   1
_chemical_formula_structural   Hf3Sc4Co8Si14Mo
_chemical_formula_sum   'Hf3 Sc4 Co8 Si14 Mo1'
_cell_volume   411.34417534
_cell_formula_units_Z   1
loop_
 _symmetry_equiv_pos_site_id
 _symmetry_equiv_pos_as_xyz
  1  'x, y, z'
loop_
 _atom_site_type_symbol
 _atom_site_label
 _atom_site_symmetry_multiplicity
 _atom_site_fract_x
 _atom_site_fract_y
 _atom_site_fract_z
 _atom_site_occupancy
  Hf  Hf0  1  0.696224  0.502520  0.198742  1
  Hf  Hf1  1  0.502209  0.695324  0.197541  1
  Hf  Hf2  1  0.501148  0.304798  0.805950  1
  Sc  Sc3  1  0.862620  0.862823  0.725453  1
  Sc  Sc4  1  0.138736  0.860769  0.999504  1
  Sc  Sc5  1  0.860741  0.138198  0.998944  1
  Sc  Sc6  1  0.304208  0.500754  0.804948  1
  Co  Co7  1  0.102971  0.603167  0.206275  1
  Co  Co8  1  0.397004  0.898109  0.795167  1
  Co  Co9  1  0.898237  0.102596  0.497267  1
  Co  Co10  1  0.599584  0.395137  0.497930  1
  Co  Co11  1  0.603102  0.103299  0.206273  1
  Co  Co12  1  0.897056  0.398163  0.795165  1
  Co  Co13  1  0.102804  0.898342  0.497934  1
  Co  Co14  1  0.394673  0.599037  0.497269  1
  Si  Si15  1  0.286557  0.286820  0.573379  1
  Si  Si16  1  0.710690  0.710807  0.421486  1
  Si  Si17  1  0.290929  0.709375  0.000294  1
  Si  Si18  1  0.709910  0.290949  0.000874  1
  Si  Si19  1  0.091859  0.500438  0.592297  1
  Si  Si20  1  0.908923  0.500228  0.409186  1
  Si  Si21  1  0.500370  0.908193  0.408538  1
  Si  Si22  1  0.500455  0.091508  0.591946  1
  Si  Si23  1  0.252480  0.252143  0.008199  1
  Si  Si24  1  0.756055  0.755716  0.008201  1
  Si  Si25  1  0.297150  0.002118  0.299257  1
  Si  Si26  1  0.697470  0.999336  0.696802  1
  Si  Si27  1  0.999029  0.699243  0.698277  1
  Si  Si28  1  0.002066  0.296630  0.298706  1
  Mo  Mo29  1  0.134738  0.133460  0.268194  1
