# generated using pymatgen
data_Pr3Pa(InPt2)2
_symmetry_space_group_name_H-M   'P 1'
_cell_length_a   7.99142297
_cell_length_b   7.99142263
_cell_length_c   3.77444500
_cell_angle_alpha   90.00000000
_cell_angle_beta   90.00000000
_cell_angle_gamma   92.10086979
_symmetry_Int_Tables_number   1
_chemical_formula_structural   Pr3Pa(InPt2)2
_chemical_formula_sum   'Pr3 Pa1 In2 Pt4'
_cell_volume   240.88474832
_cell_formula_units_Z   1
loop_
 _symmetry_equiv_pos_site_id
 _symmetry_equiv_pos_as_xyz
  1  'x, y, z'
loop_
 _atom_site_type_symbol
 _atom_site_label
 _atom_site_symmetry_multiplicity
 _atom_site_fract_x
 _atom_site_fract_y
 _atom_site_fract_z
 _atom_site_occupancy
  Pr  Pr0  1  0.824988  0.672893  0.500000  1
  Pr  Pr1  1  0.172893  0.324988  0.500000  1
  Pr  Pr2  1  0.676441  0.176441  0.500000  1
  Pa  Pa3  1  0.331028  0.831028  0.500000  1
  In  In4  1  0.000851  0.995547  0.000000  1
  In  In5  1  0.495547  0.500851  0.000000  1
  Pt  Pt6  1  0.361512  0.108072  0.000000  1
  Pt  Pt7  1  0.881546  0.381546  0.000000  1
  Pt  Pt8  1  0.147121  0.647121  0.000000  1
  Pt  Pt9  1  0.608072  0.861512  0.000000  1
