# generated using pymatgen
data_Tb2Dy7Th5Rh6
_symmetry_space_group_name_H-M   'P 1'
_cell_length_a   9.75044367
_cell_length_b   9.75044135
_cell_length_c   6.39768637
_cell_angle_alpha   89.83926727
_cell_angle_beta   90.16073413
_cell_angle_gamma   119.34959987
_symmetry_Int_Tables_number   1
_chemical_formula_structural   Tb2Dy7Th5Rh6
_chemical_formula_sum   'Tb2 Dy7 Th5 Rh6'
_cell_volume   530.16260976
_cell_formula_units_Z   1
loop_
 _symmetry_equiv_pos_site_id
 _symmetry_equiv_pos_as_xyz
  1  'x, y, z'
loop_
 _atom_site_type_symbol
 _atom_site_label
 _atom_site_symmetry_multiplicity
 _atom_site_fract_x
 _atom_site_fract_y
 _atom_site_fract_z
 _atom_site_occupancy
  Tb  Tb0  1  0.666811  0.333189  0.530617  1
  Tb  Tb1  1  0.332630  0.667370  0.028471  1
  Dy  Dy2  1  0.127971  0.872029  0.257805  1
  Dy  Dy3  1  0.459971  0.921649  0.549588  1
  Dy  Dy4  1  0.078351  0.540029  0.549588  1
  Dy  Dy5  1  0.460454  0.539546  0.550918  1
  Dy  Dy6  1  0.537758  0.076640  0.053862  1
  Dy  Dy7  1  0.923360  0.462242  0.053862  1
  Dy  Dy8  1  0.539168  0.460832  0.052562  1
  Th  Th9  1  0.873998  0.744829  0.759081  1
  Th  Th10  1  0.255171  0.126002  0.759081  1
  Th  Th11  1  0.871202  0.128798  0.757641  1
  Th  Th12  1  0.130311  0.255309  0.259405  1
  Th  Th13  1  0.744691  0.869689  0.259405  1
  Rh  Rh14  1  0.182989  0.365301  0.792784  1
  Rh  Rh15  1  0.634699  0.817011  0.792784  1
  Rh  Rh16  1  0.183294  0.816706  0.789036  1
  Rh  Rh17  1  0.808762  0.629567  0.296736  1
  Rh  Rh18  1  0.370433  0.191238  0.296736  1
  Rh  Rh19  1  0.817975  0.182025  0.291474  1
