# generated using pymatgen
data_La2Pr7Y(Ga2Ru3)2
_symmetry_space_group_name_H-M   'P 1'
_cell_length_a   8.48857327
_cell_length_b   8.64490059
_cell_length_c   8.57419565
_cell_angle_alpha   109.35500371
_cell_angle_beta   109.48215677
_cell_angle_gamma   109.52025917
_symmetry_Int_Tables_number   1
_chemical_formula_structural   La2Pr7Y(Ga2Ru3)2
_chemical_formula_sum   'La2 Pr7 Y1 Ga4 Ru6'
_cell_volume   484.69276925
_cell_formula_units_Z   1
loop_
 _symmetry_equiv_pos_site_id
 _symmetry_equiv_pos_as_xyz
  1  'x, y, z'
loop_
 _atom_site_type_symbol
 _atom_site_label
 _atom_site_symmetry_multiplicity
 _atom_site_fract_x
 _atom_site_fract_y
 _atom_site_fract_z
 _atom_site_occupancy
  La  La0  1  0.751881  0.811352  0.059674  1
  La  La1  1  0.439312  0.245092  0.687689  1
  Pr  Pr2  1  0.690590  0.437292  0.255248  1
  Pr  Pr3  1  0.065030  0.749378  0.809582  1
  Pr  Pr4  1  0.814541  0.062619  0.748487  1
  Pr  Pr5  1  0.218530  0.219357  0.215524  1
  Pr  Pr6  1  0.493969  0.994134  0.279926  1
  Pr  Pr7  1  0.286065  0.502036  0.003203  1
  Pr  Pr8  1  0.003272  0.284852  0.503599  1
  Y  Y9  1  0.249062  0.681453  0.432992  1
  Ga  Ga10  1  0.583506  0.588103  0.586759  1
  Ga  Ga11  1  0.504248  0.003568  0.912892  1
  Ga  Ga12  1  0.917171  0.499843  0.002597  1
  Ga  Ga13  1  0.997634  0.905279  0.497368  1
  Ru  Ru14  1  0.254269  0.127842  0.864925  1
  Ru  Ru15  1  0.736948  0.374087  0.628881  1
  Ru  Ru16  1  0.877264  0.257922  0.125840  1
  Ru  Ru17  1  0.105251  0.864360  0.241412  1
  Ru  Ru18  1  0.622754  0.747941  0.381477  1
  Ru  Ru19  1  0.388702  0.643491  0.761926  1
