# generated using pymatgen
data_La(FeB)4
_symmetry_space_group_name_H-M   'P 1'
_cell_length_a   7.11439400
_cell_length_b   7.11439400
_cell_length_c   3.80934000
_cell_angle_alpha   90.00000000
_cell_angle_beta   90.00000000
_cell_angle_gamma   90.00000000
_symmetry_Int_Tables_number   1
_chemical_formula_structural   La(FeB)4
_chemical_formula_sum   'La2 Fe8 B8'
_cell_volume   192.80822793
_cell_formula_units_Z   2
loop_
 _symmetry_equiv_pos_site_id
 _symmetry_equiv_pos_as_xyz
  1  'x, y, z'
loop_
 _atom_site_type_symbol
 _atom_site_label
 _atom_site_symmetry_multiplicity
 _atom_site_fract_x
 _atom_site_fract_y
 _atom_site_fract_z
 _atom_site_occupancy
  La  La0  1  0.000000  0.000000  0.000000  1
  La  La1  1  0.500000  0.500000  0.500000  1
  Fe  Fe2  1  0.130998  0.387950  0.893545  1
  Fe  Fe3  1  0.869002  0.612050  0.893545  1
  Fe  Fe4  1  0.887950  0.369002  0.393545  1
  Fe  Fe5  1  0.112050  0.630998  0.393545  1
  Fe  Fe6  1  0.369002  0.112050  0.606455  1
  Fe  Fe7  1  0.630998  0.887950  0.606455  1
  Fe  Fe8  1  0.612050  0.130998  0.106455  1
  Fe  Fe9  1  0.387950  0.869002  0.106455  1
  B  B10  1  0.665039  0.798547  0.105903  1
  B  B11  1  0.334961  0.201453  0.105903  1
  B  B12  1  0.298547  0.834961  0.605903  1
  B  B13  1  0.701453  0.165039  0.605903  1
  B  B14  1  0.834961  0.701453  0.394097  1
  B  B15  1  0.165039  0.298547  0.394097  1
  B  B16  1  0.201453  0.665039  0.894097  1
  B  B17  1  0.798547  0.334961  0.894097  1
