# generated using pymatgen
data_In15MoO24
_symmetry_space_group_name_H-M   'P 1'
_cell_length_a   8.93281673
_cell_length_b   8.93281687
_cell_length_c   8.93281800
_cell_angle_alpha   109.39274056
_cell_angle_beta   109.39274086
_cell_angle_gamma   109.39274694
_symmetry_Int_Tables_number   1
_chemical_formula_structural   In15MoO24
_chemical_formula_sum   'In15 Mo1 O24'
_cell_volume   550.29926670
_cell_formula_units_Z   1
loop_
 _symmetry_equiv_pos_site_id
 _symmetry_equiv_pos_as_xyz
  1  'x, y, z'
loop_
 _atom_site_type_symbol
 _atom_site_label
 _atom_site_symmetry_multiplicity
 _atom_site_fract_x
 _atom_site_fract_y
 _atom_site_fract_z
 _atom_site_occupancy
  In  In0  1  0.965616  0.750767  0.216133  1
  In  In1  1  0.716746  0.467566  0.750832  1
  In  In2  1  0.783867  0.034384  0.249233  1
  In  In3  1  0.249233  0.783867  0.034384  1
  In  In4  1  0.249168  0.283254  0.532434  1
  In  In5  1  0.500000  0.500000  0.000000  1
  In  In6  1  0.532434  0.249168  0.283254  1
  In  In7  1  0.000000  0.500000  0.500000  1
  In  In8  1  0.467566  0.750832  0.716746  1
  In  In9  1  0.500000  0.000000  0.500000  1
  In  In10  1  0.750832  0.716746  0.467566  1
  In  In11  1  0.750767  0.216133  0.965616  1
  In  In12  1  0.283254  0.532434  0.249168  1
  In  In13  1  0.216133  0.965616  0.750767  1
  In  In14  1  0.034384  0.249233  0.783867  1
  Mo  Mo15  1  0.000000  0.000000  0.000000  1
  O  O16  1  0.043600  0.037295  0.268333  1
  O  O17  1  0.456401  0.228464  0.494014  1
  O  O18  1  0.728038  0.772598  0.235296  1
  O  O19  1  0.037295  0.268333  0.043600  1
  O  O20  1  0.535952  0.992924  0.263859  1
  O  O21  1  0.228464  0.494014  0.456401  1
  O  O22  1  0.764704  0.271962  0.227402  1
  O  O23  1  0.736141  0.464048  0.007076  1
  O  O24  1  0.505986  0.543599  0.771536  1
  O  O25  1  0.268333  0.043600  0.037295  1
  O  O26  1  0.227402  0.764704  0.271962  1
  O  O27  1  0.992924  0.263859  0.535952  1
  O  O28  1  0.007076  0.736141  0.464048  1
  O  O29  1  0.494014  0.456401  0.228464  1
  O  O30  1  0.772598  0.235296  0.728038  1
  O  O31  1  0.731667  0.956400  0.962705  1
  O  O32  1  0.235296  0.728038  0.772598  1
  O  O33  1  0.263859  0.535952  0.992924  1
  O  O34  1  0.464048  0.007076  0.736141  1
  O  O35  1  0.771536  0.505986  0.543599  1
  O  O36  1  0.271962  0.227402  0.764704  1
  O  O37  1  0.962705  0.731667  0.956400  1
  O  O38  1  0.543599  0.771536  0.505986  1
  O  O39  1  0.956400  0.962705  0.731667  1
