# generated using pymatgen
data_Sc6Al13Si10Tc6Au
_symmetry_space_group_name_H-M   'P 1'
_cell_length_a   8.46920600
_cell_length_b   8.46920553
_cell_length_c   9.23110300
_cell_angle_alpha   90.00000000
_cell_angle_beta   90.00000000
_cell_angle_gamma   120.00000185
_symmetry_Int_Tables_number   1
_chemical_formula_structural   Sc6Al13Si10Tc6Au
_chemical_formula_sum   'Sc6 Al13 Si10 Tc6 Au1'
_cell_volume   573.41571263
_cell_formula_units_Z   1
loop_
 _symmetry_equiv_pos_site_id
 _symmetry_equiv_pos_as_xyz
  1  'x, y, z'
loop_
 _atom_site_type_symbol
 _atom_site_label
 _atom_site_symmetry_multiplicity
 _atom_site_fract_x
 _atom_site_fract_y
 _atom_site_fract_z
 _atom_site_occupancy
  Sc  Sc0  1  0.198531  0.801469  0.250000  1
  Sc  Sc1  1  0.198531  0.397062  0.250000  1
  Sc  Sc2  1  0.602938  0.801469  0.250000  1
  Sc  Sc3  1  0.799772  0.200228  0.750000  1
  Sc  Sc4  1  0.799772  0.599544  0.750000  1
  Sc  Sc5  1  0.400456  0.200228  0.750000  1
  Al  Al6  1  0.163427  0.836573  0.917243  1
  Al  Al7  1  0.163427  0.326853  0.917243  1
  Al  Al8  1  0.673147  0.836573  0.917243  1
  Al  Al9  1  0.840722  0.159278  0.087556  1
  Al  Al10  1  0.840722  0.681442  0.087556  1
  Al  Al11  1  0.318558  0.159278  0.087556  1
  Al  Al12  1  0.840722  0.159278  0.412444  1
  Al  Al13  1  0.840722  0.681442  0.412444  1
  Al  Al14  1  0.318558  0.159278  0.412444  1
  Al  Al15  1  0.163427  0.836573  0.582757  1
  Al  Al16  1  0.163427  0.326853  0.582757  1
  Al  Al17  1  0.673147  0.836573  0.582757  1
  Al  Al18  1  0.000000  0.000000  0.750000  1
  Si  Si19  1  0.563934  0.436066  0.250000  1
  Si  Si20  1  0.563934  0.127869  0.250000  1
  Si  Si21  1  0.872131  0.436066  0.250000  1
  Si  Si22  1  0.436209  0.563791  0.750000  1
  Si  Si23  1  0.436209  0.872418  0.750000  1
  Si  Si24  1  0.127582  0.563791  0.750000  1
  Si  Si25  1  0.333333  0.666667  0.449890  1
  Si  Si26  1  0.666667  0.333333  0.547030  1
  Si  Si27  1  0.666667  0.333333  0.952970  1
  Si  Si28  1  0.333333  0.666667  0.050110  1
  Tc  Tc29  1  0.500250  0.499750  0.500723  1
  Tc  Tc30  1  0.500250  0.000500  0.500723  1
  Tc  Tc31  1  0.999500  0.499750  0.500723  1
  Tc  Tc32  1  0.500250  0.499750  0.999277  1
  Tc  Tc33  1  0.500250  0.000500  0.999277  1
  Tc  Tc34  1  0.999500  0.499750  0.999277  1
  Au  Au35  1  0.000000  0.000000  0.250000  1
