# generated using pymatgen
data_Ta2TiCr6Si2Mo
_symmetry_space_group_name_H-M   'P 1'
_cell_length_a   4.82765700
_cell_length_b   4.82765759
_cell_length_c   8.03980400
_cell_angle_alpha   90.00000000
_cell_angle_beta   90.00000000
_cell_angle_gamma   120.00000278
_symmetry_Int_Tables_number   1
_chemical_formula_structural   Ta2TiCr6Si2Mo
_chemical_formula_sum   'Ta2 Ti1 Cr6 Si2 Mo1'
_cell_volume   162.27400205
_cell_formula_units_Z   1
loop_
 _symmetry_equiv_pos_site_id
 _symmetry_equiv_pos_as_xyz
  1  'x, y, z'
loop_
 _atom_site_type_symbol
 _atom_site_label
 _atom_site_symmetry_multiplicity
 _atom_site_fract_x
 _atom_site_fract_y
 _atom_site_fract_z
 _atom_site_occupancy
  Ta  Ta0  1  0.666667  0.333333  0.563191  1
  Ta  Ta1  1  0.666667  0.333333  0.936624  1
  Ti  Ti2  1  0.333333  0.666667  0.064799  1
  Cr  Cr3  1  0.827654  0.172346  0.250189  1
  Cr  Cr4  1  0.827654  0.655308  0.250189  1
  Cr  Cr5  1  0.344692  0.172346  0.250189  1
  Cr  Cr6  1  0.172867  0.827133  0.749815  1
  Cr  Cr7  1  0.172867  0.345735  0.749815  1
  Cr  Cr8  1  0.654265  0.827133  0.749815  1
  Si  Si9  1  0.000000  0.000000  0.500631  1
  Si  Si10  1  0.000000  0.000000  0.001681  1
  Mo  Mo11  1  0.333333  0.666667  0.433060  1
