# generated using pymatgen
data_La4Al10Ga14PdRh
_symmetry_space_group_name_H-M   'P 1'
_cell_length_a   6.10678230
_cell_length_b   6.10655147
_cell_length_c   15.91230412
_cell_angle_alpha   89.99156230
_cell_angle_beta   90.34649894
_cell_angle_gamma   90.01687131
_symmetry_Int_Tables_number   1
_chemical_formula_structural   La4Al10Ga14PdRh
_chemical_formula_sum   'La4 Al10 Ga14 Pd1 Rh1'
_cell_volume   593.38090262
_cell_formula_units_Z   1
loop_
 _symmetry_equiv_pos_site_id
 _symmetry_equiv_pos_as_xyz
  1  'x, y, z'
loop_
 _atom_site_type_symbol
 _atom_site_label
 _atom_site_symmetry_multiplicity
 _atom_site_fract_x
 _atom_site_fract_y
 _atom_site_fract_z
 _atom_site_occupancy
  La  La0  1  0.752284  0.250672  0.249031  1
  La  La1  1  0.252379  0.749181  0.247781  1
  La  La2  1  0.248047  0.749835  0.751870  1
  La  La3  1  0.748036  0.250199  0.750566  1
  Al  Al4  1  0.502947  0.002807  0.913541  1
  Al  Al5  1  0.996485  0.003621  0.913820  1
  Al  Al6  1  0.502800  0.497353  0.913791  1
  Al  Al7  1  0.996403  0.496280  0.913584  1
  Al  Al8  1  0.503321  0.003641  0.086053  1
  Al  Al9  1  0.996932  0.002847  0.086249  1
  Al  Al10  1  0.503610  0.496139  0.086201  1
  Al  Al11  1  0.997124  0.497494  0.086083  1
  Al  Al12  1  0.582789  0.079693  0.433959  1
  Al  Al13  1  0.083859  0.919094  0.433552  1
  Ga  Ga14  1  0.250635  0.250071  0.186740  1
  Ga  Ga15  1  0.750692  0.749905  0.186734  1
  Ga  Ga16  1  0.748651  0.749762  0.813315  1
  Ga  Ga17  1  0.248684  0.250335  0.813326  1
  Ga  Ga18  1  0.252965  0.246272  0.344435  1
  Ga  Ga19  1  0.752919  0.753836  0.344422  1
  Ga  Ga20  1  0.747801  0.748376  0.655443  1
  Ga  Ga21  1  0.247895  0.251533  0.655456  1
  Ga  Ga22  1  0.421821  0.580575  0.431047  1
  Ga  Ga23  1  0.922733  0.420386  0.431554  1
  Ga  Ga24  1  0.417126  0.921657  0.568617  1
  Ga  Ga25  1  0.918126  0.077505  0.568099  1
  Ga  Ga26  1  0.576130  0.419780  0.567085  1
  Ga  Ga27  1  0.076931  0.581096  0.567659  1
  Pd  Pd28  1  0.249914  0.750077  0.999984  1
  Rh  Rh29  1  0.749960  0.249976  0.000003  1
