# generated using pymatgen
data_Tb5Er(RuBr3)2
_symmetry_space_group_name_H-M   'P 1'
_cell_length_a   4.10421500
_cell_length_b   8.60677565
_cell_length_c   11.91869456
_cell_angle_alpha   87.66125382
_cell_angle_beta   90.00000000
_cell_angle_gamma   90.00000000
_symmetry_Int_Tables_number   1
_chemical_formula_structural   Tb5Er(RuBr3)2
_chemical_formula_sum   'Tb5 Er1 Ru2 Br6'
_cell_volume   420.66595946
_cell_formula_units_Z   1
loop_
 _symmetry_equiv_pos_site_id
 _symmetry_equiv_pos_as_xyz
  1  'x, y, z'
loop_
 _atom_site_type_symbol
 _atom_site_label
 _atom_site_symmetry_multiplicity
 _atom_site_fract_x
 _atom_site_fract_y
 _atom_site_fract_z
 _atom_site_occupancy
  Tb  Tb0  1  0.250000  0.277190  0.395137  1
  Tb  Tb1  1  0.750000  0.722255  0.604246  1
  Tb  Tb2  1  0.250000  0.864862  0.364746  1
  Tb  Tb3  1  0.750000  0.134811  0.634657  1
  Tb  Tb4  1  0.250000  0.890867  0.827471  1
  Er  Er5  1  0.750000  0.109992  0.175412  1
  Ru  Ru6  1  0.250000  0.938499  0.596701  1
  Ru  Ru7  1  0.750000  0.061299  0.402778  1
  Br  Br8  1  0.250000  0.427868  0.629912  1
  Br  Br9  1  0.750000  0.571396  0.368800  1
  Br  Br10  1  0.250000  0.883022  0.102993  1
  Br  Br11  1  0.750000  0.122479  0.897837  1
  Br  Br12  1  0.250000  0.341686  0.138657  1
  Br  Br13  1  0.750000  0.653773  0.860653  1
