# generated using pymatgen
data_Tb3Y(AlAu)4
_symmetry_space_group_name_H-M   'P 1'
_cell_length_a   4.48972200
_cell_length_b   7.23559803
_cell_length_c   7.79896903
_cell_angle_alpha   89.98939994
_cell_angle_beta   90.00000000
_cell_angle_gamma   90.00000000
_symmetry_Int_Tables_number   1
_chemical_formula_structural   Tb3Y(AlAu)4
_chemical_formula_sum   'Tb3 Y1 Al4 Au4'
_cell_volume   253.35592843
_cell_formula_units_Z   1
loop_
 _symmetry_equiv_pos_site_id
 _symmetry_equiv_pos_as_xyz
  1  'x, y, z'
loop_
 _atom_site_type_symbol
 _atom_site_label
 _atom_site_symmetry_multiplicity
 _atom_site_fract_x
 _atom_site_fract_y
 _atom_site_fract_z
 _atom_site_occupancy
  Tb  Tb0  1  0.250000  0.508264  0.196578  1
  Tb  Tb1  1  0.750000  0.991773  0.696058  1
  Tb  Tb2  1  0.750000  0.491594  0.803523  1
  Y  Y3  1  0.250000  0.007738  0.302910  1
  Al  Al4  1  0.250000  0.171440  0.922422  1
  Al  Al5  1  0.250000  0.672025  0.578078  1
  Al  Al6  1  0.750000  0.828532  0.078084  1
  Al  Al7  1  0.750000  0.327922  0.422112  1
  Au  Au8  1  0.250000  0.288410  0.595140  1
  Au  Au9  1  0.250000  0.788738  0.905005  1
  Au  Au10  1  0.750000  0.711654  0.404549  1
  Au  Au11  1  0.750000  0.211909  0.095540  1
