# generated using pymatgen
data_LaPr3(ZnIr)4
_symmetry_space_group_name_H-M   'P 1'
_cell_length_a   4.09047100
_cell_length_b   7.33033600
_cell_length_c   16.63570800
_cell_angle_alpha   90.00000000
_cell_angle_beta   90.00000000
_cell_angle_gamma   90.00000000
_symmetry_Int_Tables_number   1
_chemical_formula_structural   LaPr3(ZnIr)4
_chemical_formula_sum   'La2 Pr6 Zn8 Ir8'
_cell_volume   498.81383283
_cell_formula_units_Z   2
loop_
 _symmetry_equiv_pos_site_id
 _symmetry_equiv_pos_as_xyz
  1  'x, y, z'
loop_
 _atom_site_type_symbol
 _atom_site_label
 _atom_site_symmetry_multiplicity
 _atom_site_fract_x
 _atom_site_fract_y
 _atom_site_fract_z
 _atom_site_occupancy
  La  La0  1  0.750000  0.453600  0.217084  1
  La  La1  1  0.750000  0.953600  0.282916  1
  Pr  Pr2  1  0.750000  0.833532  0.059521  1
  Pr  Pr3  1  0.250000  0.045988  0.717200  1
  Pr  Pr4  1  0.250000  0.166457  0.939829  1
  Pr  Pr5  1  0.250000  0.545988  0.782800  1
  Pr  Pr6  1  0.750000  0.333532  0.440479  1
  Pr  Pr7  1  0.250000  0.666457  0.560171  1
  Zn  Zn8  1  0.250000  0.999213  0.440931  1
  Zn  Zn9  1  0.750000  0.501352  0.939431  1
  Zn  Zn10  1  0.750000  0.001352  0.560569  1
  Zn  Zn11  1  0.250000  0.625725  0.351486  1
  Zn  Zn12  1  0.750000  0.374276  0.650029  1
  Zn  Zn13  1  0.750000  0.874276  0.849971  1
  Zn  Zn14  1  0.250000  0.499213  0.059069  1
  Zn  Zn15  1  0.250000  0.125725  0.148514  1
  Ir  Ir16  1  0.250000  0.242596  0.565075  1
  Ir  Ir17  1  0.750000  0.259591  0.065540  1
  Ir  Ir18  1  0.250000  0.243200  0.312578  1
  Ir  Ir19  1  0.750000  0.254468  0.813334  1
  Ir  Ir20  1  0.250000  0.742596  0.934925  1
  Ir  Ir21  1  0.750000  0.754468  0.686666  1
  Ir  Ir22  1  0.750000  0.759591  0.434460  1
  Ir  Ir23  1  0.250000  0.743200  0.187422  1
