# generated using pymatgen
data_ThP2S7
_symmetry_space_group_name_H-M   'P 1'
_cell_length_a   17.13370251
_cell_length_b   15.97984832
_cell_length_c   8.96552700
_cell_angle_alpha   81.53643628
_cell_angle_beta   67.29417597
_cell_angle_gamma   31.16938635
_symmetry_Int_Tables_number   1
_chemical_formula_structural   ThP2S7
_chemical_formula_sum   'Th4 P8 S28'
_cell_volume   1082.41556450
_cell_formula_units_Z   4
loop_
 _symmetry_equiv_pos_site_id
 _symmetry_equiv_pos_as_xyz
  1  'x, y, z'
loop_
 _atom_site_type_symbol
 _atom_site_label
 _atom_site_symmetry_multiplicity
 _atom_site_fract_x
 _atom_site_fract_y
 _atom_site_fract_z
 _atom_site_occupancy
  Th  Th0  1  0.110605  0.110605  0.889395  1
  Th  Th1  1  0.889395  0.889395  0.110605  1
  Th  Th2  1  0.139395  0.139395  0.360605  1
  Th  Th3  1  0.360605  0.360605  0.139395  1
  P  P4  1  0.256114  0.855505  0.131194  1
  P  P5  1  0.757188  0.131194  0.855505  1
  P  P6  1  0.131194  0.757188  0.256114  1
  P  P7  1  0.855505  0.256114  0.757188  1
  P  P8  1  0.993886  0.394495  0.118806  1
  P  P9  1  0.492812  0.118806  0.394495  1
  P  P10  1  0.118806  0.492812  0.993886  1
  P  P11  1  0.394495  0.993886  0.492812  1
  S  S12  1  0.636903  0.997700  0.124441  1
  S  S13  1  0.240955  0.124441  0.997700  1
  S  S14  1  0.124441  0.240955  0.636903  1
  S  S15  1  0.997700  0.636903  0.240955  1
  S  S16  1  0.613097  0.252300  0.125559  1
  S  S17  1  0.009045  0.125559  0.252300  1
  S  S18  1  0.125559  0.009045  0.613097  1
  S  S19  1  0.252300  0.613097  0.009045  1
  S  S20  1  0.420887  0.786949  0.143112  1
  S  S21  1  0.649051  0.143112  0.786949  1
  S  S22  1  0.143112  0.649051  0.420887  1
  S  S23  1  0.786949  0.420887  0.649051  1
  S  S24  1  0.829113  0.463051  0.106888  1
  S  S25  1  0.600949  0.106888  0.463051  1
  S  S26  1  0.106888  0.600949  0.829113  1
  S  S27  1  0.463051  0.829113  0.600949  1
  S  S28  1  0.787497  0.310997  0.009529  1
  S  S29  1  0.891976  0.009529  0.310997  1
  S  S30  1  0.009529  0.891976  0.787497  1
  S  S31  1  0.310997  0.787497  0.891976  1
  S  S32  1  0.462503  0.939003  0.240471  1
  S  S33  1  0.358024  0.240471  0.939003  1
  S  S34  1  0.240471  0.358024  0.462503  1
  S  S35  1  0.939003  0.462503  0.358024  1
  S  S36  1  0.275469  0.724531  0.275469  1
  S  S37  1  0.724531  0.275469  0.724531  1
  S  S38  1  0.974531  0.525469  0.974531  1
  S  S39  1  0.525469  0.974531  0.525469  1
