# generated using pymatgen
data_Ba2MoH9
_symmetry_space_group_name_H-M   'P 1'
_cell_length_a   9.60274500
_cell_length_b   9.60274342
_cell_length_c   5.41004400
_cell_angle_alpha   90.00000000
_cell_angle_beta   90.00000000
_cell_angle_gamma   120.00000890
_symmetry_Int_Tables_number   1
_chemical_formula_structural   Ba2MoH9
_chemical_formula_sum   'Ba6 Mo3 H27'
_cell_volume   432.03816335
_cell_formula_units_Z   3
loop_
 _symmetry_equiv_pos_site_id
 _symmetry_equiv_pos_as_xyz
  1  'x, y, z'
loop_
 _atom_site_type_symbol
 _atom_site_label
 _atom_site_symmetry_multiplicity
 _atom_site_fract_x
 _atom_site_fract_y
 _atom_site_fract_z
 _atom_site_occupancy
  Ba  Ba0  1  0.000000  0.268418  0.500000  1
  Ba  Ba1  1  0.731582  0.731582  0.500000  1
  Ba  Ba2  1  0.268418  0.000000  0.500000  1
  Ba  Ba3  1  0.000000  0.602844  0.000000  1
  Ba  Ba4  1  0.397156  0.397156  0.000000  1
  Ba  Ba5  1  0.602844  0.000000  0.000000  1
  Mo  Mo6  1  0.666667  0.333333  0.500000  1
  Mo  Mo7  1  0.333333  0.666667  0.500000  1
  Mo  Mo8  1  0.000000  0.000000  0.000000  1
  H  H9  1  0.781948  0.311200  0.743777  1
  H  H10  1  0.688800  0.470747  0.743777  1
  H  H11  1  0.529253  0.218052  0.743777  1
  H  H12  1  0.218052  0.529253  0.256223  1
  H  H13  1  0.529253  0.218052  0.256223  1
  H  H14  1  0.781948  0.311200  0.256223  1
  H  H15  1  0.688800  0.470747  0.256223  1
  H  H16  1  0.311200  0.781948  0.743777  1
  H  H17  1  0.470747  0.688800  0.743777  1
  H  H18  1  0.187247  0.000000  0.000000  1
  H  H19  1  0.812753  0.812753  0.000000  1
  H  H20  1  0.000000  0.187247  0.000000  1
  H  H21  1  0.863778  0.000000  0.231899  1
  H  H22  1  0.136222  0.136222  0.768101  1
  H  H23  1  0.000000  0.863778  0.768101  1
  H  H24  1  0.000000  0.863778  0.231899  1
  H  H25  1  0.136222  0.136222  0.231899  1
  H  H26  1  0.863778  0.000000  0.768101  1
  H  H27  1  0.136924  0.637787  0.500000  1
  H  H28  1  0.500863  0.863076  0.500000  1
  H  H29  1  0.362213  0.499137  0.500000  1
  H  H30  1  0.499137  0.362213  0.500000  1
  H  H31  1  0.863076  0.500863  0.500000  1
  H  H32  1  0.637787  0.136924  0.500000  1
  H  H33  1  0.218052  0.529253  0.743777  1
  H  H34  1  0.311200  0.781948  0.256223  1
  H  H35  1  0.470747  0.688800  0.256223  1
