# generated using pymatgen
data_Sm3Dy(Sn5Rh3)2
_symmetry_space_group_name_H-M   'P 1'
_cell_length_a   13.53294963
_cell_length_b   13.53294919
_cell_length_c   7.26775762
_cell_angle_alpha   89.90464288
_cell_angle_beta   90.09535749
_cell_angle_gamma   160.91361350
_symmetry_Int_Tables_number   1
_chemical_formula_structural   Sm3Dy(Sn5Rh3)2
_chemical_formula_sum   'Sm3 Dy1 Sn10 Rh6'
_cell_volume   435.23486702
_cell_formula_units_Z   1
loop_
 _symmetry_equiv_pos_site_id
 _symmetry_equiv_pos_as_xyz
  1  'x, y, z'
loop_
 _atom_site_type_symbol
 _atom_site_label
 _atom_site_symmetry_multiplicity
 _atom_site_fract_x
 _atom_site_fract_y
 _atom_site_fract_z
 _atom_site_occupancy
  Sm  Sm0  1  0.172353  0.827647  0.755128  1
  Sm  Sm1  1  0.827703  0.172297  0.255476  1
  Sm  Sm2  1  0.476199  0.523801  0.738287  1
  Dy  Dy3  1  0.524244  0.475756  0.237923  1
  Sn  Sn4  1  0.879337  0.120663  0.730980  1
  Sn  Sn5  1  0.120258  0.879742  0.231273  1
  Sn  Sn6  1  0.704380  0.295620  0.049152  1
  Sn  Sn7  1  0.295459  0.704541  0.549290  1
  Sn  Sn8  1  0.596297  0.403703  0.612018  1
  Sn  Sn9  1  0.403912  0.596088  0.112630  1
  Sn  Sn10  1  0.952588  0.047412  0.398263  1
  Sn  Sn11  1  0.047893  0.952107  0.900065  1
  Sn  Sn12  1  0.290451  0.709549  0.976740  1
  Sn  Sn13  1  0.709504  0.290496  0.476542  1
  Rh  Rh14  1  0.050620  0.949380  0.515442  1
  Rh  Rh15  1  0.949453  0.050547  0.018807  1
  Rh  Rh16  1  0.776748  0.223252  0.765265  1
  Rh  Rh17  1  0.223128  0.776872  0.265021  1
  Rh  Rh18  1  0.394651  0.605349  0.483027  1
  Rh  Rh19  1  0.604822  0.395178  0.984670  1
