# generated using pymatgen
data_Ta2BeReB
_symmetry_space_group_name_H-M   'P 1'
_cell_length_a   6.18318300
_cell_length_b   6.18494100
_cell_length_c   3.29571200
_cell_angle_alpha   90.00000000
_cell_angle_beta   90.00000000
_cell_angle_gamma   90.00000000
_symmetry_Int_Tables_number   1
_chemical_formula_structural   Ta2BeReB
_chemical_formula_sum   'Ta4 Be2 Re2 B2'
_cell_volume   126.03666839
_cell_formula_units_Z   2
loop_
 _symmetry_equiv_pos_site_id
 _symmetry_equiv_pos_as_xyz
  1  'x, y, z'
loop_
 _atom_site_type_symbol
 _atom_site_label
 _atom_site_symmetry_multiplicity
 _atom_site_fract_x
 _atom_site_fract_y
 _atom_site_fract_z
 _atom_site_occupancy
  Ta  Ta0  1  0.322296  0.828761  0.500000  1
  Ta  Ta1  1  0.822296  0.671239  0.500000  1
  Ta  Ta2  1  0.176923  0.319217  0.500000  1
  Ta  Ta3  1  0.676923  0.180783  0.500000  1
  Be  Be4  1  0.116061  0.614911  0.000000  1
  Be  Be5  1  0.616061  0.885089  0.000000  1
  Re  Re6  1  0.000317  0.004032  0.000000  1
  Re  Re7  1  0.500317  0.495968  0.000000  1
  B  B8  1  0.384403  0.116714  0.000000  1
  B  B9  1  0.884403  0.383286  0.000000  1
