# generated using pymatgen
data_HoEr9In8(CuIr)2
_symmetry_space_group_name_H-M   'P 1'
_cell_length_a   3.59835500
_cell_length_b   8.07909225
_cell_length_c   18.06069384
_cell_angle_alpha   89.73841395
_cell_angle_beta   90.00000000
_cell_angle_gamma   90.00000000
_symmetry_Int_Tables_number   1
_chemical_formula_structural   HoEr9In8(CuIr)2
_chemical_formula_sum   'Ho1 Er9 In8 Cu2 Ir2'
_cell_volume   525.04494114
_cell_formula_units_Z   1
loop_
 _symmetry_equiv_pos_site_id
 _symmetry_equiv_pos_as_xyz
  1  'x, y, z'
loop_
 _atom_site_type_symbol
 _atom_site_label
 _atom_site_symmetry_multiplicity
 _atom_site_fract_x
 _atom_site_fract_y
 _atom_site_fract_z
 _atom_site_occupancy
  Ho  Ho0  1  0.000000  0.000000  0.000000  1
  Er  Er1  1  0.000000  0.500000  0.500000  1
  Er  Er2  1  0.000000  0.725200  0.278577  1
  Er  Er3  1  0.000000  0.274800  0.721423  1
  Er  Er4  1  0.000000  0.743935  0.778442  1
  Er  Er5  1  0.000000  0.256065  0.221558  1
  Er  Er6  1  0.000000  0.617032  0.086990  1
  Er  Er7  1  0.000000  0.382968  0.913010  1
  Er  Er8  1  0.000000  0.883438  0.583470  1
  Er  Er9  1  0.000000  0.116562  0.416530  1
  In  In10  1  0.500000  0.708993  0.931714  1
  In  In11  1  0.500000  0.291007  0.068286  1
  In  In12  1  0.500000  0.792652  0.430573  1
  In  In13  1  0.500000  0.207348  0.569427  1
  In  In14  1  0.500000  0.579721  0.646803  1
  In  In15  1  0.500000  0.420279  0.353197  1
  In  In16  1  0.500000  0.925505  0.153179  1
  In  In17  1  0.500000  0.074495  0.846821  1
  Cu  Cu18  1  0.500000  0.981197  0.696704  1
  Cu  Cu19  1  0.500000  0.018803  0.303296  1
  Ir  Ir20  1  0.500000  0.521724  0.196370  1
  Ir  Ir21  1  0.500000  0.478276  0.803630  1
