# generated using pymatgen
data_Pb(IBr4)2
_symmetry_space_group_name_H-M   'P 1'
_cell_length_a   8.76681400
_cell_length_b   8.75518707
_cell_length_c   12.96821662
_cell_angle_alpha   96.50428213
_cell_angle_beta   90.00000000
_cell_angle_gamma   90.00000000
_symmetry_Int_Tables_number   1
_chemical_formula_structural   Pb(IBr4)2
_chemical_formula_sum   'Pb2 I4 Br16'
_cell_volume   988.96986940
_cell_formula_units_Z   2
loop_
 _symmetry_equiv_pos_site_id
 _symmetry_equiv_pos_as_xyz
  1  'x, y, z'
loop_
 _atom_site_type_symbol
 _atom_site_label
 _atom_site_symmetry_multiplicity
 _atom_site_fract_x
 _atom_site_fract_y
 _atom_site_fract_z
 _atom_site_occupancy
  Pb  Pb0  1  0.966463  0.500000  0.750000  1
  Pb  Pb1  1  0.033537  0.500000  0.250000  1
  I  I2  1  0.300733  0.741713  0.619083  1
  I  I3  1  0.699267  0.741713  0.119083  1
  I  I4  1  0.699267  0.258287  0.380917  1
  I  I5  1  0.300733  0.258287  0.880917  1
  Br  Br6  1  0.797335  0.293660  0.169265  1
  Br  Br7  1  0.797335  0.706340  0.330735  1
  Br  Br8  1  0.353140  0.760557  0.421855  1
  Br  Br9  1  0.353140  0.239443  0.078145  1
  Br  Br10  1  0.646860  0.239443  0.578145  1
  Br  Br11  1  0.646860  0.760557  0.921855  1
  Br  Br12  1  0.991386  0.712353  0.577946  1
  Br  Br13  1  0.991386  0.287647  0.922054  1
  Br  Br14  1  0.008614  0.287647  0.422054  1
  Br  Br15  1  0.008614  0.712353  0.077946  1
  Br  Br16  1  0.592874  0.767947  0.674758  1
  Br  Br17  1  0.592874  0.232053  0.825242  1
  Br  Br18  1  0.407126  0.232053  0.325242  1
  Br  Br19  1  0.407126  0.767947  0.174758  1
  Br  Br20  1  0.202665  0.293660  0.669265  1
  Br  Br21  1  0.202665  0.706340  0.830735  1
