# generated using pymatgen
data_SmY15(ZnCo)4
_symmetry_space_group_name_H-M   'P 1'
_cell_length_a   9.40131747
_cell_length_b   9.38973356
_cell_length_c   9.38973300
_cell_angle_alpha   60.00000551
_cell_angle_beta   60.04075658
_cell_angle_gamma   60.04075509
_symmetry_Int_Tables_number   1
_chemical_formula_structural   SmY15(ZnCo)4
_chemical_formula_sum   'Sm1 Y15 Zn4 Co4'
_cell_volume   586.47231073
_cell_formula_units_Z   1
loop_
 _symmetry_equiv_pos_site_id
 _symmetry_equiv_pos_as_xyz
  1  'x, y, z'
loop_
 _atom_site_type_symbol
 _atom_site_label
 _atom_site_symmetry_multiplicity
 _atom_site_fract_x
 _atom_site_fract_y
 _atom_site_fract_z
 _atom_site_occupancy
  Sm  Sm0  1  0.949266  0.350245  0.350245  1
  Y  Y1  1  0.936110  0.936979  0.563455  1
  Y  Y2  1  0.810160  0.189543  0.189543  1
  Y  Y3  1  0.936110  0.563455  0.563455  1
  Y  Y4  1  0.936110  0.563455  0.936979  1
  Y  Y5  1  0.810160  0.810755  0.189543  1
  Y  Y6  1  0.351069  0.350506  0.350506  1
  Y  Y7  1  0.562278  0.937077  0.937077  1
  Y  Y8  1  0.562278  0.937077  0.563567  1
  Y  Y9  1  0.190363  0.809973  0.809973  1
  Y  Y10  1  0.190363  0.189693  0.809973  1
  Y  Y11  1  0.351069  0.350506  0.947919  1
  Y  Y12  1  0.351069  0.947919  0.350506  1
  Y  Y13  1  0.810160  0.189543  0.810755  1
  Y  Y14  1  0.562278  0.563567  0.937077  1
  Y  Y15  1  0.190363  0.809973  0.189693  1
  Zn  Zn16  1  0.575732  0.577293  0.269685  1
  Zn  Zn17  1  0.270054  0.576649  0.576649  1
  Zn  Zn18  1  0.575732  0.577293  0.577293  1
  Zn  Zn19  1  0.575732  0.269685  0.577293  1
  Co  Co20  1  0.574417  0.141862  0.141862  1
  Co  Co21  1  0.143044  0.141006  0.141006  1
  Co  Co22  1  0.143044  0.574944  0.141006  1
  Co  Co23  1  0.143044  0.141006  0.574944  1
