# generated using pymatgen
data_LaNd3(Al5Pt3)4
_symmetry_space_group_name_H-M   'P 1'
_cell_length_a   4.15040600
_cell_length_b   7.40124511
_cell_length_c   20.78275632
_cell_angle_alpha   90.02017224
_cell_angle_beta   90.00000000
_cell_angle_gamma   90.00000000
_symmetry_Int_Tables_number   1
_chemical_formula_structural   LaNd3(Al5Pt3)4
_chemical_formula_sum   'La1 Nd3 Al20 Pt12'
_cell_volume   638.40824650
_cell_formula_units_Z   1
loop_
 _symmetry_equiv_pos_site_id
 _symmetry_equiv_pos_as_xyz
  1  'x, y, z'
loop_
 _atom_site_type_symbol
 _atom_site_label
 _atom_site_symmetry_multiplicity
 _atom_site_fract_x
 _atom_site_fract_y
 _atom_site_fract_z
 _atom_site_occupancy
  La  La0  1  0.250000  0.118021  0.640117  1
  Nd  Nd1  1  0.750000  0.882152  0.359863  1
  Nd  Nd2  1  0.250000  0.382080  0.139912  1
  Nd  Nd3  1  0.750000  0.617885  0.860094  1
  Al  Al4  1  0.750000  0.354592  0.383145  1
  Al  Al5  1  0.750000  0.886203  0.982962  1
  Al  Al6  1  0.750000  0.687594  0.200603  1
  Al  Al7  1  0.250000  0.868735  0.491149  1
  Al  Al8  1  0.250000  0.630962  0.991447  1
  Al  Al9  1  0.250000  0.313004  0.799550  1
  Al  Al10  1  0.750000  0.076584  0.208704  1
  Al  Al11  1  0.250000  0.644407  0.616797  1
  Al  Al12  1  0.250000  0.576534  0.291205  1
  Al  Al13  1  0.250000  0.187685  0.299434  1
  Al  Al14  1  0.750000  0.145599  0.883686  1
  Al  Al15  1  0.250000  0.922804  0.791783  1
  Al  Al16  1  0.750000  0.369105  0.008688  1
  Al  Al17  1  0.750000  0.613757  0.482311  1
  Al  Al18  1  0.750000  0.131202  0.507935  1
  Al  Al19  1  0.250000  0.113752  0.017276  1
  Al  Al20  1  0.250000  0.854795  0.116696  1
  Al  Al21  1  0.250000  0.387316  0.516652  1
  Al  Al22  1  0.750000  0.424350  0.708886  1
  Al  Al23  1  0.750000  0.810799  0.701082  1
  Pt  Pt24  1  0.750000  0.383661  0.262267  1
  Pt  Pt25  1  0.250000  0.883602  0.237637  1
  Pt  Pt26  1  0.250000  0.616412  0.737694  1
  Pt  Pt27  1  0.750000  0.115973  0.763060  1
  Pt  Pt28  1  0.250000  0.163828  0.427336  1
  Pt  Pt29  1  0.750000  0.423174  0.584131  1
  Pt  Pt30  1  0.750000  0.077905  0.084819  1
  Pt  Pt31  1  0.250000  0.921615  0.915679  1
  Pt  Pt32  1  0.750000  0.835608  0.572101  1
  Pt  Pt33  1  0.250000  0.336122  0.927703  1
  Pt  Pt34  1  0.750000  0.664039  0.072653  1
  Pt  Pt35  1  0.250000  0.578142  0.414944  1
