# generated using pymatgen
data_HoEr2TmZn12
_symmetry_space_group_name_H-M   'P 1'
_cell_length_a   4.37394500
_cell_length_b   6.64657673
_cell_length_c   10.05934220
_cell_angle_alpha   89.93682218
_cell_angle_beta   90.00000000
_cell_angle_gamma   90.00000000
_symmetry_Int_Tables_number   1
_chemical_formula_structural   HoEr2TmZn12
_chemical_formula_sum   'Ho1 Er2 Tm1 Zn12'
_cell_volume   292.44261472
_cell_formula_units_Z   1
loop_
 _symmetry_equiv_pos_site_id
 _symmetry_equiv_pos_as_xyz
  1  'x, y, z'
loop_
 _atom_site_type_symbol
 _atom_site_label
 _atom_site_symmetry_multiplicity
 _atom_site_fract_x
 _atom_site_fract_y
 _atom_site_fract_z
 _atom_site_occupancy
  Ho  Ho0  1  0.250000  0.778924  0.835665  1
  Er  Er1  1  0.750000  0.721091  0.335768  1
  Er  Er2  1  0.750000  0.220682  0.163983  1
  Tm  Tm3  1  0.250000  0.279176  0.663725  1
  Zn  Zn4  1  0.250000  0.534888  0.103940  1
  Zn  Zn5  1  0.250000  0.034784  0.396871  1
  Zn  Zn6  1  0.750000  0.465471  0.896591  1
  Zn  Zn7  1  0.750000  0.965439  0.603850  1
  Zn  Zn8  1  0.250000  0.918855  0.149674  1
  Zn  Zn9  1  0.250000  0.418311  0.350524  1
  Zn  Zn10  1  0.750000  0.082610  0.850115  1
  Zn  Zn11  1  0.750000  0.580391  0.649387  1
  Zn  Zn12  1  0.250000  0.216858  0.956892  1
  Zn  Zn13  1  0.250000  0.713896  0.542545  1
  Zn  Zn14  1  0.750000  0.784144  0.042749  1
  Zn  Zn15  1  0.750000  0.284482  0.457723  1
