# generated using pymatgen
data_Gd6Lu(ScPb2)5
_symmetry_space_group_name_H-M   'P 1'
_cell_length_a   6.35929700
_cell_length_b   9.28927300
_cell_length_c   11.42120100
_cell_angle_alpha   113.99547836
_cell_angle_beta   106.16465717
_cell_angle_gamma   89.99999980
_symmetry_Int_Tables_number   1
_chemical_formula_structural   Gd6Lu(ScPb2)5
_chemical_formula_sum   'Gd6 Lu1 Sc5 Pb10'
_cell_volume   587.06261919
_cell_formula_units_Z   1
loop_
 _symmetry_equiv_pos_site_id
 _symmetry_equiv_pos_as_xyz
  1  'x, y, z'
loop_
 _atom_site_type_symbol
 _atom_site_label
 _atom_site_symmetry_multiplicity
 _atom_site_fract_x
 _atom_site_fract_y
 _atom_site_fract_z
 _atom_site_occupancy
  Gd  Gd0  1  0.558506  0.325068  0.117011  1
  Gd  Gd1  1  0.940670  0.207980  0.881341  1
  Gd  Gd2  1  0.059561  0.788023  0.119121  1
  Gd  Gd3  1  0.144611  0.250667  0.289222  1
  Gd  Gd4  1  0.856512  0.748950  0.713023  1
  Gd  Gd5  1  0.643127  0.034030  0.286256  1
  Lu  Lu6  1  0.357865  0.969531  0.715728  1
  Sc  Sc7  1  0.552967  0.307005  0.606439  1
  Sc  Sc8  1  0.447108  0.698165  0.393771  1
  Sc  Sc9  1  0.946662  0.698165  0.393771  1
  Sc  Sc10  1  0.053473  0.307005  0.606439  1
  Sc  Sc11  1  0.440349  0.669188  0.880699  1
  Pb  Pb12  1  0.294211  0.596610  0.588424  1
  Pb  Pb13  1  0.710812  0.415295  0.421626  1
  Pb  Pb14  1  0.788709  0.993317  0.577418  1
  Pb  Pb15  1  0.212526  0.007908  0.425054  1
  Pb  Pb16  1  0.250771  0.990602  0.994391  1
  Pb  Pb17  1  0.743619  0.990602  0.994391  1
  Pb  Pb18  1  0.080878  0.480248  0.161758  1
  Pb  Pb19  1  0.920796  0.517897  0.841591  1
  Pb  Pb20  1  0.576034  0.674770  0.152068  1
  Pb  Pb21  1  0.420230  0.328973  0.840457  1
