# generated using pymatgen
data_Tb16In4NiRh3
_symmetry_space_group_name_H-M   'P 1'
_cell_length_a   9.71486845
_cell_length_b   9.67820010
_cell_length_c   9.71486800
_cell_angle_alpha   59.87459111
_cell_angle_beta   60.00000153
_cell_angle_gamma   59.87459059
_symmetry_Int_Tables_number   1
_chemical_formula_structural   Tb16In4NiRh3
_chemical_formula_sum   'Tb16 In4 Ni1 Rh3'
_cell_volume   644.65535620
_cell_formula_units_Z   1
loop_
 _symmetry_equiv_pos_site_id
 _symmetry_equiv_pos_as_xyz
  1  'x, y, z'
loop_
 _atom_site_type_symbol
 _atom_site_label
 _atom_site_symmetry_multiplicity
 _atom_site_fract_x
 _atom_site_fract_y
 _atom_site_fract_z
 _atom_site_occupancy
  Tb  Tb0  1  0.810856  0.811065  0.189039  1
  Tb  Tb1  1  0.811327  0.189798  0.811327  1
  Tb  Tb2  1  0.187549  0.189798  0.811327  1
  Tb  Tb3  1  0.650242  0.049273  0.650242  1
  Tb  Tb4  1  0.061788  0.061832  0.438190  1
  Tb  Tb5  1  0.437312  0.438196  0.062246  1
  Tb  Tb6  1  0.651866  0.649083  0.651866  1
  Tb  Tb7  1  0.811327  0.189798  0.187549  1
  Tb  Tb8  1  0.189039  0.811065  0.810856  1
  Tb  Tb9  1  0.047185  0.649083  0.651866  1
  Tb  Tb10  1  0.438190  0.061832  0.061788  1
  Tb  Tb11  1  0.438190  0.061832  0.438190  1
  Tb  Tb12  1  0.062246  0.438196  0.062246  1
  Tb  Tb13  1  0.651866  0.649083  0.047185  1
  Tb  Tb14  1  0.189039  0.811065  0.189039  1
  Tb  Tb15  1  0.062246  0.438196  0.437312  1
  In  In16  1  0.416847  0.417771  0.416847  1
  In  In17  1  0.416847  0.417771  0.748534  1
  In  In18  1  0.417697  0.746908  0.417697  1
  In  In19  1  0.748534  0.417771  0.416847  1
  Ni  Ni20  1  0.857736  0.426792  0.857736  1
  Rh  Rh21  1  0.857488  0.857930  0.857488  1
  Rh  Rh22  1  0.857488  0.857930  0.427094  1
  Rh  Rh23  1  0.427094  0.857930  0.857488  1
