# generated using pymatgen
data_KCaY2CuSe5
_symmetry_space_group_name_H-M   'P 1'
_cell_length_a   7.40433483
_cell_length_b   7.40433550
_cell_length_c   17.97429100
_cell_angle_alpha   90.00000000
_cell_angle_beta   90.00000000
_cell_angle_gamma   147.56342045
_symmetry_Int_Tables_number   1
_chemical_formula_structural   KCaY2CuSe5
_chemical_formula_sum   'K2 Ca2 Y4 Cu2 Se10'
_cell_volume   528.54860576
_cell_formula_units_Z   2
loop_
 _symmetry_equiv_pos_site_id
 _symmetry_equiv_pos_as_xyz
  1  'x, y, z'
loop_
 _atom_site_type_symbol
 _atom_site_label
 _atom_site_symmetry_multiplicity
 _atom_site_fract_x
 _atom_site_fract_y
 _atom_site_fract_z
 _atom_site_occupancy
  K  K0  1  0.522711  0.477289  0.250000  1
  K  K1  1  0.477289  0.522711  0.750000  1
  Ca  Ca2  1  0.000000  0.000000  0.000000  1
  Ca  Ca3  1  0.000000  0.000000  0.500000  1
  Y  Y4  1  0.729488  0.270512  0.603066  1
  Y  Y5  1  0.270512  0.729488  0.396934  1
  Y  Y6  1  0.270512  0.729488  0.103066  1
  Y  Y7  1  0.729488  0.270512  0.896934  1
  Cu  Cu8  1  0.796162  0.203838  0.250000  1
  Cu  Cu9  1  0.203838  0.796162  0.750000  1
  Se  Se10  1  0.641225  0.358775  0.047421  1
  Se  Se11  1  0.358775  0.641225  0.952579  1
  Se  Se12  1  0.358775  0.641225  0.547421  1
  Se  Se13  1  0.641225  0.358775  0.452579  1
  Se  Se14  1  0.899074  0.100926  0.139427  1
  Se  Se15  1  0.100926  0.899074  0.860573  1
  Se  Se16  1  0.100926  0.899074  0.639427  1
  Se  Se17  1  0.899074  0.100926  0.360573  1
  Se  Se18  1  0.198183  0.801817  0.250000  1
  Se  Se19  1  0.801817  0.198183  0.750000  1
