# generated using pymatgen
data_Ho6Tm7Th3(MgNi)4
_symmetry_space_group_name_H-M   'P 1'
_cell_length_a   9.60661146
_cell_length_b   9.62267462
_cell_length_c   9.61386364
_cell_angle_alpha   59.81322224
_cell_angle_beta   59.84532336
_cell_angle_gamma   59.81877044
_symmetry_Int_Tables_number   1
_chemical_formula_structural   Ho6Tm7Th3(MgNi)4
_chemical_formula_sum   'Ho6 Tm7 Th3 Mg4 Ni4'
_cell_volume   625.93334737
_cell_formula_units_Z   1
loop_
 _symmetry_equiv_pos_site_id
 _symmetry_equiv_pos_as_xyz
  1  'x, y, z'
loop_
 _atom_site_type_symbol
 _atom_site_label
 _atom_site_symmetry_multiplicity
 _atom_site_fract_x
 _atom_site_fract_y
 _atom_site_fract_z
 _atom_site_occupancy
  Ho  Ho0  1  0.936323  0.567272  0.567059  1
  Ho  Ho1  1  0.562914  0.935289  0.935279  1
  Ho  Ho2  1  0.566177  0.935374  0.565956  1
  Ho  Ho3  1  0.935012  0.566566  0.933473  1
  Ho  Ho4  1  0.566329  0.566386  0.934827  1
  Ho  Ho5  1  0.934340  0.933542  0.566921  1
  Tm  Tm6  1  0.957873  0.347180  0.347437  1
  Tm  Tm7  1  0.814982  0.186677  0.186566  1
  Tm  Tm8  1  0.185786  0.815663  0.816149  1
  Tm  Tm9  1  0.188237  0.812853  0.187041  1
  Tm  Tm10  1  0.813683  0.186322  0.814393  1
  Tm  Tm11  1  0.188428  0.187446  0.812575  1
  Tm  Tm12  1  0.813968  0.813636  0.186476  1
  Th  Th13  1  0.339860  0.346604  0.347130  1
  Th  Th14  1  0.342133  0.349141  0.959203  1
  Th  Th15  1  0.340218  0.959876  0.349394  1
  Mg  Mg16  1  0.582643  0.579427  0.578116  1
  Mg  Mg17  1  0.583218  0.577035  0.259265  1
  Mg  Mg18  1  0.583100  0.259858  0.576565  1
  Mg  Mg19  1  0.260236  0.579292  0.577606  1
  Ni  Ni20  1  0.149144  0.139887  0.138136  1
  Ni  Ni21  1  0.142648  0.140475  0.574472  1
  Ni  Ni22  1  0.142999  0.572669  0.140815  1
  Ni  Ni23  1  0.569750  0.141531  0.145143  1
