# generated using pymatgen
data_SmDy(Tm2Rh9)2
_symmetry_space_group_name_H-M   'P 1'
_cell_length_a   5.25430000
_cell_length_b   5.25429926
_cell_length_c   17.52679200
_cell_angle_alpha   90.00000000
_cell_angle_beta   90.00000000
_cell_angle_gamma   119.99999208
_symmetry_Int_Tables_number   1
_chemical_formula_structural   SmDy(Tm2Rh9)2
_chemical_formula_sum   'Sm1 Dy1 Tm4 Rh18'
_cell_volume   419.04703208
_cell_formula_units_Z   1
loop_
 _symmetry_equiv_pos_site_id
 _symmetry_equiv_pos_as_xyz
  1  'x, y, z'
loop_
 _atom_site_type_symbol
 _atom_site_label
 _atom_site_symmetry_multiplicity
 _atom_site_fract_x
 _atom_site_fract_y
 _atom_site_fract_z
 _atom_site_occupancy
  Sm  Sm0  1  0.666667  0.333333  0.250000  1
  Dy  Dy1  1  0.333333  0.666667  0.750000  1
  Tm  Tm2  1  0.333333  0.666667  0.958019  1
  Tm  Tm3  1  0.666667  0.333333  0.041401  1
  Tm  Tm4  1  0.666667  0.333333  0.458599  1
  Tm  Tm5  1  0.333333  0.666667  0.541981  1
  Rh  Rh6  1  0.167410  0.832590  0.375381  1
  Rh  Rh7  1  0.167410  0.334821  0.375381  1
  Rh  Rh8  1  0.665179  0.832590  0.375381  1
  Rh  Rh9  1  0.832583  0.167417  0.625188  1
  Rh  Rh10  1  0.832583  0.665166  0.625188  1
  Rh  Rh11  1  0.334834  0.167417  0.625188  1
  Rh  Rh12  1  0.832583  0.167417  0.874812  1
  Rh  Rh13  1  0.832583  0.665166  0.874812  1
  Rh  Rh14  1  0.334834  0.167417  0.874812  1
  Rh  Rh15  1  0.167410  0.832590  0.124619  1
  Rh  Rh16  1  0.167410  0.334821  0.124619  1
  Rh  Rh17  1  0.665179  0.832590  0.124619  1
  Rh  Rh18  1  0.333333  0.666667  0.250000  1
  Rh  Rh19  1  0.666667  0.333333  0.750000  1
  Rh  Rh20  1  0.000000  0.000000  0.250000  1
  Rh  Rh21  1  0.000000  0.000000  0.750000  1
  Rh  Rh22  1  0.000000  0.000000  0.500207  1
  Rh  Rh23  1  0.000000  0.000000  0.999793  1
