# generated using pymatgen
data_Y6Fe3Co14P12Ru
_symmetry_space_group_name_H-M   'P 1'
_cell_length_a   3.70513200
_cell_length_b   10.55697800
_cell_length_c   12.14462100
_cell_angle_alpha   90.00000000
_cell_angle_beta   90.00000000
_cell_angle_gamma   90.00000000
_symmetry_Int_Tables_number   1
_chemical_formula_structural   Y6Fe3Co14P12Ru
_chemical_formula_sum   'Y6 Fe3 Co14 P12 Ru1'
_cell_volume   475.03681412
_cell_formula_units_Z   1
loop_
 _symmetry_equiv_pos_site_id
 _symmetry_equiv_pos_as_xyz
  1  'x, y, z'
loop_
 _atom_site_type_symbol
 _atom_site_label
 _atom_site_symmetry_multiplicity
 _atom_site_fract_x
 _atom_site_fract_y
 _atom_site_fract_z
 _atom_site_occupancy
  Y  Y0  1  0.000000  0.500000  0.525524  1
  Y  Y1  1  0.500000  0.000000  0.477901  1
  Y  Y2  1  0.500000  0.818773  0.204601  1
  Y  Y3  1  0.500000  0.181227  0.204601  1
  Y  Y4  1  0.000000  0.681410  0.795701  1
  Y  Y5  1  0.000000  0.318590  0.795701  1
  Fe  Fe6  1  0.000000  0.000000  0.843987  1
  Fe  Fe7  1  0.000000  0.500000  0.988353  1
  Fe  Fe8  1  0.500000  0.000000  0.012162  1
  Co  Co9  1  0.500000  0.500000  0.701357  1
  Co  Co10  1  0.000000  0.000000  0.298314  1
  Co  Co11  1  0.500000  0.331356  0.991505  1
  Co  Co12  1  0.500000  0.668644  0.991505  1
  Co  Co13  1  0.000000  0.167937  0.005202  1
  Co  Co14  1  0.000000  0.832063  0.005202  1
  Co  Co15  1  0.500000  0.297057  0.430176  1
  Co  Co16  1  0.500000  0.702943  0.430176  1
  Co  Co17  1  0.000000  0.203402  0.568864  1
  Co  Co18  1  0.000000  0.796598  0.568864  1
  Co  Co19  1  0.500000  0.878770  0.709070  1
  Co  Co20  1  0.500000  0.121230  0.709070  1
  Co  Co21  1  0.000000  0.620693  0.291761  1
  Co  Co22  1  0.000000  0.379307  0.291761  1
  P  P23  1  0.500000  0.500000  0.883096  1
  P  P24  1  0.000000  0.000000  0.115246  1
  P  P25  1  0.500000  0.500000  0.348606  1
  P  P26  1  0.000000  0.000000  0.658302  1
  P  P27  1  0.500000  0.309718  0.616752  1
  P  P28  1  0.500000  0.690282  0.616752  1
  P  P29  1  0.000000  0.189023  0.383804  1
  P  P30  1  0.000000  0.810977  0.383804  1
  P  P31  1  0.500000  0.849035  0.893003  1
  P  P32  1  0.500000  0.150965  0.893003  1
  P  P33  1  0.000000  0.654699  0.104552  1
  P  P34  1  0.000000  0.345301  0.104552  1
  Ru  Ru35  1  0.500000  0.500000  0.157169  1
