# generated using pymatgen
data_RbPuBeF6
_symmetry_space_group_name_H-M   'P 1'
_cell_length_a   6.08885200
_cell_length_b   6.69395354
_cell_length_c   7.52395494
_cell_angle_alpha   66.18036593
_cell_angle_beta   90.00000000
_cell_angle_gamma   90.00000000
_symmetry_Int_Tables_number   1
_chemical_formula_structural   RbPuBeF6
_chemical_formula_sum   'Rb2 Pu2 Be2 F12'
_cell_volume   280.54373780
_cell_formula_units_Z   2
loop_
 _symmetry_equiv_pos_site_id
 _symmetry_equiv_pos_as_xyz
  1  'x, y, z'
loop_
 _atom_site_type_symbol
 _atom_site_label
 _atom_site_symmetry_multiplicity
 _atom_site_fract_x
 _atom_site_fract_y
 _atom_site_fract_z
 _atom_site_occupancy
  Rb  Rb0  1  0.250000  0.076911  0.789750  1
  Rb  Rb1  1  0.750000  0.923089  0.210250  1
  Pu  Pu2  1  0.250000  0.401584  0.186894  1
  Pu  Pu3  1  0.750000  0.598416  0.813106  1
  Be  Be4  1  0.250000  0.774231  0.465493  1
  Be  Be5  1  0.750000  0.225769  0.534507  1
  F  F6  1  0.458591  0.764485  0.590766  1
  F  F7  1  0.541409  0.235515  0.409234  1
  F  F8  1  0.958591  0.235515  0.409234  1
  F  F9  1  0.041409  0.764485  0.590766  1
  F  F10  1  0.250000  0.573343  0.408989  1
  F  F11  1  0.750000  0.426657  0.591011  1
  F  F12  1  0.500333  0.681561  0.028704  1
  F  F13  1  0.499667  0.318439  0.971296  1
  F  F14  1  0.000333  0.318439  0.971296  1
  F  F15  1  0.999667  0.681561  0.028704  1
  F  F16  1  0.250000  0.988954  0.276287  1
  F  F17  1  0.750000  0.011046  0.723713  1
