# generated using pymatgen
data_ZnNi8P3(W6C)2
_symmetry_space_group_name_H-M   'P 1'
_cell_length_a   7.71727818
_cell_length_b   7.74250553
_cell_length_c   7.71727800
_cell_angle_alpha   60.10772581
_cell_angle_beta   60.00000076
_cell_angle_gamma   60.10772063
_symmetry_Int_Tables_number   1
_chemical_formula_structural   ZnNi8P3(W6C)2
_chemical_formula_sum   'Zn1 Ni8 P3 W12 C2'
_cell_volume   326.58786767
_cell_formula_units_Z   1
loop_
 _symmetry_equiv_pos_site_id
 _symmetry_equiv_pos_as_xyz
  1  'x, y, z'
loop_
 _atom_site_type_symbol
 _atom_site_label
 _atom_site_symmetry_multiplicity
 _atom_site_fract_x
 _atom_site_fract_y
 _atom_site_fract_z
 _atom_site_occupancy
  Zn  Zn0  1  0.625000  0.125000  0.625000  1
  Ni  Ni1  1  0.413901  0.430325  0.741874  1
  Ni  Ni2  1  0.417854  0.746438  0.417854  1
  Ni  Ni3  1  0.741874  0.430325  0.413901  1
  Ni  Ni4  1  0.413901  0.430325  0.413901  1
  Ni  Ni5  1  0.836099  0.819675  0.508126  1
  Ni  Ni6  1  0.832146  0.503562  0.832146  1
  Ni  Ni7  1  0.508126  0.819675  0.836099  1
  Ni  Ni8  1  0.836099  0.819675  0.836099  1
  P  P9  1  0.625000  0.625000  0.125000  1
  P  P10  1  0.125000  0.625000  0.625000  1
  P  P11  1  0.625000  0.625000  0.625000  1
  W  W12  1  0.055131  0.056524  0.444172  1
  W  W13  1  0.444172  0.056524  0.444172  1
  W  W14  1  0.056267  0.443548  0.443918  1
  W  W15  1  0.443918  0.443548  0.056267  1
  W  W16  1  0.056267  0.443548  0.056267  1
  W  W17  1  0.444172  0.056524  0.055131  1
  W  W18  1  0.194869  0.193476  0.805828  1
  W  W19  1  0.805828  0.193476  0.805828  1
  W  W20  1  0.193733  0.806452  0.806082  1
  W  W21  1  0.806082  0.806452  0.193733  1
  W  W22  1  0.193733  0.806452  0.193733  1
  W  W23  1  0.805828  0.193476  0.194869  1
  C  C24  1  0.250429  0.248713  0.250429  1
  C  C25  1  0.999571  0.001287  0.999571  1
