# generated using pymatgen
data_La4Hg2PdAu3
_symmetry_space_group_name_H-M   'P 1'
_cell_length_a   8.23650219
_cell_length_b   8.23650163
_cell_length_c   3.92467400
_cell_angle_alpha   90.00000000
_cell_angle_beta   90.00000000
_cell_angle_gamma   89.58157078
_symmetry_Int_Tables_number   1
_chemical_formula_structural   La4Hg2PdAu3
_chemical_formula_sum   'La4 Hg2 Pd1 Au3'
_cell_volume   266.24264182
_cell_formula_units_Z   1
loop_
 _symmetry_equiv_pos_site_id
 _symmetry_equiv_pos_as_xyz
  1  'x, y, z'
loop_
 _atom_site_type_symbol
 _atom_site_label
 _atom_site_symmetry_multiplicity
 _atom_site_fract_x
 _atom_site_fract_y
 _atom_site_fract_z
 _atom_site_occupancy
  La  La0  1  0.334710  0.822931  0.500000  1
  La  La1  1  0.818820  0.681180  0.500000  1
  La  La2  1  0.173233  0.326767  0.500000  1
  La  La3  1  0.677069  0.165290  0.500000  1
  Hg  Hg4  1  0.995317  0.998406  0.000000  1
  Hg  Hg5  1  0.501594  0.504683  0.000000  1
  Pd  Pd6  1  0.625701  0.874299  0.000000  1
  Au  Au7  1  0.376805  0.123195  0.000000  1
  Au  Au8  1  0.872732  0.375981  0.000000  1
  Au  Au9  1  0.124019  0.627268  0.000000  1
