# generated using pymatgen
data_LaPr15MgHg3Rh4
_symmetry_space_group_name_H-M   'P 1'
_cell_length_a   10.00678283
_cell_length_b   10.05567146
_cell_length_c   10.05559361
_cell_angle_alpha   59.84971458
_cell_angle_beta   59.80303303
_cell_angle_gamma   59.80287198
_symmetry_Int_Tables_number   1
_chemical_formula_structural   LaPr15MgHg3Rh4
_chemical_formula_sum   'La1 Pr15 Mg1 Hg3 Rh4'
_cell_volume   712.53400286
_cell_formula_units_Z   1
loop_
 _symmetry_equiv_pos_site_id
 _symmetry_equiv_pos_as_xyz
  1  'x, y, z'
loop_
 _atom_site_type_symbol
 _atom_site_label
 _atom_site_symmetry_multiplicity
 _atom_site_fract_x
 _atom_site_fract_y
 _atom_site_fract_z
 _atom_site_occupancy
  La  La0  1  0.347231  0.346563  0.346555  1
  Pr  Pr1  1  0.349812  0.348755  0.952894  1
  Pr  Pr2  1  0.349793  0.952918  0.348770  1
  Pr  Pr3  1  0.945685  0.351593  0.351596  1
  Pr  Pr4  1  0.808363  0.191654  0.191652  1
  Pr  Pr5  1  0.186489  0.810548  0.810560  1
  Pr  Pr6  1  0.187561  0.812133  0.188770  1
  Pr  Pr7  1  0.806442  0.191626  0.807924  1
  Pr  Pr8  1  0.187538  0.188768  0.812152  1
  Pr  Pr9  1  0.806437  0.807935  0.191597  1
  Pr  Pr10  1  0.937747  0.563117  0.563114  1
  Pr  Pr11  1  0.560170  0.938554  0.938555  1
  Pr  Pr12  1  0.561156  0.938337  0.563205  1
  Pr  Pr13  1  0.938211  0.561315  0.937160  1
  Pr  Pr14  1  0.561177  0.563203  0.938324  1
  Pr  Pr15  1  0.938173  0.937139  0.561360  1
  Mg  Mg16  1  0.286513  0.571016  0.570969  1
  Hg  Hg17  1  0.580243  0.586347  0.586366  1
  Hg  Hg18  1  0.580919  0.586910  0.246837  1
  Hg  Hg19  1  0.580903  0.246847  0.586928  1
  Rh  Rh20  1  0.141032  0.142773  0.142761  1
  Rh  Rh21  1  0.142870  0.144374  0.573563  1
  Rh  Rh22  1  0.142852  0.573571  0.144377  1
  Rh  Rh23  1  0.572684  0.144007  0.144010  1
