# generated using pymatgen
data_Lu3(In2Ir)2
_symmetry_space_group_name_H-M   'P 1'
_cell_length_a   7.86353500
_cell_length_b   7.86353332
_cell_length_c   3.71673300
_cell_angle_alpha   90.00000000
_cell_angle_beta   90.00000000
_cell_angle_gamma   119.99999445
_symmetry_Int_Tables_number   1
_chemical_formula_structural   Lu3(In2Ir)2
_chemical_formula_sum   'Lu3 In4 Ir2'
_cell_volume   199.03413935
_cell_formula_units_Z   1
loop_
 _symmetry_equiv_pos_site_id
 _symmetry_equiv_pos_as_xyz
  1  'x, y, z'
loop_
 _atom_site_type_symbol
 _atom_site_label
 _atom_site_symmetry_multiplicity
 _atom_site_fract_x
 _atom_site_fract_y
 _atom_site_fract_z
 _atom_site_occupancy
  Lu  Lu0  1  0.370438  0.408977  0.000000  1
  Lu  Lu1  1  0.038539  0.629561  0.000000  1
  Lu  Lu2  1  0.591023  0.961462  0.000000  1
  In  In3  1  0.996829  0.260001  0.500000  1
  In  In4  1  0.666666  0.333334  0.500000  1
  In  In5  1  0.740000  0.736828  0.500000  1
  In  In6  1  0.263172  0.003172  0.500000  1
  Ir  Ir7  1  0.000000  0.000000  0.000000  1
  Ir  Ir8  1  0.333333  0.666666  0.500000  1
