# generated using pymatgen
data_Ba2UPbS6
_symmetry_space_group_name_H-M   'P 1'
_cell_length_a   7.35765807
_cell_length_b   7.35765846
_cell_length_c   7.58827122
_cell_angle_alpha   119.32525172
_cell_angle_beta   119.32525334
_cell_angle_gamma   60.03325806
_symmetry_Int_Tables_number   1
_chemical_formula_structural   Ba2UPbS6
_chemical_formula_sum   'Ba2 U1 Pb1 S6'
_cell_volume   293.47633160
_cell_formula_units_Z   1
loop_
 _symmetry_equiv_pos_site_id
 _symmetry_equiv_pos_as_xyz
  1  'x, y, z'
loop_
 _atom_site_type_symbol
 _atom_site_label
 _atom_site_symmetry_multiplicity
 _atom_site_fract_x
 _atom_site_fract_y
 _atom_site_fract_z
 _atom_site_occupancy
  Ba  Ba0  1  0.247753  0.247753  0.229874  1
  Ba  Ba1  1  0.752247  0.752247  0.770125  1
  U  U2  1  0.500000  0.500000  0.000000  1
  Pb  Pb3  1  0.000000  0.000000  0.500000  1
  S  S4  1  0.681231  0.199718  0.171839  1
  S  S5  1  0.199718  0.681231  0.171839  1
  S  S6  1  0.729919  0.729919  0.330463  1
  S  S7  1  0.270082  0.270082  0.669537  1
  S  S8  1  0.800283  0.318769  0.828162  1
  S  S9  1  0.318769  0.800283  0.828162  1
