# generated using pymatgen
data_Hf18Re7Ni2Mo
_symmetry_space_group_name_H-M   'P 1'
_cell_length_a   8.61736200
_cell_length_b   8.61736165
_cell_length_c   8.45540000
_cell_angle_alpha   90.00000000
_cell_angle_beta   90.00000000
_cell_angle_gamma   120.00000135
_symmetry_Int_Tables_number   1
_chemical_formula_structural   Hf18Re7Ni2Mo
_chemical_formula_sum   'Hf18 Re7 Ni2 Mo1'
_cell_volume   543.76774190
_cell_formula_units_Z   1
loop_
 _symmetry_equiv_pos_site_id
 _symmetry_equiv_pos_as_xyz
  1  'x, y, z'
loop_
 _atom_site_type_symbol
 _atom_site_label
 _atom_site_symmetry_multiplicity
 _atom_site_fract_x
 _atom_site_fract_y
 _atom_site_fract_z
 _atom_site_occupancy
  Hf  Hf0  1  0.198808  0.801192  0.443568  1
  Hf  Hf1  1  0.198808  0.397614  0.443568  1
  Hf  Hf2  1  0.602386  0.801192  0.443568  1
  Hf  Hf3  1  0.801192  0.198808  0.556432  1
  Hf  Hf4  1  0.801192  0.602386  0.556432  1
  Hf  Hf5  1  0.397614  0.198808  0.556432  1
  Hf  Hf6  1  0.802576  0.197424  0.942890  1
  Hf  Hf7  1  0.802576  0.605153  0.942890  1
  Hf  Hf8  1  0.394847  0.197424  0.942890  1
  Hf  Hf9  1  0.197424  0.802576  0.057110  1
  Hf  Hf10  1  0.197424  0.394847  0.057110  1
  Hf  Hf11  1  0.605153  0.802576  0.057110  1
  Hf  Hf12  1  0.541512  0.458488  0.249623  1
  Hf  Hf13  1  0.541512  0.083024  0.249623  1
  Hf  Hf14  1  0.916976  0.458488  0.249623  1
  Hf  Hf15  1  0.458488  0.541512  0.750377  1
  Hf  Hf16  1  0.458488  0.916976  0.750377  1
  Hf  Hf17  1  0.083024  0.541512  0.750377  1
  Re  Re18  1  0.889210  0.110790  0.250809  1
  Re  Re19  1  0.889210  0.778418  0.250809  1
  Re  Re20  1  0.221582  0.110790  0.250809  1
  Re  Re21  1  0.110790  0.889210  0.749191  1
  Re  Re22  1  0.110790  0.221582  0.749191  1
  Re  Re23  1  0.778418  0.889210  0.749191  1
  Re  Re24  1  0.000000  0.000000  0.000000  1
  Ni  Ni25  1  0.333333  0.666667  0.250021  1
  Ni  Ni26  1  0.666667  0.333333  0.749979  1
  Mo  Mo27  1  0.000000  0.000000  0.500000  1
