# generated using pymatgen
data_UI5
_symmetry_space_group_name_H-M   'P 1'
_cell_length_a   8.03163795
_cell_length_b   8.70455042
_cell_length_c   11.70411868
_cell_angle_alpha   109.82757338
_cell_angle_beta   90.69710118
_cell_angle_gamma   116.42052688
_symmetry_Int_Tables_number   1
_chemical_formula_structural   UI5
_chemical_formula_sum   'U2 I10'
_cell_volume   676.30890651
_cell_formula_units_Z   2
loop_
 _symmetry_equiv_pos_site_id
 _symmetry_equiv_pos_as_xyz
  1  'x, y, z'
loop_
 _atom_site_type_symbol
 _atom_site_label
 _atom_site_symmetry_multiplicity
 _atom_site_fract_x
 _atom_site_fract_y
 _atom_site_fract_z
 _atom_site_occupancy
  U  U0  1  0.100101  0.205111  0.209206  1
  U  U1  1  0.899899  0.794889  0.790794  1
  I  I2  1  0.935585  0.185307  0.423135  1
  I  I3  1  0.064415  0.814693  0.576865  1
  I  I4  1  0.234035  0.177137  0.958822  1
  I  I5  1  0.765965  0.822863  0.041178  1
  I  I6  1  0.106098  0.620273  0.843734  1
  I  I7  1  0.893902  0.379727  0.156266  1
  I  I8  1  0.702458  0.984899  0.751541  1
  I  I9  1  0.297542  0.015101  0.248459  1
  I  I10  1  0.569988  0.440244  0.667797  1
  I  I11  1  0.430012  0.559756  0.332203  1
