# generated using pymatgen
data_Nd3Y2P12Ru16Pt3
_symmetry_space_group_name_H-M   'P 1'
_cell_length_a   12.65380500
_cell_length_b   12.65380598
_cell_length_c   4.01703200
_cell_angle_alpha   90.00000000
_cell_angle_beta   90.00000000
_cell_angle_gamma   119.99999483
_symmetry_Int_Tables_number   1
_chemical_formula_structural   Nd3Y2P12Ru16Pt3
_chemical_formula_sum   'Nd3 Y2 P12 Ru16 Pt3'
_cell_volume   557.02957493
_cell_formula_units_Z   1
loop_
 _symmetry_equiv_pos_site_id
 _symmetry_equiv_pos_as_xyz
  1  'x, y, z'
loop_
 _atom_site_type_symbol
 _atom_site_label
 _atom_site_symmetry_multiplicity
 _atom_site_fract_x
 _atom_site_fract_y
 _atom_site_fract_z
 _atom_site_occupancy
  Nd  Nd0  1  0.000000  0.182784  0.500000  1
  Nd  Nd1  1  0.817216  0.817216  0.500000  1
  Nd  Nd2  1  0.182784  0.000000  0.500000  1
  Y  Y3  1  0.666667  0.333333  0.000000  1
  Y  Y4  1  0.333333  0.666667  0.000000  1
  P  P5  1  0.000000  0.811455  0.000000  1
  P  P6  1  0.188545  0.188545  0.000000  1
  P  P7  1  0.811455  0.000000  0.000000  1
  P  P8  1  0.700862  0.182208  0.500000  1
  P  P9  1  0.817792  0.518654  0.500000  1
  P  P10  1  0.481346  0.299138  0.500000  1
  P  P11  1  0.182208  0.700862  0.500000  1
  P  P12  1  0.518654  0.817792  0.500000  1
  P  P13  1  0.299138  0.481346  0.500000  1
  P  P14  1  0.000000  0.367261  0.000000  1
  P  P15  1  0.632739  0.632739  0.000000  1
  P  P16  1  0.367261  0.000000  0.000000  1
  Ru  Ru17  1  0.000000  0.707767  0.500000  1
  Ru  Ru18  1  0.292233  0.292233  0.500000  1
  Ru  Ru19  1  0.707767  0.000000  0.500000  1
  Ru  Ru20  1  0.803815  0.185718  0.000000  1
  Ru  Ru21  1  0.814282  0.618099  0.000000  1
  Ru  Ru22  1  0.381901  0.196185  0.000000  1
  Ru  Ru23  1  0.185718  0.803815  0.000000  1
  Ru  Ru24  1  0.618099  0.814282  0.000000  1
  Ru  Ru25  1  0.196185  0.381901  0.000000  1
  Ru  Ru26  1  0.875599  0.370756  0.500000  1
  Ru  Ru27  1  0.629244  0.504844  0.500000  1
  Ru  Ru28  1  0.495156  0.124401  0.500000  1
  Ru  Ru29  1  0.370756  0.875599  0.500000  1
  Ru  Ru30  1  0.504844  0.629244  0.500000  1
  Ru  Ru31  1  0.124401  0.495156  0.500000  1
  Ru  Ru32  1  0.000000  0.000000  0.000000  1
  Pt  Pt33  1  0.000000  0.551367  0.000000  1
  Pt  Pt34  1  0.448633  0.448633  0.000000  1
  Pt  Pt35  1  0.551367  0.000000  0.000000  1
