# generated using pymatgen
data_Er5Tm3Sc11Si16Hg
_symmetry_space_group_name_H-M   'P 1'
_cell_length_a   7.02150907
_cell_length_b   7.37072437
_cell_length_c   13.96552313
_cell_angle_alpha   89.99799287
_cell_angle_beta   90.01562057
_cell_angle_gamma   89.90123783
_symmetry_Int_Tables_number   1
_chemical_formula_structural   Er5Tm3Sc11Si16Hg
_chemical_formula_sum   'Er5 Tm3 Sc11 Si16 Hg1'
_cell_volume   722.76510940
_cell_formula_units_Z   1
loop_
 _symmetry_equiv_pos_site_id
 _symmetry_equiv_pos_as_xyz
  1  'x, y, z'
loop_
 _atom_site_type_symbol
 _atom_site_label
 _atom_site_symmetry_multiplicity
 _atom_site_fract_x
 _atom_site_fract_y
 _atom_site_fract_z
 _atom_site_occupancy
  Er  Er0  1  0.010092  0.175515  0.096348  1
  Er  Er1  1  0.990422  0.816271  0.902656  1
  Er  Er2  1  0.485581  0.674008  0.902986  1
  Er  Er3  1  0.990501  0.816279  0.597316  1
  Er  Er4  1  0.510808  0.323213  0.096580  1
  Tm  Tm5  1  0.010269  0.175505  0.403580  1
  Tm  Tm6  1  0.510733  0.323079  0.403385  1
  Tm  Tm7  1  0.485641  0.674137  0.597024  1
  Sc  Sc8  1  0.837971  0.496827  0.250060  1
  Sc  Sc9  1  0.339978  0.004136  0.250058  1
  Sc  Sc10  1  0.656943  0.996838  0.749967  1
  Sc  Sc11  1  0.325051  0.182707  0.626139  1
  Sc  Sc12  1  0.671244  0.824073  0.374837  1
  Sc  Sc13  1  0.169541  0.680426  0.373190  1
  Sc  Sc14  1  0.671255  0.824087  0.125225  1
  Sc  Sc15  1  0.838370  0.325338  0.626097  1
  Sc  Sc16  1  0.324987  0.182607  0.873817  1
  Sc  Sc17  1  0.838437  0.325353  0.873858  1
  Sc  Sc18  1  0.169541  0.680418  0.126855  1
  Si  Si19  1  0.026220  0.091136  0.749972  1
  Si  Si20  1  0.968670  0.890670  0.250049  1
  Si  Si21  1  0.467478  0.614661  0.250056  1
  Si  Si22  1  0.542898  0.381714  0.749950  1
  Si  Si23  1  0.290924  0.883265  0.749931  1
  Si  Si24  1  0.713709  0.131066  0.250156  1
  Si  Si25  1  0.212919  0.370786  0.250131  1
  Si  Si26  1  0.769184  0.633547  0.749906  1
  Si  Si27  1  0.164503  0.459554  0.528368  1
  Si  Si28  1  0.840697  0.535678  0.461999  1
  Si  Si29  1  0.342992  0.966828  0.462182  1
  Si  Si30  1  0.840936  0.535873  0.037936  1
  Si  Si31  1  0.658520  0.033110  0.540271  1
  Si  Si32  1  0.164192  0.459648  0.971617  1
  Si  Si33  1  0.658578  0.033117  0.959707  1
  Si  Si34  1  0.343095  0.966717  0.037794  1
  Hg  Hg35  1  0.157124  0.511818  0.749999  1
