# generated using pymatgen
data_Pt(SeCl6)2
_symmetry_space_group_name_H-M   'P 1'
_cell_length_a   12.79147032
_cell_length_b   12.62694031
_cell_length_c   8.92279632
_cell_angle_alpha   70.44179171
_cell_angle_beta   68.46312975
_cell_angle_gamma   41.09507758
_symmetry_Int_Tables_number   1
_chemical_formula_structural   Pt(SeCl6)2
_chemical_formula_sum   'Pt2 Se4 Cl24'
_cell_volume   877.17742399
_cell_formula_units_Z   2
loop_
 _symmetry_equiv_pos_site_id
 _symmetry_equiv_pos_as_xyz
  1  'x, y, z'
loop_
 _atom_site_type_symbol
 _atom_site_label
 _atom_site_symmetry_multiplicity
 _atom_site_fract_x
 _atom_site_fract_y
 _atom_site_fract_z
 _atom_site_occupancy
  Pt  Pt0  1  0.124489  0.124489  0.375511  1
  Pt  Pt1  1  0.874489  0.874489  0.125511  1
  Se  Se2  1  0.474504  0.939175  0.568520  1
  Se  Se3  1  0.681480  0.232201  0.775496  1
  Se  Se4  1  0.939175  0.474504  0.017799  1
  Se  Se5  1  0.232201  0.681480  0.310825  1
  Cl  Cl6  1  0.086279  0.014613  0.260970  1
  Cl  Cl7  1  0.165450  0.235838  0.483825  1
  Cl  Cl8  1  0.235838  0.165450  0.114888  1
  Cl  Cl9  1  0.913992  0.835604  0.383933  1
  Cl  Cl10  1  0.057049  0.501814  0.775986  1
  Cl  Cl11  1  0.611862  0.989030  0.235387  1
  Cl  Cl12  1  0.449672  0.313874  0.899537  1
  Cl  Cl13  1  0.713925  0.686673  0.578943  1
  Cl  Cl14  1  0.913083  0.350463  0.936126  1
  Cl  Cl15  1  0.474014  0.584849  0.192951  1
  Cl  Cl16  1  0.313874  0.449672  0.336917  1
  Cl  Cl17  1  0.383529  0.866067  0.414396  1
  Cl  Cl18  1  0.584849  0.474014  0.748186  1
  Cl  Cl19  1  0.989030  0.611862  0.163721  1
  Cl  Cl20  1  0.671057  0.229541  0.536075  1
  Cl  Cl21  1  0.501814  0.057049  0.665151  1
  Cl  Cl22  1  0.135112  0.766175  0.014162  1
  Cl  Cl23  1  0.686673  0.713925  0.020459  1
  Cl  Cl24  1  0.766175  0.135112  0.084550  1
  Cl  Cl25  1  0.014613  0.086279  0.638138  1
  Cl  Cl26  1  0.350463  0.913083  0.800328  1
  Cl  Cl27  1  0.866067  0.383529  0.336008  1
  Cl  Cl28  1  0.229541  0.671057  0.563327  1
  Cl  Cl29  1  0.835604  0.913992  0.866471  1
