# generated using pymatgen
data_Sr(Si2Rh3)2
_symmetry_space_group_name_H-M   'P 1'
_cell_length_a   7.08504600
_cell_length_b   7.08504615
_cell_length_c   3.83000300
_cell_angle_alpha   90.00000000
_cell_angle_beta   90.00000000
_cell_angle_gamma   119.99999928
_symmetry_Int_Tables_number   1
_chemical_formula_structural   Sr(Si2Rh3)2
_chemical_formula_sum   'Sr1 Si4 Rh6'
_cell_volume   166.50033318
_cell_formula_units_Z   1
loop_
 _symmetry_equiv_pos_site_id
 _symmetry_equiv_pos_as_xyz
  1  'x, y, z'
loop_
 _atom_site_type_symbol
 _atom_site_label
 _atom_site_symmetry_multiplicity
 _atom_site_fract_x
 _atom_site_fract_y
 _atom_site_fract_z
 _atom_site_occupancy
  Sr  Sr0  1  0.000000  0.000000  0.000000  1
  Si  Si1  1  0.333334  0.666667  0.000000  1
  Si  Si2  1  0.406238  0.203118  0.500000  1
  Si  Si3  1  0.796882  0.203118  0.500000  1
  Si  Si4  1  0.796881  0.593762  0.500000  1
  Rh  Rh5  1  0.533597  0.067195  0.000000  1
  Rh  Rh6  1  0.932805  0.466403  0.000000  1
  Rh  Rh7  1  0.533597  0.466403  0.000000  1
  Rh  Rh8  1  0.201202  0.402404  0.500000  1
  Rh  Rh9  1  0.201203  0.798798  0.500000  1
  Rh  Rh10  1  0.597596  0.798798  0.500000  1
