# generated using pymatgen
data_Eu3(ErGe2)2
_symmetry_space_group_name_H-M   'P 1'
_cell_length_a   7.56098100
_cell_length_b   8.06742300
_cell_length_c   15.50814900
_cell_angle_alpha   90.00000000
_cell_angle_beta   90.00000000
_cell_angle_gamma   90.00000000
_symmetry_Int_Tables_number   1
_chemical_formula_structural   Eu3(ErGe2)2
_chemical_formula_sum   'Eu12 Er8 Ge16'
_cell_volume   945.96036604
_cell_formula_units_Z   4
loop_
 _symmetry_equiv_pos_site_id
 _symmetry_equiv_pos_as_xyz
  1  'x, y, z'
loop_
 _atom_site_type_symbol
 _atom_site_label
 _atom_site_symmetry_multiplicity
 _atom_site_fract_x
 _atom_site_fract_y
 _atom_site_fract_z
 _atom_site_occupancy
  Eu  Eu0  1  0.980828  0.816877  0.405941  1
  Eu  Eu1  1  0.480828  0.683123  0.094059  1
  Eu  Eu2  1  0.519172  0.316877  0.594059  1
  Eu  Eu3  1  0.019172  0.183123  0.905941  1
  Eu  Eu4  1  0.019172  0.183123  0.594059  1
  Eu  Eu5  1  0.519172  0.316877  0.905941  1
  Eu  Eu6  1  0.480828  0.683123  0.405941  1
  Eu  Eu7  1  0.980828  0.816877  0.094059  1
  Eu  Eu8  1  0.342759  0.021325  0.750000  1
  Eu  Eu9  1  0.842759  0.478675  0.750000  1
  Eu  Eu10  1  0.157241  0.521325  0.250000  1
  Eu  Eu11  1  0.657241  0.978675  0.250000  1
  Er  Er12  1  0.318593  0.173151  0.121597  1
  Er  Er13  1  0.818593  0.326849  0.378403  1
  Er  Er14  1  0.181407  0.673151  0.878403  1
  Er  Er15  1  0.681407  0.826849  0.621597  1
  Er  Er16  1  0.318593  0.173151  0.378403  1
  Er  Er17  1  0.818593  0.326849  0.121597  1
  Er  Er18  1  0.181407  0.673151  0.621597  1
  Er  Er19  1  0.681407  0.826849  0.878403  1
  Ge  Ge20  1  0.846337  0.535434  0.539335  1
  Ge  Ge21  1  0.346337  0.964566  0.960665  1
  Ge  Ge22  1  0.653663  0.035434  0.460665  1
  Ge  Ge23  1  0.153663  0.464566  0.039335  1
  Ge  Ge24  1  0.153663  0.464566  0.460665  1
  Ge  Ge25  1  0.653663  0.035434  0.039335  1
  Ge  Ge26  1  0.346337  0.964566  0.539335  1
  Ge  Ge27  1  0.846337  0.535434  0.960665  1
  Ge  Ge28  1  0.974104  0.870856  0.750000  1
  Ge  Ge29  1  0.474104  0.629144  0.750000  1
  Ge  Ge30  1  0.525896  0.370856  0.250000  1
  Ge  Ge31  1  0.025896  0.129144  0.250000  1
  Ge  Ge32  1  0.239099  0.393938  0.750000  1
  Ge  Ge33  1  0.739099  0.106062  0.750000  1
  Ge  Ge34  1  0.260901  0.893938  0.250000  1
  Ge  Ge35  1  0.760901  0.606062  0.250000  1
