# generated using pymatgen
data_Ac2B4O9
_symmetry_space_group_name_H-M   'P 1'
_cell_length_a   6.50080283
_cell_length_b   6.94286695
_cell_length_c   7.89135792
_cell_angle_alpha   101.40174494
_cell_angle_beta   96.04283979
_cell_angle_gamma   102.36918154
_symmetry_Int_Tables_number   1
_chemical_formula_structural   Ac2B4O9
_chemical_formula_sum   'Ac4 B8 O18'
_cell_volume   336.95956838
_cell_formula_units_Z   2
loop_
 _symmetry_equiv_pos_site_id
 _symmetry_equiv_pos_as_xyz
  1  'x, y, z'
loop_
 _atom_site_type_symbol
 _atom_site_label
 _atom_site_symmetry_multiplicity
 _atom_site_fract_x
 _atom_site_fract_y
 _atom_site_fract_z
 _atom_site_occupancy
  Ac  Ac0  1  0.115307  0.320943  0.645913  1
  Ac  Ac1  1  0.461788  0.905441  0.720517  1
  Ac  Ac2  1  0.538212  0.094559  0.279483  1
  Ac  Ac3  1  0.884693  0.679057  0.354087  1
  B  B4  1  0.007379  0.836980  0.821568  1
  B  B5  1  0.280460  0.664343  0.020873  1
  B  B6  1  0.369840  0.641012  0.339692  1
  B  B7  1  0.338087  0.337815  0.077282  1
  B  B8  1  0.661913  0.662185  0.922718  1
  B  B9  1  0.630160  0.358988  0.660308  1
  B  B10  1  0.719540  0.335657  0.979127  1
  B  B11  1  0.992621  0.163020  0.178432  1
  O  O12  1  0.058484  0.934528  0.689433  1
  O  O13  1  0.150518  0.725773  0.875099  1
  O  O14  1  0.236968  0.445496  0.968656  1
  O  O15  1  0.225990  0.594598  0.465478  1
  O  O16  1  0.245236  0.729491  0.202102  1
  O  O17  1  0.181244  0.161491  0.113593  1
  O  O18  1  0.438393  0.195202  0.572570  1
  O  O19  1  0.491996  0.232624  0.989681  1
  O  O20  1  0.552160  0.532027  0.752313  1
  O  O21  1  0.447840  0.467973  0.247687  1
  O  O22  1  0.508004  0.767376  0.010319  1
  O  O23  1  0.561607  0.804798  0.427430  1
  O  O24  1  0.818756  0.838509  0.886407  1
  O  O25  1  0.754764  0.270509  0.797898  1
  O  O26  1  0.774010  0.405402  0.534522  1
  O  O27  1  0.763032  0.554504  0.031344  1
  O  O28  1  0.849482  0.274227  0.124901  1
  O  O29  1  0.941516  0.065472  0.310567  1
