# generated using pymatgen
data_Pr16Ho3TmPb16
_symmetry_space_group_name_H-M   'P 1'
_cell_length_a   8.40827529
_cell_length_b   16.26630400
_cell_length_c   8.53043213
_cell_angle_alpha   90.00000000
_cell_angle_beta   89.97493874
_cell_angle_gamma   90.00000000
_symmetry_Int_Tables_number   1
_chemical_formula_structural   Pr16Ho3TmPb16
_chemical_formula_sum   'Pr16 Ho3 Tm1 Pb16'
_cell_volume   1166.72041536
_cell_formula_units_Z   1
loop_
 _symmetry_equiv_pos_site_id
 _symmetry_equiv_pos_as_xyz
  1  'x, y, z'
loop_
 _atom_site_type_symbol
 _atom_site_label
 _atom_site_symmetry_multiplicity
 _atom_site_fract_x
 _atom_site_fract_y
 _atom_site_fract_z
 _atom_site_occupancy
  Pr  Pr0  1  0.622729  0.618434  0.158463  1
  Pr  Pr1  1  0.123004  0.881332  0.342089  1
  Pr  Pr2  1  0.376517  0.119174  0.842040  1
  Pr  Pr3  1  0.876837  0.380187  0.658138  1
  Pr  Pr4  1  0.376517  0.380826  0.842040  1
  Pr  Pr5  1  0.876837  0.119813  0.658138  1
  Pr  Pr6  1  0.622729  0.881566  0.158463  1
  Pr  Pr7  1  0.123004  0.618668  0.342089  1
  Pr  Pr8  1  0.468189  0.600234  0.678848  1
  Pr  Pr9  1  0.967344  0.899506  0.822200  1
  Pr  Pr10  1  0.532989  0.101351  0.321756  1
  Pr  Pr11  1  0.032720  0.399373  0.178082  1
  Pr  Pr12  1  0.532989  0.398649  0.321756  1
  Pr  Pr13  1  0.032720  0.100627  0.178082  1
  Pr  Pr14  1  0.468189  0.899766  0.678848  1
  Pr  Pr15  1  0.967344  0.600494  0.822200  1
  Ho  Ho16  1  0.291282  0.750000  0.003973  1
  Ho  Ho17  1  0.208837  0.250000  0.503081  1
  Ho  Ho18  1  0.708698  0.250000  0.996322  1
  Tm  Tm19  1  0.791224  0.750000  0.497292  1
  Pb  Pb20  1  0.718651  0.453567  0.968838  1
  Pb  Pb21  1  0.218747  0.046493  0.530549  1
  Pb  Pb22  1  0.280733  0.954013  0.030327  1
  Pb  Pb23  1  0.781451  0.544720  0.468170  1
  Pb  Pb24  1  0.280733  0.545987  0.030327  1
  Pb  Pb25  1  0.781451  0.955280  0.468170  1
  Pb  Pb26  1  0.718651  0.046433  0.968838  1
  Pb  Pb27  1  0.218747  0.453507  0.530549  1
  Pb  Pb28  1  0.427352  0.750000  0.373133  1
  Pb  Pb29  1  0.929037  0.750000  0.124552  1
  Pb  Pb30  1  0.570692  0.250000  0.625403  1
  Pb  Pb31  1  0.071371  0.250000  0.874832  1
  Pb  Pb32  1  0.656837  0.750000  0.849868  1
  Pb  Pb33  1  0.159996  0.750000  0.653594  1
  Pb  Pb34  1  0.342047  0.250000  0.152440  1
  Pb  Pb35  1  0.842810  0.250000  0.346515  1
