# generated using pymatgen
data_Tm6GaSi5Rh12
_symmetry_space_group_name_H-M   'P 1'
_cell_length_a   5.55149600
_cell_length_b   5.55149501
_cell_length_c   15.07163800
_cell_angle_alpha   90.00000000
_cell_angle_beta   90.00000000
_cell_angle_gamma   119.99999398
_symmetry_Int_Tables_number   1
_chemical_formula_structural   Tm6GaSi5Rh12
_chemical_formula_sum   'Tm6 Ga1 Si5 Rh12'
_cell_volume   402.26393493
_cell_formula_units_Z   1
loop_
 _symmetry_equiv_pos_site_id
 _symmetry_equiv_pos_as_xyz
  1  'x, y, z'
loop_
 _atom_site_type_symbol
 _atom_site_label
 _atom_site_symmetry_multiplicity
 _atom_site_fract_x
 _atom_site_fract_y
 _atom_site_fract_z
 _atom_site_occupancy
  Tm  Tm0  1  0.333333  0.666667  0.537529  1
  Tm  Tm1  1  0.666667  0.333333  0.462471  1
  Tm  Tm2  1  0.666667  0.333333  0.037447  1
  Tm  Tm3  1  0.333333  0.666667  0.962553  1
  Tm  Tm4  1  0.333333  0.666667  0.750241  1
  Tm  Tm5  1  0.666667  0.333333  0.249759  1
  Ga  Ga6  1  0.000000  0.000000  0.000000  1
  Si  Si7  1  0.000000  0.000000  0.251014  1
  Si  Si8  1  0.000000  0.000000  0.748986  1
  Si  Si9  1  0.333333  0.666667  0.251676  1
  Si  Si10  1  0.666667  0.333333  0.748324  1
  Si  Si11  1  0.000000  0.000000  0.500000  1
  Rh  Rh12  1  0.168040  0.336081  0.133473  1
  Rh  Rh13  1  0.831960  0.663919  0.866527  1
  Rh  Rh14  1  0.663919  0.831960  0.133473  1
  Rh  Rh15  1  0.833081  0.666163  0.629319  1
  Rh  Rh16  1  0.336081  0.168040  0.866527  1
  Rh  Rh17  1  0.166919  0.333837  0.370681  1
  Rh  Rh18  1  0.168040  0.831960  0.133473  1
  Rh  Rh19  1  0.333837  0.166919  0.629319  1
  Rh  Rh20  1  0.831960  0.168040  0.866527  1
  Rh  Rh21  1  0.666163  0.833081  0.370681  1
  Rh  Rh22  1  0.833081  0.166919  0.629319  1
  Rh  Rh23  1  0.166919  0.833081  0.370681  1
