# generated using pymatgen
data_Tb5Nd4YIr4
_symmetry_space_group_name_H-M   'P 1'
_cell_length_a   6.56274260
_cell_length_b   7.25974495
_cell_length_c   8.79814388
_cell_angle_alpha   97.10106907
_cell_angle_beta   112.06308064
_cell_angle_gamma   90.06444392
_symmetry_Int_Tables_number   1
_chemical_formula_structural   Tb5Nd4YIr4
_chemical_formula_sum   'Tb5 Nd4 Y1 Ir4'
_cell_volume   384.98571392
_cell_formula_units_Z   1
loop_
 _symmetry_equiv_pos_site_id
 _symmetry_equiv_pos_as_xyz
  1  'x, y, z'
loop_
 _atom_site_type_symbol
 _atom_site_label
 _atom_site_symmetry_multiplicity
 _atom_site_fract_x
 _atom_site_fract_y
 _atom_site_fract_z
 _atom_site_occupancy
  Tb  Tb0  1  0.208384  0.684443  0.562886  1
  Tb  Tb1  1  0.356859  0.185202  0.565256  1
  Tb  Tb2  1  0.792244  0.315706  0.436768  1
  Tb  Tb3  1  0.429114  0.750773  0.000215  1
  Tb  Tb4  1  0.570294  0.249912  0.000201  1
  Nd  Nd5  1  0.976796  0.921019  0.190994  1
  Nd  Nd6  1  0.786674  0.579713  0.809908  1
  Nd  Nd7  1  0.022495  0.078651  0.809149  1
  Nd  Nd8  1  0.213769  0.420284  0.190540  1
  Y  Y9  1  0.643120  0.813922  0.435038  1
  Ir  Ir10  1  0.814529  0.572467  0.226201  1
  Ir  Ir11  1  0.588089  0.927043  0.774667  1
  Ir  Ir12  1  0.186073  0.427615  0.773667  1
  Ir  Ir13  1  0.411559  0.073250  0.224509  1
