# generated using pymatgen
data_Y9Ho(AsPb3)2
_symmetry_space_group_name_H-M   'P 1'
_cell_length_a   9.22153500
_cell_length_b   9.21449862
_cell_length_c   6.89206900
_cell_angle_alpha   90.00000000
_cell_angle_beta   90.00000000
_cell_angle_gamma   119.97475634
_symmetry_Int_Tables_number   1
_chemical_formula_structural   Y9Ho(AsPb3)2
_chemical_formula_sum   'Y9 Ho1 As2 Pb6'
_cell_volume   507.30085340
_cell_formula_units_Z   1
loop_
 _symmetry_equiv_pos_site_id
 _symmetry_equiv_pos_as_xyz
  1  'x, y, z'
loop_
 _atom_site_type_symbol
 _atom_site_label
 _atom_site_symmetry_multiplicity
 _atom_site_fract_x
 _atom_site_fract_y
 _atom_site_fract_z
 _atom_site_occupancy
  Y  Y0  1  0.000000  0.756717  0.750000  1
  Y  Y1  1  0.333206  0.666407  0.499927  1
  Y  Y2  1  0.756431  0.756327  0.250000  1
  Y  Y3  1  0.756307  0.000114  0.750000  1
  Y  Y4  1  0.243569  0.999897  0.250000  1
  Y  Y5  1  0.666794  0.333200  0.499927  1
  Y  Y6  1  0.243693  0.243807  0.750000  1
  Y  Y7  1  0.333206  0.666407  0.000073  1
  Y  Y8  1  0.666794  0.333200  0.000073  1
  Ho  Ho9  1  0.000000  0.242644  0.250000  1
  As  As10  1  0.000000  0.000766  0.000550  1
  As  As11  1  0.000000  0.000766  0.499450  1
  Pb  Pb12  1  0.399726  0.400118  0.250000  1
  Pb  Pb13  1  0.599792  0.599810  0.750000  1
  Pb  Pb14  1  0.600274  0.000392  0.250000  1
  Pb  Pb15  1  0.400208  0.000019  0.750000  1
  Pb  Pb16  1  0.000000  0.598939  0.250000  1
  Pb  Pb17  1  0.000000  0.400473  0.750000  1
