# generated using pymatgen
data_HfScPa(Co3B2)3
_symmetry_space_group_name_H-M   'P 1'
_cell_length_a   5.74082826
_cell_length_b   5.74082809
_cell_length_c   5.74082827
_cell_angle_alpha   94.22841170
_cell_angle_beta   94.22840758
_cell_angle_gamma   94.22839452
_symmetry_Int_Tables_number   1
_chemical_formula_structural   HfScPa(Co3B2)3
_chemical_formula_sum   'Hf1 Sc1 Pa1 Co9 B6'
_cell_volume   187.57538588
_cell_formula_units_Z   1
loop_
 _symmetry_equiv_pos_site_id
 _symmetry_equiv_pos_as_xyz
  1  'x, y, z'
loop_
 _atom_site_type_symbol
 _atom_site_label
 _atom_site_symmetry_multiplicity
 _atom_site_fract_x
 _atom_site_fract_y
 _atom_site_fract_z
 _atom_site_occupancy
  Hf  Hf0  1  0.334165  0.334165  0.334165  1
  Sc  Sc1  1  0.667089  0.667089  0.667089  1
  Pa  Pa2  1  0.997250  0.997250  0.997250  1
  Co  Co3  1  0.497286  0.000934  0.000934  1
  Co  Co4  1  0.000934  0.497286  0.000934  1
  Co  Co5  1  0.000934  0.000934  0.497286  1
  Co  Co6  1  0.691853  0.197052  0.691853  1
  Co  Co7  1  0.691853  0.691853  0.197052  1
  Co  Co8  1  0.197052  0.691853  0.691853  1
  Co  Co9  1  0.308596  0.802747  0.308596  1
  Co  Co10  1  0.308596  0.308596  0.802747  1
  Co  Co11  1  0.802747  0.308596  0.308596  1
  B  B12  1  0.377064  0.000206  0.623552  1
  B  B13  1  0.623552  0.377064  0.000206  1
  B  B14  1  0.000206  0.623552  0.377064  1
  B  B15  1  0.623552  0.000206  0.377064  1
  B  B16  1  0.377064  0.623552  0.000206  1
  B  B17  1  0.000206  0.377064  0.623552  1
