# generated using pymatgen
data_HoSc4Si7(Pt2Rh)3
_symmetry_space_group_name_H-M   'P 1'
_cell_length_a   10.02300600
_cell_length_b   10.02300566
_cell_length_c   3.90038400
_cell_angle_alpha   90.00000000
_cell_angle_beta   90.00000000
_cell_angle_gamma   119.99999453
_symmetry_Int_Tables_number   1
_chemical_formula_structural   HoSc4Si7(Pt2Rh)3
_chemical_formula_sum   'Ho1 Sc4 Si7 Pt6 Rh3'
_cell_volume   339.33916565
_cell_formula_units_Z   1
loop_
 _symmetry_equiv_pos_site_id
 _symmetry_equiv_pos_as_xyz
  1  'x, y, z'
loop_
 _atom_site_type_symbol
 _atom_site_label
 _atom_site_symmetry_multiplicity
 _atom_site_fract_x
 _atom_site_fract_y
 _atom_site_fract_z
 _atom_site_occupancy
  Ho  Ho0  1  0.333333  0.666667  0.500000  1
  Sc  Sc1  1  0.000000  0.000000  0.000000  1
  Sc  Sc2  1  0.895904  0.458202  0.500000  1
  Sc  Sc3  1  0.562298  0.104096  0.500000  1
  Sc  Sc4  1  0.541798  0.437702  0.500000  1
  Si  Si5  1  0.238165  0.190350  0.500000  1
  Si  Si6  1  0.809650  0.047815  0.500000  1
  Si  Si7  1  0.952185  0.761835  0.500000  1
  Si  Si8  1  0.559616  0.650526  0.000000  1
  Si  Si9  1  0.349474  0.909088  0.000000  1
  Si  Si10  1  0.090912  0.440384  0.000000  1
  Si  Si11  1  0.666667  0.333333  0.000000  1
  Pt  Pt12  1  0.313936  0.411583  0.000000  1
  Pt  Pt13  1  0.588417  0.902352  0.000000  1
  Pt  Pt14  1  0.097648  0.686064  0.000000  1
  Pt  Pt15  1  0.382692  0.172481  0.000000  1
  Pt  Pt16  1  0.827519  0.210210  0.000000  1
  Pt  Pt17  1  0.789790  0.617308  0.000000  1
  Rh  Rh18  1  0.219571  0.937604  0.500000  1
  Rh  Rh19  1  0.062396  0.281968  0.500000  1
  Rh  Rh20  1  0.718032  0.780429  0.500000  1
