# generated using pymatgen
data_YHo2Si3Os2
_symmetry_space_group_name_H-M   'P 1'
_cell_length_a   5.74081719
_cell_length_b   5.74081655
_cell_length_c   13.67354100
_cell_angle_alpha   90.00000000
_cell_angle_beta   90.00000000
_cell_angle_gamma   137.19056434
_symmetry_Int_Tables_number   1
_chemical_formula_structural   YHo2Si3Os2
_chemical_formula_sum   'Y2 Ho4 Si6 Os4'
_cell_volume   306.23692203
_cell_formula_units_Z   2
loop_
 _symmetry_equiv_pos_site_id
 _symmetry_equiv_pos_as_xyz
  1  'x, y, z'
loop_
 _atom_site_type_symbol
 _atom_site_label
 _atom_site_symmetry_multiplicity
 _atom_site_fract_x
 _atom_site_fract_y
 _atom_site_fract_z
 _atom_site_occupancy
  Y  Y0  1  0.640784  0.359216  0.250000  1
  Y  Y1  1  0.359216  0.640784  0.750000  1
  Ho  Ho2  1  0.924173  0.075827  0.115589  1
  Ho  Ho3  1  0.075827  0.924173  0.884411  1
  Ho  Ho4  1  0.075827  0.924173  0.615589  1
  Ho  Ho5  1  0.924173  0.075827  0.384411  1
  Si  Si6  1  0.325955  0.674045  0.250000  1
  Si  Si7  1  0.674045  0.325955  0.750000  1
  Si  Si8  1  0.616696  0.383304  0.037737  1
  Si  Si9  1  0.383304  0.616696  0.962263  1
  Si  Si10  1  0.383304  0.616696  0.537737  1
  Si  Si11  1  0.616696  0.383304  0.462263  1
  Os  Os12  1  0.786743  0.213257  0.581786  1
  Os  Os13  1  0.213257  0.786743  0.418214  1
  Os  Os14  1  0.213257  0.786743  0.081786  1
  Os  Os15  1  0.786743  0.213257  0.918214  1
