# generated using pymatgen
data_Hf2TiAlRe2
_symmetry_space_group_name_H-M   'P 1'
_cell_length_a   5.25344938
_cell_length_b   5.27938962
_cell_length_c   8.70679400
_cell_angle_alpha   90.00000000
_cell_angle_beta   90.00000000
_cell_angle_gamma   120.16346482
_symmetry_Int_Tables_number   1
_chemical_formula_structural   Hf2TiAlRe2
_chemical_formula_sum   'Hf4 Ti2 Al2 Re4'
_cell_volume   208.78507378
_cell_formula_units_Z   2
loop_
 _symmetry_equiv_pos_site_id
 _symmetry_equiv_pos_as_xyz
  1  'x, y, z'
loop_
 _atom_site_type_symbol
 _atom_site_label
 _atom_site_symmetry_multiplicity
 _atom_site_fract_x
 _atom_site_fract_y
 _atom_site_fract_z
 _atom_site_occupancy
  Hf  Hf0  1  0.332596  0.673153  0.436932  1
  Hf  Hf1  1  0.667404  0.340556  0.936932  1
  Hf  Hf2  1  0.667404  0.340556  0.563068  1
  Hf  Hf3  1  0.332596  0.673153  0.063068  1
  Ti  Ti4  1  0.168109  0.338127  0.750000  1
  Ti  Ti5  1  0.831891  0.170016  0.250000  1
  Al  Al6  1  0.000000  0.994295  0.000000  1
  Al  Al7  1  0.000000  0.994295  0.500000  1
  Re  Re8  1  0.344052  0.168126  0.250000  1
  Re  Re9  1  0.655948  0.824076  0.750000  1
  Re  Re10  1  0.829702  0.656673  0.250000  1
  Re  Re11  1  0.170298  0.826973  0.750000  1
