# generated using pymatgen
data_Ho9ErCd4In4PdPt3
_symmetry_space_group_name_H-M   'P 1'
_cell_length_a   3.59323600
_cell_length_b   8.07454405
_cell_length_c   18.35003400
_cell_angle_alpha   90.00652109
_cell_angle_beta   90.00000000
_cell_angle_gamma   90.00000000
_symmetry_Int_Tables_number   1
_chemical_formula_structural   Ho9ErCd4In4PdPt3
_chemical_formula_sum   'Ho9 Er1 Cd4 In4 Pd1 Pt3'
_cell_volume   532.40315555
_cell_formula_units_Z   1
loop_
 _symmetry_equiv_pos_site_id
 _symmetry_equiv_pos_as_xyz
  1  'x, y, z'
loop_
 _atom_site_type_symbol
 _atom_site_label
 _atom_site_symmetry_multiplicity
 _atom_site_fract_x
 _atom_site_fract_y
 _atom_site_fract_z
 _atom_site_occupancy
  Ho  Ho0  1  0.000000  0.500041  0.500025  1
  Ho  Ho1  1  0.000000  0.999890  0.999881  1
  Ho  Ho2  1  0.000000  0.742576  0.279963  1
  Ho  Ho3  1  0.000000  0.254238  0.719903  1
  Ho  Ho4  1  0.000000  0.753967  0.779840  1
  Ho  Ho5  1  0.000000  0.248516  0.219444  1
  Ho  Ho6  1  0.000000  0.613869  0.084850  1
  Ho  Ho7  1  0.000000  0.386268  0.915102  1
  Ho  Ho8  1  0.000000  0.886118  0.584761  1
  Er  Er9  1  0.000000  0.113687  0.416004  1
  Cd  Cd10  1  0.500000  0.711384  0.932379  1
  Cd  Cd11  1  0.500000  0.288675  0.067958  1
  Cd  Cd12  1  0.500000  0.790313  0.431769  1
  Cd  Cd13  1  0.500000  0.210828  0.567052  1
  In  In14  1  0.500000  0.571349  0.646652  1
  In  In15  1  0.500000  0.427047  0.353482  1
  In  In16  1  0.500000  0.929611  0.147389  1
  In  In17  1  0.500000  0.071202  0.853099  1
  Pd  Pd18  1  0.500000  0.028030  0.303732  1
  Pt  Pt19  1  0.500000  0.527480  0.196929  1
  Pt  Pt20  1  0.500000  0.472406  0.803288  1
  Pt  Pt21  1  0.500000  0.972504  0.696498  1
