# generated using pymatgen
data_Ho3ErTh4(ReB6)4
_symmetry_space_group_name_H-M   'P 1'
_cell_length_a   3.76643400
_cell_length_b   9.25962701
_cell_length_c   11.68829701
_cell_angle_alpha   90.00505400
_cell_angle_beta   90.00000000
_cell_angle_gamma   90.00000000
_symmetry_Int_Tables_number   1
_chemical_formula_structural   Ho3ErTh4(ReB6)4
_chemical_formula_sum   'Ho3 Er1 Th4 Re4 B24'
_cell_volume   407.63840336
_cell_formula_units_Z   1
loop_
 _symmetry_equiv_pos_site_id
 _symmetry_equiv_pos_as_xyz
  1  'x, y, z'
loop_
 _atom_site_type_symbol
 _atom_site_label
 _atom_site_symmetry_multiplicity
 _atom_site_fract_x
 _atom_site_fract_y
 _atom_site_fract_z
 _atom_site_occupancy
  Ho  Ho0  1  0.000000  0.944957  0.372675  1
  Ho  Ho1  1  0.000000  0.055045  0.627347  1
  Ho  Ho2  1  0.000000  0.445001  0.127216  1
  Er  Er3  1  0.000000  0.555014  0.872634  1
  Th  Th4  1  0.000000  0.322475  0.414345  1
  Th  Th5  1  0.000000  0.677498  0.585725  1
  Th  Th6  1  0.000000  0.822418  0.085618  1
  Th  Th7  1  0.000000  0.177616  0.914306  1
  Re  Re8  1  0.000000  0.639403  0.319721  1
  Re  Re9  1  0.000000  0.360769  0.680425  1
  Re  Re10  1  0.000000  0.139433  0.180240  1
  Re  Re11  1  0.000000  0.860306  0.819782  1
  B  B12  1  0.500000  0.556473  0.429579  1
  B  B13  1  0.500000  0.443544  0.570462  1
  B  B14  1  0.500000  0.056460  0.070420  1
  B  B15  1  0.500000  0.943493  0.929566  1
  B  B16  1  0.500000  0.749922  0.416850  1
  B  B17  1  0.500000  0.250094  0.583155  1
  B  B18  1  0.500000  0.249938  0.083157  1
  B  B19  1  0.500000  0.749841  0.916839  1
  B  B20  1  0.500000  0.791279  0.266500  1
  B  B21  1  0.500000  0.208780  0.733514  1
  B  B22  1  0.500000  0.291277  0.233496  1
  B  B23  1  0.500000  0.708503  0.766563  1
  B  B24  1  0.500000  0.630838  0.186002  1
  B  B25  1  0.500000  0.369359  0.814102  1
  B  B26  1  0.500000  0.130858  0.313994  1
  B  B27  1  0.500000  0.869113  0.686027  1
  B  B28  1  0.500000  0.985415  0.214197  1
  B  B29  1  0.500000  0.014565  0.785804  1
  B  B30  1  0.500000  0.485418  0.285790  1
  B  B31  1  0.500000  0.514707  0.714367  1
  B  B32  1  0.500000  0.602807  0.027864  1
  B  B33  1  0.500000  0.397389  0.971709  1
  B  B34  1  0.500000  0.102894  0.471873  1
  B  B35  1  0.500000  0.897101  0.528135  1
