# generated using pymatgen
data_La16Mg3AlTc4
_symmetry_space_group_name_H-M   'P 1'
_cell_length_a   10.07236909
_cell_length_b   10.07236949
_cell_length_c   10.07236887
_cell_angle_alpha   60.20364143
_cell_angle_beta   60.20364033
_cell_angle_gamma   60.20363889
_symmetry_Int_Tables_number   1
_chemical_formula_structural   La16Mg3AlTc4
_chemical_formula_sum   'La16 Mg3 Al1 Tc4'
_cell_volume   725.90178331
_cell_formula_units_Z   1
loop_
 _symmetry_equiv_pos_site_id
 _symmetry_equiv_pos_as_xyz
  1  'x, y, z'
loop_
 _atom_site_type_symbol
 _atom_site_label
 _atom_site_symmetry_multiplicity
 _atom_site_fract_x
 _atom_site_fract_y
 _atom_site_fract_z
 _atom_site_occupancy
  La  La0  1  0.558199  0.933912  0.558199  1
  La  La1  1  0.187165  0.187165  0.812380  1
  La  La2  1  0.558199  0.558199  0.933912  1
  La  La3  1  0.964364  0.346126  0.346126  1
  La  La4  1  0.810532  0.190318  0.810532  1
  La  La5  1  0.187165  0.812380  0.187165  1
  La  La6  1  0.346126  0.346126  0.964364  1
  La  La7  1  0.346126  0.964364  0.346126  1
  La  La8  1  0.944611  0.944611  0.555402  1
  La  La9  1  0.933912  0.558199  0.558199  1
  La  La10  1  0.344420  0.344420  0.344420  1
  La  La11  1  0.810532  0.810532  0.190318  1
  La  La12  1  0.812380  0.187165  0.187165  1
  La  La13  1  0.555402  0.944611  0.944611  1
  La  La14  1  0.944611  0.555402  0.944611  1
  La  La15  1  0.190318  0.810532  0.810532  1
  Mg  Mg16  1  0.577351  0.272880  0.577351  1
  Mg  Mg17  1  0.577351  0.577351  0.272880  1
  Mg  Mg18  1  0.272880  0.577351  0.577351  1
  Al  Al19  1  0.579572  0.579572  0.579572  1
  Tc  Tc20  1  0.133589  0.598550  0.133589  1
  Tc  Tc21  1  0.598550  0.133589  0.133589  1
  Tc  Tc22  1  0.133589  0.133589  0.598550  1
  Tc  Tc23  1  0.133058  0.133058  0.133058  1
