# generated using pymatgen
data_Eu4Hf3NbO14
_symmetry_space_group_name_H-M   'P 1'
_cell_length_a   7.56037654
_cell_length_b   7.56037728
_cell_length_c   7.56037657
_cell_angle_alpha   59.61914890
_cell_angle_beta   59.61914572
_cell_angle_gamma   59.61915119
_symmetry_Int_Tables_number   1
_chemical_formula_structural   Eu4Hf3NbO14
_chemical_formula_sum   'Eu4 Hf3 Nb1 O14'
_cell_volume   302.92841706
_cell_formula_units_Z   1
loop_
 _symmetry_equiv_pos_site_id
 _symmetry_equiv_pos_as_xyz
  1  'x, y, z'
loop_
 _atom_site_type_symbol
 _atom_site_label
 _atom_site_symmetry_multiplicity
 _atom_site_fract_x
 _atom_site_fract_y
 _atom_site_fract_z
 _atom_site_occupancy
  Eu  Eu0  1  0.500000  0.500000  0.500000  1
  Eu  Eu1  1  0.500000  0.500000  0.000000  1
  Eu  Eu2  1  0.000000  0.500000  0.500000  1
  Eu  Eu3  1  0.500000  0.000000  0.500000  1
  Hf  Hf4  1  0.000000  0.000000  0.500000  1
  Hf  Hf5  1  0.500000  0.000000  0.000000  1
  Hf  Hf6  1  0.000000  0.500000  0.000000  1
  Nb  Nb7  1  0.000000  0.000000  0.000000  1
  O  O8  1  0.922003  0.333027  0.333027  1
  O  O9  1  0.319722  0.925332  0.925332  1
  O  O10  1  0.333027  0.922003  0.333027  1
  O  O11  1  0.333027  0.333027  0.922003  1
  O  O12  1  0.925332  0.319722  0.925332  1
  O  O13  1  0.925332  0.925332  0.319722  1
  O  O14  1  0.666973  0.077999  0.666973  1
  O  O15  1  0.074668  0.680280  0.074668  1
  O  O16  1  0.077999  0.666973  0.666973  1
  O  O17  1  0.666973  0.666973  0.077999  1
  O  O18  1  0.680280  0.074668  0.074668  1
  O  O19  1  0.074668  0.074668  0.680280  1
  O  O20  1  0.374534  0.374534  0.374534  1
  O  O21  1  0.625467  0.625467  0.625467  1
