# generated using pymatgen
data_Pr5Pa5O19
_symmetry_space_group_name_H-M   'P 1'
_cell_length_a   6.85597316
_cell_length_b   7.80848927
_cell_length_c   8.74548189
_cell_angle_alpha   101.76553692
_cell_angle_beta   97.57290162
_cell_angle_gamma   107.05941681
_symmetry_Int_Tables_number   1
_chemical_formula_structural   Pr5Pa5O19
_chemical_formula_sum   'Pr5 Pa5 O19'
_cell_volume   428.90302040
_cell_formula_units_Z   1
loop_
 _symmetry_equiv_pos_site_id
 _symmetry_equiv_pos_as_xyz
  1  'x, y, z'
loop_
 _atom_site_type_symbol
 _atom_site_label
 _atom_site_symmetry_multiplicity
 _atom_site_fract_x
 _atom_site_fract_y
 _atom_site_fract_z
 _atom_site_occupancy
  Pr  Pr0  1  0.801372  0.101802  0.600878  1
  Pr  Pr1  1  0.393155  0.297969  0.800387  1
  Pr  Pr2  1  0.603422  0.701954  0.201610  1
  Pr  Pr3  1  0.999752  0.500115  0.997083  1
  Pr  Pr4  1  0.204906  0.910815  0.391020  1
  Pa  Pa5  1  0.781173  0.598378  0.600390  1
  Pa  Pa6  1  0.606542  0.206073  0.198195  1
  Pa  Pa7  1  0.000006  0.002346  0.995949  1
  Pa  Pa8  1  0.409474  0.807862  0.812694  1
  Pa  Pa9  1  0.200377  0.390433  0.391024  1
  O  O10  1  0.347971  0.064942  0.960215  1
  O  O11  1  0.431191  0.990976  0.653336  1
  O  O12  1  0.044374  0.211642  0.857427  1
  O  O13  1  0.737162  0.386401  0.736595  1
  O  O14  1  0.151225  0.187926  0.537619  1
  O  O15  1  0.356680  0.590505  0.946802  1
  O  O16  1  0.947991  0.260963  0.154713  1
  O  O17  1  0.880343  0.371791  0.449445  1
  O  O18  1  0.748845  0.863675  0.762890  1
  O  O19  1  0.544787  0.458241  0.358788  1
  O  O20  1  0.430239  0.550552  0.634577  1
  O  O21  1  0.252253  0.137250  0.239267  1
  O  O22  1  0.060759  0.729614  0.813702  1
  O  O23  1  0.649635  0.413263  0.061979  1
  O  O24  1  0.861010  0.803906  0.463344  1
  O  O25  1  0.245227  0.616141  0.272344  1
  O  O26  1  0.954366  0.789758  0.128893  1
  O  O27  1  0.566464  0.002470  0.342894  1
  O  O28  1  0.653218  0.939875  0.044178  1
