# generated using pymatgen
data_La8Dy12Si15Pb
_symmetry_space_group_name_H-M   'P 1'
_cell_length_a   7.56318100
_cell_length_b   7.85953068
_cell_length_c   14.87215800
_cell_angle_alpha   90.00000000
_cell_angle_beta   90.00000000
_cell_angle_gamma   89.88553274
_symmetry_Int_Tables_number   1
_chemical_formula_structural   La8Dy12Si15Pb
_chemical_formula_sum   'La8 Dy12 Si15 Pb1'
_cell_volume   884.04471412
_cell_formula_units_Z   1
loop_
 _symmetry_equiv_pos_site_id
 _symmetry_equiv_pos_as_xyz
  1  'x, y, z'
loop_
 _atom_site_type_symbol
 _atom_site_label
 _atom_site_symmetry_multiplicity
 _atom_site_fract_x
 _atom_site_fract_y
 _atom_site_fract_z
 _atom_site_occupancy
  La  La0  1  0.984595  0.832231  0.088870  1
  La  La1  1  0.468775  0.679943  0.405501  1
  La  La2  1  0.525220  0.320515  0.900824  1
  La  La3  1  0.025037  0.180150  0.600380  1
  La  La4  1  0.025037  0.180150  0.899620  1
  La  La5  1  0.525220  0.320515  0.599176  1
  La  La6  1  0.468775  0.679943  0.094499  1
  La  La7  1  0.984595  0.832231  0.411130  1
  Dy  Dy8  1  0.641150  0.005470  0.250000  1
  Dy  Dy9  1  0.165985  0.507007  0.250000  1
  Dy  Dy10  1  0.849104  0.490179  0.750000  1
  Dy  Dy11  1  0.350175  0.009495  0.750000  1
  Dy  Dy12  1  0.681729  0.821780  0.876411  1
  Dy  Dy13  1  0.181063  0.676856  0.624098  1
  Dy  Dy14  1  0.822220  0.314137  0.120189  1
  Dy  Dy15  1  0.313769  0.175971  0.379182  1
  Dy  Dy16  1  0.313769  0.175971  0.120818  1
  Dy  Dy17  1  0.822220  0.314137  0.379811  1
  Dy  Dy18  1  0.181063  0.676856  0.875902  1
  Dy  Dy19  1  0.681729  0.821780  0.623589  1
  Si  Si20  1  0.265324  0.880305  0.250000  1
  Si  Si21  1  0.731467  0.118066  0.750000  1
  Si  Si22  1  0.232374  0.380805  0.750000  1
  Si  Si23  1  0.022140  0.112490  0.250000  1
  Si  Si24  1  0.521038  0.367800  0.250000  1
  Si  Si25  1  0.475869  0.614032  0.750000  1
  Si  Si26  1  0.975294  0.885799  0.750000  1
  Si  Si27  1  0.856189  0.530604  0.959854  1
  Si  Si28  1  0.356052  0.968612  0.541997  1
  Si  Si29  1  0.639289  0.027830  0.039521  1
  Si  Si30  1  0.141891  0.469309  0.460947  1
  Si  Si31  1  0.141891  0.469309  0.039053  1
  Si  Si32  1  0.639289  0.027830  0.460479  1
  Si  Si33  1  0.356052  0.968612  0.958003  1
  Si  Si34  1  0.856189  0.530604  0.540146  1
  Pb  Pb35  1  0.778420  0.632678  0.250000  1
