# generated using pymatgen
data_Rb3Na2SnSb3
_symmetry_space_group_name_H-M   'P 1'
_cell_length_a   11.67595545
_cell_length_b   11.67595545
_cell_length_c   17.05091900
_cell_angle_alpha   90.00000000
_cell_angle_beta   90.00000000
_cell_angle_gamma   143.33542010
_symmetry_Int_Tables_number   1
_chemical_formula_structural   Rb3Na2SnSb3
_chemical_formula_sum   'Rb12 Na8 Sn4 Sb12'
_cell_volume   1388.03714306
_cell_formula_units_Z   4
loop_
 _symmetry_equiv_pos_site_id
 _symmetry_equiv_pos_as_xyz
  1  'x, y, z'
loop_
 _atom_site_type_symbol
 _atom_site_label
 _atom_site_symmetry_multiplicity
 _atom_site_fract_x
 _atom_site_fract_y
 _atom_site_fract_z
 _atom_site_occupancy
  Rb  Rb0  1  0.600850  0.934225  0.826884  1
  Rb  Rb1  1  0.262204  0.262204  0.323650  1
  Rb  Rb2  1  0.237796  0.237796  0.823650  1
  Rb  Rb3  1  0.737796  0.737796  0.676350  1
  Rb  Rb4  1  0.434225  0.100850  0.673116  1
  Rb  Rb5  1  0.899150  0.565775  0.326884  1
  Rb  Rb6  1  0.065775  0.399150  0.173116  1
  Rb  Rb7  1  0.399150  0.065775  0.173116  1
  Rb  Rb8  1  0.565775  0.899150  0.326884  1
  Rb  Rb9  1  0.100850  0.434225  0.673116  1
  Rb  Rb10  1  0.934225  0.600850  0.826884  1
  Rb  Rb11  1  0.762204  0.762204  0.176350  1
  Na  Na12  1  0.081582  0.918418  0.000000  1
  Na  Na13  1  0.581582  0.418418  0.500000  1
  Na  Na14  1  0.918418  0.081582  0.000000  1
  Na  Na15  1  0.754610  0.245390  0.000000  1
  Na  Na16  1  0.745390  0.254610  0.500000  1
  Na  Na17  1  0.245390  0.754610  0.000000  1
  Na  Na18  1  0.254610  0.745390  0.500000  1
  Na  Na19  1  0.418418  0.581582  0.500000  1
  Sn  Sn20  1  0.088951  0.911049  0.500000  1
  Sn  Sn21  1  0.411049  0.588951  0.000000  1
  Sn  Sn22  1  0.911049  0.088951  0.500000  1
  Sn  Sn23  1  0.588951  0.411049  0.000000  1
  Sb  Sb24  1  0.064925  0.384696  0.395288  1
  Sb  Sb25  1  0.884696  0.564925  0.104712  1
  Sb  Sb26  1  0.435075  0.115304  0.895288  1
  Sb  Sb27  1  0.615304  0.935075  0.604712  1
  Sb  Sb28  1  0.935075  0.615304  0.604712  1
  Sb  Sb29  1  0.115304  0.435075  0.895288  1
  Sb  Sb30  1  0.564925  0.884696  0.104712  1
  Sb  Sb31  1  0.384696  0.064925  0.395288  1
  Sb  Sb32  1  0.207185  0.207185  0.593995  1
  Sb  Sb33  1  0.707185  0.707185  0.906005  1
  Sb  Sb34  1  0.292815  0.292815  0.093995  1
  Sb  Sb35  1  0.792815  0.792815  0.406005  1
