# generated using pymatgen
data_PrTm3(AlRu)4
_symmetry_space_group_name_H-M   'P 1'
_cell_length_a   7.04311518
_cell_length_b   4.01570900
_cell_length_c   8.11882312
_cell_angle_alpha   90.00000000
_cell_angle_beta   89.57435134
_cell_angle_gamma   90.00000000
_symmetry_Int_Tables_number   1
_chemical_formula_structural   PrTm3(AlRu)4
_chemical_formula_sum   'Pr1 Tm3 Al4 Ru4'
_cell_volume   229.61915806
_cell_formula_units_Z   1
loop_
 _symmetry_equiv_pos_site_id
 _symmetry_equiv_pos_as_xyz
  1  'x, y, z'
loop_
 _atom_site_type_symbol
 _atom_site_label
 _atom_site_symmetry_multiplicity
 _atom_site_fract_x
 _atom_site_fract_y
 _atom_site_fract_z
 _atom_site_occupancy
  Pr  Pr0  1  0.529923  0.750000  0.679631  1
  Tm  Tm1  1  0.967472  0.250000  0.175074  1
  Tm  Tm2  1  0.466319  0.250000  0.319561  1
  Tm  Tm3  1  0.034093  0.750000  0.825367  1
  Al  Al4  1  0.866336  0.250000  0.552045  1
  Al  Al5  1  0.360095  0.250000  0.947378  1
  Al  Al6  1  0.133035  0.750000  0.439323  1
  Al  Al7  1  0.639434  0.750000  0.061238  1
  Ru  Ru8  1  0.740622  0.250000  0.876864  1
  Ru  Ru9  1  0.220381  0.250000  0.627626  1
  Ru  Ru10  1  0.272168  0.750000  0.129751  1
  Ru  Ru11  1  0.770124  0.750000  0.366142  1
