# generated using pymatgen
data_Ho3ErTm4(B6Rh)4
_symmetry_space_group_name_H-M   'P 1'
_cell_length_a   3.63086300
_cell_length_b   9.12735200
_cell_length_c   11.46145400
_cell_angle_alpha   90.00233236
_cell_angle_beta   90.00000000
_cell_angle_gamma   90.00000000
_symmetry_Int_Tables_number   1
_chemical_formula_structural   Ho3ErTm4(B6Rh)4
_chemical_formula_sum   'Ho3 Er1 Tm4 B24 Rh4'
_cell_volume   379.83447270
_cell_formula_units_Z   1
loop_
 _symmetry_equiv_pos_site_id
 _symmetry_equiv_pos_as_xyz
  1  'x, y, z'
loop_
 _atom_site_type_symbol
 _atom_site_label
 _atom_site_symmetry_multiplicity
 _atom_site_fract_x
 _atom_site_fract_y
 _atom_site_fract_z
 _atom_site_occupancy
  Ho  Ho0  1  0.500000  0.321823  0.413740  1
  Ho  Ho1  1  0.500000  0.678196  0.586271  1
  Ho  Ho2  1  0.500000  0.178175  0.913756  1
  Er  Er3  1  0.500000  0.821660  0.086239  1
  Tm  Tm4  1  0.500000  0.444235  0.126850  1
  Tm  Tm5  1  0.500000  0.555918  0.873204  1
  Tm  Tm6  1  0.500000  0.055828  0.626879  1
  Tm  Tm7  1  0.500000  0.944132  0.373081  1
  B  B8  1  0.000000  0.107859  0.470778  1
  B  B9  1  0.000000  0.892107  0.529191  1
  B  B10  1  0.000000  0.392055  0.970775  1
  B  B11  1  0.000000  0.608262  0.029314  1
  B  B12  1  0.000000  0.132522  0.316440  1
  B  B13  1  0.000000  0.867445  0.683536  1
  B  B14  1  0.000000  0.367476  0.816493  1
  B  B15  1  0.000000  0.632736  0.183406  1
  B  B16  1  0.000000  0.053731  0.065448  1
  B  B17  1  0.000000  0.945921  0.934753  1
  B  B18  1  0.000000  0.446048  0.565454  1
  B  B19  1  0.000000  0.553974  0.434508  1
  B  B20  1  0.000000  0.482524  0.286545  1
  B  B21  1  0.000000  0.517571  0.713466  1
  B  B22  1  0.000000  0.017490  0.786595  1
  B  B23  1  0.000000  0.982223  0.213272  1
  B  B24  1  0.000000  0.250013  0.079689  1
  B  B25  1  0.000000  0.750057  0.920577  1
  B  B26  1  0.000000  0.249953  0.579664  1
  B  B27  1  0.000000  0.750038  0.420279  1
  B  B28  1  0.000000  0.294406  0.235963  1
  B  B29  1  0.000000  0.705614  0.764065  1
  B  B30  1  0.000000  0.205572  0.736010  1
  B  B31  1  0.000000  0.794506  0.263777  1
  Rh  Rh32  1  0.500000  0.139479  0.179272  1
  Rh  Rh33  1  0.500000  0.860308  0.820824  1
  Rh  Rh34  1  0.500000  0.360285  0.679392  1
  Rh  Rh35  1  0.500000  0.639858  0.320491  1
