# generated using pymatgen
data_Sm4Co4Re3P12Rh13
_symmetry_space_group_name_H-M   'P 1'
_cell_length_a   3.88774100
_cell_length_b   10.77464216
_cell_length_c   12.41029072
_cell_angle_alpha   90.15742408
_cell_angle_beta   90.00000000
_cell_angle_gamma   90.00000000
_symmetry_Int_Tables_number   1
_chemical_formula_structural   Sm4Co4Re3P12Rh13
_chemical_formula_sum   'Sm4 Co4 Re3 P12 Rh13'
_cell_volume   519.85293017
_cell_formula_units_Z   1
loop_
 _symmetry_equiv_pos_site_id
 _symmetry_equiv_pos_as_xyz
  1  'x, y, z'
loop_
 _atom_site_type_symbol
 _atom_site_label
 _atom_site_symmetry_multiplicity
 _atom_site_fract_x
 _atom_site_fract_y
 _atom_site_fract_z
 _atom_site_occupancy
  Sm  Sm0  1  0.250000  0.585567  0.707080  1
  Sm  Sm1  1  0.250000  0.913446  0.207237  1
  Sm  Sm2  1  0.750000  0.414265  0.291905  1
  Sm  Sm3  1  0.750000  0.084190  0.793000  1
  Co  Co4  1  0.250000  0.462311  0.936216  1
  Co  Co5  1  0.250000  0.033362  0.434627  1
  Co  Co6  1  0.750000  0.538019  0.063857  1
  Co  Co7  1  0.750000  0.961173  0.565534  1
  Re  Re8  1  0.250000  0.708402  0.986104  1
  Re  Re9  1  0.250000  0.791075  0.487277  1
  Re  Re10  1  0.750000  0.291140  0.012287  1
  P  P11  1  0.250000  0.421200  0.106244  1
  P  P12  1  0.250000  0.076867  0.605838  1
  P  P13  1  0.750000  0.578590  0.893965  1
  P  P14  1  0.750000  0.923264  0.394123  1
  P  P15  1  0.250000  0.271760  0.874162  1
  P  P16  1  0.250000  0.225943  0.372444  1
  P  P17  1  0.750000  0.727731  0.126481  1
  P  P18  1  0.750000  0.772492  0.625211  1
  P  P19  1  0.250000  0.600922  0.390819  1
  P  P20  1  0.250000  0.898723  0.891259  1
  P  P21  1  0.750000  0.402078  0.609710  1
  P  P22  1  0.750000  0.102071  0.109703  1
  Rh  Rh23  1  0.750000  0.214997  0.515482  1
  Rh  Rh24  1  0.250000  0.406438  0.485847  1
  Rh  Rh25  1  0.250000  0.094313  0.986443  1
  Rh  Rh26  1  0.750000  0.595158  0.512870  1
  Rh  Rh27  1  0.750000  0.905054  0.013483  1
  Rh  Rh28  1  0.250000  0.226618  0.177326  1
  Rh  Rh29  1  0.250000  0.270373  0.681891  1
  Rh  Rh30  1  0.750000  0.771862  0.820199  1
  Rh  Rh31  1  0.750000  0.727383  0.320979  1
  Rh  Rh32  1  0.250000  0.888173  0.699751  1
  Rh  Rh33  1  0.250000  0.610625  0.199026  1
  Rh  Rh34  1  0.750000  0.112934  0.301537  1
  Rh  Rh35  1  0.750000  0.391480  0.800086  1
