# generated using pymatgen
data_CsTaH5
_symmetry_space_group_name_H-M   'P 1'
_cell_length_a   11.76839800
_cell_length_b   7.64840800
_cell_length_c   5.19771900
_cell_angle_alpha   90.00000000
_cell_angle_beta   90.00000000
_cell_angle_gamma   90.00000000
_symmetry_Int_Tables_number   1
_chemical_formula_structural   CsTaH5
_chemical_formula_sum   'Cs4 Ta4 H20'
_cell_volume   467.84413724
_cell_formula_units_Z   4
loop_
 _symmetry_equiv_pos_site_id
 _symmetry_equiv_pos_as_xyz
  1  'x, y, z'
loop_
 _atom_site_type_symbol
 _atom_site_label
 _atom_site_symmetry_multiplicity
 _atom_site_fract_x
 _atom_site_fract_y
 _atom_site_fract_z
 _atom_site_occupancy
  Cs  Cs0  1  0.665593  0.071235  0.331043  1
  Cs  Cs1  1  0.165593  0.428764  0.331043  1
  Cs  Cs2  1  0.834407  0.571235  0.831043  1
  Cs  Cs3  1  0.334407  0.928765  0.831043  1
  Ta  Ta4  1  0.514512  0.561489  0.306850  1
  Ta  Ta5  1  0.014512  0.938511  0.306850  1
  Ta  Ta6  1  0.985488  0.061488  0.806849  1
  Ta  Ta7  1  0.485488  0.438512  0.806849  1
  H  H8  1  0.351564  0.318820  0.805714  1
  H  H9  1  0.851564  0.181180  0.805714  1
  H  H10  1  0.967204  0.709636  0.319301  1
  H  H11  1  0.467204  0.790363  0.319301  1
  H  H12  1  0.599458  0.416186  0.071831  1
  H  H13  1  0.099457  0.083814  0.071831  1
  H  H14  1  0.388680  0.527917  0.074511  1
  H  H15  1  0.888680  0.972084  0.074511  1
  H  H16  1  0.965267  0.156731  0.457746  1
  H  H17  1  0.465267  0.343270  0.457746  1
  H  H18  1  0.148436  0.818820  0.305713  1
  H  H19  1  0.648436  0.681179  0.305713  1
  H  H20  1  0.532797  0.209636  0.819303  1
  H  H21  1  0.032797  0.290363  0.819303  1
  H  H22  1  0.900543  0.916185  0.571831  1
  H  H23  1  0.400543  0.583815  0.571831  1
  H  H24  1  0.111320  0.027916  0.574511  1
  H  H25  1  0.611320  0.472084  0.574511  1
  H  H26  1  0.534733  0.656731  0.957748  1
  H  H27  1  0.034733  0.843270  0.957748  1
