# generated using pymatgen
data_LaTbCo17Si8Ni
_symmetry_space_group_name_H-M   'P 1'
_cell_length_a   7.93586967
_cell_length_b   7.93253008
_cell_length_c   7.92491021
_cell_angle_alpha   121.89555065
_cell_angle_beta   121.30626997
_cell_angle_gamma   87.33589666
_symmetry_Int_Tables_number   1
_chemical_formula_structural   LaTbCo17Si8Ni
_chemical_formula_sum   'La1 Tb1 Co17 Si8 Ni1'
_cell_volume   343.53861697
_cell_formula_units_Z   1
loop_
 _symmetry_equiv_pos_site_id
 _symmetry_equiv_pos_as_xyz
  1  'x, y, z'
loop_
 _atom_site_type_symbol
 _atom_site_label
 _atom_site_symmetry_multiplicity
 _atom_site_fract_x
 _atom_site_fract_y
 _atom_site_fract_z
 _atom_site_occupancy
  La  La0  1  0.248479  0.249154  0.999664  1
  Tb  Tb1  1  0.751116  0.751143  0.999606  1
  Co  Co2  1  0.809756  0.313082  0.760850  1
  Co  Co3  1  0.311704  0.549202  0.500442  1
  Co  Co4  1  0.189807  0.689139  0.239808  1
  Co  Co5  1  0.688976  0.450157  0.500928  1
  Co  Co6  1  0.949154  0.186648  0.496430  1
  Co  Co7  1  0.067992  0.193385  0.262538  1
  Co  Co8  1  0.299567  0.428955  0.727828  1
  Co  Co9  1  0.048877  0.810130  0.497164  1
  Co  Co10  1  0.568511  0.303311  0.870947  1
  Co  Co11  1  0.449221  0.949113  0.760533  1
  Co  Co12  1  0.797494  0.078380  0.876866  1
  Co  Co13  1  0.430617  0.696898  0.126733  1
  Co  Co14  1  0.699839  0.570211  0.269362  1
  Co  Co15  1  0.205737  0.931064  0.137750  1
  Co  Co16  1  0.999714  0.498264  0.498016  1
  Co  Co17  1  0.552117  0.048007  0.239570  1
  Co  Co18  1  0.501998  0.998555  0.500597  1
  Si  Si19  1  0.289349  0.788426  0.836835  1
  Si  Si20  1  0.788952  0.951855  0.498348  1
  Si  Si21  1  0.950822  0.455994  0.162668  1
  Si  Si22  1  0.456393  0.291051  0.504612  1
  Si  Si23  1  0.044685  0.551182  0.836908  1
  Si  Si24  1  0.210360  0.045104  0.498168  1
  Si  Si25  1  0.709876  0.208306  0.162921  1
  Si  Si26  1  0.550844  0.713338  0.506379  1
  Ni  Ni27  1  0.928044  0.799943  0.727525  1
