# generated using pymatgen
data_LiDy15ErIn3Rh4
_symmetry_space_group_name_H-M   'P 1'
_cell_length_a   9.64658322
_cell_length_b   9.65250394
_cell_length_c   9.64658362
_cell_angle_alpha   59.97906178
_cell_angle_beta   59.84716875
_cell_angle_gamma   59.97906827
_symmetry_Int_Tables_number   1
_chemical_formula_structural   LiDy15ErIn3Rh4
_chemical_formula_sum   'Li1 Dy15 Er1 In3 Rh4'
_cell_volume   634.20655434
_cell_formula_units_Z   1
loop_
 _symmetry_equiv_pos_site_id
 _symmetry_equiv_pos_as_xyz
  1  'x, y, z'
loop_
 _atom_site_type_symbol
 _atom_site_label
 _atom_site_symmetry_multiplicity
 _atom_site_fract_x
 _atom_site_fract_y
 _atom_site_fract_z
 _atom_site_occupancy
  Li  Li0  1  0.427562  0.717358  0.427562  1
  Dy  Dy1  1  0.189337  0.190979  0.810922  1
  Dy  Dy2  1  0.437233  0.061638  0.062826  1
  Dy  Dy3  1  0.436513  0.062833  0.436513  1
  Dy  Dy4  1  0.063040  0.437298  0.063040  1
  Dy  Dy5  1  0.648737  0.052291  0.648737  1
  Dy  Dy6  1  0.187690  0.813072  0.813661  1
  Dy  Dy7  1  0.062826  0.061638  0.437233  1
  Dy  Dy8  1  0.810922  0.190979  0.189337  1
  Dy  Dy9  1  0.813661  0.813072  0.187690  1
  Dy  Dy10  1  0.649815  0.648671  0.048473  1
  Dy  Dy11  1  0.652638  0.650710  0.652638  1
  Dy  Dy12  1  0.063633  0.436022  0.436487  1
  Dy  Dy13  1  0.048473  0.648671  0.649815  1
  Dy  Dy14  1  0.809766  0.191652  0.809766  1
  Dy  Dy15  1  0.436487  0.436022  0.063633  1
  Er  Er16  1  0.185895  0.815770  0.185895  1
  In  In17  1  0.416178  0.421526  0.746011  1
  In  In18  1  0.746011  0.421526  0.416178  1
  In  In19  1  0.416517  0.420847  0.416517  1
  Rh  Rh20  1  0.856614  0.429083  0.856614  1
  Rh  Rh21  1  0.857324  0.859099  0.426941  1
  Rh  Rh22  1  0.426941  0.859099  0.857324  1
  Rh  Rh23  1  0.856187  0.860150  0.856187  1
