# generated using pymatgen
data_LaPr4NdRh18
_symmetry_space_group_name_H-M   'P 1'
_cell_length_a   5.36463401
_cell_length_b   5.36449539
_cell_length_c   17.73370800
_cell_angle_alpha   89.99957571
_cell_angle_beta   89.99940050
_cell_angle_gamma   120.00730055
_symmetry_Int_Tables_number   1
_chemical_formula_structural   LaPr4NdRh18
_chemical_formula_sum   'La1 Pr4 Nd1 Rh18'
_cell_volume   441.94396307
_cell_formula_units_Z   1
loop_
 _symmetry_equiv_pos_site_id
 _symmetry_equiv_pos_as_xyz
  1  'x, y, z'
loop_
 _atom_site_type_symbol
 _atom_site_label
 _atom_site_symmetry_multiplicity
 _atom_site_fract_x
 _atom_site_fract_y
 _atom_site_fract_z
 _atom_site_occupancy
  La  La0  1  0.333358  0.666696  0.750048  1
  Pr  Pr1  1  0.333344  0.666657  0.542311  1
  Pr  Pr2  1  0.666654  0.333352  0.042252  1
  Pr  Pr3  1  0.666653  0.333350  0.457584  1
  Pr  Pr4  1  0.666654  0.333312  0.249942  1
  Nd  Nd5  1  0.333344  0.666671  0.957396  1
  Rh  Rh6  1  0.166681  0.333377  0.127706  1
  Rh  Rh7  1  0.833374  0.666762  0.627343  1
  Rh  Rh8  1  0.666626  0.833320  0.127711  1
  Rh  Rh9  1  0.166677  0.833308  0.127717  1
  Rh  Rh10  1  0.833393  0.166590  0.627351  1
  Rh  Rh11  1  0.333228  0.166617  0.627343  1
  Rh  Rh12  1  0.833343  0.666663  0.873083  1
  Rh  Rh13  1  0.833350  0.166636  0.873062  1
  Rh  Rh14  1  0.333312  0.166653  0.873081  1
  Rh  Rh15  1  0.666858  0.833431  0.371998  1
  Rh  Rh16  1  0.166573  0.833431  0.371992  1
  Rh  Rh17  1  0.166589  0.333151  0.371998  1
  Rh  Rh18  1  0.000023  0.000019  0.249874  1
  Rh  Rh19  1  0.000000  0.000019  0.750209  1
  Rh  Rh20  1  0.333324  0.666659  0.249963  1
  Rh  Rh21  1  0.666677  0.333313  0.750172  1
  Rh  Rh22  1  0.999965  0.000014  0.000098  1
  Rh  Rh23  1  0.000000  0.999998  0.499767  1
