# generated using pymatgen
data_Tb3Y3MnB14Os
_symmetry_space_group_name_H-M   'P 1'
_cell_length_a   8.08461568
_cell_length_b   8.08461570
_cell_length_c   9.33575781
_cell_angle_alpha   89.95341617
_cell_angle_beta   90.04658331
_cell_angle_gamma   155.01278992
_symmetry_Int_Tables_number   1
_chemical_formula_structural   Tb3Y3MnB14Os
_chemical_formula_sum   'Tb3 Y3 Mn1 B14 Os1'
_cell_volume   257.75582240
_cell_formula_units_Z   1
loop_
 _symmetry_equiv_pos_site_id
 _symmetry_equiv_pos_as_xyz
  1  'x, y, z'
loop_
 _atom_site_type_symbol
 _atom_site_label
 _atom_site_symmetry_multiplicity
 _atom_site_fract_x
 _atom_site_fract_y
 _atom_site_fract_z
 _atom_site_occupancy
  Tb  Tb0  1  0.894796  0.105204  0.442175  1
  Tb  Tb1  1  0.104705  0.895295  0.563744  1
  Tb  Tb2  1  0.894731  0.105269  0.057762  1
  Y  Y3  1  0.104612  0.895388  0.936279  1
  Y  Y4  1  0.243889  0.756111  0.249943  1
  Y  Y5  1  0.759403  0.240597  0.749954  1
  Mn  Mn6  1  0.946788  0.053212  0.750164  1
  B  B7  1  0.727012  0.272988  0.466326  1
  B  B8  1  0.272343  0.727657  0.534108  1
  B  B9  1  0.726894  0.273106  0.033606  1
  B  B10  1  0.272148  0.727852  0.965822  1
  B  B11  1  0.631705  0.368295  0.150374  1
  B  B12  1  0.370227  0.629773  0.846008  1
  B  B13  1  0.631713  0.368287  0.349470  1
  B  B14  1  0.370216  0.629784  0.653956  1
  B  B15  1  0.520715  0.479285  0.096088  1
  B  B16  1  0.478102  0.521898  0.901351  1
  B  B17  1  0.520777  0.479223  0.403711  1
  B  B18  1  0.478066  0.521934  0.599033  1
  B  B19  1  0.457531  0.542469  0.249956  1
  B  B20  1  0.539505  0.460495  0.750259  1
  Os  Os21  1  0.054120  0.945880  0.249910  1
