# generated using pymatgen
data_Be4CuPdRh2
_symmetry_space_group_name_H-M   'P 1'
_cell_length_a   5.50907600
_cell_length_b   5.51171500
_cell_length_c   5.62297300
_cell_angle_alpha   90.00006175
_cell_angle_beta   90.00008236
_cell_angle_gamma   90.00008318
_symmetry_Int_Tables_number   1
_chemical_formula_structural   Be4CuPdRh2
_chemical_formula_sum   'Be8 Cu2 Pd2 Rh4'
_cell_volume   170.73852089
_cell_formula_units_Z   2
loop_
 _symmetry_equiv_pos_site_id
 _symmetry_equiv_pos_as_xyz
  1  'x, y, z'
loop_
 _atom_site_type_symbol
 _atom_site_label
 _atom_site_symmetry_multiplicity
 _atom_site_fract_x
 _atom_site_fract_y
 _atom_site_fract_z
 _atom_site_occupancy
  Be  Be0  1  0.000196  0.999990  0.249333  1
  Be  Be1  1  0.000196  0.500026  0.249333  1
  Be  Be2  1  0.500192  0.000012  0.250667  1
  Be  Be3  1  0.500192  0.499970  0.250667  1
  Be  Be4  1  0.499822  0.000005  0.749348  1
  Be  Be5  1  0.499822  0.500012  0.749348  1
  Be  Be6  1  0.999818  0.999991  0.750651  1
  Be  Be7  1  0.999819  0.499992  0.750651  1
  Cu  Cu8  1  0.250288  0.749999  0.000309  1
  Cu  Cu9  1  0.750288  0.250000  0.499691  1
  Pd  Pd10  1  0.249800  0.750000  0.500282  1
  Pd  Pd11  1  0.749800  0.250001  0.999718  1
  Rh  Rh12  1  0.250230  0.250000  0.000012  1
  Rh  Rh13  1  0.749654  0.750001  0.000000  1
  Rh  Rh14  1  0.750230  0.750000  0.499984  1
  Rh  Rh15  1  0.249655  0.250001  0.500002  1
