# generated using pymatgen
data_Dy7Er5Co4TcBi
_symmetry_space_group_name_H-M   'P 1'
_cell_length_a   8.30148902
_cell_length_b   8.30008948
_cell_length_c   8.30008953
_cell_angle_alpha   110.57413990
_cell_angle_beta   111.50361137
_cell_angle_gamma   106.37432907
_symmetry_Int_Tables_number   1
_chemical_formula_structural   Dy7Er5Co4TcBi
_chemical_formula_sum   'Dy7 Er5 Co4 Tc1 Bi1'
_cell_volume   439.29913507
_cell_formula_units_Z   1
loop_
 _symmetry_equiv_pos_site_id
 _symmetry_equiv_pos_as_xyz
  1  'x, y, z'
loop_
 _atom_site_type_symbol
 _atom_site_label
 _atom_site_symmetry_multiplicity
 _atom_site_fract_x
 _atom_site_fract_y
 _atom_site_fract_z
 _atom_site_occupancy
  Dy  Dy0  1  0.282054  0.182357  0.465015  1
  Dy  Dy1  1  0.717917  0.817085  0.534719  1
  Dy  Dy2  1  0.282054  0.817038  0.099697  1
  Dy  Dy3  1  0.717917  0.183198  0.900831  1
  Dy  Dy4  1  0.618599  0.310403  0.308197  1
  Dy  Dy5  1  0.381311  0.689935  0.691376  1
  Dy  Dy6  1  0.001832  0.310071  0.691760  1
  Er  Er7  1  0.998497  0.689665  0.308834  1
  Er  Er8  1  0.213694  0.410764  0.196644  1
  Er  Er9  1  0.786099  0.589461  0.803704  1
  Er  Er10  1  0.213694  0.017051  0.802930  1
  Er  Er11  1  0.786099  0.982395  0.196638  1
  Co  Co12  1  0.000113  0.377919  0.377269  1
  Co  Co13  1  0.000113  0.622845  0.622194  1
  Co  Co14  1  0.388917  0.889108  0.499809  1
  Co  Co15  1  0.610536  0.110483  0.500052  1
  Tc  Tc16  1  0.000120  0.000052  0.000068  1
  Bi  Bi17  1  0.500432  0.500168  0.000264  1
