# generated using pymatgen
data_Dy5MgV2(Co4P3)4
_symmetry_space_group_name_H-M   'P 1'
_cell_length_a   12.10053509
_cell_length_b   12.10053458
_cell_length_c   3.68893400
_cell_angle_alpha   90.00000000
_cell_angle_beta   90.00000000
_cell_angle_gamma   120.23444546
_symmetry_Int_Tables_number   1
_chemical_formula_structural   Dy5MgV2(Co4P3)4
_chemical_formula_sum   'Dy5 Mg1 V2 Co16 P12'
_cell_volume   466.66991568
_cell_formula_units_Z   1
loop_
 _symmetry_equiv_pos_site_id
 _symmetry_equiv_pos_as_xyz
  1  'x, y, z'
loop_
 _atom_site_type_symbol
 _atom_site_label
 _atom_site_symmetry_multiplicity
 _atom_site_fract_x
 _atom_site_fract_y
 _atom_site_fract_z
 _atom_site_occupancy
  Dy  Dy0  1  0.667901  0.331231  0.000000  1
  Dy  Dy1  1  0.331231  0.667901  0.000000  1
  Dy  Dy2  1  0.184233  0.184233  0.500000  1
  Dy  Dy3  1  0.813442  0.002178  0.500000  1
  Dy  Dy4  1  0.002178  0.813442  0.500000  1
  Mg  Mg5  1  0.558733  0.558733  0.000000  1
  V  V6  1  0.441930  0.000947  0.000000  1
  V  V7  1  0.000947  0.441930  0.000000  1
  Co  Co8  1  0.822845  0.199283  0.000000  1
  Co  Co9  1  0.802736  0.623045  0.000000  1
  Co  Co10  1  0.374930  0.175378  0.000000  1
  Co  Co11  1  0.199283  0.822845  0.000000  1
  Co  Co12  1  0.623045  0.802736  0.000000  1
  Co  Co13  1  0.175378  0.374930  0.000000  1
  Co  Co14  1  0.643768  0.127235  0.500000  1
  Co  Co15  1  0.878729  0.519448  0.500000  1
  Co  Co16  1  0.482335  0.353982  0.500000  1
  Co  Co17  1  0.127235  0.643768  0.500000  1
  Co  Co18  1  0.519448  0.878729  0.500000  1
  Co  Co19  1  0.353982  0.482335  0.500000  1
  Co  Co20  1  0.718618  0.718618  0.500000  1
  Co  Co21  1  0.281278  0.998715  0.500000  1
  Co  Co22  1  0.998715  0.281278  0.500000  1
  Co  Co23  1  0.998343  0.998343  0.000000  1
  P  P24  1  0.358009  0.358009  0.000000  1
  P  P25  1  0.635496  0.001676  0.000000  1
  P  P26  1  0.001676  0.635496  0.000000  1
  P  P27  1  0.836411  0.315703  0.500000  1
  P  P28  1  0.691951  0.518618  0.500000  1
  P  P29  1  0.478605  0.164414  0.500000  1
  P  P30  1  0.315703  0.836411  0.500000  1
  P  P31  1  0.518618  0.691951  0.500000  1
  P  P32  1  0.164414  0.478605  0.500000  1
  P  P33  1  0.819845  0.819845  0.000000  1
  P  P34  1  0.178885  0.999124  0.000000  1
  P  P35  1  0.999124  0.178885  0.000000  1
