# generated using pymatgen
data_K3V2F7
_symmetry_space_group_name_H-M   'P 1'
_cell_length_a   4.21413135
_cell_length_b   4.21412824
_cell_length_c   11.28331079
_cell_angle_alpha   100.76653481
_cell_angle_beta   100.76679801
_cell_angle_gamma   89.99760417
_symmetry_Int_Tables_number   1
_chemical_formula_structural   K3V2F7
_chemical_formula_sum   'K3 V2 F7'
_cell_volume   193.26009688
_cell_formula_units_Z   1
loop_
 _symmetry_equiv_pos_site_id
 _symmetry_equiv_pos_as_xyz
  1  'x, y, z'
loop_
 _atom_site_type_symbol
 _atom_site_label
 _atom_site_symmetry_multiplicity
 _atom_site_fract_x
 _atom_site_fract_y
 _atom_site_fract_z
 _atom_site_occupancy
  K  K0  1  0.686078  0.686065  0.372020  1
  K  K1  1  0.313918  0.313915  0.627972  1
  K  K2  1  0.500002  0.500009  0.000002  1
  V  V3  1  0.902855  0.902860  0.805503  1
  V  V4  1  0.097146  0.097142  0.194495  1
  F  F5  1  0.904640  0.404504  0.808719  1
  F  F6  1  0.404500  0.904641  0.808720  1
  F  F7  1  0.095364  0.595504  0.191288  1
  F  F8  1  0.595502  0.095367  0.191288  1
  F  F9  1  0.805822  0.805819  0.611943  1
  F  F10  1  0.999991  0.999993  0.999997  1
  F  F11  1  0.194178  0.194183  0.388051  1
