# generated using pymatgen
data_Tb6Ce2Hf12Si13Ge3
_symmetry_space_group_name_H-M   'P 1'
_cell_length_a   7.32139178
_cell_length_b   7.32962106
_cell_length_c   13.44732335
_cell_angle_alpha   89.98625029
_cell_angle_beta   90.07981127
_cell_angle_gamma   90.00038552
_symmetry_Int_Tables_number   1
_chemical_formula_structural   Tb6Ce2Hf12Si13Ge3
_chemical_formula_sum   'Tb6 Ce2 Hf12 Si13 Ge3'
_cell_volume   721.62336064
_cell_formula_units_Z   1
loop_
 _symmetry_equiv_pos_site_id
 _symmetry_equiv_pos_as_xyz
  1  'x, y, z'
loop_
 _atom_site_type_symbol
 _atom_site_label
 _atom_site_symmetry_multiplicity
 _atom_site_fract_x
 _atom_site_fract_y
 _atom_site_fract_z
 _atom_site_occupancy
  Tb  Tb0  1  0.153805  0.496078  0.466308  1
  Tb  Tb1  1  0.503176  0.844973  0.035278  1
  Tb  Tb2  1  0.845872  0.502566  0.966690  1
  Tb  Tb3  1  0.497935  0.155977  0.535062  1
  Tb  Tb4  1  0.343681  0.996049  0.785572  1
  Tb  Tb5  1  0.657182  0.004676  0.284615  1
  Ce  Ce6  1  0.993016  0.344375  0.213150  1
  Ce  Ce7  1  0.005100  0.654019  0.714454  1
  Hf  Hf8  1  0.174501  0.175234  0.000856  1
  Hf  Hf9  1  0.822872  0.824543  0.500464  1
  Hf  Hf10  1  0.323380  0.676865  0.249481  1
  Hf  Hf11  1  0.676445  0.323106  0.749736  1
  Hf  Hf12  1  0.149541  0.996215  0.373110  1
  Hf  Hf13  1  0.850615  0.003866  0.874151  1
  Hf  Hf14  1  0.506257  0.647708  0.623072  1
  Hf  Hf15  1  0.347050  0.493710  0.875645  1
  Hf  Hf16  1  0.495588  0.350909  0.123031  1
  Hf  Hf17  1  0.653183  0.505977  0.375557  1
  Hf  Hf18  1  0.994025  0.152560  0.626199  1
  Hf  Hf19  1  0.003735  0.850085  0.125396  1
  Si  Si20  1  0.137054  0.795871  0.933560  1
  Si  Si21  1  0.794199  0.135907  0.065427  1
  Si  Si22  1  0.863111  0.203683  0.433635  1
  Si  Si23  1  0.297257  0.361681  0.683242  1
  Si  Si24  1  0.702675  0.638527  0.183263  1
  Si  Si25  1  0.295225  0.045596  0.184264  1
  Si  Si26  1  0.704986  0.954227  0.684454  1
  Si  Si27  1  0.454797  0.795168  0.433035  1
  Si  Si28  1  0.206364  0.550112  0.064012  1
  Si  Si29  1  0.548325  0.204732  0.934864  1
  Si  Si30  1  0.794292  0.450362  0.564056  1
  Si  Si31  1  0.048169  0.294022  0.815643  1
  Si  Si32  1  0.952056  0.705881  0.315509  1
  Ge  Ge33  1  0.363896  0.297711  0.319556  1
  Ge  Ge34  1  0.636008  0.702194  0.819658  1
  Ge  Ge35  1  0.204625  0.864830  0.567995  1
