# generated using pymatgen
data_SnBiSbSe4
_symmetry_space_group_name_H-M   'P 1'
_cell_length_a   13.78154257
_cell_length_b   13.78154251
_cell_length_c   13.78154273
_cell_angle_alpha   17.40116059
_cell_angle_beta   17.40116357
_cell_angle_gamma   17.40115989
_symmetry_Int_Tables_number   1
_chemical_formula_structural   SnBiSbSe4
_chemical_formula_sum   'Sn1 Bi1 Sb1 Se4'
_cell_volume   204.29893559
_cell_formula_units_Z   1
loop_
 _symmetry_equiv_pos_site_id
 _symmetry_equiv_pos_as_xyz
  1  'x, y, z'
loop_
 _atom_site_type_symbol
 _atom_site_label
 _atom_site_symmetry_multiplicity
 _atom_site_fract_x
 _atom_site_fract_y
 _atom_site_fract_z
 _atom_site_occupancy
  Sn  Sn0  1  0.000920  0.000920  0.000920  1
  Bi  Bi1  1  0.575284  0.575284  0.575284  1
  Sb  Sb2  1  0.424731  0.424731  0.424731  1
  Se  Se3  1  0.127280  0.127280  0.127280  1
  Se  Se4  1  0.870594  0.870594  0.870594  1
  Se  Se5  1  0.290343  0.290343  0.290343  1
  Se  Se6  1  0.710849  0.710849  0.710849  1
