# generated using pymatgen
data_Dy3Mg2InGa2Ag
_symmetry_space_group_name_H-M   'P 1'
_cell_length_a   7.31709500
_cell_length_b   7.29584452
_cell_length_c   4.43753300
_cell_angle_alpha   90.00000000
_cell_angle_beta   90.00000000
_cell_angle_gamma   120.09640216
_symmetry_Int_Tables_number   1
_chemical_formula_structural   Dy3Mg2InGa2Ag
_chemical_formula_sum   'Dy3 Mg2 In1 Ga2 Ag1'
_cell_volume   204.95748929
_cell_formula_units_Z   1
loop_
 _symmetry_equiv_pos_site_id
 _symmetry_equiv_pos_as_xyz
  1  'x, y, z'
loop_
 _atom_site_type_symbol
 _atom_site_label
 _atom_site_symmetry_multiplicity
 _atom_site_fract_x
 _atom_site_fract_y
 _atom_site_fract_z
 _atom_site_occupancy
  Dy  Dy0  1  0.575065  0.000000  0.000000  1
  Dy  Dy1  1  0.999556  0.577716  0.000000  1
  Dy  Dy2  1  0.421840  0.422284  0.000000  1
  Mg  Mg3  1  0.999624  0.244390  0.500000  1
  Mg  Mg4  1  0.755235  0.755610  0.500000  1
  In  In5  1  0.248869  0.000000  0.500000  1
  Ga  Ga6  1  0.334440  0.663877  0.500000  1
  Ga  Ga7  1  0.670563  0.336123  0.500000  1
  Ag  Ag8  1  0.994807  0.000000  0.000000  1
