# generated using pymatgen
data_Tb4SbPt(RhO7)2
_symmetry_space_group_name_H-M   'P 1'
_cell_length_a   7.33483057
_cell_length_b   7.27261582
_cell_length_c   7.26105726
_cell_angle_alpha   59.94733234
_cell_angle_beta   60.18474703
_cell_angle_gamma   60.28019870
_symmetry_Int_Tables_number   1
_chemical_formula_structural   Tb4SbPt(RhO7)2
_chemical_formula_sum   'Tb4 Sb1 Pt1 Rh2 O14'
_cell_volume   274.73105853
_cell_formula_units_Z   1
loop_
 _symmetry_equiv_pos_site_id
 _symmetry_equiv_pos_as_xyz
  1  'x, y, z'
loop_
 _atom_site_type_symbol
 _atom_site_label
 _atom_site_symmetry_multiplicity
 _atom_site_fract_x
 _atom_site_fract_y
 _atom_site_fract_z
 _atom_site_occupancy
  Tb  Tb0  1  0.625000  0.625000  0.125000  1
  Tb  Tb1  1  0.625000  0.625000  0.625000  1
  Tb  Tb2  1  0.625000  0.125000  0.625000  1
  Tb  Tb3  1  0.125000  0.625000  0.625000  1
  Sb  Sb4  1  0.625000  0.125000  0.125000  1
  Pt  Pt5  1  0.125000  0.125000  0.625000  1
  Rh  Rh6  1  0.125000  0.125000  0.125000  1
  Rh  Rh7  1  0.125000  0.625000  0.125000  1
  O  O8  1  0.029324  0.466525  0.466950  1
  O  O9  1  0.786309  0.792642  0.211844  1
  O  O10  1  0.786309  0.209205  0.211844  1
  O  O11  1  0.459172  0.039815  0.461200  1
  O  O12  1  0.030057  0.462755  0.044432  1
  O  O13  1  0.749220  0.750537  0.749704  1
  O  O14  1  0.029324  0.037203  0.466950  1
  O  O15  1  0.219943  0.787245  0.205568  1
  O  O16  1  0.220676  0.212797  0.783050  1
  O  O17  1  0.500780  0.499463  0.500296  1
  O  O18  1  0.790828  0.210185  0.788800  1
  O  O19  1  0.463691  0.040795  0.038156  1
  O  O20  1  0.463691  0.457358  0.038156  1
  O  O21  1  0.220676  0.783475  0.783050  1
