# generated using pymatgen
data_Er2Sc2NiOs7
_symmetry_space_group_name_H-M   'P 1'
_cell_length_a   5.21838804
_cell_length_b   5.21838864
_cell_length_c   8.66009500
_cell_angle_alpha   89.52537974
_cell_angle_beta   90.47462032
_cell_angle_gamma   120.65434110
_symmetry_Int_Tables_number   1
_chemical_formula_structural   Er2Sc2NiOs7
_chemical_formula_sum   'Er2 Sc2 Ni1 Os7'
_cell_volume   202.86394034
_cell_formula_units_Z   1
loop_
 _symmetry_equiv_pos_site_id
 _symmetry_equiv_pos_as_xyz
  1  'x, y, z'
loop_
 _atom_site_type_symbol
 _atom_site_label
 _atom_site_symmetry_multiplicity
 _atom_site_fract_x
 _atom_site_fract_y
 _atom_site_fract_z
 _atom_site_occupancy
  Er  Er0  1  0.669410  0.330590  0.935593  1
  Er  Er1  1  0.334872  0.665128  0.068500  1
  Sc  Sc2  1  0.333360  0.666640  0.436471  1
  Sc  Sc3  1  0.668174  0.331826  0.561507  1
  Ni  Ni4  1  0.828740  0.171260  0.254587  1
  Os  Os5  1  0.005123  0.994877  0.497202  1
  Os  Os6  1  0.007218  0.992782  0.002581  1
  Os  Os7  1  0.821716  0.658282  0.254555  1
  Os  Os8  1  0.341718  0.178284  0.254555  1
  Os  Os9  1  0.166474  0.833526  0.745899  1
  Os  Os10  1  0.170732  0.347538  0.744275  1
  Os  Os11  1  0.652462  0.829268  0.744275  1
