# generated using pymatgen
data_PrDyTm2(WO6)2
_symmetry_space_group_name_H-M   'P 1'
_cell_length_a   5.43845600
_cell_length_b   7.74451343
_cell_length_c   11.47291559
_cell_angle_alpha   75.71041065
_cell_angle_beta   90.00000000
_cell_angle_gamma   90.00000000
_symmetry_Int_Tables_number   1
_chemical_formula_structural   PrDyTm2(WO6)2
_chemical_formula_sum   'Pr2 Dy2 Tm4 W4 O24'
_cell_volume   468.26800916
_cell_formula_units_Z   2
loop_
 _symmetry_equiv_pos_site_id
 _symmetry_equiv_pos_as_xyz
  1  'x, y, z'
loop_
 _atom_site_type_symbol
 _atom_site_label
 _atom_site_symmetry_multiplicity
 _atom_site_fract_x
 _atom_site_fract_y
 _atom_site_fract_z
 _atom_site_occupancy
  Pr  Pr0  1  0.685722  0.500000  0.750000  1
  Pr  Pr1  1  0.314278  0.500000  0.250000  1
  Dy  Dy2  1  0.742820  0.000000  0.750000  1
  Dy  Dy3  1  0.257180  0.000000  0.250000  1
  Tm  Tm4  1  0.185593  0.797375  0.577301  1
  Tm  Tm5  1  0.814407  0.797375  0.077301  1
  Tm  Tm6  1  0.185593  0.202625  0.922699  1
  Tm  Tm7  1  0.814407  0.202625  0.422699  1
  W  W8  1  0.253424  0.728172  0.884783  1
  W  W9  1  0.746576  0.728172  0.384783  1
  W  W10  1  0.253424  0.271828  0.615217  1
  W  W11  1  0.746576  0.271828  0.115217  1
  O  O12  1  0.043678  0.942629  0.897216  1
  O  O13  1  0.536004  0.843920  0.932092  1
  O  O14  1  0.956322  0.942629  0.397216  1
  O  O15  1  0.453633  0.795867  0.726024  1
  O  O16  1  0.463996  0.843920  0.432092  1
  O  O17  1  0.986835  0.721604  0.768383  1
  O  O18  1  0.546367  0.795867  0.226024  1
  O  O19  1  0.859196  0.642424  0.546176  1
  O  O20  1  0.345823  0.492333  0.888178  1
  O  O21  1  0.013165  0.721604  0.268383  1
  O  O22  1  0.345823  0.507667  0.611822  1
  O  O23  1  0.859196  0.357576  0.953824  1
  O  O24  1  0.140804  0.642424  0.046176  1
  O  O25  1  0.654177  0.492333  0.388178  1
  O  O26  1  0.986835  0.278396  0.731617  1
  O  O27  1  0.654177  0.507667  0.111822  1
  O  O28  1  0.140804  0.357576  0.453824  1
  O  O29  1  0.453633  0.204133  0.773976  1
  O  O30  1  0.013165  0.278396  0.231617  1
  O  O31  1  0.536004  0.156080  0.567908  1
  O  O32  1  0.546367  0.204133  0.273976  1
  O  O33  1  0.043678  0.057371  0.602784  1
  O  O34  1  0.463996  0.156080  0.067908  1
  O  O35  1  0.956322  0.057371  0.102784  1
