# generated using pymatgen
data_Nb12Al7AuN4
_symmetry_space_group_name_H-M   'P 1'
_cell_length_a   7.08289501
_cell_length_b   7.08289501
_cell_length_c   7.08289501
_cell_angle_alpha   89.81713299
_cell_angle_beta   90.18286701
_cell_angle_gamma   90.18286701
_symmetry_Int_Tables_number   1
_chemical_formula_structural   Nb12Al7AuN4
_chemical_formula_sum   'Nb12 Al7 Au1 N4'
_cell_volume   355.32502131
_cell_formula_units_Z   1
loop_
 _symmetry_equiv_pos_site_id
 _symmetry_equiv_pos_as_xyz
  1  'x, y, z'
loop_
 _atom_site_type_symbol
 _atom_site_label
 _atom_site_symmetry_multiplicity
 _atom_site_fract_x
 _atom_site_fract_y
 _atom_site_fract_z
 _atom_site_occupancy
  Nb  Nb0  1  0.789555  0.957436  0.374233  1
  Nb  Nb1  1  0.708634  0.044202  0.878049  1
  Nb  Nb2  1  0.205832  0.451951  0.119455  1
  Nb  Nb3  1  0.295883  0.541485  0.631894  1
  Nb  Nb4  1  0.955798  0.378049  0.791366  1
  Nb  Nb5  1  0.042564  0.874233  0.710445  1
  Nb  Nb6  1  0.458515  0.131894  0.204117  1
  Nb  Nb7  1  0.548049  0.619455  0.294168  1
  Nb  Nb8  1  0.380545  0.794168  0.951951  1
  Nb  Nb9  1  0.868106  0.704117  0.041485  1
  Nb  Nb10  1  0.125767  0.210445  0.457436  1
  Nb  Nb11  1  0.621951  0.291366  0.544202  1
  Al  Al12  1  0.322047  0.176627  0.821443  1
  Al  Al13  1  0.823373  0.321443  0.177953  1
  Al  Al14  1  0.678557  0.677953  0.676627  1
  Al  Al15  1  0.571243  0.428757  0.928757  1
  Al  Al16  1  0.424908  0.927458  0.567740  1
  Al  Al17  1  0.932260  0.575092  0.427458  1
  Al  Al18  1  0.072542  0.067740  0.075092  1
  Au  Au19  1  0.182667  0.817333  0.317333  1
  N  N20  1  0.874838  0.125162  0.625162  1
  N  N21  1  0.620756  0.875682  0.128709  1
  N  N22  1  0.124318  0.628709  0.879244  1
  N  N23  1  0.371291  0.379244  0.375682  1
