# generated using pymatgen
data_Ho2ErCd3Sn2Au
_symmetry_space_group_name_H-M   'P 1'
_cell_length_a   7.47767500
_cell_length_b   7.47013719
_cell_length_c   4.52700800
_cell_angle_alpha   90.00000000
_cell_angle_beta   90.00000000
_cell_angle_gamma   120.03337174
_symmetry_Int_Tables_number   1
_chemical_formula_structural   Ho2ErCd3Sn2Au
_chemical_formula_sum   'Ho2 Er1 Cd3 Sn2 Au1'
_cell_volume   218.92276066
_cell_formula_units_Z   1
loop_
 _symmetry_equiv_pos_site_id
 _symmetry_equiv_pos_as_xyz
  1  'x, y, z'
loop_
 _atom_site_type_symbol
 _atom_site_label
 _atom_site_symmetry_multiplicity
 _atom_site_fract_x
 _atom_site_fract_y
 _atom_site_fract_z
 _atom_site_occupancy
  Ho  Ho0  1  0.000107  0.592730  0.000000  1
  Ho  Ho1  1  0.407377  0.407270  0.000000  1
  Er  Er2  1  0.593012  0.000000  0.000000  1
  Cd  Cd3  1  0.240323  0.000000  0.500000  1
  Cd  Cd4  1  0.999904  0.240208  0.500000  1
  Cd  Cd5  1  0.759695  0.759792  0.500000  1
  Sn  Sn6  1  0.333901  0.667428  0.500000  1
  Sn  Sn7  1  0.666474  0.332572  0.500000  1
  Au  Au8  1  0.999208  0.000000  0.000000  1
