# generated using pymatgen
data_Tm4LuCu2Bi
_symmetry_space_group_name_H-M   'P 1'
_cell_length_a   8.49773676
_cell_length_b   8.49773702
_cell_length_c   8.49773741
_cell_angle_alpha   124.92110838
_cell_angle_beta   124.92112832
_cell_angle_gamma   81.66873506
_symmetry_Int_Tables_number   1
_chemical_formula_structural   Tm4LuCu2Bi
_chemical_formula_sum   'Tm8 Lu2 Cu4 Bi2'
_cell_volume   397.00568050
_cell_formula_units_Z   2
loop_
 _symmetry_equiv_pos_site_id
 _symmetry_equiv_pos_as_xyz
  1  'x, y, z'
loop_
 _atom_site_type_symbol
 _atom_site_label
 _atom_site_symmetry_multiplicity
 _atom_site_fract_x
 _atom_site_fract_y
 _atom_site_fract_z
 _atom_site_occupancy
  Tm  Tm0  1  0.792872  0.292872  0.809578  1
  Tm  Tm1  1  0.207128  0.707128  0.190422  1
  Tm  Tm2  1  0.483294  0.983294  0.190422  1
  Tm  Tm3  1  0.292872  0.483294  0.500000  1
  Tm  Tm4  1  0.016706  0.207128  0.500000  1
  Tm  Tm5  1  0.516706  0.016706  0.809578  1
  Tm  Tm6  1  0.707128  0.516706  0.500000  1
  Tm  Tm7  1  0.983294  0.792872  0.500000  1
  Lu  Lu8  1  0.000000  0.000000  0.000000  1
  Lu  Lu9  1  0.500000  0.500000  0.000000  1
  Cu  Cu10  1  0.131909  0.631909  0.763819  1
  Cu  Cu11  1  0.868091  0.368091  0.236181  1
  Cu  Cu12  1  0.631909  0.868091  0.500000  1
  Cu  Cu13  1  0.368091  0.131909  0.500000  1
  Bi  Bi14  1  0.250000  0.250000  0.000000  1
  Bi  Bi15  1  0.750000  0.750000  0.000000  1
