# generated using pymatgen
data_Co3Ir3W2
_symmetry_space_group_name_H-M   'P 1'
_cell_length_a   5.39772482
_cell_length_b   5.35594565
_cell_length_c   4.26643300
_cell_angle_alpha   90.00000000
_cell_angle_beta   90.00000000
_cell_angle_gamma   120.02459306
_symmetry_Int_Tables_number   1
_chemical_formula_structural   Co3Ir3W2
_chemical_formula_sum   'Co3 Ir3 W2'
_cell_volume   106.79103234
_cell_formula_units_Z   1
loop_
 _symmetry_equiv_pos_site_id
 _symmetry_equiv_pos_as_xyz
  1  'x, y, z'
loop_
 _atom_site_type_symbol
 _atom_site_label
 _atom_site_symmetry_multiplicity
 _atom_site_fract_x
 _atom_site_fract_y
 _atom_site_fract_z
 _atom_site_occupancy
  Co  Co0  1  0.170884  0.840110  0.749999  1
  Co  Co1  1  0.831475  0.164722  0.250001  1
  Co  Co2  1  0.333168  0.160880  0.250001  1
  Ir  Ir3  1  0.164401  0.325334  0.749999  1
  Ir  Ir4  1  0.843930  0.671453  0.250001  1
  Ir  Ir5  1  0.670537  0.843880  0.749999  1
  W  W6  1  0.658557  0.323866  0.749999  1
  W  W7  1  0.327047  0.669755  0.250001  1
