# generated using pymatgen
data_CeMnAl10Pd
_symmetry_space_group_name_H-M   'P 1'
_cell_length_a   6.89982337
_cell_length_b   6.85802928
_cell_length_c   9.15774100
_cell_angle_alpha   90.00000000
_cell_angle_beta   90.00000000
_cell_angle_gamma   97.44371388
_symmetry_Int_Tables_number   1
_chemical_formula_structural   CeMnAl10Pd
_chemical_formula_sum   'Ce2 Mn2 Al20 Pd2'
_cell_volume   429.68499292
_cell_formula_units_Z   2
loop_
 _symmetry_equiv_pos_site_id
 _symmetry_equiv_pos_as_xyz
  1  'x, y, z'
loop_
 _atom_site_type_symbol
 _atom_site_label
 _atom_site_symmetry_multiplicity
 _atom_site_fract_x
 _atom_site_fract_y
 _atom_site_fract_z
 _atom_site_occupancy
  Ce  Ce0  1  0.885411  0.133507  0.750000  1
  Ce  Ce1  1  0.114589  0.866493  0.250000  1
  Mn  Mn2  1  0.000000  0.500000  0.000000  1
  Mn  Mn3  1  0.000000  0.500000  0.500000  1
  Al  Al4  1  0.405039  0.142565  0.750000  1
  Al  Al5  1  0.132099  0.408375  0.250000  1
  Al  Al6  1  0.594961  0.857435  0.250000  1
  Al  Al7  1  0.867901  0.591625  0.750000  1
  Al  Al8  1  0.524060  0.770010  0.750000  1
  Al  Al9  1  0.779416  0.516348  0.250000  1
  Al  Al10  1  0.475940  0.229990  0.250000  1
  Al  Al11  1  0.220584  0.483652  0.750000  1
  Al  Al12  1  0.846570  0.163102  0.398176  1
  Al  Al13  1  0.153430  0.836898  0.601824  1
  Al  Al14  1  0.846570  0.163102  0.101824  1
  Al  Al15  1  0.153430  0.836898  0.898176  1
  Al  Al16  1  0.630458  0.385849  0.949231  1
  Al  Al17  1  0.369542  0.614151  0.050769  1
  Al  Al18  1  0.630458  0.385849  0.550769  1
  Al  Al19  1  0.369542  0.614151  0.449231  1
  Al  Al20  1  0.783895  0.771305  0.002332  1
  Al  Al21  1  0.783895  0.771305  0.497668  1
  Al  Al22  1  0.216105  0.228695  0.997668  1
  Al  Al23  1  0.216105  0.228695  0.502332  1
  Pd  Pd24  1  0.500000  0.000000  0.000000  1
  Pd  Pd25  1  0.500000  0.000000  0.500000  1
