# generated using pymatgen
data_Co2Sb(WO4)3
_symmetry_space_group_name_H-M   'P 1'
_cell_length_a   4.69316003
_cell_length_b   10.66859503
_cell_length_c   9.38771683
_cell_angle_alpha   63.90165966
_cell_angle_beta   90.03056610
_cell_angle_gamma   90.01344277
_symmetry_Int_Tables_number   1
_chemical_formula_structural   Co2Sb(WO4)3
_chemical_formula_sum   'Co4 Sb2 W6 O24'
_cell_volume   422.11263144
_cell_formula_units_Z   2
loop_
 _symmetry_equiv_pos_site_id
 _symmetry_equiv_pos_as_xyz
  1  'x, y, z'
loop_
 _atom_site_type_symbol
 _atom_site_label
 _atom_site_symmetry_multiplicity
 _atom_site_fract_x
 _atom_site_fract_y
 _atom_site_fract_z
 _atom_site_occupancy
  Co  Co0  1  0.000017  0.335413  0.332283  1
  Co  Co1  1  0.499920  0.832430  0.833808  1
  Co  Co2  1  0.000015  0.335393  0.832324  1
  Co  Co3  1  0.499970  0.832378  0.333847  1
  Sb  Sb4  1  0.999880  0.001376  0.499311  1
  Sb  Sb5  1  0.999673  0.001396  0.999230  1
  W  W6  1  0.000158  0.671526  0.164221  1
  W  W7  1  0.000272  0.671486  0.664335  1
  W  W8  1  0.499808  0.165457  0.167251  1
  W  W9  1  0.499790  0.165569  0.667181  1
  W  W10  1  0.500229  0.496616  0.001720  1
  W  W11  1  0.500237  0.496727  0.501664  1
  O  O12  1  0.191191  0.835141  0.677985  1
  O  O13  1  0.191079  0.835156  0.177853  1
  O  O14  1  0.308841  0.331448  0.179846  1
  O  O15  1  0.308722  0.331555  0.679745  1
  O  O16  1  0.691238  0.331375  0.988771  1
  O  O17  1  0.691218  0.331463  0.488712  1
  O  O18  1  0.808683  0.835039  0.986961  1
  O  O19  1  0.809028  0.835004  0.487025  1
  O  O20  1  0.202271  0.160520  0.021001  1
  O  O21  1  0.202492  0.160641  0.520806  1
  O  O22  1  0.207558  0.508286  0.849333  1
  O  O23  1  0.207397  0.508456  0.349324  1
  O  O24  1  0.300592  0.004564  0.347313  1
  O  O25  1  0.300035  0.004688  0.847036  1
  O  O26  1  0.292598  0.658489  0.024384  1
  O  O27  1  0.293007  0.658585  0.524512  1
  O  O28  1  0.698961  0.004519  0.148086  1
  O  O29  1  0.699250  0.004648  0.648137  1
  O  O30  1  0.707868  0.658432  0.817175  1
  O  O31  1  0.707660  0.658539  0.317032  1
  O  O32  1  0.797258  0.160491  0.318502  1
  O  O33  1  0.796831  0.160591  0.818610  1
  O  O34  1  0.793003  0.508263  0.142405  1
  O  O35  1  0.793251  0.508338  0.642270  1
