# generated using pymatgen
data_BaSr2Cd11
_symmetry_space_group_name_H-M   'P 1'
_cell_length_a   5.05757810
_cell_length_b   9.43537205
_cell_length_c   9.43537107
_cell_angle_alpha   65.64727529
_cell_angle_beta   74.45401474
_cell_angle_gamma   74.45401957
_symmetry_Int_Tables_number   1
_chemical_formula_structural   BaSr2Cd11
_chemical_formula_sum   'Ba1 Sr2 Cd11'
_cell_volume   388.77388665
_cell_formula_units_Z   1
loop_
 _symmetry_equiv_pos_site_id
 _symmetry_equiv_pos_as_xyz
  1  'x, y, z'
loop_
 _atom_site_type_symbol
 _atom_site_label
 _atom_site_symmetry_multiplicity
 _atom_site_fract_x
 _atom_site_fract_y
 _atom_site_fract_z
 _atom_site_occupancy
  Ba  Ba0  1  0.000000  0.000000  0.000000  1
  Sr  Sr1  1  0.700861  0.299139  0.299139  1
  Sr  Sr2  1  0.299139  0.700861  0.700861  1
  Cd  Cd3  1  0.664754  0.692414  0.978079  1
  Cd  Cd4  1  0.335246  0.307586  0.021921  1
  Cd  Cd5  1  0.664754  0.978079  0.692414  1
  Cd  Cd6  1  0.335246  0.021921  0.307586  1
  Cd  Cd7  1  0.500000  0.684835  0.315165  1
  Cd  Cd8  1  0.500000  0.315165  0.684835  1
  Cd  Cd9  1  0.861651  0.424676  0.852021  1
  Cd  Cd10  1  0.138349  0.575324  0.147979  1
  Cd  Cd11  1  0.861651  0.852021  0.424676  1
  Cd  Cd12  1  0.138349  0.147979  0.575324  1
  Cd  Cd13  1  0.000000  0.500000  0.500000  1
