# generated using pymatgen
data_MgSc(TaS2)8
_symmetry_space_group_name_H-M   'P 1'
_cell_length_a   6.71960300
_cell_length_b   6.71960247
_cell_length_c   13.02143800
_cell_angle_alpha   90.00000000
_cell_angle_beta   90.00000000
_cell_angle_gamma   120.00000753
_symmetry_Int_Tables_number   1
_chemical_formula_structural   MgSc(TaS2)8
_chemical_formula_sum   'Mg1 Sc1 Ta8 S16'
_cell_volume   509.18633793
_cell_formula_units_Z   1
loop_
 _symmetry_equiv_pos_site_id
 _symmetry_equiv_pos_as_xyz
  1  'x, y, z'
loop_
 _atom_site_type_symbol
 _atom_site_label
 _atom_site_symmetry_multiplicity
 _atom_site_fract_x
 _atom_site_fract_y
 _atom_site_fract_z
 _atom_site_occupancy
  Mg  Mg0  1  0.000000  0.000000  0.500000  1
  Sc  Sc1  1  0.000000  0.000000  0.000000  1
  Ta  Ta2  1  0.505184  0.494816  0.751662  1
  Ta  Ta3  1  0.010367  0.505184  0.248338  1
  Ta  Ta4  1  0.494816  0.989633  0.248338  1
  Ta  Ta5  1  0.505184  0.010367  0.751662  1
  Ta  Ta6  1  0.989633  0.494816  0.751662  1
  Ta  Ta7  1  0.494816  0.505184  0.248338  1
  Ta  Ta8  1  0.000000  0.000000  0.752408  1
  Ta  Ta9  1  0.000000  0.000000  0.247592  1
  S  S10  1  0.832388  0.167612  0.367326  1
  S  S11  1  0.832388  0.664776  0.367326  1
  S  S12  1  0.335224  0.167612  0.367326  1
  S  S13  1  0.663582  0.831791  0.871433  1
  S  S14  1  0.167612  0.335224  0.632674  1
  S  S15  1  0.168209  0.831791  0.871433  1
  S  S16  1  0.168209  0.336418  0.871433  1
  S  S17  1  0.831791  0.168209  0.128567  1
  S  S18  1  0.336418  0.168209  0.128567  1
  S  S19  1  0.664776  0.832388  0.632674  1
  S  S20  1  0.333333  0.666667  0.126030  1
  S  S21  1  0.666667  0.333333  0.630092  1
  S  S22  1  0.666667  0.333333  0.873970  1
  S  S23  1  0.333333  0.666667  0.369908  1
  S  S24  1  0.831791  0.663582  0.128567  1
  S  S25  1  0.167612  0.832388  0.632674  1
