# generated using pymatgen
data_Tb4Pr3ThSe12
_symmetry_space_group_name_H-M   'P 1'
_cell_length_a   11.37360642
_cell_length_b   4.14327500
_cell_length_c   11.03360900
_cell_angle_alpha   90.00000000
_cell_angle_beta   89.93028955
_cell_angle_gamma   90.00000000
_symmetry_Int_Tables_number   1
_chemical_formula_structural   Tb4Pr3ThSe12
_chemical_formula_sum   'Tb4 Pr3 Th1 Se12'
_cell_volume   519.94717543
_cell_formula_units_Z   1
loop_
 _symmetry_equiv_pos_site_id
 _symmetry_equiv_pos_as_xyz
  1  'x, y, z'
loop_
 _atom_site_type_symbol
 _atom_site_label
 _atom_site_symmetry_multiplicity
 _atom_site_fract_x
 _atom_site_fract_y
 _atom_site_fract_z
 _atom_site_occupancy
  Tb  Tb0  1  0.485354  0.250000  0.188894  1
  Tb  Tb1  1  0.990093  0.250000  0.314274  1
  Tb  Tb2  1  0.510307  0.750000  0.809977  1
  Tb  Tb3  1  0.011723  0.750000  0.686295  1
  Pr  Pr4  1  0.695021  0.750000  0.494808  1
  Pr  Pr5  1  0.197634  0.750000  0.997762  1
  Pr  Pr6  1  0.304642  0.250000  0.501135  1
  Th  Th7  1  0.804818  0.250000  0.005279  1
  Se  Se8  1  0.546397  0.250000  0.631011  1
  Se  Se9  1  0.039659  0.250000  0.870533  1
  Se  Se10  1  0.455829  0.750000  0.368311  1
  Se  Se11  1  0.954752  0.750000  0.129504  1
  Se  Se12  1  0.614946  0.750000  0.053106  1
  Se  Se13  1  0.115055  0.750000  0.446109  1
  Se  Se14  1  0.387756  0.250000  0.946588  1
  Se  Se15  1  0.883360  0.250000  0.554467  1
  Se  Se16  1  0.731726  0.250000  0.289380  1
  Se  Se17  1  0.227262  0.250000  0.201410  1
  Se  Se18  1  0.268985  0.750000  0.705454  1
  Se  Se19  1  0.774683  0.750000  0.805705  1
