# generated using pymatgen
data_Zr3Ga3Ni2Ir
_symmetry_space_group_name_H-M   'P 1'
_cell_length_a   7.11203600
_cell_length_b   7.11203613
_cell_length_c   3.40072900
_cell_angle_alpha   90.00000000
_cell_angle_beta   90.00000000
_cell_angle_gamma   119.99999939
_symmetry_Int_Tables_number   1
_chemical_formula_structural   Zr3Ga3Ni2Ir
_chemical_formula_sum   'Zr3 Ga3 Ni2 Ir1'
_cell_volume   148.96716744
_cell_formula_units_Z   1
loop_
 _symmetry_equiv_pos_site_id
 _symmetry_equiv_pos_as_xyz
  1  'x, y, z'
loop_
 _atom_site_type_symbol
 _atom_site_label
 _atom_site_symmetry_multiplicity
 _atom_site_fract_x
 _atom_site_fract_y
 _atom_site_fract_z
 _atom_site_occupancy
  Zr  Zr0  1  0.401305  0.004483  0.500000  1
  Zr  Zr1  1  0.995517  0.396822  0.500000  1
  Zr  Zr2  1  0.603178  0.598695  0.500000  1
  Ga  Ga3  1  0.744058  0.005124  0.000000  1
  Ga  Ga4  1  0.994876  0.738934  0.000000  1
  Ga  Ga5  1  0.261066  0.255942  0.000000  1
  Ni  Ni6  1  0.666667  0.333333  0.000000  1
  Ni  Ni7  1  0.000000  0.000000  0.500000  1
  Ir  Ir8  1  0.333333  0.666667  0.000000  1
