# generated using pymatgen
data_DyY11Te6
_symmetry_space_group_name_H-M   'P 1'
_cell_length_a   4.08574000
_cell_length_b   11.54696710
_cell_length_c   22.23185318
_cell_angle_alpha   89.98527596
_cell_angle_beta   90.00000000
_cell_angle_gamma   90.00000000
_symmetry_Int_Tables_number   1
_chemical_formula_structural   DyY11Te6
_chemical_formula_sum   'Dy2 Y22 Te12'
_cell_volume   1048.85223039
_cell_formula_units_Z   2
loop_
 _symmetry_equiv_pos_site_id
 _symmetry_equiv_pos_as_xyz
  1  'x, y, z'
loop_
 _atom_site_type_symbol
 _atom_site_label
 _atom_site_symmetry_multiplicity
 _atom_site_fract_x
 _atom_site_fract_y
 _atom_site_fract_z
 _atom_site_occupancy
  Dy  Dy0  1  0.750000  0.112861  0.517007  1
  Dy  Dy1  1  0.250000  0.887139  0.482993  1
  Y  Y2  1  0.250000  0.151778  0.391453  1
  Y  Y3  1  0.750000  0.848222  0.608547  1
  Y  Y4  1  0.750000  0.651943  0.108786  1
  Y  Y5  1  0.250000  0.348057  0.891214  1
  Y  Y6  1  0.250000  0.456290  0.339953  1
  Y  Y7  1  0.750000  0.543710  0.660047  1
  Y  Y8  1  0.750000  0.956250  0.160033  1
  Y  Y9  1  0.250000  0.043750  0.839967  1
  Y  Y10  1  0.250000  0.734225  0.233522  1
  Y  Y11  1  0.750000  0.265775  0.766478  1
  Y  Y12  1  0.750000  0.234218  0.266476  1
  Y  Y13  1  0.250000  0.765782  0.733524  1
  Y  Y14  1  0.250000  0.115611  0.034369  1
  Y  Y15  1  0.750000  0.884389  0.965631  1
  Y  Y16  1  0.750000  0.615684  0.465644  1
  Y  Y17  1  0.250000  0.384316  0.534356  1
  Y  Y18  1  0.250000  0.414624  0.146937  1
  Y  Y19  1  0.750000  0.585376  0.853063  1
  Y  Y20  1  0.750000  0.914553  0.353216  1
  Y  Y21  1  0.250000  0.085447  0.646784  1
  Y  Y22  1  0.250000  0.613460  0.982862  1
  Y  Y23  1  0.750000  0.386540  0.017138  1
  Te  Te24  1  0.250000  0.850341  0.069008  1
  Te  Te25  1  0.750000  0.149659  0.930992  1
  Te  Te26  1  0.750000  0.350457  0.430999  1
  Te  Te27  1  0.250000  0.649543  0.569001  1
  Te  Te28  1  0.250000  0.712062  0.372825  1
  Te  Te29  1  0.750000  0.287938  0.627175  1
  Te  Te30  1  0.750000  0.212131  0.127204  1
  Te  Te31  1  0.250000  0.787869  0.872796  1
  Te  Te32  1  0.250000  0.020636  0.261023  1
  Te  Te33  1  0.750000  0.979364  0.738977  1
  Te  Te34  1  0.750000  0.520595  0.238949  1
  Te  Te35  1  0.250000  0.479405  0.761051  1
