# generated using pymatgen
data_Ho2Zn3Ni7
_symmetry_space_group_name_H-M   'P 1'
_cell_length_a   4.03934600
_cell_length_b   4.94723255
_cell_length_c   8.63325697
_cell_angle_alpha   89.32353872
_cell_angle_beta   90.00000000
_cell_angle_gamma   90.00000000
_symmetry_Int_Tables_number   1
_chemical_formula_structural   Ho2Zn3Ni7
_chemical_formula_sum   'Ho2 Zn3 Ni7'
_cell_volume   172.51139179
_cell_formula_units_Z   1
loop_
 _symmetry_equiv_pos_site_id
 _symmetry_equiv_pos_as_xyz
  1  'x, y, z'
loop_
 _atom_site_type_symbol
 _atom_site_label
 _atom_site_symmetry_multiplicity
 _atom_site_fract_x
 _atom_site_fract_y
 _atom_site_fract_z
 _atom_site_occupancy
  Ho  Ho0  1  0.000000  0.249331  0.740230  1
  Ho  Ho1  1  0.000000  0.750669  0.259770  1
  Zn  Zn2  1  0.500000  0.258520  0.254052  1
  Zn  Zn3  1  0.500000  0.741480  0.745948  1
  Zn  Zn4  1  0.500000  0.000000  0.000000  1
  Ni  Ni5  1  0.500000  0.500000  0.500000  1
  Ni  Ni6  1  0.500000  0.500000  0.000000  1
  Ni  Ni7  1  0.500000  0.000000  0.500000  1
  Ni  Ni8  1  0.000000  0.259480  0.076844  1
  Ni  Ni9  1  0.000000  0.748879  0.579055  1
  Ni  Ni10  1  0.000000  0.740520  0.923156  1
  Ni  Ni11  1  0.000000  0.251121  0.420945  1
