# generated using pymatgen
data_Ho7Er13(Cd3Ni)2
_symmetry_space_group_name_H-M   'P 1'
_cell_length_a   9.50566505
_cell_length_b   9.50566486
_cell_length_c   9.72297002
_cell_angle_alpha   90.00562387
_cell_angle_beta   89.99437411
_cell_angle_gamma   120.01042414
_symmetry_Int_Tables_number   1
_chemical_formula_structural   Ho7Er13(Cd3Ni)2
_chemical_formula_sum   'Ho7 Er13 Cd6 Ni2'
_cell_volume   760.76224713
_cell_formula_units_Z   1
loop_
 _symmetry_equiv_pos_site_id
 _symmetry_equiv_pos_as_xyz
  1  'x, y, z'
loop_
 _atom_site_type_symbol
 _atom_site_label
 _atom_site_symmetry_multiplicity
 _atom_site_fract_x
 _atom_site_fract_y
 _atom_site_fract_z
 _atom_site_occupancy
  Ho  Ho0  1  0.543255  0.456745  0.250002  1
  Ho  Ho1  1  0.543286  0.086557  0.249961  1
  Ho  Ho2  1  0.913443  0.456714  0.249961  1
  Ho  Ho3  1  0.456748  0.543252  0.749982  1
  Ho  Ho4  1  0.456823  0.913547  0.750083  1
  Ho  Ho5  1  0.086453  0.543177  0.750083  1
  Ho  Ho6  1  0.211014  0.788986  0.438436  1
  Er  Er7  1  0.999951  0.000049  0.500010  1
  Er  Er8  1  0.000021  0.999979  0.000026  1
  Er  Er9  1  0.211003  0.421894  0.438459  1
  Er  Er10  1  0.578106  0.788997  0.438459  1
  Er  Er11  1  0.788995  0.211005  0.561667  1
  Er  Er12  1  0.788956  0.578015  0.561672  1
  Er  Er13  1  0.421985  0.211044  0.561672  1
  Er  Er14  1  0.789008  0.210992  0.938324  1
  Er  Er15  1  0.789042  0.578028  0.938346  1
  Er  Er16  1  0.421972  0.210958  0.938346  1
  Er  Er17  1  0.210983  0.789017  0.061444  1
  Er  Er18  1  0.210964  0.422018  0.061574  1
  Er  Er19  1  0.577982  0.789036  0.061574  1
  Cd  Cd20  1  0.885626  0.114374  0.250008  1
  Cd  Cd21  1  0.885592  0.771224  0.249981  1
  Cd  Cd22  1  0.228776  0.114408  0.249981  1
  Cd  Cd23  1  0.114373  0.885627  0.750049  1
  Cd  Cd24  1  0.114395  0.228787  0.750000  1
  Cd  Cd25  1  0.771213  0.885605  0.750000  1
  Ni  Ni26  1  0.333360  0.666640  0.249895  1
  Ni  Ni27  1  0.666676  0.333324  0.750001  1
