# generated using pymatgen
data_Mo2SeF14
_symmetry_space_group_name_H-M   'P 1'
_cell_length_a   7.83237800
_cell_length_b   9.05875107
_cell_length_c   17.58617800
_cell_angle_alpha   90.00000000
_cell_angle_beta   90.00000000
_cell_angle_gamma   103.85133901
_symmetry_Int_Tables_number   1
_chemical_formula_structural   Mo2SeF14
_chemical_formula_sum   'Mo8 Se4 F56'
_cell_volume   1211.48194462
_cell_formula_units_Z   4
loop_
 _symmetry_equiv_pos_site_id
 _symmetry_equiv_pos_as_xyz
  1  'x, y, z'
loop_
 _atom_site_type_symbol
 _atom_site_label
 _atom_site_symmetry_multiplicity
 _atom_site_fract_x
 _atom_site_fract_y
 _atom_site_fract_z
 _atom_site_occupancy
  Mo  Mo0  1  0.216841  0.225101  0.818302  1
  Mo  Mo1  1  0.783159  0.274899  0.318302  1
  Mo  Mo2  1  0.783159  0.774899  0.181698  1
  Mo  Mo3  1  0.216841  0.725101  0.681698  1
  Mo  Mo4  1  0.788388  0.673357  0.539636  1
  Mo  Mo5  1  0.211612  0.826643  0.039636  1
  Mo  Mo6  1  0.211612  0.326643  0.460364  1
  Mo  Mo7  1  0.788388  0.173357  0.960364  1
  Se  Se8  1  0.833565  0.629479  0.862748  1
  Se  Se9  1  0.166435  0.870521  0.362748  1
  Se  Se10  1  0.166435  0.370521  0.137252  1
  Se  Se11  1  0.833565  0.129479  0.637252  1
  F  F12  1  0.823388  0.309131  0.667135  1
  F  F13  1  0.176612  0.190869  0.167135  1
  F  F14  1  0.176612  0.690869  0.332865  1
  F  F15  1  0.823388  0.809131  0.832865  1
  F  F16  1  0.679387  0.034607  0.701671  1
  F  F17  1  0.320613  0.465393  0.201671  1
  F  F18  1  0.320613  0.965393  0.298329  1
  F  F19  1  0.679387  0.534607  0.798329  1
  F  F20  1  0.679786  0.129735  0.566839  1
  F  F21  1  0.320214  0.370265  0.066839  1
  F  F22  1  0.320214  0.870265  0.433161  1
  F  F23  1  0.679786  0.629735  0.933161  1
  F  F24  1  0.030366  0.659467  0.761749  1
  F  F25  1  0.969634  0.840533  0.261749  1
  F  F26  1  0.969634  0.340533  0.238251  1
  F  F27  1  0.030366  0.159467  0.738251  1
  F  F28  1  0.384585  0.797778  0.604373  1
  F  F29  1  0.615415  0.702222  0.104373  1
  F  F30  1  0.615415  0.202222  0.395627  1
  F  F31  1  0.384585  0.297778  0.895627  1
  F  F32  1  0.392364  0.766718  0.756902  1
  F  F33  1  0.607636  0.733282  0.256902  1
  F  F34  1  0.607636  0.233282  0.243098  1
  F  F35  1  0.392364  0.266718  0.743098  1
  F  F36  1  0.155093  0.912286  0.680602  1
  F  F37  1  0.844907  0.587714  0.180602  1
  F  F38  1  0.844907  0.087714  0.319398  1
  F  F39  1  0.155093  0.412286  0.819398  1
  F  F40  1  0.219751  0.521538  0.669090  1
  F  F41  1  0.780249  0.978462  0.169090  1
  F  F42  1  0.780249  0.478462  0.330910  1
  F  F43  1  0.219751  0.021538  0.830910  1
  F  F44  1  0.012354  0.669259  0.600662  1
  F  F45  1  0.987646  0.830741  0.100662  1
  F  F46  1  0.987646  0.330741  0.399338  1
  F  F47  1  0.012354  0.169259  0.899338  1
  F  F48  1  0.948426  0.756579  0.456033  1
  F  F49  1  0.051574  0.743421  0.956033  1
  F  F50  1  0.051574  0.243421  0.543967  1
  F  F51  1  0.948426  0.256579  0.043967  1
  F  F52  1  0.657812  0.617705  0.628469  1
  F  F53  1  0.342188  0.882295  0.128469  1
  F  F54  1  0.342188  0.382295  0.371531  1
  F  F55  1  0.657812  0.117705  0.871531  1
  F  F56  1  0.592053  0.678200  0.478954  1
  F  F57  1  0.407947  0.821800  0.978954  1
  F  F58  1  0.407947  0.321800  0.521046  1
  F  F59  1  0.592053  0.178200  0.021046  1
  F  F60  1  0.818547  0.883013  0.574910  1
  F  F61  1  0.181453  0.616987  0.074910  1
  F  F62  1  0.181453  0.116987  0.425090  1
  F  F63  1  0.818547  0.383013  0.925090  1
  F  F64  1  0.793794  0.479709  0.504264  1
  F  F65  1  0.206206  0.020291  0.004264  1
  F  F66  1  0.206206  0.520291  0.495736  1
  F  F67  1  0.793794  0.979709  0.995736  1
