# generated using pymatgen
data_FeSb(SeO3)4
_symmetry_space_group_name_H-M   'P 1'
_cell_length_a   8.26673900
_cell_length_b   8.23781419
_cell_length_c   8.25866006
_cell_angle_alpha   89.38825312
_cell_angle_beta   90.00000000
_cell_angle_gamma   90.00000000
_symmetry_Int_Tables_number   1
_chemical_formula_structural   FeSb(SeO3)4
_chemical_formula_sum   'Fe2 Sb2 Se8 O24'
_cell_volume   562.38153617
_cell_formula_units_Z   2
loop_
 _symmetry_equiv_pos_site_id
 _symmetry_equiv_pos_as_xyz
  1  'x, y, z'
loop_
 _atom_site_type_symbol
 _atom_site_label
 _atom_site_symmetry_multiplicity
 _atom_site_fract_x
 _atom_site_fract_y
 _atom_site_fract_z
 _atom_site_occupancy
  Fe  Fe0  1  0.000000  0.500000  0.000000  1
  Fe  Fe1  1  0.500000  0.500000  0.500000  1
  Sb  Sb2  1  0.000000  0.000000  0.500000  1
  Sb  Sb3  1  0.500000  0.000000  0.000000  1
  Se  Se4  1  0.328278  0.665136  0.171782  1
  Se  Se5  1  0.828278  0.334864  0.328218  1
  Se  Se6  1  0.670428  0.825241  0.669726  1
  Se  Se7  1  0.170428  0.174759  0.830274  1
  Se  Se8  1  0.671722  0.334864  0.828218  1
  Se  Se9  1  0.171722  0.665136  0.671782  1
  Se  Se10  1  0.329572  0.174759  0.330274  1
  Se  Se11  1  0.829572  0.825241  0.169726  1
  O  O12  1  0.238486  0.539934  0.035863  1
  O  O13  1  0.738486  0.460066  0.464137  1
  O  O14  1  0.760096  0.973374  0.539466  1
  O  O15  1  0.260096  0.026626  0.960534  1
  O  O16  1  0.535518  0.965636  0.760127  1
  O  O17  1  0.464257  0.536693  0.261088  1
  O  O18  1  0.964257  0.463307  0.238912  1
  O  O19  1  0.035518  0.034364  0.739873  1
  O  O20  1  0.971313  0.238452  0.466948  1
  O  O21  1  0.542662  0.742691  0.535177  1
  O  O22  1  0.471313  0.761548  0.033052  1
  O  O23  1  0.042662  0.257309  0.964823  1
  O  O24  1  0.761514  0.460066  0.964137  1
  O  O25  1  0.261514  0.539934  0.535863  1
  O  O26  1  0.239904  0.026626  0.460534  1
  O  O27  1  0.739904  0.973374  0.039466  1
  O  O28  1  0.464482  0.034364  0.239873  1
  O  O29  1  0.535743  0.463307  0.738912  1
  O  O30  1  0.035743  0.536693  0.761088  1
  O  O31  1  0.964482  0.965636  0.260127  1
  O  O32  1  0.028687  0.761548  0.533052  1
  O  O33  1  0.457338  0.257309  0.464823  1
  O  O34  1  0.528687  0.238452  0.966948  1
  O  O35  1  0.957338  0.742691  0.035177  1
