# generated using pymatgen
data_TbCeTa3Ge4
_symmetry_space_group_name_H-M   'P 1'
_cell_length_a   7.18270594
_cell_length_b   7.18356448
_cell_length_c   13.33182933
_cell_angle_alpha   90.13092428
_cell_angle_beta   90.09888683
_cell_angle_gamma   90.08267125
_symmetry_Int_Tables_number   1
_chemical_formula_structural   TbCeTa3Ge4
_chemical_formula_sum   'Tb4 Ce4 Ta12 Ge16'
_cell_volume   687.88460670
_cell_formula_units_Z   4
loop_
 _symmetry_equiv_pos_site_id
 _symmetry_equiv_pos_as_xyz
  1  'x, y, z'
loop_
 _atom_site_type_symbol
 _atom_site_label
 _atom_site_symmetry_multiplicity
 _atom_site_fract_x
 _atom_site_fract_y
 _atom_site_fract_z
 _atom_site_occupancy
  Tb  Tb0  1  0.163533  0.500652  0.780104  1
  Tb  Tb1  1  0.662817  0.000615  0.971062  1
  Tb  Tb2  1  0.999233  0.336332  0.528968  1
  Tb  Tb3  1  0.001594  0.663393  0.028510  1
  Ce  Ce4  1  0.335518  0.999140  0.471584  1
  Ce  Ce5  1  0.498981  0.835606  0.720141  1
  Ce  Ce6  1  0.503374  0.166953  0.220571  1
  Ce  Ce7  1  0.832782  0.497048  0.279077  1
  Ta  Ta8  1  0.333802  0.333240  0.000320  1
  Ta  Ta9  1  0.167630  0.832347  0.250226  1
  Ta  Ta10  1  0.831794  0.166317  0.750653  1
  Ta  Ta11  1  0.665592  0.667962  0.500375  1
  Ta  Ta12  1  0.159402  0.006784  0.873451  1
  Ta  Ta13  1  0.493299  0.657814  0.123981  1
  Ta  Ta14  1  0.507605  0.340376  0.625140  1
  Ta  Ta15  1  0.658063  0.495286  0.875040  1
  Ta  Ta16  1  0.341456  0.505181  0.375059  1
  Ta  Ta17  1  0.840193  0.993023  0.373363  1
  Ta  Ta18  1  0.005119  0.159760  0.125777  1
  Ta  Ta19  1  0.996068  0.841868  0.626500  1
  Ge  Ge20  1  0.198829  0.131220  0.679480  1
  Ge  Ge21  1  0.371162  0.700109  0.929293  1
  Ge  Ge22  1  0.627441  0.299096  0.431587  1
  Ge  Ge23  1  0.701911  0.373179  0.068156  1
  Ge  Ge24  1  0.298266  0.624421  0.570834  1
  Ge  Ge25  1  0.801391  0.870620  0.177281  1
  Ge  Ge26  1  0.127451  0.200081  0.320836  1
  Ge  Ge27  1  0.871974  0.800615  0.822344  1
  Ge  Ge28  1  0.294123  0.965120  0.066008  1
  Ge  Ge29  1  0.534348  0.794129  0.316779  1
  Ge  Ge30  1  0.465277  0.206011  0.818208  1
  Ge  Ge31  1  0.797810  0.534433  0.683409  1
  Ge  Ge32  1  0.203693  0.466740  0.181767  1
  Ge  Ge33  1  0.708492  0.034874  0.567013  1
  Ge  Ge34  1  0.966059  0.295444  0.933072  1
  Ge  Ge35  1  0.033918  0.704212  0.434035  1
