# generated using pymatgen
data_Dy7Ho3(AlSb2)2
_symmetry_space_group_name_H-M   'P 1'
_cell_length_a   8.88975101
_cell_length_b   8.89316841
_cell_length_c   6.40639500
_cell_angle_alpha   90.00324650
_cell_angle_beta   89.99837411
_cell_angle_gamma   120.01195048
_symmetry_Int_Tables_number   1
_chemical_formula_structural   Dy7Ho3(AlSb2)2
_chemical_formula_sum   'Dy7 Ho3 Al2 Sb4'
_cell_volume   438.56921810
_cell_formula_units_Z   1
loop_
 _symmetry_equiv_pos_site_id
 _symmetry_equiv_pos_as_xyz
  1  'x, y, z'
loop_
 _atom_site_type_symbol
 _atom_site_label
 _atom_site_symmetry_multiplicity
 _atom_site_fract_x
 _atom_site_fract_y
 _atom_site_fract_z
 _atom_site_occupancy
  Dy  Dy0  1  0.335794  0.667896  0.999997  1
  Dy  Dy1  1  0.755914  0.998935  0.749984  1
  Dy  Dy2  1  0.755915  0.756978  0.250015  1
  Dy  Dy3  1  0.008335  0.242746  0.250038  1
  Dy  Dy4  1  0.008334  0.765588  0.749962  1
  Dy  Dy5  1  0.241437  0.232180  0.749962  1
  Dy  Dy6  1  0.241436  0.009261  0.250035  1
  Ho  Ho7  1  0.655841  0.327916  0.500002  1
  Ho  Ho8  1  0.655782  0.327888  0.000001  1
  Ho  Ho9  1  0.335739  0.667874  0.500002  1
  Al  Al10  1  0.398303  0.997227  0.749864  1
  Al  Al11  1  0.398303  0.401076  0.250137  1
  Sb  Sb12  1  0.998435  0.606225  0.250148  1
  Sb  Sb13  1  0.998436  0.392211  0.749852  1
  Sb  Sb14  1  0.606001  0.604912  0.749836  1
  Sb  Sb15  1  0.605999  0.001085  0.250165  1
