# generated using pymatgen
data_Mg2Ta3SiRu6
_symmetry_space_group_name_H-M   'P 1'
_cell_length_a   4.41156300
_cell_length_b   6.21832200
_cell_length_c   13.15400300
_cell_angle_alpha   90.00000000
_cell_angle_beta   89.99890577
_cell_angle_gamma   90.00000000
_symmetry_Int_Tables_number   1
_chemical_formula_structural   Mg2Ta3SiRu6
_chemical_formula_sum   'Mg4 Ta6 Si2 Ru12'
_cell_volume   360.84744058
_cell_formula_units_Z   2
loop_
 _symmetry_equiv_pos_site_id
 _symmetry_equiv_pos_as_xyz
  1  'x, y, z'
loop_
 _atom_site_type_symbol
 _atom_site_label
 _atom_site_symmetry_multiplicity
 _atom_site_fract_x
 _atom_site_fract_y
 _atom_site_fract_z
 _atom_site_occupancy
  Mg  Mg0  1  0.999891  0.000000  0.332067  1
  Mg  Mg1  1  0.499991  0.499999  0.498939  1
  Mg  Mg2  1  0.000118  0.000000  0.667731  1
  Mg  Mg3  1  0.500089  0.499999  0.834583  1
  Ta  Ta4  1  0.000009  0.499999  0.999024  1
  Ta  Ta5  1  0.499901  0.000000  0.167621  1
  Ta  Ta6  1  0.999918  0.499999  0.334049  1
  Ta  Ta7  1  0.499997  0.000000  0.500934  1
  Ta  Ta8  1  0.000083  0.499999  0.665715  1
  Ta  Ta9  1  0.500089  0.000000  0.832628  1
  Si  Si10  1  0.999994  0.000000  0.999338  1
  Si  Si11  1  0.499897  0.499999  0.167301  1
  Ru  Ru12  1  0.499989  0.248052  0.004797  1
  Ru  Ru13  1  0.499989  0.751947  0.004797  1
  Ru  Ru14  1  0.999924  0.251918  0.161851  1
  Ru  Ru15  1  0.999924  0.748081  0.161851  1
  Ru  Ru16  1  0.499921  0.255018  0.326690  1
  Ru  Ru17  1  0.499921  0.744982  0.326690  1
  Ru  Ru18  1  0.000002  0.249996  0.498379  1
  Ru  Ru19  1  0.000002  0.750004  0.498379  1
  Ru  Ru20  1  0.500088  0.249973  0.668313  1
  Ru  Ru21  1  0.500088  0.750027  0.668313  1
  Ru  Ru22  1  0.000084  0.244821  0.840004  1
  Ru  Ru23  1  0.000084  0.755178  0.840004  1
