# generated using pymatgen
data_Y2AlNiRu
_symmetry_space_group_name_H-M   'P 1'
_cell_length_a   5.48809131
_cell_length_b   5.48809121
_cell_length_c   5.48809091
_cell_angle_alpha   135.83914164
_cell_angle_beta   118.32926566
_cell_angle_gamma   78.93488573
_symmetry_Int_Tables_number   1
_chemical_formula_structural   Y2AlNiRu
_chemical_formula_sum   'Y2 Al1 Ni1 Ru1'
_cell_volume   98.34908107
_cell_formula_units_Z   1
loop_
 _symmetry_equiv_pos_site_id
 _symmetry_equiv_pos_as_xyz
  1  'x, y, z'
loop_
 _atom_site_type_symbol
 _atom_site_label
 _atom_site_symmetry_multiplicity
 _atom_site_fract_x
 _atom_site_fract_y
 _atom_site_fract_z
 _atom_site_occupancy
  Y  Y0  1  0.695964  0.202924  0.493040  1
  Y  Y1  1  0.290117  0.797076  0.493040  1
  Al  Al2  1  0.998570  0.000000  0.998570  1
  Ni  Ni3  1  0.740449  0.500000  0.240449  1
  Ru  Ru4  1  0.274900  0.500000  0.774900  1
