# generated using pymatgen
data_Ca3SmRu3RhO14
_symmetry_space_group_name_H-M   'P 1'
_cell_length_a   7.25912294
_cell_length_b   7.25912284
_cell_length_c   7.28764733
_cell_angle_alpha   60.46032281
_cell_angle_beta   60.46031771
_cell_angle_gamma   60.38723018
_symmetry_Int_Tables_number   1
_chemical_formula_structural   Ca3SmRu3RhO14
_chemical_formula_sum   'Ca3 Sm1 Ru3 Rh1 O14'
_cell_volume   274.22050759
_cell_formula_units_Z   1
loop_
 _symmetry_equiv_pos_site_id
 _symmetry_equiv_pos_as_xyz
  1  'x, y, z'
loop_
 _atom_site_type_symbol
 _atom_site_label
 _atom_site_symmetry_multiplicity
 _atom_site_fract_x
 _atom_site_fract_y
 _atom_site_fract_z
 _atom_site_occupancy
  Ca  Ca0  1  0.625000  0.125000  0.625000  1
  Ca  Ca1  1  0.125000  0.625000  0.625000  1
  Ca  Ca2  1  0.625000  0.625000  0.625000  1
  Sm  Sm3  1  0.625000  0.625000  0.125000  1
  Ru  Ru4  1  0.625000  0.125000  0.125000  1
  Ru  Ru5  1  0.125000  0.625000  0.125000  1
  Ru  Ru6  1  0.125000  0.125000  0.625000  1
  Rh  Rh7  1  0.125000  0.125000  0.125000  1
  O  O8  1  0.198311  0.198311  0.798725  1
  O  O9  1  0.205101  0.794502  0.199722  1
  O  O10  1  0.455498  0.044899  0.050278  1
  O  O11  1  0.195478  0.807504  0.809622  1
  O  O12  1  0.054522  0.442496  0.440378  1
  O  O13  1  0.804897  0.804897  0.196975  1
  O  O14  1  0.445103  0.445103  0.053025  1
  O  O15  1  0.500972  0.500972  0.498297  1
  O  O16  1  0.051689  0.051689  0.451275  1
  O  O17  1  0.442496  0.054522  0.440378  1
  O  O18  1  0.044899  0.455498  0.050278  1
  O  O19  1  0.749028  0.749028  0.751703  1
  O  O20  1  0.807504  0.195478  0.809622  1
  O  O21  1  0.794502  0.205101  0.199722  1
