# generated using pymatgen
data_Tm4AlTc6Os
_symmetry_space_group_name_H-M   'P 1'
_cell_length_a   5.28458304
_cell_length_b   5.28366837
_cell_length_c   8.99561701
_cell_angle_alpha   90.00115331
_cell_angle_beta   89.99425866
_cell_angle_gamma   119.98629435
_symmetry_Int_Tables_number   1
_chemical_formula_structural   Tm4AlTc6Os
_chemical_formula_sum   'Tm4 Al1 Tc6 Os1'
_cell_volume   217.55437795
_cell_formula_units_Z   1
loop_
 _symmetry_equiv_pos_site_id
 _symmetry_equiv_pos_as_xyz
  1  'x, y, z'
loop_
 _atom_site_type_symbol
 _atom_site_label
 _atom_site_symmetry_multiplicity
 _atom_site_fract_x
 _atom_site_fract_y
 _atom_site_fract_z
 _atom_site_occupancy
  Tm  Tm0  1  0.666682  0.333333  0.568287  1
  Tm  Tm1  1  0.333318  0.666667  0.431713  1
  Tm  Tm2  1  0.333321  0.666673  0.062967  1
  Tm  Tm3  1  0.666679  0.333327  0.937033  1
  Al  Al4  1  0.000000  0.000000  0.500000  1
  Tc  Tc5  1  0.170133  0.340252  0.749537  1
  Tc  Tc6  1  0.170139  0.829856  0.749527  1
  Tc  Tc7  1  0.659767  0.829874  0.749560  1
  Tc  Tc8  1  0.829867  0.659748  0.250463  1
  Tc  Tc9  1  0.829861  0.170144  0.250473  1
  Tc  Tc10  1  0.340233  0.170126  0.250440  1
  Os  Os11  1  0.000000  0.000000  0.000000  1
