# generated using pymatgen
data_Er4CoCu3
_symmetry_space_group_name_H-M   'P 1'
_cell_length_a   4.33079500
_cell_length_b   5.37882377
_cell_length_c   6.99855743
_cell_angle_alpha   90.18492714
_cell_angle_beta   90.00000000
_cell_angle_gamma   90.00000000
_symmetry_Int_Tables_number   1
_chemical_formula_structural   Er4CoCu3
_chemical_formula_sum   'Er4 Co1 Cu3'
_cell_volume   163.02762835
_cell_formula_units_Z   1
loop_
 _symmetry_equiv_pos_site_id
 _symmetry_equiv_pos_as_xyz
  1  'x, y, z'
loop_
 _atom_site_type_symbol
 _atom_site_label
 _atom_site_symmetry_multiplicity
 _atom_site_fract_x
 _atom_site_fract_y
 _atom_site_fract_z
 _atom_site_occupancy
  Er  Er0  1  0.000000  0.630818  0.325001  1
  Er  Er1  1  0.000000  0.872644  0.812530  1
  Er  Er2  1  0.500000  0.357772  0.669820  1
  Er  Er3  1  0.500000  0.136582  0.193860  1
  Co  Co4  1  0.000000  0.132670  0.468187  1
  Cu  Cu5  1  0.000000  0.376481  0.964193  1
  Cu  Cu6  1  0.500000  0.867428  0.536787  1
  Cu  Cu7  1  0.500000  0.625605  0.029622  1
