# generated using pymatgen
data_Tm2Lu8AlSb5
_symmetry_space_group_name_H-M   'P 1'
_cell_length_a   8.75103300
_cell_length_b   8.75508789
_cell_length_c   6.25078600
_cell_angle_alpha   90.00000000
_cell_angle_beta   90.00000000
_cell_angle_gamma   119.98467663
_symmetry_Int_Tables_number   1
_chemical_formula_structural   Tm2Lu8AlSb5
_chemical_formula_sum   'Tm2 Lu8 Al1 Sb5'
_cell_volume   414.81278403
_cell_formula_units_Z   1
loop_
 _symmetry_equiv_pos_site_id
 _symmetry_equiv_pos_as_xyz
  1  'x, y, z'
loop_
 _atom_site_type_symbol
 _atom_site_label
 _atom_site_symmetry_multiplicity
 _atom_site_fract_x
 _atom_site_fract_y
 _atom_site_fract_z
 _atom_site_occupancy
  Tm  Tm0  1  0.243019  0.242153  0.750000  1
  Tm  Tm1  1  0.000864  0.757847  0.750000  1
  Lu  Lu2  1  0.338953  0.673820  0.002194  1
  Lu  Lu3  1  0.665134  0.326180  0.497806  1
  Lu  Lu4  1  0.665134  0.326180  0.002194  1
  Lu  Lu5  1  0.338953  0.673820  0.497806  1
  Lu  Lu6  1  0.246568  0.000000  0.250000  1
  Lu  Lu7  1  0.759449  0.000000  0.750000  1
  Lu  Lu8  1  0.989575  0.233887  0.250000  1
  Lu  Lu9  1  0.755688  0.766113  0.250000  1
  Al  Al10  1  0.602366  0.000000  0.250000  1
  Sb  Sb11  1  0.395051  0.000000  0.750000  1
  Sb  Sb12  1  0.997863  0.608421  0.250000  1
  Sb  Sb13  1  0.389441  0.391579  0.250000  1
  Sb  Sb14  1  0.608868  0.605795  0.750000  1
  Sb  Sb15  1  0.003073  0.394205  0.750000  1
