# generated using pymatgen
data_Li2Tb16CdInPd3Rh
_symmetry_space_group_name_H-M   'P 1'
_cell_length_a   9.68877611
_cell_length_b   9.68877549
_cell_length_c   9.68139200
_cell_angle_alpha   59.88929483
_cell_angle_beta   59.88929009
_cell_angle_gamma   60.05067467
_symmetry_Int_Tables_number   1
_chemical_formula_structural   Li2Tb16CdInPd3Rh
_chemical_formula_sum   'Li2 Tb16 Cd1 In1 Pd3 Rh1'
_cell_volume   641.79651299
_cell_formula_units_Z   1
loop_
 _symmetry_equiv_pos_site_id
 _symmetry_equiv_pos_as_xyz
  1  'x, y, z'
loop_
 _atom_site_type_symbol
 _atom_site_label
 _atom_site_symmetry_multiplicity
 _atom_site_fract_x
 _atom_site_fract_y
 _atom_site_fract_z
 _atom_site_occupancy
  Li  Li0  1  0.972635  0.673844  0.677384  1
  Li  Li1  1  0.674064  0.974004  0.676378  1
  Tb  Tb2  1  0.315211  0.891892  0.893898  1
  Tb  Tb3  1  0.683369  0.314726  0.685736  1
  Tb  Tb4  1  0.313626  0.686365  0.316629  1
  Tb  Tb5  1  0.061994  0.439458  0.438101  1
  Tb  Tb6  1  0.685759  0.313822  0.314985  1
  Tb  Tb7  1  0.441669  0.063215  0.434439  1
  Tb  Tb8  1  0.444357  0.058374  0.060997  1
  Tb  Tb9  1  0.897312  0.902063  0.903278  1
  Tb  Tb10  1  0.057221  0.441606  0.060181  1
  Tb  Tb11  1  0.891238  0.308050  0.898483  1
  Tb  Tb12  1  0.313927  0.684630  0.685343  1
  Tb  Tb13  1  0.894524  0.900721  0.302049  1
  Tb  Tb14  1  0.445306  0.438292  0.059443  1
  Tb  Tb15  1  0.314365  0.315101  0.686252  1
  Tb  Tb16  1  0.683096  0.685093  0.318098  1
  Tb  Tb17  1  0.063621  0.065534  0.434074  1
  Cd  Cd18  1  0.670521  0.670515  0.664938  1
  In  In19  1  0.670771  0.670189  0.994883  1
  Pd  Pd20  1  0.108590  0.106549  0.682693  1
  Pd  Pd21  1  0.109018  0.682065  0.104539  1
  Pd  Pd22  1  0.107398  0.105139  0.102816  1
  Rh  Rh23  1  0.680407  0.108755  0.104383  1
