# generated using pymatgen
data_Cs4LiHoS4
_symmetry_space_group_name_H-M   'P 1'
_cell_length_a   8.71708085
_cell_length_b   8.71708138
_cell_length_c   8.71708042
_cell_angle_alpha   134.25301537
_cell_angle_beta   128.46885751
_cell_angle_gamma   71.34206952
_symmetry_Int_Tables_number   1
_chemical_formula_structural   Cs4LiHoS4
_chemical_formula_sum   'Cs4 Li1 Ho1 S4'
_cell_volume   363.68322679
_cell_formula_units_Z   1
loop_
 _symmetry_equiv_pos_site_id
 _symmetry_equiv_pos_as_xyz
  1  'x, y, z'
loop_
 _atom_site_type_symbol
 _atom_site_label
 _atom_site_symmetry_multiplicity
 _atom_site_fract_x
 _atom_site_fract_y
 _atom_site_fract_z
 _atom_site_occupancy
  Cs  Cs0  1  0.513916  0.864728  0.677831  1
  Cs  Cs1  1  0.486084  0.163916  0.350812  1
  Cs  Cs2  1  0.813103  0.635272  0.149188  1
  Cs  Cs3  1  0.186897  0.336084  0.822169  1
  Li  Li4  1  0.000000  0.250000  0.250000  1
  Ho  Ho5  1  0.000000  0.750000  0.750000  1
  S  S6  1  0.082831  0.897451  0.179634  1
  S  S7  1  0.717817  0.403197  0.320366  1
  S  S8  1  0.917169  0.096803  0.814620  1
  S  S9  1  0.282184  0.602549  0.685380  1
