# generated using pymatgen
data_SrYbSm2(Al3Pd)6
_symmetry_space_group_name_H-M   'P 1'
_cell_length_a   7.68024407
_cell_length_b   7.67871695
_cell_length_c   9.55775900
_cell_angle_alpha   90.00000000
_cell_angle_beta   90.00000000
_cell_angle_gamma   119.56072168
_symmetry_Int_Tables_number   1
_chemical_formula_structural   SrYbSm2(Al3Pd)6
_chemical_formula_sum   'Sr1 Yb1 Sm2 Al18 Pd6'
_cell_volume   490.29312818
_cell_formula_units_Z   1
loop_
 _symmetry_equiv_pos_site_id
 _symmetry_equiv_pos_as_xyz
  1  'x, y, z'
loop_
 _atom_site_type_symbol
 _atom_site_label
 _atom_site_symmetry_multiplicity
 _atom_site_fract_x
 _atom_site_fract_y
 _atom_site_fract_z
 _atom_site_occupancy
  Sr  Sr0  1  0.994684  0.668100  0.250000  1
  Yb  Yb1  1  0.004944  0.330763  0.750000  1
  Sm  Sm2  1  0.669995  0.996234  0.250000  1
  Sm  Sm3  1  0.330052  0.003930  0.750000  1
  Al  Al4  1  0.130666  0.135346  0.250000  1
  Al  Al5  1  0.869739  0.869765  0.750000  1
  Al  Al6  1  0.002663  0.333030  0.071136  1
  Al  Al7  1  0.997334  0.663318  0.920098  1
  Al  Al8  1  0.997334  0.663318  0.579902  1
  Al  Al9  1  0.336326  0.003277  0.427439  1
  Al  Al10  1  0.002663  0.333030  0.428864  1
  Al  Al11  1  0.666809  0.000517  0.576998  1
  Al  Al12  1  0.666809  0.000517  0.923002  1
  Al  Al13  1  0.336326  0.003277  0.072561  1
  Al  Al14  1  0.333124  0.333718  0.558677  1
  Al  Al15  1  0.664240  0.666131  0.448362  1
  Al  Al16  1  0.664240  0.666131  0.051638  1
  Al  Al17  1  0.333124  0.333718  0.941323  1
  Al  Al18  1  0.345617  0.547421  0.250000  1
  Al  Al19  1  0.656538  0.451316  0.750000  1
  Al  Al20  1  0.539794  0.333326  0.250000  1
  Al  Al21  1  0.456098  0.663385  0.750000  1
  Pd  Pd22  1  0.671468  0.328452  0.998736  1
  Pd  Pd23  1  0.328212  0.670829  0.998096  1
  Pd  Pd24  1  0.328212  0.670829  0.501904  1
  Pd  Pd25  1  0.671468  0.328452  0.501264  1
  Pd  Pd26  1  0.000761  0.000934  0.998129  1
  Pd  Pd27  1  0.000761  0.000934  0.501871  1
