# generated using pymatgen
data_Re3TcN6
_symmetry_space_group_name_H-M   'P 1'
_cell_length_a   5.84722156
_cell_length_b   5.84722256
_cell_length_c   5.84722276
_cell_angle_alpha   49.32276757
_cell_angle_beta   49.32275774
_cell_angle_gamma   49.32275684
_symmetry_Int_Tables_number   1
_chemical_formula_structural   Re3TcN6
_chemical_formula_sum   'Re3 Tc1 N6'
_cell_volume   105.65355063
_cell_formula_units_Z   1
loop_
 _symmetry_equiv_pos_site_id
 _symmetry_equiv_pos_as_xyz
  1  'x, y, z'
loop_
 _atom_site_type_symbol
 _atom_site_label
 _atom_site_symmetry_multiplicity
 _atom_site_fract_x
 _atom_site_fract_y
 _atom_site_fract_z
 _atom_site_occupancy
  Re  Re0  1  0.513493  0.513493  0.513493  1
  Re  Re1  1  0.694308  0.694308  0.694308  1
  Re  Re2  1  0.193784  0.193784  0.193784  1
  Tc  Tc3  1  0.013352  0.013352  0.013352  1
  N  N4  1  0.944914  0.601497  0.263052  1
  N  N5  1  0.601497  0.263052  0.944914  1
  N  N6  1  0.759554  0.101822  0.450804  1
  N  N7  1  0.101822  0.450804  0.759554  1
  N  N8  1  0.263052  0.944914  0.601497  1
  N  N9  1  0.450804  0.759554  0.101822  1
