# generated using pymatgen
data_TbEr14Lu(Tl3Co)2
_symmetry_space_group_name_H-M   'P 1'
_cell_length_a   10.26283396
_cell_length_b   10.25901124
_cell_length_c   7.03015602
_cell_angle_alpha   89.98140386
_cell_angle_beta   90.00282493
_cell_angle_gamma   120.00116654
_symmetry_Int_Tables_number   1
_chemical_formula_structural   TbEr14Lu(Tl3Co)2
_chemical_formula_sum   'Tb1 Er14 Lu1 Tl6 Co2'
_cell_volume   641.00773726
_cell_formula_units_Z   1
loop_
 _symmetry_equiv_pos_site_id
 _symmetry_equiv_pos_as_xyz
  1  'x, y, z'
loop_
 _atom_site_type_symbol
 _atom_site_label
 _atom_site_symmetry_multiplicity
 _atom_site_fract_x
 _atom_site_fract_y
 _atom_site_fract_z
 _atom_site_occupancy
  Tb  Tb0  1  0.926973  0.463587  0.792153  1
  Er  Er1  1  0.536570  0.462940  0.792540  1
  Er  Er2  1  0.463447  0.926829  0.293100  1
  Er  Er3  1  0.074475  0.537139  0.292700  1
  Er  Er4  1  0.463176  0.537043  0.293183  1
  Er  Er5  1  0.821195  0.643293  0.495133  1
  Er  Er6  1  0.357449  0.178205  0.496384  1
  Er  Er7  1  0.820975  0.178055  0.496071  1
  Er  Er8  1  0.178653  0.356093  0.997098  1
  Er  Er9  1  0.642307  0.821756  0.995658  1
  Er  Er10  1  0.179415  0.822500  0.996231  1
  Er  Er11  1  0.665928  0.332687  0.184012  1
  Er  Er12  1  0.333991  0.667329  0.684295  1
  Er  Er13  1  0.000143  0.999832  0.777971  1
  Er  Er14  1  0.999784  0.999782  0.277984  1
  Lu  Lu15  1  0.537160  0.074400  0.792905  1
  Tl  Tl16  1  0.837043  0.674890  0.041684  1
  Tl  Tl17  1  0.326659  0.162987  0.040170  1
  Tl  Tl18  1  0.836538  0.162525  0.041304  1
  Tl  Tl19  1  0.163137  0.325943  0.541312  1
  Tl  Tl20  1  0.674360  0.837232  0.541789  1
  Tl  Tl21  1  0.162662  0.836763  0.541006  1
  Co  Co22  1  0.664817  0.331702  0.565347  1
  Co  Co23  1  0.333145  0.666485  0.065876  1
