# generated using pymatgen
data_Ca3Pr(B8Ru7)2
_symmetry_space_group_name_H-M   'P 1'
_cell_length_a   6.45669906
_cell_length_b   6.45000906
_cell_length_c   10.09368000
_cell_angle_alpha   90.00000000
_cell_angle_beta   90.00000000
_cell_angle_gamma   90.06556738
_symmetry_Int_Tables_number   1
_chemical_formula_structural   Ca3Pr(B8Ru7)2
_chemical_formula_sum   'Ca3 Pr1 B16 Ru14'
_cell_volume   420.35877412
_cell_formula_units_Z   1
loop_
 _symmetry_equiv_pos_site_id
 _symmetry_equiv_pos_as_xyz
  1  'x, y, z'
loop_
 _atom_site_type_symbol
 _atom_site_label
 _atom_site_symmetry_multiplicity
 _atom_site_fract_x
 _atom_site_fract_y
 _atom_site_fract_z
 _atom_site_occupancy
  Ca  Ca0  1  0.113807  0.732226  0.500000  1
  Ca  Ca1  1  0.885631  0.266318  0.500000  1
  Ca  Ca2  1  0.262825  0.117243  0.000000  1
  Pr  Pr3  1  0.734020  0.885306  0.000000  1
  B  B4  1  0.500427  0.000415  0.588472  1
  B  B5  1  0.500427  0.000415  0.411528  1
  B  B6  1  0.898548  0.272388  0.167645  1
  B  B7  1  0.102006  0.726717  0.831695  1
  B  B8  1  0.499084  0.500433  0.341109  1
  B  B9  1  0.499491  0.500631  0.841028  1
  B  B10  1  0.275540  0.102627  0.667722  1
  B  B11  1  0.102006  0.726717  0.168305  1
  B  B12  1  0.275540  0.102627  0.332278  1
  B  B13  1  0.898548  0.272388  0.832355  1
  B  B14  1  0.499084  0.500433  0.658891  1
  B  B15  1  0.499491  0.500631  0.158972  1
  B  B16  1  0.999575  0.499355  0.911068  1
  B  B17  1  0.726537  0.898509  0.667224  1
  B  B18  1  0.726537  0.898509  0.332776  1
  B  B19  1  0.999575  0.499355  0.088932  1
  Ru  Ru20  1  0.205225  0.394731  0.755852  1
  Ru  Ru21  1  0.405510  0.288564  0.500000  1
  Ru  Ru22  1  0.395204  0.795420  0.254450  1
  Ru  Ru23  1  0.205225  0.394731  0.244148  1
  Ru  Ru24  1  0.594469  0.713136  0.500000  1
  Ru  Ru25  1  0.605077  0.204984  0.745229  1
  Ru  Ru26  1  0.286939  0.595926  0.000000  1
  Ru  Ru27  1  0.711966  0.400986  0.000000  1
  Ru  Ru28  1  0.794522  0.603892  0.245448  1
  Ru  Ru29  1  0.794522  0.603892  0.754552  1
  Ru  Ru30  1  0.395204  0.795420  0.745550  1
  Ru  Ru31  1  0.001180  0.000045  0.251190  1
  Ru  Ru32  1  0.605077  0.204984  0.254771  1
  Ru  Ru33  1  0.001180  0.000045  0.748810  1
