# generated using pymatgen
data_Pr10Ge3Te7
_symmetry_space_group_name_H-M   'P 1'
_cell_length_a   11.92160517
_cell_length_b   11.92160585
_cell_length_c   7.81744400
_cell_angle_alpha   83.67769069
_cell_angle_beta   83.67770000
_cell_angle_gamma   141.90408485
_symmetry_Int_Tables_number   1
_chemical_formula_structural   Pr10Ge3Te7
_chemical_formula_sum   'Pr10 Ge3 Te7'
_cell_volume   645.29416861
_cell_formula_units_Z   1
loop_
 _symmetry_equiv_pos_site_id
 _symmetry_equiv_pos_as_xyz
  1  'x, y, z'
loop_
 _atom_site_type_symbol
 _atom_site_label
 _atom_site_symmetry_multiplicity
 _atom_site_fract_x
 _atom_site_fract_y
 _atom_site_fract_z
 _atom_site_occupancy
  Pr  Pr0  1  0.261354  0.261354  0.772261  1
  Pr  Pr1  1  0.850007  0.650618  0.750819  1
  Pr  Pr2  1  0.738646  0.738646  0.227739  1
  Pr  Pr3  1  0.457902  0.045516  0.722506  1
  Pr  Pr4  1  0.349382  0.149993  0.249181  1
  Pr  Pr5  1  0.045516  0.457902  0.722506  1
  Pr  Pr6  1  0.954484  0.542098  0.277494  1
  Pr  Pr7  1  0.650618  0.850007  0.750819  1
  Pr  Pr8  1  0.542098  0.954484  0.277494  1
  Pr  Pr9  1  0.149993  0.349382  0.249181  1
  Ge  Ge10  1  0.500000  0.500000  0.000000  1
  Ge  Ge11  1  0.197029  0.802971  0.500000  1
  Ge  Ge12  1  0.802971  0.197029  0.500000  1
  Te  Te13  1  0.895923  0.104077  0.000000  1
  Te  Te14  1  0.400987  0.599013  0.500000  1
  Te  Te15  1  0.000000  0.000000  0.500000  1
  Te  Te16  1  0.599013  0.400987  0.500000  1
  Te  Te17  1  0.104077  0.895923  0.000000  1
  Te  Te18  1  0.700266  0.299734  0.000000  1
  Te  Te19  1  0.299734  0.700266  0.000000  1
