# generated using pymatgen
data_Li3La3PrZnPd4
_symmetry_space_group_name_H-M   'P 1'
_cell_length_a   7.37639948
_cell_length_b   4.19191300
_cell_length_c   8.67148573
_cell_angle_alpha   90.00000000
_cell_angle_beta   89.61318131
_cell_angle_gamma   90.00000000
_symmetry_Int_Tables_number   1
_chemical_formula_structural   Li3La3PrZnPd4
_chemical_formula_sum   'Li3 La3 Pr1 Zn1 Pd4'
_cell_volume   268.12684956
_cell_formula_units_Z   1
loop_
 _symmetry_equiv_pos_site_id
 _symmetry_equiv_pos_as_xyz
  1  'x, y, z'
loop_
 _atom_site_type_symbol
 _atom_site_label
 _atom_site_symmetry_multiplicity
 _atom_site_fract_x
 _atom_site_fract_y
 _atom_site_fract_z
 _atom_site_occupancy
  Li  Li0  1  0.631940  0.250000  0.558253  1
  Li  Li1  1  0.122250  0.250000  0.944147  1
  Li  Li2  1  0.371712  0.750000  0.443364  1
  La  La3  1  0.041831  0.250000  0.308163  1
  La  La4  1  0.551430  0.250000  0.186043  1
  La  La5  1  0.455366  0.750000  0.810856  1
  Pr  Pr6  1  0.953688  0.750000  0.692827  1
  Zn  Zn7  1  0.869950  0.750000  0.058204  1
  Pd  Pd8  1  0.248103  0.250000  0.616763  1
  Pd  Pd9  1  0.752357  0.250000  0.888139  1
  Pd  Pd10  1  0.754001  0.750000  0.379885  1
  Pd  Pd11  1  0.247371  0.750000  0.113355  1
