# generated using pymatgen
data_Sr4BeSi5
_symmetry_space_group_name_H-M   'P 1'
_cell_length_a   4.03645600
_cell_length_b   4.72847548
_cell_length_c   12.90747988
_cell_angle_alpha   100.55434494
_cell_angle_beta   90.00000000
_cell_angle_gamma   90.00000000
_symmetry_Int_Tables_number   1
_chemical_formula_structural   Sr4BeSi5
_chemical_formula_sum   'Sr4 Be1 Si5'
_cell_volume   242.18787420
_cell_formula_units_Z   1
loop_
 _symmetry_equiv_pos_site_id
 _symmetry_equiv_pos_as_xyz
  1  'x, y, z'
loop_
 _atom_site_type_symbol
 _atom_site_label
 _atom_site_symmetry_multiplicity
 _atom_site_fract_x
 _atom_site_fract_y
 _atom_site_fract_z
 _atom_site_occupancy
  Sr  Sr0  1  0.750000  0.429919  0.859837  1
  Sr  Sr1  1  0.250000  0.570673  0.141347  1
  Sr  Sr2  1  0.750000  0.700790  0.401582  1
  Sr  Sr3  1  0.250000  0.298512  0.597022  1
  Be  Be4  1  0.750000  0.021463  0.042927  1
  Si  Si5  1  0.250000  0.981894  0.963787  1
  Si  Si6  1  0.750000  0.111304  0.222610  1
  Si  Si7  1  0.250000  0.886364  0.772727  1
  Si  Si8  1  0.750000  0.832696  0.665393  1
  Si  Si9  1  0.250000  0.166384  0.332768  1
