# generated using pymatgen
data_Ce5P12Rh19
_symmetry_space_group_name_H-M   'P 1'
_cell_length_a   12.77033200
_cell_length_b   12.77033206
_cell_length_c   3.96410300
_cell_angle_alpha   90.00000000
_cell_angle_beta   90.00000000
_cell_angle_gamma   119.99999984
_symmetry_Int_Tables_number   1
_chemical_formula_structural   Ce5P12Rh19
_chemical_formula_sum   'Ce5 P12 Rh19'
_cell_volume   559.86064618
_cell_formula_units_Z   1
loop_
 _symmetry_equiv_pos_site_id
 _symmetry_equiv_pos_as_xyz
  1  'x, y, z'
loop_
 _atom_site_type_symbol
 _atom_site_label
 _atom_site_symmetry_multiplicity
 _atom_site_fract_x
 _atom_site_fract_y
 _atom_site_fract_z
 _atom_site_occupancy
  Ce  Ce0  1  0.000000  0.186428  0.500000  1
  Ce  Ce1  1  0.813572  0.813572  0.500000  1
  Ce  Ce2  1  0.186428  0.000000  0.500000  1
  Ce  Ce3  1  0.666667  0.333333  0.000000  1
  Ce  Ce4  1  0.333333  0.666667  0.000000  1
  P  P5  1  0.481271  0.314142  0.500000  1
  P  P6  1  0.818487  0.000000  0.000000  1
  P  P7  1  0.181513  0.181513  0.000000  1
  P  P8  1  0.000000  0.818487  0.000000  1
  P  P9  1  0.366931  0.000000  0.000000  1
  P  P10  1  0.685858  0.167128  0.500000  1
  P  P11  1  0.832872  0.518729  0.500000  1
  P  P12  1  0.518729  0.832872  0.500000  1
  P  P13  1  0.167128  0.685858  0.500000  1
  P  P14  1  0.314142  0.481271  0.500000  1
  P  P15  1  0.000000  0.366931  0.000000  1
  P  P16  1  0.633069  0.633069  0.000000  1
  Rh  Rh17  1  0.803604  0.181010  0.000000  1
  Rh  Rh18  1  0.377406  0.196396  0.000000  1
  Rh  Rh19  1  0.641483  0.511656  0.500000  1
  Rh  Rh20  1  0.870173  0.358517  0.500000  1
  Rh  Rh21  1  0.358517  0.870173  0.500000  1
  Rh  Rh22  1  0.511656  0.641483  0.500000  1
  Rh  Rh23  1  0.129827  0.488344  0.500000  1
  Rh  Rh24  1  0.818990  0.622594  0.000000  1
  Rh  Rh25  1  0.622594  0.818990  0.000000  1
  Rh  Rh26  1  0.181010  0.803604  0.000000  1
  Rh  Rh27  1  0.196396  0.377406  0.000000  1
  Rh  Rh28  1  0.000000  0.715793  0.500000  1
  Rh  Rh29  1  0.284207  0.284207  0.500000  1
  Rh  Rh30  1  0.715793  0.000000  0.500000  1
  Rh  Rh31  1  0.000000  0.546765  0.000000  1
  Rh  Rh32  1  0.453235  0.453235  0.000000  1
  Rh  Rh33  1  0.546765  0.000000  0.000000  1
  Rh  Rh34  1  0.000000  0.000000  0.000000  1
  Rh  Rh35  1  0.488344  0.129827  0.500000  1
