# generated using pymatgen
data_RbY3CBr6
_symmetry_space_group_name_H-M   'P 1'
_cell_length_a   8.75732758
_cell_length_b   8.81115114
_cell_length_c   9.42416271
_cell_angle_alpha   70.97787897
_cell_angle_beta   84.99912337
_cell_angle_gamma   89.09056693
_symmetry_Int_Tables_number   1
_chemical_formula_structural   RbY3CBr6
_chemical_formula_sum   'Rb2 Y6 C2 Br12'
_cell_volume   684.80111647
_cell_formula_units_Z   2
loop_
 _symmetry_equiv_pos_site_id
 _symmetry_equiv_pos_as_xyz
  1  'x, y, z'
loop_
 _atom_site_type_symbol
 _atom_site_label
 _atom_site_symmetry_multiplicity
 _atom_site_fract_x
 _atom_site_fract_y
 _atom_site_fract_z
 _atom_site_occupancy
  Rb  Rb0  1  0.468012  0.359281  0.331517  1
  Rb  Rb1  1  0.531989  0.640719  0.668483  1
  Y  Y2  1  0.915739  0.742793  0.005223  1
  Y  Y3  1  0.084261  0.257207  0.994776  1
  Y  Y4  1  0.740966  0.086668  0.000913  1
  Y  Y5  1  0.259033  0.913332  0.999088  1
  Y  Y6  1  0.973447  0.885228  0.326085  1
  Y  Y7  1  0.026552  0.114772  0.673916  1
  C  C8  1  0.006209  0.026748  0.920267  1
  C  C9  1  0.993790  0.973252  0.079733  1
  Br  Br10  1  0.079435  0.198055  0.329129  1
  Br  Br11  1  0.920565  0.801945  0.670871  1
  Br  Br12  1  0.206847  0.590315  0.000645  1
  Br  Br13  1  0.793154  0.409685  0.999355  1
  Br  Br14  1  0.405267  0.202136  0.003253  1
  Br  Br15  1  0.594732  0.797865  0.996746  1
  Br  Br16  1  0.664357  0.003371  0.327626  1
  Br  Br17  1  0.335643  0.996629  0.672374  1
  Br  Br18  1  0.283443  0.771849  0.324264  1
  Br  Br19  1  0.716557  0.228151  0.675736  1
  Br  Br20  1  0.848382  0.587765  0.327939  1
  Br  Br21  1  0.151617  0.412235  0.672061  1
