# generated using pymatgen
data_K2CrNiF7
_symmetry_space_group_name_H-M   'P 1'
_cell_length_a   7.68238044
_cell_length_b   7.68238086
_cell_length_c   7.68238172
_cell_angle_alpha   121.06199390
_cell_angle_beta   116.66399744
_cell_angle_gamma   92.02165512
_symmetry_Int_Tables_number   1
_chemical_formula_structural   K2CrNiF7
_chemical_formula_sum   'K4 Cr2 Ni2 F14'
_cell_volume   325.32197577
_cell_formula_units_Z   2
loop_
 _symmetry_equiv_pos_site_id
 _symmetry_equiv_pos_as_xyz
  1  'x, y, z'
loop_
 _atom_site_type_symbol
 _atom_site_label
 _atom_site_symmetry_multiplicity
 _atom_site_fract_x
 _atom_site_fract_y
 _atom_site_fract_z
 _atom_site_occupancy
  K  K0  1  0.000000  0.000000  0.000000  1
  K  K1  1  0.500000  0.500000  0.000000  1
  K  K2  1  0.500000  0.000000  0.000000  1
  K  K3  1  0.500000  0.500000  0.500000  1
  Cr  Cr4  1  0.500000  0.000000  0.500000  1
  Cr  Cr5  1  0.000000  0.500000  0.500000  1
  Ni  Ni6  1  0.000000  0.000000  0.500000  1
  Ni  Ni7  1  0.000000  0.500000  0.000000  1
  F  F8  1  0.378775  0.088098  0.290678  1
  F  F9  1  0.702580  0.411902  0.290678  1
  F  F10  1  0.691411  0.302496  0.762778  1
  F  F11  1  0.960281  0.197504  0.388915  1
  F  F12  1  0.960281  0.571367  0.762778  1
  F  F13  1  0.691411  0.928633  0.388915  1
  F  F14  1  0.308589  0.071367  0.611085  1
  F  F15  1  0.039719  0.428633  0.237222  1
  F  F16  1  0.039719  0.802496  0.611085  1
  F  F17  1  0.308589  0.697504  0.237222  1
  F  F18  1  0.901979  0.750000  0.151979  1
  F  F19  1  0.621225  0.911902  0.709322  1
  F  F20  1  0.297420  0.588098  0.709322  1
  F  F21  1  0.098021  0.250000  0.848021  1
