# generated using pymatgen
data_LiPmBiO
_symmetry_space_group_name_H-M   'P 1'
_cell_length_a   5.69254022
_cell_length_b   5.69198004
_cell_length_c   12.35228246
_cell_angle_alpha   90.00686862
_cell_angle_beta   117.40990454
_cell_angle_gamma   89.98627561
_symmetry_Int_Tables_number   1
_chemical_formula_structural   LiPmBiO
_chemical_formula_sum   'Li4 Pm4 Bi4 O4'
_cell_volume   355.30426554
_cell_formula_units_Z   4
loop_
 _symmetry_equiv_pos_site_id
 _symmetry_equiv_pos_as_xyz
  1  'x, y, z'
loop_
 _atom_site_type_symbol
 _atom_site_label
 _atom_site_symmetry_multiplicity
 _atom_site_fract_x
 _atom_site_fract_y
 _atom_site_fract_z
 _atom_site_occupancy
  Li  Li0  1  0.750545  0.489393  0.500170  1
  Li  Li1  1  0.250494  0.489751  0.499992  1
  Li  Li2  1  0.749469  0.989708  0.499952  1
  Li  Li3  1  0.249859  0.989349  0.500227  1
  Pm  Pm4  1  0.605619  0.236037  0.105491  1
  Pm  Pm5  1  0.105667  0.736057  0.105514  1
  Pm  Pm6  1  0.894209  0.236058  0.894360  1
  Pm  Pm7  1  0.394239  0.736024  0.894385  1
  Bi  Bi8  1  0.808423  0.738375  0.308580  1
  Bi  Bi9  1  0.308376  0.238281  0.308570  1
  Bi  Bi10  1  0.691730  0.738305  0.691475  1
  Bi  Bi11  1  0.191541  0.238445  0.691443  1
  O  O12  1  0.250046  0.486183  0.000057  1
  O  O13  1  0.750038  0.986169  0.000029  1
  O  O14  1  0.749898  0.485920  0.999902  1
  O  O15  1  0.249843  0.985911  0.999859  1
