# generated using pymatgen
data_CeNd9AlSi5
_symmetry_space_group_name_H-M   'P 1'
_cell_length_a   9.05595932
_cell_length_b   9.05595988
_cell_length_c   9.05596000
_cell_angle_alpha   129.10956528
_cell_angle_beta   129.10957635
_cell_angle_gamma   74.83433343
_symmetry_Int_Tables_number   1
_chemical_formula_structural   CeNd9AlSi5
_chemical_formula_sum   'Ce1 Nd9 Al1 Si5'
_cell_volume   435.54843712
_cell_formula_units_Z   1
loop_
 _symmetry_equiv_pos_site_id
 _symmetry_equiv_pos_as_xyz
  1  'x, y, z'
loop_
 _atom_site_type_symbol
 _atom_site_label
 _atom_site_symmetry_multiplicity
 _atom_site_fract_x
 _atom_site_fract_y
 _atom_site_fract_z
 _atom_site_occupancy
  Ce  Ce0  1  0.478730  0.478730  0.000000  1
  Nd  Nd1  1  0.544440  0.031150  0.857907  1
  Nd  Nd2  1  0.173242  0.686532  0.142093  1
  Nd  Nd3  1  0.031150  0.173242  0.486710  1
  Nd  Nd4  1  0.686532  0.544440  0.513290  1
  Nd  Nd5  1  0.473597  0.952406  0.143734  1
  Nd  Nd6  1  0.808673  0.329863  0.856266  1
  Nd  Nd7  1  0.952406  0.808673  0.478809  1
  Nd  Nd8  1  0.329863  0.473597  0.521191  1
  Nd  Nd9  1  0.020574  0.020574  0.000000  1
  Al  Al10  1  0.249009  0.249009  0.000000  1
  Si  Si11  1  0.752158  0.752158  0.000000  1
  Si  Si12  1  0.884965  0.385597  0.270750  1
  Si  Si13  1  0.114848  0.614215  0.729250  1
  Si  Si14  1  0.385597  0.114848  0.500633  1
  Si  Si15  1  0.614215  0.884965  0.499367  1
