# generated using pymatgen
data_TbInSn5Rh4
_symmetry_space_group_name_H-M   'P 1'
_cell_length_a   7.02658757
_cell_length_b   6.94183506
_cell_length_c   6.95649517
_cell_angle_alpha   119.83144290
_cell_angle_beta   120.23578545
_cell_angle_gamma   90.16974356
_symmetry_Int_Tables_number   1
_chemical_formula_structural   TbInSn5Rh4
_chemical_formula_sum   'Tb1 In1 Sn5 Rh4'
_cell_volume   239.32948791
_cell_formula_units_Z   1
loop_
 _symmetry_equiv_pos_site_id
 _symmetry_equiv_pos_as_xyz
  1  'x, y, z'
loop_
 _atom_site_type_symbol
 _atom_site_label
 _atom_site_symmetry_multiplicity
 _atom_site_fract_x
 _atom_site_fract_y
 _atom_site_fract_z
 _atom_site_occupancy
  Tb  Tb0  1  0.000109  0.999763  0.000000  1
  In  In1  1  0.875061  0.537416  0.000000  1
  Sn  Sn2  1  0.539717  0.869673  0.000000  1
  Sn  Sn3  1  0.461638  0.462010  0.333127  1
  Sn  Sn4  1  0.499688  0.001285  0.501561  1
  Sn  Sn5  1  0.998126  0.499724  0.498439  1
  Sn  Sn6  1  0.128510  0.128883  0.666873  1
  Rh  Rh7  1  0.604623  0.238772  0.000000  1
  Rh  Rh8  1  0.245987  0.609640  0.000000  1
  Rh  Rh9  1  0.758989  0.762135  0.371435  1
  Rh  Rh10  1  0.387554  0.390700  0.628566  1
