# generated using pymatgen
data_TbDyHoGa8Ag3
_symmetry_space_group_name_H-M   'P 1'
_cell_length_a   4.33217337
_cell_length_b   8.36810732
_cell_length_c   8.36810712
_cell_angle_alpha   69.69288940
_cell_angle_beta   74.99812489
_cell_angle_gamma   74.99814048
_symmetry_Int_Tables_number   1
_chemical_formula_structural   TbDyHoGa8Ag3
_chemical_formula_sum   'Tb1 Dy1 Ho1 Ga8 Ag3'
_cell_volume   269.98399172
_cell_formula_units_Z   1
loop_
 _symmetry_equiv_pos_site_id
 _symmetry_equiv_pos_as_xyz
  1  'x, y, z'
loop_
 _atom_site_type_symbol
 _atom_site_label
 _atom_site_symmetry_multiplicity
 _atom_site_fract_x
 _atom_site_fract_y
 _atom_site_fract_z
 _atom_site_occupancy
  Tb  Tb0  1  0.500072  0.499928  0.499928  1
  Dy  Dy1  1  0.200047  0.799953  0.799953  1
  Ho  Ho2  1  0.800132  0.199868  0.199868  1
  Ga  Ga3  1  0.643746  0.074032  0.638475  1
  Ga  Ga4  1  0.356186  0.926357  0.361271  1
  Ga  Ga5  1  0.643746  0.638475  0.074032  1
  Ga  Ga6  1  0.356186  0.361271  0.926357  1
  Ga  Ga7  1  0.841593  0.789598  0.527216  1
  Ga  Ga8  1  0.158610  0.210306  0.472475  1
  Ga  Ga9  1  0.841593  0.527216  0.789598  1
  Ga  Ga10  1  0.158610  0.472475  0.210306  1
  Ag  Ag11  1  0.499797  0.000203  0.000203  1
  Ag  Ag12  1  0.999841  0.804951  0.195366  1
  Ag  Ag13  1  0.999841  0.195366  0.804951  1
