# generated using pymatgen
data_Tb2Fe5P6Ir4Ru
_symmetry_space_group_name_H-M   'P 1'
_cell_length_a   3.83170500
_cell_length_b   10.38290800
_cell_length_c   12.27141100
_cell_angle_alpha   90.00000000
_cell_angle_beta   90.00000000
_cell_angle_gamma   90.00000000
_symmetry_Int_Tables_number   1
_chemical_formula_structural   Tb2Fe5P6Ir4Ru
_chemical_formula_sum   'Tb4 Fe10 P12 Ir8 Ru2'
_cell_volume   488.20876648
_cell_formula_units_Z   2
loop_
 _symmetry_equiv_pos_site_id
 _symmetry_equiv_pos_as_xyz
  1  'x, y, z'
loop_
 _atom_site_type_symbol
 _atom_site_label
 _atom_site_symmetry_multiplicity
 _atom_site_fract_x
 _atom_site_fract_y
 _atom_site_fract_z
 _atom_site_occupancy
  Tb  Tb0  1  0.250000  0.583101  0.712966  1
  Tb  Tb1  1  0.250000  0.916899  0.212966  1
  Tb  Tb2  1  0.750000  0.422431  0.288790  1
  Tb  Tb3  1  0.750000  0.077569  0.788790  1
  Fe  Fe4  1  0.750000  0.775047  0.829205  1
  Fe  Fe5  1  0.750000  0.724953  0.329205  1
  Fe  Fe6  1  0.250000  0.875397  0.695602  1
  Fe  Fe7  1  0.250000  0.624603  0.195602  1
  Fe  Fe8  1  0.750000  0.119706  0.303022  1
  Fe  Fe9  1  0.750000  0.380294  0.803022  1
  Fe  Fe10  1  0.250000  0.460937  0.936683  1
  Fe  Fe11  1  0.250000  0.039063  0.436683  1
  Fe  Fe12  1  0.750000  0.542842  0.062234  1
  Fe  Fe13  1  0.750000  0.957158  0.562234  1
  P  P14  1  0.250000  0.437035  0.110473  1
  P  P15  1  0.250000  0.062965  0.610473  1
  P  P16  1  0.750000  0.569972  0.886228  1
  P  P17  1  0.750000  0.930028  0.386228  1
  P  P18  1  0.250000  0.272962  0.864881  1
  P  P19  1  0.250000  0.227038  0.364881  1
  P  P20  1  0.750000  0.726097  0.148013  1
  P  P21  1  0.750000  0.773903  0.648013  1
  P  P22  1  0.250000  0.607966  0.374965  1
  P  P23  1  0.250000  0.892034  0.874965  1
  P  P24  1  0.750000  0.400811  0.618307  1
  P  P25  1  0.750000  0.099189  0.118307  1
  Ir  Ir26  1  0.250000  0.708457  0.982968  1
  Ir  Ir27  1  0.250000  0.791543  0.482968  1
  Ir  Ir28  1  0.250000  0.411580  0.476732  1
  Ir  Ir29  1  0.250000  0.088420  0.976732  1
  Ir  Ir30  1  0.750000  0.599321  0.522546  1
  Ir  Ir31  1  0.750000  0.900679  0.022546  1
  Ir  Ir32  1  0.250000  0.227978  0.174841  1
  Ir  Ir33  1  0.250000  0.272022  0.674841  1
  Ru  Ru34  1  0.750000  0.289272  0.011541  1
  Ru  Ru35  1  0.750000  0.210728  0.511541  1
