# generated using pymatgen
data_TbEr15In4Ir3Ru
_symmetry_space_group_name_H-M   'P 1'
_cell_length_a   9.59333037
_cell_length_b   9.59332906
_cell_length_c   9.58828204
_cell_angle_alpha   59.96182888
_cell_angle_beta   59.96182324
_cell_angle_gamma   59.96322323
_symmetry_Int_Tables_number   1
_chemical_formula_structural   TbEr15In4Ir3Ru
_chemical_formula_sum   'Tb1 Er15 In4 Ir3 Ru1'
_cell_volume   623.43761554
_cell_formula_units_Z   1
loop_
 _symmetry_equiv_pos_site_id
 _symmetry_equiv_pos_as_xyz
  1  'x, y, z'
loop_
 _atom_site_type_symbol
 _atom_site_label
 _atom_site_symmetry_multiplicity
 _atom_site_fract_x
 _atom_site_fract_y
 _atom_site_fract_z
 _atom_site_occupancy
  Tb  Tb0  1  0.059720  0.059720  0.440910  1
  Er  Er1  1  0.650517  0.045618  0.651115  1
  Er  Er2  1  0.191823  0.809418  0.191661  1
  Er  Er3  1  0.439733  0.061031  0.439088  1
  Er  Er4  1  0.191722  0.191722  0.809678  1
  Er  Er5  1  0.651613  0.651613  0.651643  1
  Er  Er6  1  0.045618  0.650517  0.651115  1
  Er  Er7  1  0.441764  0.059307  0.058686  1
  Er  Er8  1  0.650909  0.650909  0.045640  1
  Er  Er9  1  0.190332  0.809079  0.809800  1
  Er  Er10  1  0.809079  0.190332  0.809800  1
  Er  Er11  1  0.809418  0.191823  0.191661  1
  Er  Er12  1  0.809458  0.809458  0.190110  1
  Er  Er13  1  0.061031  0.439733  0.439088  1
  Er  Er14  1  0.439080  0.439080  0.061109  1
  Er  Er15  1  0.059307  0.441764  0.058686  1
  In  In16  1  0.748431  0.417929  0.417037  1
  In  In17  1  0.417181  0.417181  0.748925  1
  In  In18  1  0.417929  0.748431  0.417037  1
  In  In19  1  0.416823  0.416823  0.417525  1
  Ir  Ir20  1  0.422324  0.858643  0.858805  1
  Ir  Ir21  1  0.858420  0.858420  0.422250  1
  Ir  Ir22  1  0.858643  0.422324  0.858805  1
  Ru  Ru23  1  0.859130  0.859130  0.859833  1
