# generated using pymatgen
data_Lu12Fe3Ru
_symmetry_space_group_name_H-M   'P 1'
_cell_length_a   6.11891445
_cell_length_b   7.05392108
_cell_length_c   8.87544900
_cell_angle_alpha   90.00000000
_cell_angle_beta   90.00000000
_cell_angle_gamma   89.81869919
_symmetry_Int_Tables_number   1
_chemical_formula_structural   Lu12Fe3Ru
_chemical_formula_sum   'Lu12 Fe3 Ru1'
_cell_volume   383.08322578
_cell_formula_units_Z   1
loop_
 _symmetry_equiv_pos_site_id
 _symmetry_equiv_pos_as_xyz
  1  'x, y, z'
loop_
 _atom_site_type_symbol
 _atom_site_label
 _atom_site_symmetry_multiplicity
 _atom_site_fract_x
 _atom_site_fract_y
 _atom_site_fract_z
 _atom_site_occupancy
  Lu  Lu0  1  0.328584  0.674316  0.066369  1
  Lu  Lu1  1  0.171653  0.175064  0.433349  1
  Lu  Lu2  1  0.671484  0.319739  0.562382  1
  Lu  Lu3  1  0.831799  0.828908  0.936577  1
  Lu  Lu4  1  0.671484  0.319739  0.937618  1
  Lu  Lu5  1  0.831799  0.828908  0.563423  1
  Lu  Lu6  1  0.328584  0.674316  0.433631  1
  Lu  Lu7  1  0.171653  0.175064  0.066651  1
  Lu  Lu8  1  0.863820  0.547481  0.250000  1
  Lu  Lu9  1  0.635801  0.045023  0.250000  1
  Lu  Lu10  1  0.127828  0.453128  0.750000  1
  Lu  Lu11  1  0.360489  0.959218  0.750000  1
  Fe  Fe12  1  0.032725  0.886577  0.250000  1
  Fe  Fe13  1  0.470703  0.386323  0.250000  1
  Fe  Fe14  1  0.965569  0.113895  0.750000  1
  Ru  Ru15  1  0.536026  0.612299  0.750000  1
