# generated using pymatgen
data_Er2Lu2BCl6
_symmetry_space_group_name_H-M   'P 1'
_cell_length_a   3.78964200
_cell_length_b   12.42923700
_cell_length_c   12.89886200
_cell_angle_alpha   90.00000000
_cell_angle_beta   90.00000000
_cell_angle_gamma   90.00000000
_symmetry_Int_Tables_number   1
_chemical_formula_structural   Er2Lu2BCl6
_chemical_formula_sum   'Er4 Lu4 B2 Cl12'
_cell_volume   607.56682298
_cell_formula_units_Z   2
loop_
 _symmetry_equiv_pos_site_id
 _symmetry_equiv_pos_as_xyz
  1  'x, y, z'
loop_
 _atom_site_type_symbol
 _atom_site_label
 _atom_site_symmetry_multiplicity
 _atom_site_fract_x
 _atom_site_fract_y
 _atom_site_fract_z
 _atom_site_occupancy
  Er  Er0  1  0.500000  0.126291  0.851496  1
  Er  Er1  1  0.500000  0.873709  0.148504  1
  Er  Er2  1  0.500000  0.626291  0.648504  1
  Er  Er3  1  0.500000  0.373709  0.351496  1
  Lu  Lu4  1  0.000000  0.104469  0.082708  1
  Lu  Lu5  1  0.000000  0.895531  0.917292  1
  Lu  Lu6  1  0.000000  0.604469  0.417292  1
  Lu  Lu7  1  0.000000  0.395531  0.582708  1
  B  B8  1  0.500000  0.000000  0.000000  1
  B  B9  1  0.500000  0.500000  0.500000  1
  Cl  Cl10  1  0.500000  0.268855  0.681501  1
  Cl  Cl11  1  0.500000  0.731145  0.318499  1
  Cl  Cl12  1  0.500000  0.768855  0.818499  1
  Cl  Cl13  1  0.500000  0.231145  0.181501  1
  Cl  Cl14  1  0.000000  0.258415  0.930657  1
  Cl  Cl15  1  0.000000  0.741585  0.069343  1
  Cl  Cl16  1  0.000000  0.479783  0.241924  1
  Cl  Cl17  1  0.000000  0.520217  0.758076  1
  Cl  Cl18  1  0.000000  0.979783  0.258076  1
  Cl  Cl19  1  0.000000  0.020217  0.741924  1
  Cl  Cl20  1  0.000000  0.241585  0.430657  1
  Cl  Cl21  1  0.000000  0.758415  0.569343  1
