# generated using pymatgen
data_Tb8Dy8Sc3Si16Tc
_symmetry_space_group_name_H-M   'P 1'
_cell_length_a   7.18122794
_cell_length_b   7.67227328
_cell_length_c   14.31730000
_cell_angle_alpha   90.00000000
_cell_angle_beta   90.00000000
_cell_angle_gamma   89.99235994
_symmetry_Int_Tables_number   1
_chemical_formula_structural   Tb8Dy8Sc3Si16Tc
_chemical_formula_sum   'Tb8 Dy8 Sc3 Si16 Tc1'
_cell_volume   788.83086768
_cell_formula_units_Z   1
loop_
 _symmetry_equiv_pos_site_id
 _symmetry_equiv_pos_as_xyz
  1  'x, y, z'
loop_
 _atom_site_type_symbol
 _atom_site_label
 _atom_site_symmetry_multiplicity
 _atom_site_fract_x
 _atom_site_fract_y
 _atom_site_fract_z
 _atom_site_occupancy
  Tb  Tb0  1  0.020136  0.184119  0.093178  1
  Tb  Tb1  1  0.985276  0.811049  0.899884  1
  Tb  Tb2  1  0.479743  0.679932  0.903337  1
  Tb  Tb3  1  0.985276  0.811049  0.600116  1
  Tb  Tb4  1  0.520498  0.315152  0.095757  1
  Tb  Tb5  1  0.020136  0.184119  0.406822  1
  Tb  Tb6  1  0.520498  0.315152  0.404243  1
  Tb  Tb7  1  0.479743  0.679932  0.596663  1
  Dy  Dy8  1  0.318141  0.180826  0.629564  1
  Dy  Dy9  1  0.681511  0.823220  0.374534  1
  Dy  Dy10  1  0.179120  0.675362  0.376200  1
  Dy  Dy11  1  0.681511  0.823220  0.125466  1
  Dy  Dy12  1  0.820123  0.328399  0.630653  1
  Dy  Dy13  1  0.318141  0.180826  0.870436  1
  Dy  Dy14  1  0.820123  0.328399  0.869347  1
  Dy  Dy15  1  0.179120  0.675362  0.123800  1
  Sc  Sc16  1  0.847813  0.483291  0.250000  1
  Sc  Sc17  1  0.348152  0.016975  0.250000  1
  Sc  Sc18  1  0.649421  0.977770  0.750000  1
  Si  Si19  1  0.012854  0.082848  0.750000  1
  Si  Si20  1  0.986108  0.909713  0.250000  1
  Si  Si21  1  0.482572  0.594350  0.250000  1
  Si  Si22  1  0.502087  0.422885  0.750000  1
  Si  Si23  1  0.275010  0.851453  0.750000  1
  Si  Si24  1  0.726299  0.136908  0.250000  1
  Si  Si25  1  0.223063  0.364844  0.250000  1
  Si  Si26  1  0.784297  0.635755  0.750000  1
  Si  Si27  1  0.151153  0.473410  0.548840  1
  Si  Si28  1  0.847109  0.529902  0.463124  1
  Si  Si29  1  0.349674  0.970234  0.462779  1
  Si  Si30  1  0.847109  0.529902  0.036876  1
  Si  Si31  1  0.653802  0.030263  0.541095  1
  Si  Si32  1  0.151153  0.473410  0.951160  1
  Si  Si33  1  0.653802  0.030263  0.958905  1
  Si  Si34  1  0.349674  0.970234  0.037221  1
  Tc  Tc35  1  0.149754  0.519470  0.750000  1
