# generated using pymatgen
data_K3Li2HfAs3
_symmetry_space_group_name_H-M   'P 1'
_cell_length_a   10.39349095
_cell_length_b   10.39349104
_cell_length_c   15.21920800
_cell_angle_alpha   90.00000000
_cell_angle_beta   90.00000000
_cell_angle_gamma   143.27424192
_symmetry_Int_Tables_number   1
_chemical_formula_structural   K3Li2HfAs3
_chemical_formula_sum   'K12 Li8 Hf4 As12'
_cell_volume   983.11793720
_cell_formula_units_Z   4
loop_
 _symmetry_equiv_pos_site_id
 _symmetry_equiv_pos_as_xyz
  1  'x, y, z'
loop_
 _atom_site_type_symbol
 _atom_site_label
 _atom_site_symmetry_multiplicity
 _atom_site_fract_x
 _atom_site_fract_y
 _atom_site_fract_z
 _atom_site_occupancy
  K  K0  1  0.604337  0.947982  0.827011  1
  K  K1  1  0.283139  0.283139  0.320366  1
  K  K2  1  0.216861  0.216861  0.820366  1
  K  K3  1  0.716861  0.716861  0.679634  1
  K  K4  1  0.447982  0.104337  0.672989  1
  K  K5  1  0.895663  0.552018  0.327011  1
  K  K6  1  0.052018  0.395663  0.172989  1
  K  K7  1  0.395663  0.052018  0.172989  1
  K  K8  1  0.552018  0.895663  0.327011  1
  K  K9  1  0.104337  0.447982  0.672989  1
  K  K10  1  0.947982  0.604337  0.827011  1
  K  K11  1  0.783139  0.783139  0.179634  1
  Li  Li12  1  0.082940  0.917060  0.000000  1
  Li  Li13  1  0.582940  0.417060  0.500000  1
  Li  Li14  1  0.917060  0.082940  0.000000  1
  Li  Li15  1  0.750576  0.249424  0.000000  1
  Li  Li16  1  0.749424  0.250576  0.500000  1
  Li  Li17  1  0.249424  0.750576  0.000000  1
  Li  Li18  1  0.250576  0.749424  0.500000  1
  Li  Li19  1  0.417060  0.582940  0.500000  1
  Hf  Hf20  1  0.087311  0.912689  0.500000  1
  Hf  Hf21  1  0.412689  0.587311  0.000000  1
  Hf  Hf22  1  0.912689  0.087311  0.500000  1
  Hf  Hf23  1  0.587311  0.412689  0.000000  1
  As  As24  1  0.072271  0.397015  0.406064  1
  As  As25  1  0.897015  0.572271  0.093936  1
  As  As26  1  0.427729  0.102985  0.906064  1
  As  As27  1  0.602985  0.927729  0.593936  1
  As  As28  1  0.927729  0.602985  0.593936  1
  As  As29  1  0.102985  0.427729  0.906064  1
  As  As30  1  0.572271  0.897015  0.093936  1
  As  As31  1  0.397015  0.072271  0.406064  1
  As  As32  1  0.228956  0.228956  0.590329  1
  As  As33  1  0.728956  0.728956  0.909671  1
  As  As34  1  0.271044  0.271044  0.090329  1
  As  As35  1  0.771044  0.771044  0.409671  1
