# generated using pymatgen
data_Bi2(P2Pd7)3
_symmetry_space_group_name_H-M   'P 1'
_cell_length_a   8.65148493
_cell_length_b   8.65148411
_cell_length_c   8.65148500
_cell_angle_alpha   60.00000043
_cell_angle_beta   60.00000356
_cell_angle_gamma   59.99999704
_symmetry_Int_Tables_number   1
_chemical_formula_structural   Bi2(P2Pd7)3
_chemical_formula_sum   'Bi2 P6 Pd21'
_cell_volume   457.88554660
_cell_formula_units_Z   1
loop_
 _symmetry_equiv_pos_site_id
 _symmetry_equiv_pos_as_xyz
  1  'x, y, z'
loop_
 _atom_site_type_symbol
 _atom_site_label
 _atom_site_symmetry_multiplicity
 _atom_site_fract_x
 _atom_site_fract_y
 _atom_site_fract_z
 _atom_site_occupancy
  Bi  Bi0  1  0.250000  0.250000  0.250000  1
  Bi  Bi1  1  0.750000  0.750000  0.750000  1
  P  P2  1  0.738090  0.738090  0.261910  1
  P  P3  1  0.261910  0.261910  0.738090  1
  P  P4  1  0.261910  0.738090  0.738090  1
  P  P5  1  0.738090  0.261910  0.738090  1
  P  P6  1  0.261910  0.738090  0.261910  1
  P  P7  1  0.738090  0.261910  0.261910  1
  Pd  Pd8  1  0.000000  0.000000  0.000000  1
  Pd  Pd9  1  0.616013  0.616013  0.616013  1
  Pd  Pd10  1  0.383987  0.848036  0.383987  1
  Pd  Pd11  1  0.657459  0.342541  0.000000  1
  Pd  Pd12  1  0.000000  0.342541  0.657459  1
  Pd  Pd13  1  0.657459  0.000000  0.000000  1
  Pd  Pd14  1  0.616013  0.616013  0.151964  1
  Pd  Pd15  1  0.000000  0.000000  0.657459  1
  Pd  Pd16  1  0.000000  0.342541  0.000000  1
  Pd  Pd17  1  0.657459  0.000000  0.342541  1
  Pd  Pd18  1  0.342541  0.000000  0.000000  1
  Pd  Pd19  1  0.000000  0.657459  0.000000  1
  Pd  Pd20  1  0.342541  0.000000  0.657459  1
  Pd  Pd21  1  0.000000  0.657459  0.342541  1
  Pd  Pd22  1  0.342541  0.657459  0.000000  1
  Pd  Pd23  1  0.151964  0.616013  0.616013  1
  Pd  Pd24  1  0.383987  0.383987  0.383987  1
  Pd  Pd25  1  0.848036  0.383987  0.383987  1
  Pd  Pd26  1  0.383987  0.383987  0.848036  1
  Pd  Pd27  1  0.616013  0.151964  0.616013  1
  Pd  Pd28  1  0.000000  0.000000  0.342541  1
