# generated using pymatgen
data_Hf5Sc(Ti2Sn3)2
_symmetry_space_group_name_H-M   'P 1'
_cell_length_a   8.29406695
_cell_length_b   8.29406742
_cell_length_c   5.56681600
_cell_angle_alpha   90.00000000
_cell_angle_beta   90.00000000
_cell_angle_gamma   119.92137118
_symmetry_Int_Tables_number   1
_chemical_formula_structural   Hf5Sc(Ti2Sn3)2
_chemical_formula_sum   'Hf5 Sc1 Ti4 Sn6'
_cell_volume   331.90679992
_cell_formula_units_Z   1
loop_
 _symmetry_equiv_pos_site_id
 _symmetry_equiv_pos_as_xyz
  1  'x, y, z'
loop_
 _atom_site_type_symbol
 _atom_site_label
 _atom_site_symmetry_multiplicity
 _atom_site_fract_x
 _atom_site_fract_y
 _atom_site_fract_z
 _atom_site_occupancy
  Hf  Hf0  1  0.240126  0.001140  0.750000  1
  Hf  Hf1  1  0.001140  0.240126  0.750000  1
  Hf  Hf2  1  0.237432  0.237432  0.250000  1
  Hf  Hf3  1  0.761966  0.001283  0.250000  1
  Hf  Hf4  1  0.001283  0.761966  0.250000  1
  Sc  Sc5  1  0.760477  0.760477  0.750000  1
  Ti  Ti6  1  0.666098  0.332054  0.000422  1
  Ti  Ti7  1  0.332054  0.666098  0.000422  1
  Ti  Ti8  1  0.332054  0.666098  0.499578  1
  Ti  Ti9  1  0.666098  0.332054  0.499578  1
  Sn  Sn10  1  0.401029  0.401029  0.750000  1
  Sn  Sn11  1  0.600470  0.998768  0.750000  1
  Sn  Sn12  1  0.998768  0.600470  0.750000  1
  Sn  Sn13  1  0.600715  0.600715  0.250000  1
  Sn  Sn14  1  0.400290  0.999999  0.250000  1
  Sn  Sn15  1  0.999999  0.400290  0.250000  1
