# generated using pymatgen
data_Sr5ThBiSbO12
_symmetry_space_group_name_H-M   'P 1'
_cell_length_a   5.99983109
_cell_length_b   6.17715155
_cell_length_c   8.55922844
_cell_angle_alpha   90.13223942
_cell_angle_beta   89.88646419
_cell_angle_gamma   90.00872622
_symmetry_Int_Tables_number   1
_chemical_formula_structural   Sr5ThBiSbO12
_chemical_formula_sum   'Sr5 Th1 Bi1 Sb1 O12'
_cell_volume   317.21950594
_cell_formula_units_Z   1
loop_
 _symmetry_equiv_pos_site_id
 _symmetry_equiv_pos_as_xyz
  1  'x, y, z'
loop_
 _atom_site_type_symbol
 _atom_site_label
 _atom_site_symmetry_multiplicity
 _atom_site_fract_x
 _atom_site_fract_y
 _atom_site_fract_z
 _atom_site_occupancy
  Sr  Sr0  1  0.000000  0.000000  0.000000  1
  Sr  Sr1  1  0.987208  0.451004  0.229796  1
  Sr  Sr2  1  0.515006  0.953550  0.232189  1
  Sr  Sr3  1  0.484994  0.046450  0.767811  1
  Sr  Sr4  1  0.012792  0.548996  0.770204  1
  Th  Th5  1  0.500000  0.500000  0.500000  1
  Bi  Bi6  1  0.000000  0.000000  0.500000  1
  Sb  Sb7  1  0.500000  0.500000  0.000000  1
  O  O8  1  0.886684  0.952078  0.728527  1
  O  O9  1  0.802520  0.715723  0.431735  1
  O  O10  1  0.771969  0.678564  0.040813  1
  O  O11  1  0.714202  0.203442  0.442189  1
  O  O12  1  0.674349  0.230464  0.048972  1
  O  O13  1  0.592448  0.463322  0.763993  1
  O  O14  1  0.407552  0.536678  0.236007  1
  O  O15  1  0.325651  0.769536  0.951028  1
  O  O16  1  0.285798  0.796558  0.557811  1
  O  O17  1  0.228031  0.321436  0.959187  1
  O  O18  1  0.197480  0.284277  0.568265  1
  O  O19  1  0.113316  0.047922  0.271473  1
