# generated using pymatgen
data_PrNd7Si12Rh3Au
_symmetry_space_group_name_H-M   'P 1'
_cell_length_a   8.26433600
_cell_length_b   8.26433520
_cell_length_c   8.49093900
_cell_angle_alpha   90.00000000
_cell_angle_beta   90.00000000
_cell_angle_gamma   120.00000319
_symmetry_Int_Tables_number   1
_chemical_formula_structural   PrNd7Si12Rh3Au
_chemical_formula_sum   'Pr1 Nd7 Si12 Rh3 Au1'
_cell_volume   502.22951102
_cell_formula_units_Z   1
loop_
 _symmetry_equiv_pos_site_id
 _symmetry_equiv_pos_as_xyz
  1  'x, y, z'
loop_
 _atom_site_type_symbol
 _atom_site_label
 _atom_site_symmetry_multiplicity
 _atom_site_fract_x
 _atom_site_fract_y
 _atom_site_fract_z
 _atom_site_occupancy
  Pr  Pr0  1  0.000000  0.000000  0.748837  1
  Nd  Nd1  1  0.000000  0.000000  0.251931  1
  Nd  Nd2  1  0.496011  0.503989  0.744921  1
  Nd  Nd3  1  0.496011  0.992024  0.744921  1
  Nd  Nd4  1  0.007976  0.503989  0.744921  1
  Nd  Nd5  1  0.499119  0.500881  0.254962  1
  Nd  Nd6  1  0.001761  0.500881  0.254962  1
  Nd  Nd7  1  0.499119  0.998239  0.254962  1
  Si  Si8  1  0.838762  0.161238  0.001422  1
  Si  Si9  1  0.838762  0.677522  0.001422  1
  Si  Si10  1  0.322478  0.161238  0.001422  1
  Si  Si11  1  0.832535  0.167465  0.498918  1
  Si  Si12  1  0.832535  0.665071  0.498918  1
  Si  Si13  1  0.334929  0.167465  0.498918  1
  Si  Si14  1  0.166408  0.833592  0.500699  1
  Si  Si15  1  0.667184  0.833592  0.500699  1
  Si  Si16  1  0.166408  0.332816  0.500699  1
  Si  Si17  1  0.168702  0.831298  0.999325  1
  Si  Si18  1  0.662595  0.831298  0.999325  1
  Si  Si19  1  0.168702  0.337405  0.999325  1
  Rh  Rh20  1  0.666667  0.333333  0.506191  1
  Rh  Rh21  1  0.333333  0.666667  0.493076  1
  Rh  Rh22  1  0.333333  0.666667  0.005756  1
  Au  Au23  1  0.666667  0.333333  0.993467  1
