# generated using pymatgen
data_ErTm7Tc3B24Ru
_symmetry_space_group_name_H-M   'P 1'
_cell_length_a   3.63503400
_cell_length_b   9.08310643
_cell_length_c   11.45402100
_cell_angle_alpha   89.92206024
_cell_angle_beta   90.00000000
_cell_angle_gamma   90.00000000
_symmetry_Int_Tables_number   1
_chemical_formula_structural   ErTm7Tc3B24Ru
_chemical_formula_sum   'Er1 Tm7 Tc3 B24 Ru1'
_cell_volume   378.18165124
_cell_formula_units_Z   1
loop_
 _symmetry_equiv_pos_site_id
 _symmetry_equiv_pos_as_xyz
  1  'x, y, z'
loop_
 _atom_site_type_symbol
 _atom_site_label
 _atom_site_symmetry_multiplicity
 _atom_site_fract_x
 _atom_site_fract_y
 _atom_site_fract_z
 _atom_site_occupancy
  Er  Er0  1  0.000000  0.323346  0.413998  1
  Tm  Tm1  1  0.000000  0.675350  0.583858  1
  Tm  Tm2  1  0.000000  0.822583  0.087362  1
  Tm  Tm3  1  0.000000  0.178376  0.914606  1
  Tm  Tm4  1  0.000000  0.942581  0.370427  1
  Tm  Tm5  1  0.000000  0.057569  0.630382  1
  Tm  Tm6  1  0.000000  0.443241  0.129748  1
  Tm  Tm7  1  0.000000  0.557725  0.869532  1
  Tc  Tc8  1  0.000000  0.638545  0.320472  1
  Tc  Tc9  1  0.000000  0.361579  0.680150  1
  Tc  Tc10  1  0.000000  0.137995  0.178351  1
  B  B11  1  0.500000  0.553019  0.433269  1
  B  B12  1  0.500000  0.446922  0.566528  1
  B  B13  1  0.500000  0.052889  0.066311  1
  B  B14  1  0.500000  0.946251  0.933248  1
  B  B15  1  0.500000  0.749299  0.419277  1
  B  B16  1  0.500000  0.250110  0.581130  1
  B  B17  1  0.500000  0.249941  0.080631  1
  B  B18  1  0.500000  0.750966  0.918957  1
  B  B19  1  0.500000  0.792370  0.265158  1
  B  B20  1  0.500000  0.207726  0.735694  1
  B  B21  1  0.500000  0.292281  0.234769  1
  B  B22  1  0.500000  0.708655  0.764855  1
  B  B23  1  0.500000  0.631007  0.184841  1
  B  B24  1  0.500000  0.369252  0.815626  1
  B  B25  1  0.500000  0.130193  0.314708  1
  B  B26  1  0.500000  0.868964  0.685090  1
  B  B27  1  0.500000  0.980900  0.211868  1
  B  B28  1  0.500000  0.017598  0.788327  1
  B  B29  1  0.500000  0.481467  0.287710  1
  B  B30  1  0.500000  0.518747  0.711806  1
  B  B31  1  0.500000  0.601905  0.027909  1
  B  B32  1  0.500000  0.399814  0.971750  1
  B  B33  1  0.500000  0.100728  0.472270  1
  B  B34  1  0.500000  0.898528  0.528597  1
  Ru  Ru35  1  0.000000  0.861577  0.820787  1
