# generated using pymatgen
data_Dy5ZnP11Ir16Rh3
_symmetry_space_group_name_H-M   'P 1'
_cell_length_a   12.72813604
_cell_length_b   12.77623499
_cell_length_c   3.98096800
_cell_angle_alpha   90.00000000
_cell_angle_beta   90.00000000
_cell_angle_gamma   120.12509026
_symmetry_Int_Tables_number   1
_chemical_formula_structural   Dy5ZnP11Ir16Rh3
_chemical_formula_sum   'Dy5 Zn1 P11 Ir16 Rh3'
_cell_volume   559.93576971
_cell_formula_units_Z   1
loop_
 _symmetry_equiv_pos_site_id
 _symmetry_equiv_pos_as_xyz
  1  'x, y, z'
loop_
 _atom_site_type_symbol
 _atom_site_label
 _atom_site_symmetry_multiplicity
 _atom_site_fract_x
 _atom_site_fract_y
 _atom_site_fract_z
 _atom_site_occupancy
  Dy  Dy0  1  0.328882  0.663778  0.500000  1
  Dy  Dy1  1  0.671118  0.334896  0.500000  1
  Dy  Dy2  1  0.000000  0.817555  0.000000  1
  Dy  Dy3  1  0.186056  0.183585  0.000000  1
  Dy  Dy4  1  0.813944  0.997529  0.000000  1
  Zn  Zn5  1  0.000000  0.643939  0.500000  1
  P  P6  1  0.359420  0.359349  0.500000  1
  P  P7  1  0.640580  0.999929  0.500000  1
  P  P8  1  0.513149  0.688064  0.000000  1
  P  P9  1  0.310550  0.826227  0.000000  1
  P  P10  1  0.163520  0.480120  0.000000  1
  P  P11  1  0.486851  0.174915  0.000000  1
  P  P12  1  0.689450  0.515677  0.000000  1
  P  P13  1  0.836480  0.316600  0.000000  1
  P  P14  1  0.000000  0.173679  0.500000  1
  P  P15  1  0.817021  0.818134  0.500000  1
  P  P16  1  0.182979  0.001114  0.500000  1
  Ir  Ir17  1  0.507911  0.871202  0.000000  1
  Ir  Ir18  1  0.132242  0.639151  0.000000  1
  Ir  Ir19  1  0.353501  0.492829  0.000000  1
  Ir  Ir20  1  0.492089  0.363290  0.000000  1
  Ir  Ir21  1  0.867758  0.506908  0.000000  1
  Ir  Ir22  1  0.646499  0.139327  0.000000  1
  Ir  Ir23  1  0.000000  0.278908  0.000000  1
  Ir  Ir24  1  0.712543  0.718286  0.000000  1
  Ir  Ir25  1  0.287457  0.005743  0.000000  1
  Ir  Ir26  1  0.621809  0.806525  0.500000  1
  Ir  Ir27  1  0.214472  0.831425  0.500000  1
  Ir  Ir28  1  0.178971  0.368150  0.500000  1
  Ir  Ir29  1  0.378191  0.184716  0.500000  1
  Ir  Ir30  1  0.785528  0.616953  0.500000  1
  Ir  Ir31  1  0.821029  0.189179  0.500000  1
  Ir  Ir32  1  0.000000  0.994998  0.500000  1
  Rh  Rh33  1  0.000000  0.443885  0.500000  1
  Rh  Rh34  1  0.531907  0.542673  0.500000  1
  Rh  Rh35  1  0.468093  0.010766  0.500000  1
