# generated using pymatgen
data_Sr8Cd(Si4Ni)3
_symmetry_space_group_name_H-M   'P 1'
_cell_length_a   11.79920130
_cell_length_b   10.23381271
_cell_length_c   8.30400300
_cell_angle_alpha   78.28913774
_cell_angle_beta   58.03903754
_cell_angle_gamma   43.65298250
_symmetry_Int_Tables_number   1
_chemical_formula_structural   Sr8Cd(Si4Ni)3
_chemical_formula_sum   'Sr8 Cd1 Si12 Ni3'
_cell_volume   558.80506338
_cell_formula_units_Z   1
loop_
 _symmetry_equiv_pos_site_id
 _symmetry_equiv_pos_as_xyz
  1  'x, y, z'
loop_
 _atom_site_type_symbol
 _atom_site_label
 _atom_site_symmetry_multiplicity
 _atom_site_fract_x
 _atom_site_fract_y
 _atom_site_fract_z
 _atom_site_occupancy
  Sr  Sr0  1  0.124253  0.117870  0.382915  1
  Sr  Sr1  1  0.870322  0.884654  0.125838  1
  Sr  Sr2  1  0.126459  0.119336  0.869513  1
  Sr  Sr3  1  0.382322  0.373822  0.125234  1
  Sr  Sr4  1  0.613408  0.629419  0.383350  1
  Sr  Sr5  1  0.383280  0.373661  0.613784  1
  Sr  Sr6  1  0.622479  0.623165  0.876809  1
  Sr  Sr7  1  0.877130  0.878273  0.621929  1
  Cd  Cd8  1  0.083491  0.416203  0.083769  1
  Si  Si9  1  0.325935  0.669416  0.846256  1
  Si  Si10  1  0.155415  0.840364  0.674209  1
  Si  Si11  1  0.844682  0.159387  0.326315  1
  Si  Si12  1  0.673714  0.329603  0.155022  1
  Si  Si13  1  0.905851  0.593737  0.437351  1
  Si  Si14  1  0.097795  0.404736  0.575719  1
  Si  Si15  1  0.438350  0.062638  0.905189  1
  Si  Si16  1  0.906685  0.594080  0.906030  1
  Si  Si17  1  0.670881  0.329144  0.672163  1
  Si  Si18  1  0.328827  0.670532  0.328495  1
  Si  Si19  1  0.576770  0.923780  0.575803  1
  Si  Si20  1  0.575595  0.922126  0.098384  1
  Ni  Ni21  1  0.166546  0.833843  0.166177  1
  Ni  Ni22  1  0.416520  0.083356  0.415907  1
  Ni  Ni23  1  0.833288  0.166854  0.833837  1
