# generated using pymatgen
data_Cs3Ga3As4
_symmetry_space_group_name_H-M   'P 1'
_cell_length_a   6.82175100
_cell_length_b   11.12615300
_cell_length_c   16.68829400
_cell_angle_alpha   90.00000000
_cell_angle_beta   90.00000000
_cell_angle_gamma   90.00000000
_symmetry_Int_Tables_number   1
_chemical_formula_structural   Cs3Ga3As4
_chemical_formula_sum   'Cs12 Ga12 As16'
_cell_volume   1266.63893382
_cell_formula_units_Z   4
loop_
 _symmetry_equiv_pos_site_id
 _symmetry_equiv_pos_as_xyz
  1  'x, y, z'
loop_
 _atom_site_type_symbol
 _atom_site_label
 _atom_site_symmetry_multiplicity
 _atom_site_fract_x
 _atom_site_fract_y
 _atom_site_fract_z
 _atom_site_occupancy
  Cs  Cs0  1  0.061987  0.382017  0.593585  1
  Cs  Cs1  1  0.061987  0.117983  0.906415  1
  Cs  Cs2  1  0.561987  0.882017  0.906415  1
  Cs  Cs3  1  0.750000  0.080576  0.500000  1
  Cs  Cs4  1  0.938013  0.882017  0.093585  1
  Cs  Cs5  1  0.561987  0.617983  0.593585  1
  Cs  Cs6  1  0.938013  0.617983  0.406415  1
  Cs  Cs7  1  0.250000  0.580576  0.000000  1
  Cs  Cs8  1  0.750000  0.419424  0.000000  1
  Cs  Cs9  1  0.438013  0.382017  0.406415  1
  Cs  Cs10  1  0.438013  0.117983  0.093585  1
  Cs  Cs11  1  0.250000  0.919424  0.500000  1
  Ga  Ga12  1  0.402981  0.110810  0.720826  1
  Ga  Ga13  1  0.902981  0.610810  0.779174  1
  Ga  Ga14  1  0.097019  0.389190  0.220826  1
  Ga  Ga15  1  0.402981  0.389190  0.779174  1
  Ga  Ga16  1  0.310649  0.750000  0.750000  1
  Ga  Ga17  1  0.810649  0.250000  0.750000  1
  Ga  Ga18  1  0.597019  0.889190  0.279174  1
  Ga  Ga19  1  0.902981  0.889190  0.720826  1
  Ga  Ga20  1  0.189351  0.750000  0.250000  1
  Ga  Ga21  1  0.689351  0.250000  0.250000  1
  Ga  Ga22  1  0.597019  0.610810  0.220826  1
  Ga  Ga23  1  0.097019  0.110810  0.279174  1
  As  As24  1  0.041311  0.092751  0.685366  1
  As  As25  1  0.043321  0.798066  0.852215  1
  As  As26  1  0.456679  0.798066  0.147785  1
  As  As27  1  0.458689  0.407249  0.185366  1
  As  As28  1  0.541311  0.592751  0.814634  1
  As  As29  1  0.541311  0.907249  0.685366  1
  As  As30  1  0.043321  0.701934  0.647785  1
  As  As31  1  0.041311  0.407249  0.814634  1
  As  As32  1  0.956679  0.201934  0.147785  1
  As  As33  1  0.543321  0.201934  0.852215  1
  As  As34  1  0.958689  0.907249  0.314634  1
  As  As35  1  0.458689  0.092751  0.314634  1
  As  As36  1  0.956679  0.298066  0.352215  1
  As  As37  1  0.543321  0.298066  0.647785  1
  As  As38  1  0.456679  0.701934  0.352215  1
  As  As39  1  0.958689  0.592751  0.185366  1
