# generated using pymatgen
data_ThZnCdPt3
_symmetry_space_group_name_H-M   'P 1'
_cell_length_a   5.54082644
_cell_length_b   5.54082701
_cell_length_c   5.30995330
_cell_angle_alpha   58.55096705
_cell_angle_beta   58.55096644
_cell_angle_gamma   59.99999376
_symmetry_Int_Tables_number   1
_chemical_formula_structural   ThZnCdPt3
_chemical_formula_sum   'Th1 Zn1 Cd1 Pt3'
_cell_volume   112.68268835
_cell_formula_units_Z   1
loop_
 _symmetry_equiv_pos_site_id
 _symmetry_equiv_pos_as_xyz
  1  'x, y, z'
loop_
 _atom_site_type_symbol
 _atom_site_label
 _atom_site_symmetry_multiplicity
 _atom_site_fract_x
 _atom_site_fract_y
 _atom_site_fract_z
 _atom_site_occupancy
  Th  Th0  1  0.246942  0.246942  0.259175  1
  Zn  Zn1  1  0.627451  0.627451  0.117645  1
  Cd  Cd2  1  0.995283  0.995283  0.014150  1
  Pt  Pt3  1  0.627808  0.124707  0.619676  1
  Pt  Pt4  1  0.124707  0.627808  0.619676  1
  Pt  Pt5  1  0.627808  0.627808  0.619676  1
