# generated using pymatgen
data_Y2U3P12Ru19
_symmetry_space_group_name_H-M   'P 1'
_cell_length_a   12.58949800
_cell_length_b   12.58949879
_cell_length_c   3.92917300
_cell_angle_alpha   90.00000000
_cell_angle_beta   90.00000000
_cell_angle_gamma   119.99999793
_symmetry_Int_Tables_number   1
_chemical_formula_structural   Y2U3P12Ru19
_chemical_formula_sum   'Y2 U3 P12 Ru19'
_cell_volume   539.32263212
_cell_formula_units_Z   1
loop_
 _symmetry_equiv_pos_site_id
 _symmetry_equiv_pos_as_xyz
  1  'x, y, z'
loop_
 _atom_site_type_symbol
 _atom_site_label
 _atom_site_symmetry_multiplicity
 _atom_site_fract_x
 _atom_site_fract_y
 _atom_site_fract_z
 _atom_site_occupancy
  Y  Y0  1  0.666667  0.333333  0.000000  1
  Y  Y1  1  0.333333  0.666667  0.000000  1
  U  U2  1  0.000000  0.186698  0.500000  1
  U  U3  1  0.813302  0.813302  0.500000  1
  U  U4  1  0.186698  0.000000  0.500000  1
  P  P5  1  0.000000  0.817757  0.000000  1
  P  P6  1  0.182243  0.182243  0.000000  1
  P  P7  1  0.817757  0.000000  0.000000  1
  P  P8  1  0.691474  0.171070  0.500000  1
  P  P9  1  0.828930  0.520405  0.500000  1
  P  P10  1  0.479595  0.308526  0.500000  1
  P  P11  1  0.171070  0.691474  0.500000  1
  P  P12  1  0.520405  0.828930  0.500000  1
  P  P13  1  0.308526  0.479595  0.500000  1
  P  P14  1  0.000000  0.374626  0.000000  1
  P  P15  1  0.625374  0.625374  0.000000  1
  P  P16  1  0.374626  0.000000  0.000000  1
  Ru  Ru17  1  0.000000  0.556588  0.000000  1
  Ru  Ru18  1  0.443412  0.443412  0.000000  1
  Ru  Ru19  1  0.556588  0.000000  0.000000  1
  Ru  Ru20  1  0.000000  0.718086  0.500000  1
  Ru  Ru21  1  0.281914  0.281914  0.500000  1
  Ru  Ru22  1  0.718086  0.000000  0.500000  1
  Ru  Ru23  1  0.813784  0.183166  0.000000  1
  Ru  Ru24  1  0.816834  0.630618  0.000000  1
  Ru  Ru25  1  0.369382  0.186216  0.000000  1
  Ru  Ru26  1  0.183166  0.813784  0.000000  1
  Ru  Ru27  1  0.630618  0.816834  0.000000  1
  Ru  Ru28  1  0.186216  0.369382  0.000000  1
  Ru  Ru29  1  0.873582  0.364107  0.500000  1
  Ru  Ru30  1  0.635893  0.509475  0.500000  1
  Ru  Ru31  1  0.490525  0.126418  0.500000  1
  Ru  Ru32  1  0.364107  0.873582  0.500000  1
  Ru  Ru33  1  0.509475  0.635893  0.500000  1
  Ru  Ru34  1  0.126418  0.490525  0.500000  1
  Ru  Ru35  1  0.000000  0.000000  0.000000  1
