# generated using pymatgen
data_Pr2Al9IrPt2
_symmetry_space_group_name_H-M   'P 1'
_cell_length_a   7.66570895
_cell_length_b   7.66570753
_cell_length_c   9.61601900
_cell_angle_alpha   90.00000000
_cell_angle_beta   90.00000000
_cell_angle_gamma   119.55455486
_symmetry_Int_Tables_number   1
_chemical_formula_structural   Pr2Al9IrPt2
_chemical_formula_sum   'Pr4 Al18 Ir2 Pt4'
_cell_volume   491.54404905
_cell_formula_units_Z   2
loop_
 _symmetry_equiv_pos_site_id
 _symmetry_equiv_pos_as_xyz
  1  'x, y, z'
loop_
 _atom_site_type_symbol
 _atom_site_label
 _atom_site_symmetry_multiplicity
 _atom_site_fract_x
 _atom_site_fract_y
 _atom_site_fract_z
 _atom_site_occupancy
  Pr  Pr0  1  0.993863  0.667566  0.250000  1
  Pr  Pr1  1  0.006137  0.332434  0.750000  1
  Pr  Pr2  1  0.667566  0.993863  0.250000  1
  Pr  Pr3  1  0.332434  0.006137  0.750000  1
  Al  Al4  1  0.129673  0.129673  0.250000  1
  Al  Al5  1  0.870327  0.870327  0.750000  1
  Al  Al6  1  0.001698  0.331099  0.073430  1
  Al  Al7  1  0.998302  0.668901  0.926570  1
  Al  Al8  1  0.998302  0.668901  0.573430  1
  Al  Al9  1  0.331099  0.001698  0.426570  1
  Al  Al10  1  0.001698  0.331099  0.426570  1
  Al  Al11  1  0.668901  0.998302  0.573430  1
  Al  Al12  1  0.668901  0.998302  0.926570  1
  Al  Al13  1  0.331099  0.001698  0.073430  1
  Al  Al14  1  0.331646  0.331646  0.550923  1
  Al  Al15  1  0.668354  0.668354  0.449077  1
  Al  Al16  1  0.668354  0.668354  0.050923  1
  Al  Al17  1  0.331646  0.331646  0.949077  1
  Al  Al18  1  0.340404  0.544262  0.250000  1
  Al  Al19  1  0.659596  0.455738  0.750000  1
  Al  Al20  1  0.544262  0.340404  0.250000  1
  Al  Al21  1  0.455738  0.659596  0.750000  1
  Ir  Ir22  1  0.000000  0.000000  0.000000  1
  Ir  Ir23  1  0.000000  0.000000  0.500000  1
  Pt  Pt24  1  0.671050  0.328950  0.000000  1
  Pt  Pt25  1  0.328950  0.671050  0.000000  1
  Pt  Pt26  1  0.328950  0.671050  0.500000  1
  Pt  Pt27  1  0.671050  0.328950  0.500000  1
