# generated using pymatgen
data_Ti8CuPt3O2
_symmetry_space_group_name_H-M   'P 1'
_cell_length_a   8.25425445
_cell_length_b   8.25425475
_cell_length_c   8.22114600
_cell_angle_alpha   60.13259007
_cell_angle_beta   60.13258891
_cell_angle_gamma   60.42607691
_symmetry_Int_Tables_number   1
_chemical_formula_structural   Ti8CuPt3O2
_chemical_formula_sum   'Ti16 Cu2 Pt6 O4'
_cell_volume   398.13022022
_cell_formula_units_Z   2
loop_
 _symmetry_equiv_pos_site_id
 _symmetry_equiv_pos_as_xyz
  1  'x, y, z'
loop_
 _atom_site_type_symbol
 _atom_site_label
 _atom_site_symmetry_multiplicity
 _atom_site_fract_x
 _atom_site_fract_y
 _atom_site_fract_z
 _atom_site_occupancy
  Ti  Ti0  1  0.820056  0.187876  0.818849  1
  Ti  Ti1  1  0.182599  0.817079  0.182377  1
  Ti  Ti2  1  0.432921  0.067401  0.432055  1
  Ti  Ti3  1  0.432921  0.067401  0.067623  1
  Ti  Ti4  1  0.062124  0.429944  0.431151  1
  Ti  Ti5  1  0.062124  0.429944  0.076782  1
  Ti  Ti6  1  0.174008  0.184612  0.820690  1
  Ti  Ti7  1  0.431750  0.432732  0.067759  1
  Ti  Ti8  1  0.126025  0.619823  0.627076  1
  Ti  Ti9  1  0.630903  0.619097  0.125000  1
  Ti  Ti10  1  0.630903  0.619097  0.625000  1
  Ti  Ti11  1  0.630177  0.123975  0.622924  1
  Ti  Ti12  1  0.182599  0.817079  0.817945  1
  Ti  Ti13  1  0.820056  0.187876  0.173218  1
  Ti  Ti14  1  0.065388  0.075992  0.429310  1
  Ti  Ti15  1  0.817268  0.818250  0.182241  1
  Cu  Cu16  1  0.836379  0.492007  0.835807  1
  Cu  Cu17  1  0.757993  0.413621  0.414193  1
  Pt  Pt18  1  0.412698  0.769773  0.408765  1
  Pt  Pt19  1  0.844268  0.838432  0.475566  1
  Pt  Pt20  1  0.844268  0.838432  0.841734  1
  Pt  Pt21  1  0.480227  0.837302  0.841235  1
  Pt  Pt22  1  0.411568  0.405732  0.408266  1
  Pt  Pt23  1  0.411568  0.405732  0.774434  1
  O  O24  1  0.123570  0.126430  0.625000  1
  O  O25  1  0.627533  0.125465  0.123501  1
  O  O26  1  0.123570  0.126430  0.125000  1
  O  O27  1  0.124535  0.622467  0.126499  1
