# generated using pymatgen
data_AcCoB2Os
_symmetry_space_group_name_H-M   'P 1'
_cell_length_a   5.94782701
_cell_length_b   5.94782711
_cell_length_c   5.94782655
_cell_angle_alpha   142.28425714
_cell_angle_beta   142.28427502
_cell_angle_gamma   54.40083651
_symmetry_Int_Tables_number   1
_chemical_formula_structural   AcCoB2Os
_chemical_formula_sum   'Ac1 Co1 B2 Os1'
_cell_volume   78.20584978
_cell_formula_units_Z   1
loop_
 _symmetry_equiv_pos_site_id
 _symmetry_equiv_pos_as_xyz
  1  'x, y, z'
loop_
 _atom_site_type_symbol
 _atom_site_label
 _atom_site_symmetry_multiplicity
 _atom_site_fract_x
 _atom_site_fract_y
 _atom_site_fract_z
 _atom_site_occupancy
  Ac  Ac0  1  0.000000  0.000000  0.000000  1
  Co  Co1  1  0.250000  0.750000  0.500000  1
  B  B2  1  0.675856  0.675856  0.000000  1
  B  B3  1  0.324144  0.324144  0.000000  1
  Os  Os4  1  0.750000  0.250000  0.500000  1
