# generated using pymatgen
data_Tb6YEr13Sn16
_symmetry_space_group_name_H-M   'P 1'
_cell_length_a   8.00801527
_cell_length_b   8.14701259
_cell_length_c   15.39477001
_cell_angle_alpha   90.00997402
_cell_angle_beta   90.04426264
_cell_angle_gamma   89.96273783
_symmetry_Int_Tables_number   1
_chemical_formula_structural   Tb6YEr13Sn16
_chemical_formula_sum   'Tb6 Y1 Er13 Sn16'
_cell_volume   1004.37583948
_cell_formula_units_Z   1
loop_
 _symmetry_equiv_pos_site_id
 _symmetry_equiv_pos_as_xyz
  1  'x, y, z'
loop_
 _atom_site_type_symbol
 _atom_site_label
 _atom_site_symmetry_multiplicity
 _atom_site_fract_x
 _atom_site_fract_y
 _atom_site_fract_z
 _atom_site_occupancy
  Tb  Tb0  1  0.479583  0.679951  0.402588  1
  Tb  Tb1  1  0.979448  0.820120  0.097375  1
  Tb  Tb2  1  0.479398  0.679789  0.097323  1
  Tb  Tb3  1  0.979580  0.820053  0.402617  1
  Tb  Tb4  1  0.520284  0.320086  0.597280  1
  Tb  Tb5  1  0.020439  0.180109  0.902623  1
  Y  Y6  1  0.020479  0.180019  0.597633  1
  Er  Er7  1  0.367435  0.836038  0.877814  1
  Er  Er8  1  0.867269  0.663937  0.622285  1
  Er  Er9  1  0.632686  0.164056  0.377801  1
  Er  Er10  1  0.132390  0.335979  0.122074  1
  Er  Er11  1  0.632407  0.164179  0.121994  1
  Er  Er12  1  0.132732  0.335988  0.377779  1
  Er  Er13  1  0.367346  0.836133  0.622358  1
  Er  Er14  1  0.867398  0.663850  0.877847  1
  Er  Er15  1  0.520979  0.320110  0.902346  1
  Er  Er16  1  0.198188  0.503231  0.750251  1
  Er  Er17  1  0.697860  0.996748  0.750172  1
  Er  Er18  1  0.801949  0.496536  0.249940  1
  Er  Er19  1  0.301975  0.003438  0.249893  1
  Sn  Sn20  1  0.293807  0.036273  0.041793  1
  Sn  Sn21  1  0.793876  0.463722  0.458201  1
  Sn  Sn22  1  0.706247  0.963837  0.541887  1
  Sn  Sn23  1  0.207619  0.535234  0.957924  1
  Sn  Sn24  1  0.705797  0.964419  0.958020  1
  Sn  Sn25  1  0.205995  0.536309  0.541837  1
  Sn  Sn26  1  0.293727  0.036310  0.458278  1
  Sn  Sn27  1  0.792879  0.463265  0.041337  1
  Sn  Sn28  1  0.564632  0.619956  0.750064  1
  Sn  Sn29  1  0.064673  0.879638  0.750067  1
  Sn  Sn30  1  0.435269  0.379664  0.249924  1
  Sn  Sn31  1  0.935250  0.120470  0.249985  1
  Sn  Sn32  1  0.329607  0.146975  0.750567  1
  Sn  Sn33  1  0.828502  0.353554  0.750166  1
  Sn  Sn34  1  0.671155  0.853695  0.249953  1
  Sn  Sn35  1  0.171142  0.646326  0.250005  1
