# generated using pymatgen
data_CsRb5Te6
_symmetry_space_group_name_H-M   'P 1'
_cell_length_a   10.29435200
_cell_length_b   10.30633462
_cell_length_c   6.42936900
_cell_angle_alpha   90.00000000
_cell_angle_beta   90.00000000
_cell_angle_gamma   119.96154744
_symmetry_Int_Tables_number   1
_chemical_formula_structural   CsRb5Te6
_chemical_formula_sum   'Cs1 Rb5 Te6'
_cell_volume   590.97673404
_cell_formula_units_Z   1
loop_
 _symmetry_equiv_pos_site_id
 _symmetry_equiv_pos_as_xyz
  1  'x, y, z'
loop_
 _atom_site_type_symbol
 _atom_site_label
 _atom_site_symmetry_multiplicity
 _atom_site_fract_x
 _atom_site_fract_y
 _atom_site_fract_z
 _atom_site_occupancy
  Cs  Cs0  1  0.659220  0.000000  0.000000  1
  Rb  Rb1  1  0.340396  0.340606  0.000000  1
  Rb  Rb2  1  0.999790  0.659394  0.000000  1
  Rb  Rb3  1  0.329819  0.000000  0.500000  1
  Rb  Rb4  1  0.674114  0.677243  0.500000  1
  Rb  Rb5  1  0.996871  0.322757  0.500000  1
  Te  Te6  1  0.006634  0.000000  0.222430  1
  Te  Te7  1  0.006634  0.000000  0.777570  1
  Te  Te8  1  0.326449  0.659639  0.277483  1
  Te  Te9  1  0.326449  0.659639  0.722517  1
  Te  Te10  1  0.666811  0.340361  0.722517  1
  Te  Te11  1  0.666811  0.340361  0.277483  1
