# generated using pymatgen
data_Dy2Cr3Fe9P7
_symmetry_space_group_name_H-M   'P 1'
_cell_length_a   9.03689851
_cell_length_b   9.03784951
_cell_length_c   3.62878100
_cell_angle_alpha   90.00000000
_cell_angle_beta   90.00000000
_cell_angle_gamma   119.86242634
_symmetry_Int_Tables_number   1
_chemical_formula_structural   Dy2Cr3Fe9P7
_chemical_formula_sum   'Dy2 Cr3 Fe9 P7'
_cell_volume   257.02554481
_cell_formula_units_Z   1
loop_
 _symmetry_equiv_pos_site_id
 _symmetry_equiv_pos_as_xyz
  1  'x, y, z'
loop_
 _atom_site_type_symbol
 _atom_site_label
 _atom_site_symmetry_multiplicity
 _atom_site_fract_x
 _atom_site_fract_y
 _atom_site_fract_z
 _atom_site_occupancy
  Dy  Dy0  1  0.333269  0.666677  0.000000  1
  Dy  Dy1  1  0.666903  0.333443  0.500001  1
  Cr  Cr2  1  0.215705  0.100305  0.500001  1
  Cr  Cr3  1  0.899621  0.115315  0.500001  1
  Cr  Cr4  1  0.884654  0.784379  0.500001  1
  Fe  Fe5  1  0.155125  0.275284  0.000000  1
  Fe  Fe6  1  0.724766  0.879852  0.000000  1
  Fe  Fe7  1  0.119923  0.844946  0.000000  1
  Fe  Fe8  1  0.386448  0.433921  0.500001  1
  Fe  Fe9  1  0.566108  0.952423  0.500001  1
  Fe  Fe10  1  0.047543  0.613582  0.500001  1
  Fe  Fe11  1  0.427409  0.053745  0.000000  1
  Fe  Fe12  1  0.946221  0.373647  0.000000  1
  Fe  Fe13  1  0.626374  0.572575  0.000000  1
  P  P14  1  0.116408  0.404745  0.500001  1
  P  P15  1  0.595426  0.711995  0.500001  1
  P  P16  1  0.288140  0.883243  0.500001  1
  P  P17  1  0.999819  0.999995  0.000000  1
  P  P18  1  0.409661  0.296344  0.000000  1
  P  P19  1  0.703549  0.113248  0.000000  1
  P  P20  1  0.886927  0.590333  0.000000  1
