# generated using pymatgen
data_Ba5Ti2Cr3O14
_symmetry_space_group_name_H-M   'P 1'
_cell_length_a   5.86898771
_cell_length_b   5.86176043
_cell_length_c   12.16751448
_cell_angle_alpha   90.00000157
_cell_angle_beta   90.14961486
_cell_angle_gamma   119.95928507
_symmetry_Int_Tables_number   1
_chemical_formula_structural   Ba5Ti2Cr3O14
_chemical_formula_sum   'Ba5 Ti2 Cr3 O14'
_cell_volume   362.66014258
_cell_formula_units_Z   1
loop_
 _symmetry_equiv_pos_site_id
 _symmetry_equiv_pos_as_xyz
  1  'x, y, z'
loop_
 _atom_site_type_symbol
 _atom_site_label
 _atom_site_symmetry_multiplicity
 _atom_site_fract_x
 _atom_site_fract_y
 _atom_site_fract_z
 _atom_site_occupancy
  Ba  Ba0  1  0.000000  0.000000  0.000000  1
  Ba  Ba1  1  0.332811  0.666406  0.768158  1
  Ba  Ba2  1  0.667189  0.333594  0.231842  1
  Ba  Ba3  1  0.334739  0.667370  0.425460  1
  Ba  Ba4  1  0.665261  0.332630  0.574540  1
  Ti  Ti5  1  0.333584  0.666792  0.133487  1
  Ti  Ti6  1  0.666416  0.333208  0.866513  1
  Cr  Cr7  1  0.002890  0.001445  0.288103  1
  Cr  Cr8  1  0.997110  0.998555  0.711897  1
  Cr  Cr9  1  0.000000  0.000000  0.500000  1
  O  O10  1  0.333309  0.666654  0.988086  1
  O  O11  1  0.666691  0.333346  0.011914  1
  O  O12  1  0.670978  0.835490  0.191876  1
  O  O13  1  0.164380  0.835533  0.191143  1
  O  O14  1  0.164380  0.328848  0.191143  1
  O  O15  1  0.329022  0.164510  0.808124  1
  O  O16  1  0.835620  0.164467  0.808857  1
  O  O17  1  0.835620  0.671152  0.808857  1
  O  O18  1  0.699334  0.849667  0.602537  1
  O  O19  1  0.146941  0.849562  0.600925  1
  O  O20  1  0.146941  0.297380  0.600925  1
  O  O21  1  0.300666  0.150333  0.397463  1
  O  O22  1  0.853059  0.150438  0.399075  1
  O  O23  1  0.853059  0.702620  0.399075  1
