# generated using pymatgen
data_Cs16ThZrSb8
_symmetry_space_group_name_H-M   'P 1'
_cell_length_a   12.67743782
_cell_length_b   12.67742450
_cell_length_c   12.67744200
_cell_angle_alpha   59.99995433
_cell_angle_beta   59.99998909
_cell_angle_gamma   59.99994290
_symmetry_Int_Tables_number   1
_chemical_formula_structural   Cs16ThZrSb8
_chemical_formula_sum   'Cs16 Th1 Zr1 Sb8'
_cell_volume   1440.71733952
_cell_formula_units_Z   1
loop_
 _symmetry_equiv_pos_site_id
 _symmetry_equiv_pos_as_xyz
  1  'x, y, z'
loop_
 _atom_site_type_symbol
 _atom_site_label
 _atom_site_symmetry_multiplicity
 _atom_site_fract_x
 _atom_site_fract_y
 _atom_site_fract_z
 _atom_site_occupancy
  Cs  Cs0  1  0.624471  0.126587  0.624471  1
  Cs  Cs1  1  0.624471  0.624471  0.126587  1
  Cs  Cs2  1  0.126587  0.624471  0.624471  1
  Cs  Cs3  1  0.624471  0.624471  0.624471  1
  Cs  Cs4  1  0.025531  0.025531  0.474469  1
  Cs  Cs5  1  0.775171  0.224830  0.224829  1
  Cs  Cs6  1  0.224830  0.775170  0.775170  1
  Cs  Cs7  1  0.775171  0.775170  0.224830  1
  Cs  Cs8  1  0.775171  0.224830  0.775170  1
  Cs  Cs9  1  0.224830  0.775170  0.224830  1
  Cs  Cs10  1  0.474468  0.025531  0.474469  1
  Cs  Cs11  1  0.474468  0.025531  0.025532  1
  Cs  Cs12  1  0.025531  0.474469  0.474469  1
  Cs  Cs13  1  0.025531  0.474469  0.025531  1
  Cs  Cs14  1  0.224830  0.224830  0.775170  1
  Cs  Cs15  1  0.474468  0.474469  0.025531  1
  Th  Th16  1  0.750000  0.750000  0.750000  1
  Zr  Zr17  1  0.500000  0.500000  0.500000  1
  Sb  Sb18  1  0.405864  0.782410  0.405864  1
  Sb  Sb19  1  0.850797  0.850797  0.447608  1
  Sb  Sb20  1  0.447608  0.850797  0.850797  1
  Sb  Sb21  1  0.850797  0.850797  0.850797  1
  Sb  Sb22  1  0.782409  0.405864  0.405864  1
  Sb  Sb23  1  0.405864  0.405864  0.405864  1
  Sb  Sb24  1  0.405864  0.405864  0.782409  1
  Sb  Sb25  1  0.850797  0.447607  0.850797  1
