# generated using pymatgen
data_Nd6Mg4Pt13
_symmetry_space_group_name_H-M   'P 1'
_cell_length_a   8.48176747
_cell_length_b   8.48176764
_cell_length_c   8.48176800
_cell_angle_alpha   109.47122150
_cell_angle_beta   109.47122189
_cell_angle_gamma   109.47122236
_symmetry_Int_Tables_number   1
_chemical_formula_structural   Nd6Mg4Pt13
_chemical_formula_sum   'Nd6 Mg4 Pt13'
_cell_volume   469.71800792
_cell_formula_units_Z   1
loop_
 _symmetry_equiv_pos_site_id
 _symmetry_equiv_pos_as_xyz
  1  'x, y, z'
loop_
 _atom_site_type_symbol
 _atom_site_label
 _atom_site_symmetry_multiplicity
 _atom_site_fract_x
 _atom_site_fract_y
 _atom_site_fract_z
 _atom_site_occupancy
  Nd  Nd0  1  0.696603  0.696603  0.000000  1
  Nd  Nd1  1  0.303397  0.000000  0.303397  1
  Nd  Nd2  1  0.000000  0.303397  0.303397  1
  Nd  Nd3  1  0.303397  0.303397  0.000000  1
  Nd  Nd4  1  0.696603  0.000000  0.696603  1
  Nd  Nd5  1  0.000000  0.696603  0.696603  1
  Mg  Mg6  1  0.000000  0.000000  0.500000  1
  Mg  Mg7  1  0.000000  0.500000  0.000000  1
  Mg  Mg8  1  0.500000  0.000000  0.000000  1
  Mg  Mg9  1  0.500000  0.500000  0.500000  1
  Pt  Pt10  1  0.332076  0.332076  0.664153  1
  Pt  Pt11  1  0.667924  0.000000  0.332076  1
  Pt  Pt12  1  0.000000  0.667924  0.332076  1
  Pt  Pt13  1  0.667924  0.332076  0.000000  1
  Pt  Pt14  1  0.332076  0.664153  0.332076  1
  Pt  Pt15  1  0.000000  0.332076  0.667924  1
  Pt  Pt16  1  0.332076  0.667924  0.000000  1
  Pt  Pt17  1  0.332076  0.000000  0.667924  1
  Pt  Pt18  1  0.664153  0.332076  0.332076  1
  Pt  Pt19  1  0.667924  0.667924  0.335847  1
  Pt  Pt20  1  0.667924  0.335847  0.667924  1
  Pt  Pt21  1  0.335847  0.667924  0.667924  1
  Pt  Pt22  1  0.000000  0.000000  0.000000  1
