# generated using pymatgen
data_Y4Ga20Pt10Rh
_symmetry_space_group_name_H-M   'P 1'
_cell_length_a   4.17119837
_cell_length_b   10.96695029
_cell_length_c   13.72726679
_cell_angle_alpha   82.45467103
_cell_angle_beta   81.26113349
_cell_angle_gamma   79.03722374
_symmetry_Int_Tables_number   1
_chemical_formula_structural   Y4Ga20Pt10Rh
_chemical_formula_sum   'Y4 Ga20 Pt10 Rh1'
_cell_volume   605.93816817
_cell_formula_units_Z   1
loop_
 _symmetry_equiv_pos_site_id
 _symmetry_equiv_pos_as_xyz
  1  'x, y, z'
loop_
 _atom_site_type_symbol
 _atom_site_label
 _atom_site_symmetry_multiplicity
 _atom_site_fract_x
 _atom_site_fract_y
 _atom_site_fract_z
 _atom_site_occupancy
  Y  Y0  1  0.122515  0.089012  0.665958  1
  Y  Y1  1  0.878279  0.909134  0.334308  1
  Y  Y2  1  0.774405  0.629935  0.821256  1
  Y  Y3  1  0.224412  0.371278  0.179897  1
  Ga  Ga4  1  0.009040  0.069871  0.912049  1
  Ga  Ga5  1  0.991130  0.928997  0.088743  1
  Ga  Ga6  1  0.065048  0.671195  0.198711  1
  Ga  Ga7  1  0.934227  0.326061  0.805484  1
  Ga  Ga8  1  0.100979  0.346533  0.451508  1
  Ga  Ga9  1  0.900261  0.657931  0.541548  1
  Ga  Ga10  1  0.201840  0.604275  0.992045  1
  Ga  Ga11  1  0.797664  0.395945  0.008728  1
  Ga  Ga12  1  0.259403  0.781002  0.700192  1
  Ga  Ga13  1  0.740622  0.219605  0.299151  1
  Ga  Ga14  1  0.302878  0.899493  0.494750  1
  Ga  Ga15  1  0.697624  0.100175  0.504576  1
  Ga  Ga16  1  0.387212  0.524912  0.700664  1
  Ga  Ga17  1  0.610382  0.479171  0.300066  1
  Ga  Ga18  1  0.397323  0.203278  0.002076  1
  Ga  Ga19  1  0.602639  0.796770  0.997951  1
  Ga  Ga20  1  0.543128  0.284360  0.629384  1
  Ga  Ga21  1  0.459644  0.711543  0.369169  1
  Ga  Ga22  1  0.636786  0.934235  0.792193  1
  Ga  Ga23  1  0.362988  0.065862  0.208162  1
  Pt  Pt24  1  0.499624  0.500001  0.500751  1
  Pt  Pt25  1  0.972309  0.424770  0.630612  1
  Pt  Pt26  1  0.139352  0.833758  0.887537  1
  Pt  Pt27  1  0.861406  0.165532  0.111656  1
  Pt  Pt28  1  0.239733  0.128197  0.392334  1
  Pt  Pt29  1  0.759790  0.872113  0.608308  1
  Pt  Pt30  1  0.345479  0.416844  0.892198  1
  Pt  Pt31  1  0.654435  0.583991  0.107139  1
  Pt  Pt32  1  0.506082  0.169023  0.818814  1
  Pt  Pt33  1  0.494026  0.831140  0.180805  1
  Rh  Rh34  1  0.027331  0.574061  0.371277  1
