# generated using pymatgen
data_VPd7Au
_symmetry_space_group_name_H-M   'P 1'
_cell_length_a   6.26982954
_cell_length_b   6.26982967
_cell_length_c   6.26982968
_cell_angle_alpha   95.70487818
_cell_angle_beta   95.44111209
_cell_angle_gamma   143.68497368
_symmetry_Int_Tables_number   1
_chemical_formula_structural   VPd7Au
_chemical_formula_sum   'V1 Pd7 Au1'
_cell_volume   138.69754035
_cell_formula_units_Z   1
loop_
 _symmetry_equiv_pos_site_id
 _symmetry_equiv_pos_as_xyz
  1  'x, y, z'
loop_
 _atom_site_type_symbol
 _atom_site_label
 _atom_site_symmetry_multiplicity
 _atom_site_fract_x
 _atom_site_fract_y
 _atom_site_fract_z
 _atom_site_occupancy
  V  V0  1  0.991737  0.000000  0.991737  1
  Pd  Pd1  1  0.339256  0.339923  0.679179  1
  Pd  Pd2  1  0.659578  0.661653  0.321230  1
  Pd  Pd3  1  0.659578  0.338347  0.997925  1
  Pd  Pd4  1  0.339256  0.660077  0.999332  1
  Pd  Pd5  1  0.001740  0.325660  0.327400  1
  Pd  Pd6  1  0.001740  0.674340  0.676080  1
  Pd  Pd7  1  0.674741  0.000000  0.674741  1
  Au  Au8  1  0.332377  0.000000  0.332377  1
