# generated using pymatgen
data_Ho2Tm8Bi5Sb
_symmetry_space_group_name_H-M   'P 1'
_cell_length_a   8.14023000
_cell_length_b   9.41372200
_cell_length_c   11.88172900
_cell_angle_alpha   90.00000000
_cell_angle_beta   90.00000000
_cell_angle_gamma   90.00000000
_symmetry_Int_Tables_number   1
_chemical_formula_structural   Ho2Tm8Bi5Sb
_chemical_formula_sum   'Ho4 Tm16 Bi10 Sb2'
_cell_volume   910.49525640
_cell_formula_units_Z   2
loop_
 _symmetry_equiv_pos_site_id
 _symmetry_equiv_pos_as_xyz
  1  'x, y, z'
loop_
 _atom_site_type_symbol
 _atom_site_label
 _atom_site_symmetry_multiplicity
 _atom_site_fract_x
 _atom_site_fract_y
 _atom_site_fract_z
 _atom_site_occupancy
  Ho  Ho0  1  0.313832  0.250000  0.218036  1
  Ho  Ho1  1  0.813832  0.250000  0.281964  1
  Ho  Ho2  1  0.684002  0.750000  0.782701  1
  Ho  Ho3  1  0.184002  0.750000  0.717299  1
  Tm  Tm4  1  0.354084  0.750000  0.214829  1
  Tm  Tm5  1  0.854084  0.750000  0.285171  1
  Tm  Tm6  1  0.646808  0.250000  0.782314  1
  Tm  Tm7  1  0.146808  0.250000  0.717686  1
  Tm  Tm8  1  0.689581  0.567682  0.058634  1
  Tm  Tm9  1  0.189581  0.932318  0.441366  1
  Tm  Tm10  1  0.308964  0.062192  0.940575  1
  Tm  Tm11  1  0.808964  0.437808  0.559425  1
  Tm  Tm12  1  0.308964  0.437808  0.940575  1
  Tm  Tm13  1  0.808964  0.062192  0.559425  1
  Tm  Tm14  1  0.689581  0.932318  0.058634  1
  Tm  Tm15  1  0.189581  0.567682  0.441366  1
  Tm  Tm16  1  0.477191  0.250000  0.489213  1
  Tm  Tm17  1  0.977191  0.250000  0.010787  1
  Tm  Tm18  1  0.526781  0.750000  0.511162  1
  Tm  Tm19  1  0.026781  0.750000  0.988838  1
  Bi  Bi20  1  0.595895  0.250000  0.041714  1
  Bi  Bi21  1  0.095895  0.250000  0.458286  1
  Bi  Bi22  1  0.566079  0.995471  0.325933  1
  Bi  Bi23  1  0.066079  0.504529  0.174067  1
  Bi  Bi24  1  0.433655  0.495549  0.674050  1
  Bi  Bi25  1  0.933655  0.004451  0.825950  1
  Bi  Bi26  1  0.433655  0.004451  0.674050  1
  Bi  Bi27  1  0.933655  0.495549  0.825950  1
  Bi  Bi28  1  0.566079  0.504529  0.325933  1
  Bi  Bi29  1  0.066079  0.995471  0.174067  1
  Sb  Sb30  1  0.404846  0.750000  0.959265  1
  Sb  Sb31  1  0.904846  0.750000  0.540735  1
