# generated using pymatgen
data_Er2Si2IrRh
_symmetry_space_group_name_H-M   'P 1'
_cell_length_a   4.21910400
_cell_length_b   6.80868600
_cell_length_c   7.43651700
_cell_angle_alpha   90.00000000
_cell_angle_beta   90.00000000
_cell_angle_gamma   90.00000000
_symmetry_Int_Tables_number   1
_chemical_formula_structural   Er2Si2IrRh
_chemical_formula_sum   'Er4 Si4 Ir2 Rh2'
_cell_volume   213.62550968
_cell_formula_units_Z   2
loop_
 _symmetry_equiv_pos_site_id
 _symmetry_equiv_pos_as_xyz
  1  'x, y, z'
loop_
 _atom_site_type_symbol
 _atom_site_label
 _atom_site_symmetry_multiplicity
 _atom_site_fract_x
 _atom_site_fract_y
 _atom_site_fract_z
 _atom_site_occupancy
  Er  Er0  1  0.750000  0.502060  0.810713  1
  Er  Er1  1  0.250000  0.996586  0.310773  1
  Er  Er2  1  0.750000  0.002060  0.689287  1
  Er  Er3  1  0.250000  0.496586  0.189227  1
  Si  Si4  1  0.250000  0.704021  0.607031  1
  Si  Si5  1  0.250000  0.204021  0.892969  1
  Si  Si6  1  0.750000  0.295282  0.389245  1
  Si  Si7  1  0.750000  0.795282  0.110755  1
  Ir  Ir8  1  0.750000  0.657589  0.434084  1
  Ir  Ir9  1  0.750000  0.157589  0.065916  1
  Rh  Rh10  1  0.250000  0.844462  0.933721  1
  Rh  Rh11  1  0.250000  0.344462  0.566279  1
