# generated using pymatgen
data_Ta(NbRu2)5
_symmetry_space_group_name_H-M   'P 1'
_cell_length_a   4.33846900
_cell_length_b   5.45971004
_cell_length_c   10.56612207
_cell_angle_alpha   89.98675205
_cell_angle_beta   90.00000000
_cell_angle_gamma   90.00000000
_symmetry_Int_Tables_number   1
_chemical_formula_structural   Ta(NbRu2)5
_chemical_formula_sum   'Ta1 Nb5 Ru10'
_cell_volume   250.27743122
_cell_formula_units_Z   1
loop_
 _symmetry_equiv_pos_site_id
 _symmetry_equiv_pos_as_xyz
  1  'x, y, z'
loop_
 _atom_site_type_symbol
 _atom_site_label
 _atom_site_symmetry_multiplicity
 _atom_site_fract_x
 _atom_site_fract_y
 _atom_site_fract_z
 _atom_site_occupancy
  Ta  Ta0  1  0.000000  0.500000  0.500000  1
  Nb  Nb1  1  0.000000  0.000000  0.000000  1
  Nb  Nb2  1  0.500000  0.851475  0.356348  1
  Nb  Nb3  1  0.500000  0.148525  0.643652  1
  Nb  Nb4  1  0.500000  0.351820  0.143653  1
  Nb  Nb5  1  0.500000  0.648180  0.856347  1
  Ru  Ru6  1  0.000000  0.500000  0.000000  1
  Ru  Ru7  1  0.000000  0.000000  0.500000  1
  Ru  Ru8  1  0.000000  0.627355  0.262723  1
  Ru  Ru9  1  0.000000  0.372645  0.737277  1
  Ru  Ru10  1  0.000000  0.127514  0.237398  1
  Ru  Ru11  1  0.000000  0.872486  0.762602  1
  Ru  Ru12  1  0.500000  0.825991  0.107565  1
  Ru  Ru13  1  0.500000  0.174009  0.892435  1
  Ru  Ru14  1  0.500000  0.326105  0.392348  1
  Ru  Ru15  1  0.500000  0.673895  0.607652  1
