# generated using pymatgen
data_Hf(TiTc6)4
_symmetry_space_group_name_H-M   'P 1'
_cell_length_a   8.32087133
_cell_length_b   8.32087138
_cell_length_c   8.32087100
_cell_angle_alpha   109.47121484
_cell_angle_beta   109.47121496
_cell_angle_gamma   109.47122964
_symmetry_Int_Tables_number   1
_chemical_formula_structural   Hf(TiTc6)4
_chemical_formula_sum   'Hf1 Ti4 Tc24'
_cell_volume   443.49070999
_cell_formula_units_Z   1
loop_
 _symmetry_equiv_pos_site_id
 _symmetry_equiv_pos_as_xyz
  1  'x, y, z'
loop_
 _atom_site_type_symbol
 _atom_site_label
 _atom_site_symmetry_multiplicity
 _atom_site_fract_x
 _atom_site_fract_y
 _atom_site_fract_z
 _atom_site_occupancy
  Hf  Hf0  1  0.000000  0.000000  0.000000  1
  Ti  Ti1  1  0.626605  0.000000  0.000000  1
  Ti  Ti2  1  0.000000  0.626605  0.000000  1
  Ti  Ti3  1  0.000000  0.000000  0.626605  1
  Ti  Ti4  1  0.373395  0.373395  0.373395  1
  Tc  Tc5  1  0.397859  0.680007  0.000000  1
  Tc  Tc6  1  0.717850  0.319993  0.319993  1
  Tc  Tc7  1  0.397859  0.000000  0.680007  1
  Tc  Tc8  1  0.680007  0.397859  0.000000  1
  Tc  Tc9  1  0.000000  0.397859  0.680007  1
  Tc  Tc10  1  0.319993  0.717850  0.319993  1
  Tc  Tc11  1  0.319993  0.319993  0.717850  1
  Tc  Tc12  1  0.000000  0.680007  0.397859  1
  Tc  Tc13  1  0.680007  0.000000  0.397859  1
  Tc  Tc14  1  0.602141  0.602141  0.282150  1
  Tc  Tc15  1  0.282150  0.602141  0.602141  1
  Tc  Tc16  1  0.602141  0.282150  0.602141  1
  Tc  Tc17  1  0.374880  0.194143  0.000000  1
  Tc  Tc18  1  0.180737  0.805857  0.805857  1
  Tc  Tc19  1  0.374880  0.000000  0.194143  1
  Tc  Tc20  1  0.194143  0.374880  0.000000  1
  Tc  Tc21  1  0.000000  0.374880  0.194143  1
  Tc  Tc22  1  0.805857  0.180737  0.805857  1
  Tc  Tc23  1  0.805857  0.805857  0.180737  1
  Tc  Tc24  1  0.000000  0.194143  0.374880  1
  Tc  Tc25  1  0.194143  0.000000  0.374880  1
  Tc  Tc26  1  0.625120  0.625120  0.819263  1
  Tc  Tc27  1  0.819263  0.625120  0.625120  1
  Tc  Tc28  1  0.625120  0.819263  0.625120  1
