# generated using pymatgen
data_Tb(BOs)4
_symmetry_space_group_name_H-M   'P 1'
_cell_length_a   4.01326700
_cell_length_b   7.55658100
_cell_length_c   7.55658100
_cell_angle_alpha   90.00000000
_cell_angle_beta   90.00000000
_cell_angle_gamma   90.00000000
_symmetry_Int_Tables_number   1
_chemical_formula_structural   Tb(BOs)4
_chemical_formula_sum   'Tb2 B8 Os8'
_cell_volume   229.16523676
_cell_formula_units_Z   2
loop_
 _symmetry_equiv_pos_site_id
 _symmetry_equiv_pos_as_xyz
  1  'x, y, z'
loop_
 _atom_site_type_symbol
 _atom_site_label
 _atom_site_symmetry_multiplicity
 _atom_site_fract_x
 _atom_site_fract_y
 _atom_site_fract_z
 _atom_site_occupancy
  Tb  Tb0  1  0.250000  0.250000  0.250000  1
  Tb  Tb1  1  0.750000  0.750000  0.750000  1
  B  B2  1  0.361846  0.914226  0.031093  1
  B  B3  1  0.361846  0.585774  0.468907  1
  B  B4  1  0.861846  0.531093  0.085774  1
  B  B5  1  0.861846  0.968907  0.414226  1
  B  B6  1  0.638154  0.085774  0.968907  1
  B  B7  1  0.638154  0.414226  0.531093  1
  B  B8  1  0.138154  0.468907  0.914226  1
  B  B9  1  0.138154  0.031093  0.585774  1
  Os  Os10  1  0.135900  0.396478  0.642498  1
  Os  Os11  1  0.135900  0.103522  0.857502  1
  Os  Os12  1  0.635900  0.142498  0.603522  1
  Os  Os13  1  0.635900  0.357502  0.896478  1
  Os  Os14  1  0.864100  0.603522  0.357502  1
  Os  Os15  1  0.864100  0.896478  0.142498  1
  Os  Os16  1  0.364100  0.857502  0.396478  1
  Os  Os17  1  0.364100  0.642498  0.103522  1
