# generated using pymatgen
data_Y20Cd6FeRe
_symmetry_space_group_name_H-M   'P 1'
_cell_length_a   9.61341400
_cell_length_b   9.61341422
_cell_length_c   9.89040300
_cell_angle_alpha   90.00000000
_cell_angle_beta   90.00000000
_cell_angle_gamma   119.99999923
_symmetry_Int_Tables_number   1
_chemical_formula_structural   Y20Cd6FeRe
_chemical_formula_sum   'Y20 Cd6 Fe1 Re1'
_cell_volume   791.58931652
_cell_formula_units_Z   1
loop_
 _symmetry_equiv_pos_site_id
 _symmetry_equiv_pos_as_xyz
  1  'x, y, z'
loop_
 _atom_site_type_symbol
 _atom_site_label
 _atom_site_symmetry_multiplicity
 _atom_site_fract_x
 _atom_site_fract_y
 _atom_site_fract_z
 _atom_site_occupancy
  Y  Y0  1  0.000000  0.000000  0.499678  1
  Y  Y1  1  0.000000  0.000000  0.000322  1
  Y  Y2  1  0.212415  0.787585  0.436431  1
  Y  Y3  1  0.212415  0.424831  0.436431  1
  Y  Y4  1  0.575169  0.787585  0.436431  1
  Y  Y5  1  0.790544  0.209456  0.558543  1
  Y  Y6  1  0.790544  0.581089  0.558543  1
  Y  Y7  1  0.418911  0.209456  0.558543  1
  Y  Y8  1  0.790544  0.209456  0.941457  1
  Y  Y9  1  0.790544  0.581089  0.941457  1
  Y  Y10  1  0.418911  0.209456  0.941457  1
  Y  Y11  1  0.212415  0.787585  0.063569  1
  Y  Y12  1  0.212415  0.424831  0.063569  1
  Y  Y13  1  0.575169  0.787585  0.063569  1
  Y  Y14  1  0.540741  0.459259  0.250000  1
  Y  Y15  1  0.540741  0.081483  0.250000  1
  Y  Y16  1  0.918517  0.459259  0.250000  1
  Y  Y17  1  0.460465  0.539535  0.750000  1
  Y  Y18  1  0.460465  0.920931  0.750000  1
  Y  Y19  1  0.079069  0.539535  0.750000  1
  Cd  Cd20  1  0.885916  0.114084  0.250000  1
  Cd  Cd21  1  0.885916  0.771834  0.250000  1
  Cd  Cd22  1  0.228166  0.114084  0.250000  1
  Cd  Cd23  1  0.114457  0.885543  0.750000  1
  Cd  Cd24  1  0.114457  0.228915  0.750000  1
  Cd  Cd25  1  0.771085  0.885543  0.750000  1
  Fe  Fe26  1  0.333333  0.666667  0.250000  1
  Re  Re27  1  0.666667  0.333333  0.750000  1
