# generated using pymatgen
data_Nd2Al2NiRh
_symmetry_space_group_name_H-M   'P 1'
_cell_length_a   4.31556900
_cell_length_b   7.01118063
_cell_length_c   8.00049952
_cell_angle_alpha   89.11954305
_cell_angle_beta   90.00000000
_cell_angle_gamma   90.00000000
_symmetry_Int_Tables_number   1
_chemical_formula_structural   Nd2Al2NiRh
_chemical_formula_sum   'Nd4 Al4 Ni2 Rh2'
_cell_volume   242.04440332
_cell_formula_units_Z   2
loop_
 _symmetry_equiv_pos_site_id
 _symmetry_equiv_pos_as_xyz
  1  'x, y, z'
loop_
 _atom_site_type_symbol
 _atom_site_label
 _atom_site_symmetry_multiplicity
 _atom_site_fract_x
 _atom_site_fract_y
 _atom_site_fract_z
 _atom_site_occupancy
  Nd  Nd0  1  0.250000  0.537445  0.176146  1
  Nd  Nd1  1  0.750000  0.462555  0.823854  1
  Nd  Nd2  1  0.750000  0.961546  0.682183  1
  Nd  Nd3  1  0.250000  0.038454  0.317817  1
  Al  Al4  1  0.250000  0.635517  0.562220  1
  Al  Al5  1  0.750000  0.364483  0.437780  1
  Al  Al6  1  0.750000  0.864562  0.058110  1
  Al  Al7  1  0.250000  0.135438  0.941890  1
  Ni  Ni8  1  0.250000  0.779134  0.882673  1
  Ni  Ni9  1  0.750000  0.220866  0.117327  1
  Rh  Rh10  1  0.750000  0.729482  0.383327  1
  Rh  Rh11  1  0.250000  0.270518  0.616673  1
