# generated using pymatgen
data_Nd6Sn6IrRh5
_symmetry_space_group_name_H-M   'P 1'
_cell_length_a   7.59871700
_cell_length_b   7.59871729
_cell_length_c   8.14840400
_cell_angle_alpha   90.00000000
_cell_angle_beta   90.00000000
_cell_angle_gamma   120.00000311
_symmetry_Int_Tables_number   1
_chemical_formula_structural   Nd6Sn6IrRh5
_chemical_formula_sum   'Nd6 Sn6 Ir1 Rh5'
_cell_volume   407.45882494
_cell_formula_units_Z   1
loop_
 _symmetry_equiv_pos_site_id
 _symmetry_equiv_pos_as_xyz
  1  'x, y, z'
loop_
 _atom_site_type_symbol
 _atom_site_label
 _atom_site_symmetry_multiplicity
 _atom_site_fract_x
 _atom_site_fract_y
 _atom_site_fract_z
 _atom_site_occupancy
  Nd  Nd0  1  0.589126  0.000548  0.750638  1
  Nd  Nd1  1  0.411423  0.410874  0.750638  1
  Nd  Nd2  1  0.999452  0.588577  0.750638  1
  Nd  Nd3  1  0.589225  0.001002  0.249084  1
  Nd  Nd4  1  0.411776  0.410775  0.249084  1
  Nd  Nd5  1  0.998998  0.588224  0.249084  1
  Sn  Sn6  1  0.252700  0.998801  0.999836  1
  Sn  Sn7  1  0.746616  0.747073  0.500045  1
  Sn  Sn8  1  0.000457  0.253384  0.500045  1
  Sn  Sn9  1  0.001199  0.253900  0.999836  1
  Sn  Sn10  1  0.746100  0.747300  0.999836  1
  Sn  Sn11  1  0.252927  0.999543  0.500045  1
  Ir  Ir12  1  0.666667  0.333333  0.999956  1
  Rh  Rh13  1  0.666667  0.333333  0.501691  1
  Rh  Rh14  1  0.333333  0.666667  0.001092  1
  Rh  Rh15  1  0.333333  0.666667  0.498763  1
  Rh  Rh16  1  0.000000  0.000000  0.750301  1
  Rh  Rh17  1  0.000000  0.000000  0.249389  1
