# generated using pymatgen
data_Ho8Sc12Sn13Au3
_symmetry_space_group_name_H-M   'P 1'
_cell_length_a   7.53532016
_cell_length_b   7.98513717
_cell_length_c   14.74102100
_cell_angle_alpha   90.00000000
_cell_angle_beta   90.00000000
_cell_angle_gamma   89.68574777
_symmetry_Int_Tables_number   1
_chemical_formula_structural   Ho8Sc12Sn13Au3
_chemical_formula_sum   'Ho8 Sc12 Sn13 Au3'
_cell_volume   886.96222197
_cell_formula_units_Z   1
loop_
 _symmetry_equiv_pos_site_id
 _symmetry_equiv_pos_as_xyz
  1  'x, y, z'
loop_
 _atom_site_type_symbol
 _atom_site_label
 _atom_site_symmetry_multiplicity
 _atom_site_fract_x
 _atom_site_fract_y
 _atom_site_fract_z
 _atom_site_occupancy
  Ho  Ho0  1  0.994731  0.180037  0.093483  1
  Ho  Ho1  1  0.005616  0.820447  0.908571  1
  Ho  Ho2  1  0.504266  0.680278  0.908034  1
  Ho  Ho3  1  0.005616  0.820447  0.591429  1
  Ho  Ho4  1  0.495268  0.319052  0.093509  1
  Ho  Ho5  1  0.994731  0.180037  0.406517  1
  Ho  Ho6  1  0.495268  0.319052  0.406491  1
  Ho  Ho7  1  0.504266  0.680278  0.591966  1
  Sc  Sc8  1  0.169160  0.497830  0.750000  1
  Sc  Sc9  1  0.822526  0.506326  0.250000  1
  Sc  Sc10  1  0.321934  0.994475  0.250000  1
  Sc  Sc11  1  0.678918  0.006385  0.750000  1
  Sc  Sc12  1  0.324329  0.160278  0.627899  1
  Sc  Sc13  1  0.667266  0.834988  0.367447  1
  Sc  Sc14  1  0.165413  0.666477  0.367470  1
  Sc  Sc15  1  0.667266  0.834988  0.132553  1
  Sc  Sc16  1  0.843750  0.332051  0.628919  1
  Sc  Sc17  1  0.324329  0.160278  0.872101  1
  Sc  Sc18  1  0.843750  0.332051  0.871081  1
  Sc  Sc19  1  0.165413  0.666477  0.132530  1
  Sn  Sn20  1  0.531791  0.376841  0.750000  1
  Sn  Sn21  1  0.300383  0.857060  0.750000  1
  Sn  Sn22  1  0.701336  0.142490  0.250000  1
  Sn  Sn23  1  0.201546  0.359269  0.250000  1
  Sn  Sn24  1  0.806760  0.649374  0.750000  1
  Sn  Sn25  1  0.182209  0.459547  0.539970  1
  Sn  Sn26  1  0.815968  0.540515  0.457725  1
  Sn  Sn27  1  0.318239  0.959354  0.456771  1
  Sn  Sn28  1  0.815968  0.540515  0.042275  1
  Sn  Sn29  1  0.680229  0.040830  0.541781  1
  Sn  Sn30  1  0.182209  0.459547  0.960030  1
  Sn  Sn31  1  0.680229  0.040830  0.958219  1
  Sn  Sn32  1  0.318239  0.959354  0.043229  1
  Au  Au33  1  0.031658  0.121756  0.750000  1
  Au  Au34  1  0.969282  0.879183  0.250000  1
  Au  Au35  1  0.470138  0.621302  0.250000  1
