# generated using pymatgen
data_Al6V12ZnCuN4
_symmetry_space_group_name_H-M   'P 1'
_cell_length_a   6.60305634
_cell_length_b   6.59963365
_cell_length_c   6.59709181
_cell_angle_alpha   89.93282666
_cell_angle_beta   89.97915623
_cell_angle_gamma   89.89980351
_symmetry_Int_Tables_number   1
_chemical_formula_structural   Al6V12ZnCuN4
_chemical_formula_sum   'Al6 V12 Zn1 Cu1 N4'
_cell_volume   287.48578024
_cell_formula_units_Z   1
loop_
 _symmetry_equiv_pos_site_id
 _symmetry_equiv_pos_as_xyz
  1  'x, y, z'
loop_
 _atom_site_type_symbol
 _atom_site_label
 _atom_site_symmetry_multiplicity
 _atom_site_fract_x
 _atom_site_fract_y
 _atom_site_fract_z
 _atom_site_occupancy
  Al  Al0  1  0.167633  0.815026  0.320103  1
  Al  Al1  1  0.315426  0.177551  0.825989  1
  Al  Al2  1  0.829495  0.325829  0.187879  1
  Al  Al3  1  0.689588  0.674831  0.668659  1
  Al  Al4  1  0.574196  0.428287  0.929557  1
  Al  Al5  1  0.427598  0.926192  0.569897  1
  V  V6  1  0.789186  0.960375  0.379526  1
  V  V7  1  0.707681  0.040009  0.871317  1
  V  V8  1  0.210778  0.459297  0.119421  1
  V  V9  1  0.291298  0.540973  0.628318  1
  V  V10  1  0.956124  0.376470  0.791315  1
  V  V11  1  0.044154  0.877735  0.707919  1
  V  V12  1  0.462440  0.126151  0.209185  1
  V  V13  1  0.537877  0.625456  0.290377  1
  V  V14  1  0.377317  0.790307  0.959022  1
  V  V15  1  0.872215  0.707505  0.038477  1
  V  V16  1  0.128096  0.208172  0.460779  1
  V  V17  1  0.621043  0.289970  0.542310  1
  Zn  Zn18  1  0.067716  0.069176  0.073094  1
  Cu  Cu19  1  0.931981  0.568965  0.428759  1
  N  N20  1  0.875830  0.128875  0.624930  1
  N  N21  1  0.627608  0.876731  0.125909  1
  N  N22  1  0.122862  0.628662  0.873665  1
  N  N23  1  0.371858  0.377456  0.373595  1
