# generated using pymatgen
data_Er8Mg2Sc9Si16Tc
_symmetry_space_group_name_H-M   'P 1'
_cell_length_a   6.93458805
_cell_length_b   7.31890350
_cell_length_c   13.84277700
_cell_angle_alpha   90.00000000
_cell_angle_beta   90.00000000
_cell_angle_gamma   90.12178670
_symmetry_Int_Tables_number   1
_chemical_formula_structural   Er8Mg2Sc9Si16Tc
_chemical_formula_sum   'Er8 Mg2 Sc9 Si16 Tc1'
_cell_volume   702.56891293
_cell_formula_units_Z   1
loop_
 _symmetry_equiv_pos_site_id
 _symmetry_equiv_pos_as_xyz
  1  'x, y, z'
loop_
 _atom_site_type_symbol
 _atom_site_label
 _atom_site_symmetry_multiplicity
 _atom_site_fract_x
 _atom_site_fract_y
 _atom_site_fract_z
 _atom_site_occupancy
  Er  Er0  1  0.011273  0.181435  0.093289  1
  Er  Er1  1  0.989391  0.819067  0.900722  1
  Er  Er2  1  0.489012  0.677134  0.902012  1
  Er  Er3  1  0.989391  0.819067  0.599278  1
  Er  Er4  1  0.514654  0.325179  0.094568  1
  Er  Er5  1  0.011273  0.181435  0.406711  1
  Er  Er6  1  0.514654  0.325179  0.405432  1
  Er  Er7  1  0.489012  0.677134  0.597988  1
  Mg  Mg8  1  0.844618  0.494179  0.250000  1
  Mg  Mg9  1  0.656409  0.992212  0.750000  1
  Sc  Sc10  1  0.344295  0.003257  0.250000  1
  Sc  Sc11  1  0.329171  0.176684  0.626911  1
  Sc  Sc12  1  0.675839  0.820680  0.374969  1
  Sc  Sc13  1  0.170092  0.672129  0.376770  1
  Sc  Sc14  1  0.675839  0.820680  0.125031  1
  Sc  Sc15  1  0.822367  0.325618  0.628327  1
  Sc  Sc16  1  0.329171  0.176684  0.873089  1
  Sc  Sc17  1  0.822367  0.325618  0.871673  1
  Sc  Sc18  1  0.170092  0.672129  0.123230  1
  Si  Si19  1  0.035423  0.120433  0.750000  1
  Si  Si20  1  0.975870  0.897486  0.250000  1
  Si  Si21  1  0.466446  0.614206  0.250000  1
  Si  Si22  1  0.513121  0.406587  0.750000  1
  Si  Si23  1  0.273165  0.859366  0.750000  1
  Si  Si24  1  0.715364  0.121802  0.250000  1
  Si  Si25  1  0.224485  0.370011  0.250000  1
  Si  Si26  1  0.793960  0.621625  0.750000  1
  Si  Si27  1  0.156050  0.466331  0.548096  1
  Si  Si28  1  0.841341  0.537443  0.467211  1
  Si  Si29  1  0.343266  0.965079  0.463066  1
  Si  Si30  1  0.841341  0.537443  0.032789  1
  Si  Si31  1  0.660764  0.035544  0.536243  1
  Si  Si32  1  0.156050  0.466331  0.951904  1
  Si  Si33  1  0.660764  0.035544  0.963757  1
  Si  Si34  1  0.343266  0.965079  0.036934  1
  Tc  Tc35  1  0.150400  0.494198  0.750000  1
