# generated using pymatgen
data_Nd4Tc3B16Mo
_symmetry_space_group_name_H-M   'P 1'
_cell_length_a   6.08096822
_cell_length_b   11.76870479
_cell_length_c   3.68573500
_cell_angle_alpha   90.00000000
_cell_angle_beta   90.00000000
_cell_angle_gamma   89.95389548
_symmetry_Int_Tables_number   1
_chemical_formula_structural   Nd4Tc3B16Mo
_chemical_formula_sum   'Nd4 Tc3 B16 Mo1'
_cell_volume   263.76998154
_cell_formula_units_Z   1
loop_
 _symmetry_equiv_pos_site_id
 _symmetry_equiv_pos_as_xyz
  1  'x, y, z'
loop_
 _atom_site_type_symbol
 _atom_site_label
 _atom_site_symmetry_multiplicity
 _atom_site_fract_x
 _atom_site_fract_y
 _atom_site_fract_z
 _atom_site_occupancy
  Nd  Nd0  1  0.625289  0.347903  0.000000  1
  Nd  Nd1  1  0.373532  0.652031  0.000000  1
  Nd  Nd2  1  0.125894  0.149441  0.000000  1
  Nd  Nd3  1  0.874016  0.850971  0.000000  1
  Tc  Tc4  1  0.632094  0.086975  0.000000  1
  Tc  Tc5  1  0.368509  0.914205  0.000000  1
  Tc  Tc6  1  0.127045  0.415423  0.000000  1
  B  B7  1  0.782431  0.183049  0.500000  1
  B  B8  1  0.218445  0.817367  0.500000  1
  B  B9  1  0.282542  0.316550  0.500000  1
  B  B10  1  0.715456  0.684708  0.500000  1
  B  B11  1  0.859935  0.032033  0.500000  1
  B  B12  1  0.140420  0.968398  0.500000  1
  B  B13  1  0.360964  0.466748  0.500000  1
  B  B14  1  0.636972  0.531589  0.500000  1
  B  B15  1  0.888984  0.452481  0.500000  1
  B  B16  1  0.113978  0.544917  0.500000  1
  B  B17  1  0.388692  0.046076  0.500000  1
  B  B18  1  0.611515  0.954558  0.500000  1
  B  B19  1  0.978012  0.309198  0.500000  1
  B  B20  1  0.023970  0.691049  0.500000  1
  B  B21  1  0.476340  0.189396  0.500000  1
  B  B22  1  0.522903  0.811004  0.500000  1
  Mo  Mo23  1  0.872062  0.583930  0.000000  1
