# generated using pymatgen
data_Li4Mn3Co17P12
_symmetry_space_group_name_H-M   'P 1'
_cell_length_a   3.53824300
_cell_length_b   10.08875055
_cell_length_c   11.70094692
_cell_angle_alpha   90.12718151
_cell_angle_beta   90.00000000
_cell_angle_gamma   90.00000000
_symmetry_Int_Tables_number   1
_chemical_formula_structural   Li4Mn3Co17P12
_chemical_formula_sum   'Li4 Mn3 Co17 P12'
_cell_volume   417.68124965
_cell_formula_units_Z   1
loop_
 _symmetry_equiv_pos_site_id
 _symmetry_equiv_pos_as_xyz
  1  'x, y, z'
loop_
 _atom_site_type_symbol
 _atom_site_label
 _atom_site_symmetry_multiplicity
 _atom_site_fract_x
 _atom_site_fract_y
 _atom_site_fract_z
 _atom_site_occupancy
  Li  Li0  1  0.250000  0.579031  0.704839  1
  Li  Li1  1  0.250000  0.920010  0.204774  1
  Li  Li2  1  0.750000  0.420188  0.294358  1
  Li  Li3  1  0.750000  0.078903  0.795348  1
  Mn  Mn4  1  0.250000  0.711604  0.989304  1
  Mn  Mn5  1  0.250000  0.787655  0.489791  1
  Mn  Mn6  1  0.750000  0.288344  0.010667  1
  Co  Co7  1  0.750000  0.213901  0.510698  1
  Co  Co8  1  0.250000  0.406820  0.485959  1
  Co  Co9  1  0.250000  0.092741  0.986845  1
  Co  Co10  1  0.750000  0.591918  0.514433  1
  Co  Co11  1  0.750000  0.907486  0.015401  1
  Co  Co12  1  0.250000  0.220512  0.176734  1
  Co  Co13  1  0.250000  0.279859  0.674096  1
  Co  Co14  1  0.750000  0.781726  0.825495  1
  Co  Co15  1  0.750000  0.719574  0.325543  1
  Co  Co16  1  0.250000  0.881271  0.699955  1
  Co  Co17  1  0.250000  0.620121  0.200012  1
  Co  Co18  1  0.750000  0.119516  0.300687  1
  Co  Co19  1  0.750000  0.379308  0.798433  1
  Co  Co20  1  0.250000  0.463335  0.930380  1
  Co  Co21  1  0.250000  0.037229  0.432258  1
  Co  Co22  1  0.750000  0.536411  0.067954  1
  Co  Co23  1  0.750000  0.965036  0.567513  1
  P  P24  1  0.250000  0.420889  0.116695  1
  P  P25  1  0.250000  0.080347  0.616332  1
  P  P26  1  0.750000  0.579533  0.882133  1
  P  P27  1  0.750000  0.920854  0.382430  1
  P  P28  1  0.250000  0.259333  0.863142  1
  P  P29  1  0.250000  0.239452  0.365643  1
  P  P30  1  0.750000  0.739690  0.136910  1
  P  P31  1  0.750000  0.761211  0.637077  1
  P  P32  1  0.250000  0.591746  0.386709  1
  P  P33  1  0.250000  0.908178  0.887597  1
  P  P34  1  0.750000  0.402903  0.610003  1
  P  P35  1  0.750000  0.093361  0.113856  1
