# generated using pymatgen
data_Ho3Lu(NiPt)2
_symmetry_space_group_name_H-M   'P 1'
_cell_length_a   4.33627800
_cell_length_b   5.46677235
_cell_length_c   7.03408600
_cell_angle_alpha   90.18453458
_cell_angle_beta   90.00000000
_cell_angle_gamma   90.00000000
_symmetry_Int_Tables_number   1
_chemical_formula_structural   Ho3Lu(NiPt)2
_chemical_formula_sum   'Ho3 Lu1 Ni2 Pt2'
_cell_volume   166.74527177
_cell_formula_units_Z   1
loop_
 _symmetry_equiv_pos_site_id
 _symmetry_equiv_pos_as_xyz
  1  'x, y, z'
loop_
 _atom_site_type_symbol
 _atom_site_label
 _atom_site_symmetry_multiplicity
 _atom_site_fract_x
 _atom_site_fract_y
 _atom_site_fract_z
 _atom_site_occupancy
  Ho  Ho0  1  0.750000  0.635834  0.320069  1
  Ho  Ho1  1  0.750000  0.863958  0.817703  1
  Ho  Ho2  1  0.250000  0.132355  0.179677  1
  Lu  Lu3  1  0.250000  0.367264  0.679499  1
  Ni  Ni4  1  0.250000  0.856975  0.544188  1
  Ni  Ni5  1  0.250000  0.639423  0.038800  1
  Pt  Pt6  1  0.750000  0.139459  0.463644  1
  Pt  Pt7  1  0.750000  0.364731  0.956419  1
