# generated using pymatgen
data_Tm5Nb2P12Ir17
_symmetry_space_group_name_H-M   'P 1'
_cell_length_a   12.57327200
_cell_length_b   12.77801431
_cell_length_c   3.98669700
_cell_angle_alpha   90.00000000
_cell_angle_beta   90.00000000
_cell_angle_gamma   119.47136343
_symmetry_Int_Tables_number   1
_chemical_formula_structural   Tm5Nb2P12Ir17
_chemical_formula_sum   'Tm5 Nb2 P12 Ir17'
_cell_volume   557.62780637
_cell_formula_units_Z   1
loop_
 _symmetry_equiv_pos_site_id
 _symmetry_equiv_pos_as_xyz
  1  'x, y, z'
loop_
 _atom_site_type_symbol
 _atom_site_label
 _atom_site_symmetry_multiplicity
 _atom_site_fract_x
 _atom_site_fract_y
 _atom_site_fract_z
 _atom_site_occupancy
  Tm  Tm0  1  0.330319  0.661228  0.500000  1
  Tm  Tm1  1  0.669091  0.338772  0.500000  1
  Tm  Tm2  1  0.998797  0.813583  0.000000  1
  Tm  Tm3  1  0.185214  0.186417  0.000000  1
  Tm  Tm4  1  0.815259  0.000000  0.000000  1
  Nb  Nb5  1  0.997446  0.450922  0.500000  1
  Nb  Nb6  1  0.546524  0.549078  0.500000  1
  P  P7  1  0.003054  0.643029  0.500000  1
  P  P8  1  0.360024  0.356971  0.500000  1
  P  P9  1  0.646441  0.000000  0.500000  1
  P  P10  1  0.514126  0.683147  0.000000  1
  P  P11  1  0.309140  0.823730  0.000000  1
  P  P12  1  0.163365  0.481145  0.000000  1
  P  P13  1  0.485410  0.176270  0.000000  1
  P  P14  1  0.682220  0.518855  0.000000  1
  P  P15  1  0.830979  0.316853  0.000000  1
  P  P16  1  0.000134  0.175056  0.500000  1
  P  P17  1  0.825077  0.824944  0.500000  1
  P  P18  1  0.180542  0.000000  0.500000  1
  Ir  Ir19  1  0.505049  0.863127  0.000000  1
  Ir  Ir20  1  0.128486  0.641352  0.000000  1
  Ir  Ir21  1  0.354206  0.494042  0.000000  1
  Ir  Ir22  1  0.487135  0.358648  0.000000  1
  Ir  Ir23  1  0.860167  0.505958  0.000000  1
  Ir  Ir24  1  0.641923  0.136873  0.000000  1
  Ir  Ir25  1  0.464699  0.000000  0.500000  1
  Ir  Ir26  1  0.997372  0.281724  0.000000  1
  Ir  Ir27  1  0.715647  0.718276  0.000000  1
  Ir  Ir28  1  0.291424  0.000000  0.000000  1
  Ir  Ir29  1  0.625244  0.807903  0.500000  1
  Ir  Ir30  1  0.200548  0.823552  0.500000  1
  Ir  Ir31  1  0.177673  0.367490  0.500000  1
  Ir  Ir32  1  0.376995  0.176448  0.500000  1
  Ir  Ir33  1  0.810181  0.632510  0.500000  1
  Ir  Ir34  1  0.817341  0.192097  0.500000  1
  Ir  Ir35  1  0.002750  0.000000  0.500000  1
