# generated using pymatgen
data_La5Zr3(Ni4P3)4
_symmetry_space_group_name_H-M   'P 1'
_cell_length_a   12.56302600
_cell_length_b   12.56302592
_cell_length_c   3.90898000
_cell_angle_alpha   90.00000000
_cell_angle_beta   90.00000000
_cell_angle_gamma   120.00000546
_symmetry_Int_Tables_number   1
_chemical_formula_structural   La5Zr3(Ni4P3)4
_chemical_formula_sum   'La5 Zr3 Ni16 P12'
_cell_volume   534.29679705
_cell_formula_units_Z   1
loop_
 _symmetry_equiv_pos_site_id
 _symmetry_equiv_pos_as_xyz
  1  'x, y, z'
loop_
 _atom_site_type_symbol
 _atom_site_label
 _atom_site_symmetry_multiplicity
 _atom_site_fract_x
 _atom_site_fract_y
 _atom_site_fract_z
 _atom_site_occupancy
  La  La0  1  0.189256  0.189256  0.500000  1
  La  La1  1  0.810744  0.000000  0.500000  1
  La  La2  1  0.000000  0.810744  0.500000  1
  La  La3  1  0.333333  0.666667  0.000000  1
  La  La4  1  0.666667  0.333333  0.000000  1
  Zr  Zr5  1  0.569027  0.569027  0.000000  1
  Zr  Zr6  1  0.430973  0.000000  0.000000  1
  Zr  Zr7  1  0.000000  0.430973  0.000000  1
  Ni  Ni8  1  0.726594  0.726594  0.500000  1
  Ni  Ni9  1  0.273406  0.000000  0.500000  1
  Ni  Ni10  1  0.000000  0.273406  0.500000  1
  Ni  Ni11  1  0.190110  0.380816  0.000000  1
  Ni  Ni12  1  0.619184  0.809294  0.000000  1
  Ni  Ni13  1  0.190706  0.809890  0.000000  1
  Ni  Ni14  1  0.809294  0.619184  0.000000  1
  Ni  Ni15  1  0.809890  0.190706  0.000000  1
  Ni  Ni16  1  0.380816  0.190110  0.000000  1
  Ni  Ni17  1  0.366015  0.486254  0.500000  1
  Ni  Ni18  1  0.513746  0.879762  0.500000  1
  Ni  Ni19  1  0.120238  0.633985  0.500000  1
  Ni  Ni20  1  0.879762  0.513746  0.500000  1
  Ni  Ni21  1  0.633985  0.120238  0.500000  1
  Ni  Ni22  1  0.486254  0.366015  0.500000  1
  Ni  Ni23  1  0.000000  0.000000  0.000000  1
  P  P24  1  0.818223  0.818223  0.000000  1
  P  P25  1  0.181777  0.000000  0.000000  1
  P  P26  1  0.000000  0.181777  0.000000  1
  P  P27  1  0.169680  0.469394  0.500000  1
  P  P28  1  0.530606  0.700286  0.500000  1
  P  P29  1  0.299714  0.830320  0.500000  1
  P  P30  1  0.700286  0.530606  0.500000  1
  P  P31  1  0.830320  0.299714  0.500000  1
  P  P32  1  0.469394  0.169680  0.500000  1
  P  P33  1  0.366045  0.366045  0.000000  1
  P  P34  1  0.633955  0.000000  0.000000  1
  P  P35  1  0.000000  0.633955  0.000000  1
