# generated using pymatgen
data_Tb6Dy10MgCd3Ir4
_symmetry_space_group_name_H-M   'P 1'
_cell_length_a   9.67743865
_cell_length_b   9.67743969
_cell_length_c   9.67743944
_cell_angle_alpha   59.86929318
_cell_angle_beta   59.86928772
_cell_angle_gamma   59.86929728
_symmetry_Int_Tables_number   1
_chemical_formula_structural   Tb6Dy10MgCd3Ir4
_chemical_formula_sum   'Tb6 Dy10 Mg1 Cd3 Ir4'
_cell_volume   638.96398822
_cell_formula_units_Z   1
loop_
 _symmetry_equiv_pos_site_id
 _symmetry_equiv_pos_as_xyz
  1  'x, y, z'
loop_
 _atom_site_type_symbol
 _atom_site_label
 _atom_site_symmetry_multiplicity
 _atom_site_fract_x
 _atom_site_fract_y
 _atom_site_fract_z
 _atom_site_occupancy
  Tb  Tb0  1  0.189631  0.812291  0.812291  1
  Tb  Tb1  1  0.811367  0.188608  0.188608  1
  Tb  Tb2  1  0.812291  0.189631  0.812291  1
  Tb  Tb3  1  0.188608  0.811367  0.188608  1
  Tb  Tb4  1  0.812291  0.812291  0.189631  1
  Tb  Tb5  1  0.188608  0.188608  0.811367  1
  Dy  Dy6  1  0.598539  0.598539  0.598539  1
  Dy  Dy7  1  0.598487  0.598487  0.205883  1
  Dy  Dy8  1  0.598487  0.205883  0.598487  1
  Dy  Dy9  1  0.205883  0.598487  0.598487  1
  Dy  Dy10  1  0.059359  0.439517  0.439517  1
  Dy  Dy11  1  0.436619  0.061724  0.061724  1
  Dy  Dy12  1  0.439517  0.059359  0.439517  1
  Dy  Dy13  1  0.061724  0.436619  0.061724  1
  Dy  Dy14  1  0.439517  0.439517  0.059359  1
  Dy  Dy15  1  0.061724  0.061724  0.436619  1
  Mg  Mg16  1  0.826143  0.826143  0.826143  1
  Cd  Cd17  1  0.831279  0.831279  0.505969  1
  Cd  Cd18  1  0.831279  0.505969  0.831279  1
  Cd  Cd19  1  0.505969  0.831279  0.831279  1
  Ir  Ir20  1  0.391663  0.391663  0.391663  1
  Ir  Ir21  1  0.392825  0.392825  0.825367  1
  Ir  Ir22  1  0.392825  0.825367  0.392825  1
  Ir  Ir23  1  0.825367  0.392825  0.392825  1
