# generated using pymatgen
data_Gd3Sn3PtRh2
_symmetry_space_group_name_H-M   'P 1'
_cell_length_a   7.94962800
_cell_length_b   7.94962781
_cell_length_c   7.33977300
_cell_angle_alpha   90.00000000
_cell_angle_beta   90.00000000
_cell_angle_gamma   120.00000912
_symmetry_Int_Tables_number   1
_chemical_formula_structural   Gd3Sn3PtRh2
_chemical_formula_sum   'Gd6 Sn6 Pt2 Rh4'
_cell_volume   401.70461651
_cell_formula_units_Z   2
loop_
 _symmetry_equiv_pos_site_id
 _symmetry_equiv_pos_as_xyz
  1  'x, y, z'
loop_
 _atom_site_type_symbol
 _atom_site_label
 _atom_site_symmetry_multiplicity
 _atom_site_fract_x
 _atom_site_fract_y
 _atom_site_fract_z
 _atom_site_occupancy
  Gd  Gd0  1  0.405086  0.002998  0.250050  1
  Gd  Gd1  1  0.597912  0.594914  0.250050  1
  Gd  Gd2  1  0.997002  0.402088  0.250050  1
  Gd  Gd3  1  0.402088  0.997002  0.750050  1
  Gd  Gd4  1  0.594914  0.597912  0.750050  1
  Gd  Gd5  1  0.002998  0.405086  0.750050  1
  Sn  Sn6  1  0.266161  0.261050  0.999764  1
  Sn  Sn7  1  0.994890  0.733839  0.999764  1
  Sn  Sn8  1  0.005110  0.738950  0.499764  1
  Sn  Sn9  1  0.733839  0.994890  0.499764  1
  Sn  Sn10  1  0.261050  0.266161  0.499764  1
  Sn  Sn11  1  0.738950  0.005110  0.999764  1
  Pt  Pt12  1  0.333333  0.666667  0.005524  1
  Pt  Pt13  1  0.666667  0.333333  0.505524  1
  Rh  Rh14  1  0.000000  0.000000  0.749570  1
  Rh  Rh15  1  0.000000  0.000000  0.249570  1
  Rh  Rh16  1  0.666667  0.333333  0.995465  1
  Rh  Rh17  1  0.333333  0.666667  0.495465  1
