# generated using pymatgen
data_Dy4Tm(GeB4)2
_symmetry_space_group_name_H-M   'P 1'
_cell_length_a   7.24250800
_cell_length_b   7.24250800
_cell_length_c   8.11280900
_cell_angle_alpha   90.00000000
_cell_angle_beta   90.00000000
_cell_angle_gamma   90.00000000
_symmetry_Int_Tables_number   1
_chemical_formula_structural   Dy4Tm(GeB4)2
_chemical_formula_sum   'Dy8 Tm2 Ge4 B16'
_cell_volume   425.54865154
_cell_formula_units_Z   2
loop_
 _symmetry_equiv_pos_site_id
 _symmetry_equiv_pos_as_xyz
  1  'x, y, z'
loop_
 _atom_site_type_symbol
 _atom_site_label
 _atom_site_symmetry_multiplicity
 _atom_site_fract_x
 _atom_site_fract_y
 _atom_site_fract_z
 _atom_site_occupancy
  Dy  Dy0  1  0.680345  0.180345  0.221938  1
  Dy  Dy1  1  0.319655  0.819655  0.778062  1
  Dy  Dy2  1  0.319655  0.819655  0.221938  1
  Dy  Dy3  1  0.819655  0.680345  0.221938  1
  Dy  Dy4  1  0.819655  0.680345  0.778062  1
  Dy  Dy5  1  0.680345  0.180345  0.778062  1
  Dy  Dy6  1  0.180345  0.319655  0.778062  1
  Dy  Dy7  1  0.180345  0.319655  0.221938  1
  Tm  Tm8  1  0.000000  0.000000  0.500000  1
  Tm  Tm9  1  0.500000  0.500000  0.500000  1
  Ge  Ge10  1  0.120741  0.620741  0.500000  1
  Ge  Ge11  1  0.879259  0.379259  0.500000  1
  Ge  Ge12  1  0.379259  0.120741  0.500000  1
  Ge  Ge13  1  0.620741  0.879259  0.500000  1
  B  B14  1  0.172335  0.039328  0.000000  1
  B  B15  1  0.827665  0.960672  0.000000  1
  B  B16  1  0.960672  0.172335  0.000000  1
  B  B17  1  0.327665  0.539328  0.000000  1
  B  B18  1  0.039328  0.827665  0.000000  1
  B  B19  1  0.672335  0.460672  0.000000  1
  B  B20  1  0.539328  0.672335  0.000000  1
  B  B21  1  0.460672  0.327665  0.000000  1
  B  B22  1  0.090166  0.590166  0.000000  1
  B  B23  1  0.909834  0.409834  0.000000  1
  B  B24  1  0.409834  0.090166  0.000000  1
  B  B25  1  0.590166  0.909834  0.000000  1
  B  B26  1  0.000000  0.000000  0.162849  1
  B  B27  1  0.000000  0.000000  0.837151  1
  B  B28  1  0.500000  0.500000  0.837151  1
  B  B29  1  0.500000  0.500000  0.162849  1
