# generated using pymatgen
data_Sc5Pa(Fe3P2)6
_symmetry_space_group_name_H-M   'P 1'
_cell_length_a   3.63456200
_cell_length_b   10.41508700
_cell_length_c   12.03362200
_cell_angle_alpha   90.00000000
_cell_angle_beta   90.00000000
_cell_angle_gamma   90.00000000
_symmetry_Int_Tables_number   1
_chemical_formula_structural   Sc5Pa(Fe3P2)6
_chemical_formula_sum   'Sc5 Pa1 Fe18 P12'
_cell_volume   455.52408983
_cell_formula_units_Z   1
loop_
 _symmetry_equiv_pos_site_id
 _symmetry_equiv_pos_as_xyz
  1  'x, y, z'
loop_
 _atom_site_type_symbol
 _atom_site_label
 _atom_site_symmetry_multiplicity
 _atom_site_fract_x
 _atom_site_fract_y
 _atom_site_fract_z
 _atom_site_occupancy
  Sc  Sc0  1  0.500000  0.000000  0.473659  1
  Sc  Sc1  1  0.500000  0.820980  0.206301  1
  Sc  Sc2  1  0.500000  0.179020  0.206301  1
  Sc  Sc3  1  0.000000  0.680771  0.794920  1
  Sc  Sc4  1  0.000000  0.319229  0.794920  1
  Pa  Pa5  1  0.000000  0.500000  0.531215  1
  Fe  Fe6  1  0.500000  0.500000  0.151879  1
  Fe  Fe7  1  0.000000  0.000000  0.846153  1
  Fe  Fe8  1  0.500000  0.500000  0.696933  1
  Fe  Fe9  1  0.000000  0.000000  0.302535  1
  Fe  Fe10  1  0.000000  0.500000  0.987813  1
  Fe  Fe11  1  0.500000  0.000000  0.012132  1
  Fe  Fe12  1  0.500000  0.327821  0.995020  1
  Fe  Fe13  1  0.500000  0.672179  0.995020  1
  Fe  Fe14  1  0.000000  0.171272  0.003754  1
  Fe  Fe15  1  0.000000  0.828728  0.003754  1
  Fe  Fe16  1  0.500000  0.302174  0.431134  1
  Fe  Fe17  1  0.500000  0.697826  0.431134  1
  Fe  Fe18  1  0.000000  0.199096  0.569516  1
  Fe  Fe19  1  0.000000  0.800904  0.569516  1
  Fe  Fe20  1  0.500000  0.882381  0.708747  1
  Fe  Fe21  1  0.500000  0.117619  0.708747  1
  Fe  Fe22  1  0.000000  0.619806  0.290129  1
  Fe  Fe23  1  0.000000  0.380194  0.290129  1
  P  P24  1  0.500000  0.500000  0.879916  1
  P  P25  1  0.000000  0.000000  0.120259  1
  P  P26  1  0.500000  0.500000  0.339354  1
  P  P27  1  0.000000  0.000000  0.654888  1
  P  P28  1  0.500000  0.303516  0.619287  1
  P  P29  1  0.500000  0.696484  0.619287  1
  P  P30  1  0.000000  0.191337  0.383877  1
  P  P31  1  0.000000  0.808663  0.383877  1
  P  P32  1  0.500000  0.849355  0.886804  1
  P  P33  1  0.500000  0.150645  0.886804  1
  P  P34  1  0.000000  0.652117  0.112145  1
  P  P35  1  0.000000  0.347883  0.112145  1
