# generated using pymatgen
data_Lu6Co16ReP12Rh
_symmetry_space_group_name_H-M   'P 1'
_cell_length_a   3.67833800
_cell_length_b   10.47200800
_cell_length_c   12.13931200
_cell_angle_alpha   90.00000000
_cell_angle_beta   90.00000000
_cell_angle_gamma   90.00000000
_symmetry_Int_Tables_number   1
_chemical_formula_structural   Lu6Co16ReP12Rh
_chemical_formula_sum   'Lu6 Co16 Re1 P12 Rh1'
_cell_volume   467.60125997
_cell_formula_units_Z   1
loop_
 _symmetry_equiv_pos_site_id
 _symmetry_equiv_pos_as_xyz
  1  'x, y, z'
loop_
 _atom_site_type_symbol
 _atom_site_label
 _atom_site_symmetry_multiplicity
 _atom_site_fract_x
 _atom_site_fract_y
 _atom_site_fract_z
 _atom_site_occupancy
  Lu  Lu0  1  0.000000  0.500000  0.525645  1
  Lu  Lu1  1  0.500000  0.000000  0.473688  1
  Lu  Lu2  1  0.500000  0.818337  0.207705  1
  Lu  Lu3  1  0.500000  0.181663  0.207705  1
  Lu  Lu4  1  0.000000  0.680633  0.794190  1
  Lu  Lu5  1  0.000000  0.319367  0.794190  1
  Co  Co6  1  0.500000  0.500000  0.702328  1
  Co  Co7  1  0.000000  0.000000  0.296676  1
  Co  Co8  1  0.000000  0.500000  0.988602  1
  Co  Co9  1  0.500000  0.000000  0.014953  1
  Co  Co10  1  0.500000  0.333768  0.991085  1
  Co  Co11  1  0.500000  0.666232  0.991085  1
  Co  Co12  1  0.000000  0.168547  0.009463  1
  Co  Co13  1  0.000000  0.831453  0.009463  1
  Co  Co14  1  0.500000  0.297266  0.431420  1
  Co  Co15  1  0.500000  0.702734  0.431420  1
  Co  Co16  1  0.000000  0.202571  0.567659  1
  Co  Co17  1  0.000000  0.797429  0.567659  1
  Co  Co18  1  0.500000  0.876669  0.706818  1
  Co  Co19  1  0.500000  0.123331  0.706818  1
  Co  Co20  1  0.000000  0.621775  0.292603  1
  Co  Co21  1  0.000000  0.378225  0.292603  1
  Re  Re22  1  0.500000  0.500000  0.157868  1
  P  P23  1  0.500000  0.500000  0.879359  1
  P  P24  1  0.000000  0.000000  0.118874  1
  P  P25  1  0.500000  0.500000  0.352532  1
  P  P26  1  0.000000  0.000000  0.645848  1
  P  P27  1  0.500000  0.313367  0.616862  1
  P  P28  1  0.500000  0.686633  0.616862  1
  P  P29  1  0.000000  0.187327  0.383033  1
  P  P30  1  0.000000  0.812673  0.383033  1
  P  P31  1  0.500000  0.844420  0.892485  1
  P  P32  1  0.500000  0.155580  0.892485  1
  P  P33  1  0.000000  0.655914  0.109130  1
  P  P34  1  0.000000  0.344086  0.109130  1
  Rh  Rh35  1  0.000000  0.000000  0.838719  1
