# generated using pymatgen
data_Dy4Tm6SiBi5
_symmetry_space_group_name_H-M   'P 1'
_cell_length_a   8.08120700
_cell_length_b   9.32177500
_cell_length_c   11.96925500
_cell_angle_alpha   90.00000000
_cell_angle_beta   90.00000000
_cell_angle_gamma   90.00000000
_symmetry_Int_Tables_number   1
_chemical_formula_structural   Dy4Tm6SiBi5
_chemical_formula_sum   'Dy8 Tm12 Si2 Bi10'
_cell_volume   901.65826305
_cell_formula_units_Z   2
loop_
 _symmetry_equiv_pos_site_id
 _symmetry_equiv_pos_as_xyz
  1  'x, y, z'
loop_
 _atom_site_type_symbol
 _atom_site_label
 _atom_site_symmetry_multiplicity
 _atom_site_fract_x
 _atom_site_fract_y
 _atom_site_fract_z
 _atom_site_occupancy
  Dy  Dy0  1  0.168603  0.750000  0.710010  1
  Dy  Dy1  1  0.668603  0.750000  0.789990  1
  Dy  Dy2  1  0.813848  0.250000  0.280215  1
  Dy  Dy3  1  0.313848  0.250000  0.219785  1
  Dy  Dy4  1  0.350794  0.750000  0.205381  1
  Dy  Dy5  1  0.850794  0.750000  0.294619  1
  Dy  Dy6  1  0.651830  0.250000  0.783070  1
  Dy  Dy7  1  0.151830  0.250000  0.716930  1
  Tm  Tm8  1  0.039286  0.750000  0.987988  1
  Tm  Tm9  1  0.539286  0.750000  0.512012  1
  Tm  Tm10  1  0.982433  0.250000  0.008296  1
  Tm  Tm11  1  0.482433  0.250000  0.491704  1
  Tm  Tm12  1  0.312184  0.453576  0.939628  1
  Tm  Tm13  1  0.812184  0.046424  0.560372  1
  Tm  Tm14  1  0.683199  0.927583  0.054897  1
  Tm  Tm15  1  0.183199  0.572417  0.445103  1
  Tm  Tm16  1  0.683199  0.572417  0.054897  1
  Tm  Tm17  1  0.183199  0.927583  0.445103  1
  Tm  Tm18  1  0.312184  0.046424  0.939628  1
  Tm  Tm19  1  0.812184  0.453576  0.560372  1
  Si  Si20  1  0.413973  0.750000  0.966927  1
  Si  Si21  1  0.913973  0.750000  0.533073  1
  Bi  Bi22  1  0.435729  0.001000  0.673820  1
  Bi  Bi23  1  0.935729  0.499000  0.826180  1
  Bi  Bi24  1  0.561041  0.504086  0.326074  1
  Bi  Bi25  1  0.061041  0.995914  0.173926  1
  Bi  Bi26  1  0.561041  0.995914  0.326074  1
  Bi  Bi27  1  0.061041  0.504086  0.173926  1
  Bi  Bi28  1  0.435729  0.499000  0.673820  1
  Bi  Bi29  1  0.935729  0.001000  0.826180  1
  Bi  Bi30  1  0.594927  0.250000  0.041515  1
  Bi  Bi31  1  0.094927  0.250000  0.458485  1
