# generated using pymatgen
data_Tb8Mn(Si4Ir)3
_symmetry_space_group_name_H-M   'P 1'
_cell_length_a   8.20533500
_cell_length_b   8.20533390
_cell_length_c   7.96772000
_cell_angle_alpha   90.00000000
_cell_angle_beta   90.00000000
_cell_angle_gamma   120.00000846
_symmetry_Int_Tables_number   1
_chemical_formula_structural   Tb8Mn(Si4Ir)3
_chemical_formula_sum   'Tb8 Mn1 Si12 Ir3'
_cell_volume   464.57649575
_cell_formula_units_Z   1
loop_
 _symmetry_equiv_pos_site_id
 _symmetry_equiv_pos_as_xyz
  1  'x, y, z'
loop_
 _atom_site_type_symbol
 _atom_site_label
 _atom_site_symmetry_multiplicity
 _atom_site_fract_x
 _atom_site_fract_y
 _atom_site_fract_z
 _atom_site_occupancy
  Tb  Tb0  1  0.510142  0.020283  0.249877  1
  Tb  Tb1  1  0.491373  0.982747  0.749298  1
  Tb  Tb2  1  0.979717  0.489858  0.249877  1
  Tb  Tb3  1  0.017253  0.508627  0.749298  1
  Tb  Tb4  1  0.510142  0.489858  0.249877  1
  Tb  Tb5  1  0.491373  0.508627  0.749298  1
  Tb  Tb6  1  0.000000  0.000000  0.253087  1
  Tb  Tb7  1  0.000000  0.000000  0.747997  1
  Mn  Mn8  1  0.333333  0.666667  0.459819  1
  Si  Si9  1  0.166675  0.333351  0.003463  1
  Si  Si10  1  0.833475  0.666952  0.997194  1
  Si  Si11  1  0.666649  0.833325  0.003463  1
  Si  Si12  1  0.832929  0.665858  0.500555  1
  Si  Si13  1  0.333048  0.166525  0.997194  1
  Si  Si14  1  0.168819  0.337637  0.500003  1
  Si  Si15  1  0.166675  0.833325  0.003463  1
  Si  Si16  1  0.334142  0.167071  0.500555  1
  Si  Si17  1  0.833475  0.166525  0.997194  1
  Si  Si18  1  0.662363  0.831181  0.500003  1
  Si  Si19  1  0.832929  0.167071  0.500555  1
  Si  Si20  1  0.168819  0.831181  0.500003  1
  Ir  Ir21  1  0.333333  0.666667  0.029834  1
  Ir  Ir22  1  0.666667  0.333333  0.971759  1
  Ir  Ir23  1  0.666667  0.333333  0.536336  1
