# generated using pymatgen
data_Dy5CuTe4
_symmetry_space_group_name_H-M   'P 1'
_cell_length_a   7.58207403
_cell_length_b   7.58207315
_cell_length_c   10.73614621
_cell_angle_alpha   61.04035773
_cell_angle_beta   61.04036067
_cell_angle_gamma   32.24900485
_symmetry_Int_Tables_number   1
_chemical_formula_structural   Dy5CuTe4
_chemical_formula_sum   'Dy5 Cu1 Te4'
_cell_volume   284.44517461
_cell_formula_units_Z   1
loop_
 _symmetry_equiv_pos_site_id
 _symmetry_equiv_pos_as_xyz
  1  'x, y, z'
loop_
 _atom_site_type_symbol
 _atom_site_label
 _atom_site_symmetry_multiplicity
 _atom_site_fract_x
 _atom_site_fract_y
 _atom_site_fract_z
 _atom_site_occupancy
  Dy  Dy0  1  0.000000  0.000000  0.500000  1
  Dy  Dy1  1  0.582351  0.582351  0.090066  1
  Dy  Dy2  1  0.184580  0.184580  0.730632  1
  Dy  Dy3  1  0.815420  0.815420  0.269368  1
  Dy  Dy4  1  0.417649  0.417649  0.909934  1
  Cu  Cu5  1  0.000000  0.000000  0.000000  1
  Te  Te6  1  0.612063  0.612063  0.583867  1
  Te  Te7  1  0.192119  0.192119  0.192710  1
  Te  Te8  1  0.807881  0.807881  0.807290  1
  Te  Te9  1  0.387937  0.387937  0.416133  1
