# generated using pymatgen
data_TbCo2(NiAs)3
_symmetry_space_group_name_H-M   'P 1'
_cell_length_a   3.83064700
_cell_length_b   10.71331600
_cell_length_c   12.23235600
_cell_angle_alpha   90.00000000
_cell_angle_beta   90.00000000
_cell_angle_gamma   90.00000000
_symmetry_Int_Tables_number   1
_chemical_formula_structural   TbCo2(NiAs)3
_chemical_formula_sum   'Tb4 Co8 Ni12 As12'
_cell_volume   502.00282358
_cell_formula_units_Z   4
loop_
 _symmetry_equiv_pos_site_id
 _symmetry_equiv_pos_as_xyz
  1  'x, y, z'
loop_
 _atom_site_type_symbol
 _atom_site_label
 _atom_site_symmetry_multiplicity
 _atom_site_fract_x
 _atom_site_fract_y
 _atom_site_fract_z
 _atom_site_occupancy
  Tb  Tb0  1  0.250000  0.919262  0.203013  1
  Tb  Tb1  1  0.750000  0.080738  0.796987  1
  Tb  Tb2  1  0.750000  0.419262  0.296987  1
  Tb  Tb3  1  0.250000  0.580738  0.703013  1
  Co  Co4  1  0.250000  0.619023  0.196252  1
  Co  Co5  1  0.750000  0.380977  0.803748  1
  Co  Co6  1  0.750000  0.119023  0.303748  1
  Co  Co7  1  0.250000  0.880977  0.696252  1
  Co  Co8  1  0.250000  0.030129  0.432579  1
  Co  Co9  1  0.750000  0.969871  0.567421  1
  Co  Co10  1  0.750000  0.530129  0.067421  1
  Co  Co11  1  0.250000  0.469871  0.932579  1
  Ni  Ni12  1  0.250000  0.791328  0.491713  1
  Ni  Ni13  1  0.750000  0.208672  0.508287  1
  Ni  Ni14  1  0.750000  0.291328  0.008287  1
  Ni  Ni15  1  0.250000  0.708672  0.991713  1
  Ni  Ni16  1  0.250000  0.091604  0.987316  1
  Ni  Ni17  1  0.750000  0.908396  0.012684  1
  Ni  Ni18  1  0.750000  0.591604  0.512684  1
  Ni  Ni19  1  0.250000  0.408396  0.487316  1
  Ni  Ni20  1  0.250000  0.282781  0.677744  1
  Ni  Ni21  1  0.750000  0.717219  0.322256  1
  Ni  Ni22  1  0.750000  0.782781  0.822256  1
  Ni  Ni23  1  0.250000  0.217219  0.177744  1
  As  As24  1  0.250000  0.080590  0.615007  1
  As  As25  1  0.750000  0.919410  0.384993  1
  As  As26  1  0.750000  0.580590  0.884993  1
  As  As27  1  0.250000  0.419410  0.115007  1
  As  As28  1  0.250000  0.229416  0.369850  1
  As  As29  1  0.750000  0.770584  0.630150  1
  As  As30  1  0.750000  0.729416  0.130150  1
  As  As31  1  0.250000  0.270584  0.869850  1
  As  As32  1  0.250000  0.896968  0.889727  1
  As  As33  1  0.750000  0.103032  0.110273  1
  As  As34  1  0.750000  0.396968  0.610273  1
  As  As35  1  0.250000  0.603032  0.389727  1
