# generated using pymatgen
data_Eu4HfZr2WO14
_symmetry_space_group_name_H-M   'P 1'
_cell_length_a   7.59154502
_cell_length_b   7.59154443
_cell_length_c   7.60810666
_cell_angle_alpha   60.27183285
_cell_angle_beta   60.27183522
_cell_angle_gamma   60.11056778
_symmetry_Int_Tables_number   1
_chemical_formula_structural   Eu4HfZr2WO14
_chemical_formula_sum   'Eu4 Hf1 Zr2 W1 O14'
_cell_volume   311.57219910
_cell_formula_units_Z   1
loop_
 _symmetry_equiv_pos_site_id
 _symmetry_equiv_pos_as_xyz
  1  'x, y, z'
loop_
 _atom_site_type_symbol
 _atom_site_label
 _atom_site_symmetry_multiplicity
 _atom_site_fract_x
 _atom_site_fract_y
 _atom_site_fract_z
 _atom_site_occupancy
  Eu  Eu0  1  0.625000  0.125000  0.125000  1
  Eu  Eu1  1  0.125000  0.625000  0.125000  1
  Eu  Eu2  1  0.125000  0.125000  0.625000  1
  Eu  Eu3  1  0.125000  0.125000  0.125000  1
  Hf  Hf4  1  0.625000  0.625000  0.625000  1
  Zr  Zr5  1  0.125000  0.625000  0.625000  1
  Zr  Zr6  1  0.625000  0.125000  0.625000  1
  W  W7  1  0.625000  0.625000  0.125000  1
  O  O8  1  0.252323  0.252323  0.244765  1
  O  O9  1  0.997677  0.997677  0.005235  1
  O  O10  1  0.689837  0.689837  0.299603  1
  O  O11  1  0.291043  0.291043  0.716725  1
  O  O12  1  0.697202  0.296211  0.715152  1
  O  O13  1  0.320150  0.691621  0.293396  1
  O  O14  1  0.296211  0.697202  0.715152  1
  O  O15  1  0.691621  0.320150  0.293396  1
  O  O16  1  0.560163  0.560163  0.950397  1
  O  O17  1  0.958957  0.958957  0.533275  1
  O  O18  1  0.552798  0.953789  0.534848  1
  O  O19  1  0.929850  0.558379  0.956604  1
  O  O20  1  0.953789  0.552798  0.534848  1
  O  O21  1  0.558379  0.929850  0.956604  1
