# generated using pymatgen
data_PrZnInAg4
_symmetry_space_group_name_H-M   'P 1'
_cell_length_a   5.54331400
_cell_length_b   8.87431200
_cell_length_c   11.77999500
_cell_angle_alpha   90.00000000
_cell_angle_beta   90.00000000
_cell_angle_gamma   90.00000000
_symmetry_Int_Tables_number   1
_chemical_formula_structural   PrZnInAg4
_chemical_formula_sum   'Pr4 Zn4 In4 Ag16'
_cell_volume   579.49444789
_cell_formula_units_Z   4
loop_
 _symmetry_equiv_pos_site_id
 _symmetry_equiv_pos_as_xyz
  1  'x, y, z'
loop_
 _atom_site_type_symbol
 _atom_site_label
 _atom_site_symmetry_multiplicity
 _atom_site_fract_x
 _atom_site_fract_y
 _atom_site_fract_z
 _atom_site_occupancy
  Pr  Pr0  1  0.250000  0.755134  0.065332  1
  Pr  Pr1  1  0.750000  0.244866  0.934668  1
  Pr  Pr2  1  0.750000  0.744866  0.565332  1
  Pr  Pr3  1  0.250000  0.255134  0.434668  1
  Zn  Zn4  1  0.250000  0.816540  0.740845  1
  Zn  Zn5  1  0.750000  0.183460  0.259155  1
  Zn  Zn6  1  0.750000  0.683460  0.240845  1
  Zn  Zn7  1  0.250000  0.316540  0.759155  1
  In  In8  1  0.250000  0.638647  0.360781  1
  In  In9  1  0.750000  0.361353  0.639219  1
  In  In10  1  0.750000  0.861353  0.860781  1
  In  In11  1  0.250000  0.138647  0.139219  1
  Ag  Ag12  1  0.503633  0.571059  0.806570  1
  Ag  Ag13  1  0.496367  0.428941  0.193430  1
  Ag  Ag14  1  0.496367  0.928941  0.306570  1
  Ag  Ag15  1  0.003633  0.428941  0.193430  1
  Ag  Ag16  1  0.503633  0.071059  0.693430  1
  Ag  Ag17  1  0.996367  0.571059  0.806570  1
  Ag  Ag18  1  0.996367  0.071059  0.693430  1
  Ag  Ag19  1  0.003633  0.928941  0.306570  1
  Ag  Ag20  1  0.250000  0.556517  0.591446  1
  Ag  Ag21  1  0.750000  0.443483  0.408554  1
  Ag  Ag22  1  0.750000  0.943483  0.091446  1
  Ag  Ag23  1  0.250000  0.056517  0.908554  1
  Ag  Ag24  1  0.250000  0.906886  0.518852  1
  Ag  Ag25  1  0.750000  0.093114  0.481148  1
  Ag  Ag26  1  0.750000  0.593114  0.018852  1
  Ag  Ag27  1  0.250000  0.406886  0.981148  1
