# generated using pymatgen
data_CaDy3Tm3Co6Sn23
_symmetry_space_group_name_H-M   'P 1'
_cell_length_a   9.69744214
_cell_length_b   9.69909558
_cell_length_c   9.94094801
_cell_angle_alpha   90.00290660
_cell_angle_beta   89.99602655
_cell_angle_gamma   120.01358435
_symmetry_Int_Tables_number   1
_chemical_formula_structural   CaDy3Tm3Co6Sn23
_chemical_formula_sum   'Ca1 Dy3 Tm3 Co6 Sn23'
_cell_volume   809.63151484
_cell_formula_units_Z   1
loop_
 _symmetry_equiv_pos_site_id
 _symmetry_equiv_pos_as_xyz
  1  'x, y, z'
loop_
 _atom_site_type_symbol
 _atom_site_label
 _atom_site_symmetry_multiplicity
 _atom_site_fract_x
 _atom_site_fract_y
 _atom_site_fract_z
 _atom_site_occupancy
  Ca  Ca0  1  0.999947  0.999914  0.000079  1
  Dy  Dy1  1  0.520776  0.041653  0.694022  1
  Dy  Dy2  1  0.041590  0.520717  0.305849  1
  Dy  Dy3  1  0.958386  0.479189  0.694092  1
  Tm  Tm4  1  0.479717  0.520261  0.305706  1
  Tm  Tm5  1  0.520227  0.479655  0.694257  1
  Tm  Tm6  1  0.479822  0.959516  0.305588  1
  Co  Co7  1  0.830664  0.168161  0.198800  1
  Co  Co8  1  0.168614  0.831378  0.801355  1
  Co  Co9  1  0.830629  0.662405  0.198928  1
  Co  Co10  1  0.169468  0.337785  0.801233  1
  Co  Co11  1  0.338100  0.169039  0.199031  1
  Co  Co12  1  0.662153  0.830499  0.801120  1
  Sn  Sn13  1  0.346305  0.000141  0.000164  1
  Sn  Sn14  1  0.653600  0.999693  0.000147  1
  Sn  Sn15  1  0.000059  0.346206  0.000055  1
  Sn  Sn16  1  0.999861  0.653749  0.000073  1
  Sn  Sn17  1  0.653699  0.653758  0.000063  1
  Sn  Sn18  1  0.346340  0.346201  0.000064  1
  Sn  Sn19  1  0.333496  0.666547  0.816159  1
  Sn  Sn20  1  0.666384  0.333209  0.183916  1
  Sn  Sn21  1  0.999922  0.999835  0.499960  1
  Sn  Sn22  1  0.780146  0.218382  0.451904  1
  Sn  Sn23  1  0.219503  0.781245  0.547280  1
  Sn  Sn24  1  0.779793  0.561766  0.452315  1
  Sn  Sn25  1  0.220179  0.438176  0.547602  1
  Sn  Sn26  1  0.438175  0.219438  0.451948  1
  Sn  Sn27  1  0.561788  0.780121  0.547234  1
  Sn  Sn28  1  0.334724  0.667319  0.120047  1
  Sn  Sn29  1  0.665927  0.334015  0.880805  1
  Sn  Sn30  1  0.117899  0.882931  0.274449  1
  Sn  Sn31  1  0.882766  0.117115  0.725641  1
  Sn  Sn32  1  0.118097  0.235199  0.274555  1
  Sn  Sn33  1  0.881888  0.764773  0.725461  1
  Sn  Sn34  1  0.763851  0.881837  0.274674  1
  Sn  Sn35  1  0.235502  0.118171  0.725422  1
