# generated using pymatgen
data_VCu2Pd5
_symmetry_space_group_name_H-M   'P 1'
_cell_length_a   5.47244128
_cell_length_b   5.47244186
_cell_length_c   3.82971900
_cell_angle_alpha   90.00000000
_cell_angle_beta   90.00000000
_cell_angle_gamma   92.66255256
_symmetry_Int_Tables_number   1
_chemical_formula_structural   VCu2Pd5
_chemical_formula_sum   'V1 Cu2 Pd5'
_cell_volume   114.56714218
_cell_formula_units_Z   1
loop_
 _symmetry_equiv_pos_site_id
 _symmetry_equiv_pos_as_xyz
  1  'x, y, z'
loop_
 _atom_site_type_symbol
 _atom_site_label
 _atom_site_symmetry_multiplicity
 _atom_site_fract_x
 _atom_site_fract_y
 _atom_site_fract_z
 _atom_site_occupancy
  V  V0  1  0.762720  0.237278  0.000000  1
  Cu  Cu1  1  0.243569  0.756429  0.000000  1
  Cu  Cu2  1  0.496486  0.503512  0.499999  1
  Pd  Pd3  1  0.269655  0.266567  0.000000  1
  Pd  Pd4  1  0.733434  0.730346  0.000000  1
  Pd  Pd5  1  0.997224  0.002776  0.499999  1
  Pd  Pd6  1  0.507233  0.010323  0.499999  1
  Pd  Pd7  1  0.989677  0.492767  0.499999  1
