# generated using pymatgen
data_Sm2ErTm3(RuO7)2
_symmetry_space_group_name_H-M   'P 1'
_cell_length_a   6.37648602
_cell_length_b   6.37462586
_cell_length_c   7.42617500
_cell_angle_alpha   90.00023181
_cell_angle_beta   90.00010019
_cell_angle_gamma   109.81859731
_symmetry_Int_Tables_number   1
_chemical_formula_structural   Sm2ErTm3(RuO7)2
_chemical_formula_sum   'Sm2 Er1 Tm3 Ru2 O14'
_cell_volume   283.97826883
_cell_formula_units_Z   1
loop_
 _symmetry_equiv_pos_site_id
 _symmetry_equiv_pos_as_xyz
  1  'x, y, z'
loop_
 _atom_site_type_symbol
 _atom_site_label
 _atom_site_symmetry_multiplicity
 _atom_site_fract_x
 _atom_site_fract_y
 _atom_site_fract_z
 _atom_site_occupancy
  Sm  Sm0  1  0.999997  0.000057  0.499910  1
  Sm  Sm1  1  0.999996  0.000051  0.000091  1
  Er  Er2  1  0.483032  0.932960  0.749987  1
  Tm  Tm3  1  0.516570  0.065903  0.249999  1
  Tm  Tm4  1  0.934081  0.483446  0.750001  1
  Tm  Tm5  1  0.065843  0.516509  0.250000  1
  Ru  Ru6  1  0.500056  0.500035  0.499830  1
  Ru  Ru7  1  0.500053  0.500034  0.000171  1
  O  O8  1  0.592686  0.592074  0.749998  1
  O  O9  1  0.407446  0.407508  0.250005  1
  O  O10  1  0.839475  0.118866  0.749997  1
  O  O11  1  0.162005  0.881895  0.250002  1
  O  O12  1  0.116572  0.837884  0.750003  1
  O  O13  1  0.881830  0.161946  0.249999  1
  O  O14  1  0.438857  0.179031  0.963364  1
  O  O15  1  0.561265  0.821273  0.462093  1
  O  O16  1  0.178701  0.439136  0.962823  1
  O  O17  1  0.821346  0.560969  0.462803  1
  O  O18  1  0.438855  0.179038  0.536640  1
  O  O19  1  0.561266  0.821275  0.037909  1
  O  O20  1  0.821364  0.560973  0.037197  1
  O  O21  1  0.178703  0.439135  0.537178  1
