# generated using pymatgen
data_Hf3ZnRh2N
_symmetry_space_group_name_H-M   'P 1'
_cell_length_a   8.48165328
_cell_length_b   8.48165342
_cell_length_c   8.48165300
_cell_angle_alpha   59.99999775
_cell_angle_beta   59.99999720
_cell_angle_gamma   60.00000093
_symmetry_Int_Tables_number   1
_chemical_formula_structural   Hf3ZnRh2N
_chemical_formula_sum   'Hf12 Zn4 Rh8 N4'
_cell_volume   431.44607931
_cell_formula_units_Z   4
loop_
 _symmetry_equiv_pos_site_id
 _symmetry_equiv_pos_as_xyz
  1  'x, y, z'
loop_
 _atom_site_type_symbol
 _atom_site_label
 _atom_site_symmetry_multiplicity
 _atom_site_fract_x
 _atom_site_fract_y
 _atom_site_fract_z
 _atom_site_occupancy
  Hf  Hf0  1  0.809615  0.190385  0.190385  1
  Hf  Hf1  1  0.190385  0.809615  0.190385  1
  Hf  Hf2  1  0.809615  0.809615  0.190385  1
  Hf  Hf3  1  0.190385  0.809615  0.809615  1
  Hf  Hf4  1  0.809615  0.190385  0.809615  1
  Hf  Hf5  1  0.190385  0.190385  0.809615  1
  Hf  Hf6  1  0.440385  0.059615  0.059615  1
  Hf  Hf7  1  0.059615  0.440385  0.059615  1
  Hf  Hf8  1  0.440385  0.440385  0.059615  1
  Hf  Hf9  1  0.059615  0.440385  0.440385  1
  Hf  Hf10  1  0.440385  0.059615  0.440385  1
  Hf  Hf11  1  0.059615  0.059615  0.440385  1
  Zn  Zn12  1  0.625000  0.625000  0.125000  1
  Zn  Zn13  1  0.625000  0.625000  0.625000  1
  Zn  Zn14  1  0.125000  0.625000  0.625000  1
  Zn  Zn15  1  0.625000  0.125000  0.625000  1
  Rh  Rh16  1  0.413287  0.413287  0.760136  1
  Rh  Rh17  1  0.413287  0.413287  0.413287  1
  Rh  Rh18  1  0.760136  0.413287  0.413287  1
  Rh  Rh19  1  0.413287  0.760136  0.413287  1
  Rh  Rh20  1  0.836713  0.836713  0.489864  1
  Rh  Rh21  1  0.836713  0.836713  0.836713  1
  Rh  Rh22  1  0.489864  0.836713  0.836713  1
  Rh  Rh23  1  0.836713  0.489864  0.836713  1
  N  N24  1  0.125000  0.125000  0.625000  1
  N  N25  1  0.125000  0.125000  0.125000  1
  N  N26  1  0.625000  0.125000  0.125000  1
  N  N27  1  0.125000  0.625000  0.125000  1
