# generated using pymatgen
data_Pr6DyInO12
_symmetry_space_group_name_H-M   'P 1'
_cell_length_a   6.98753720
_cell_length_b   6.98753647
_cell_length_c   6.98753582
_cell_angle_alpha   92.81309484
_cell_angle_beta   92.81309723
_cell_angle_gamma   92.81310182
_symmetry_Int_Tables_number   1
_chemical_formula_structural   Pr6DyInO12
_chemical_formula_sum   'Pr6 Dy1 In1 O12'
_cell_volume   339.89576278
_cell_formula_units_Z   1
loop_
 _symmetry_equiv_pos_site_id
 _symmetry_equiv_pos_as_xyz
  1  'x, y, z'
loop_
 _atom_site_type_symbol
 _atom_site_label
 _atom_site_symmetry_multiplicity
 _atom_site_fract_x
 _atom_site_fract_y
 _atom_site_fract_z
 _atom_site_occupancy
  Pr  Pr0  1  0.560565  0.068999  0.256229  1
  Pr  Pr1  1  0.068999  0.256229  0.560565  1
  Pr  Pr2  1  0.743771  0.439435  0.931001  1
  Pr  Pr3  1  0.256229  0.560565  0.068999  1
  Pr  Pr4  1  0.931001  0.743771  0.439435  1
  Pr  Pr5  1  0.439435  0.931001  0.743771  1
  Dy  Dy6  1  0.000000  0.000000  0.000000  1
  In  In7  1  0.500000  0.500000  0.500000  1
  O  O8  1  0.690746  0.089324  0.935426  1
  O  O9  1  0.910676  0.064574  0.309254  1
  O  O10  1  0.407318  0.195395  0.535798  1
  O  O11  1  0.064574  0.309254  0.910676  1
  O  O12  1  0.535798  0.407318  0.195395  1
  O  O13  1  0.804605  0.464202  0.592682  1
  O  O14  1  0.195395  0.535798  0.407318  1
  O  O15  1  0.464202  0.592682  0.804605  1
  O  O16  1  0.935426  0.690746  0.089324  1
  O  O17  1  0.592682  0.804605  0.464202  1
  O  O18  1  0.089324  0.935426  0.690746  1
  O  O19  1  0.309254  0.910676  0.064574  1
