# generated using pymatgen
data_Nd12CuSi7Ni3Ge
_symmetry_space_group_name_H-M   'P 1'
_cell_length_a   4.24042200
_cell_length_b   11.71754819
_cell_length_c   11.74114710
_cell_angle_alpha   89.93205145
_cell_angle_beta   90.00000000
_cell_angle_gamma   90.00000000
_symmetry_Int_Tables_number   1
_chemical_formula_structural   Nd12CuSi7Ni3Ge
_chemical_formula_sum   'Nd12 Cu1 Si7 Ni3 Ge1'
_cell_volume   583.38606522
_cell_formula_units_Z   1
loop_
 _symmetry_equiv_pos_site_id
 _symmetry_equiv_pos_as_xyz
  1  'x, y, z'
loop_
 _atom_site_type_symbol
 _atom_site_label
 _atom_site_symmetry_multiplicity
 _atom_site_fract_x
 _atom_site_fract_y
 _atom_site_fract_z
 _atom_site_occupancy
  Nd  Nd0  1  0.250000  0.375193  0.062292  1
  Nd  Nd1  1  0.750000  0.620851  0.942814  1
  Nd  Nd2  1  0.750000  0.877043  0.439600  1
  Nd  Nd3  1  0.250000  0.123222  0.560670  1
  Nd  Nd4  1  0.250000  0.697171  0.211285  1
  Nd  Nd5  1  0.750000  0.302822  0.787709  1
  Nd  Nd6  1  0.750000  0.196632  0.289176  1
  Nd  Nd7  1  0.250000  0.801237  0.706698  1
  Nd  Nd8  1  0.250000  0.440931  0.383577  1
  Nd  Nd9  1  0.750000  0.558682  0.614801  1
  Nd  Nd10  1  0.750000  0.942500  0.119760  1
  Nd  Nd11  1  0.250000  0.062681  0.884362  1
  Cu  Cu12  1  0.750000  0.864048  0.869349  1
  Si  Si13  1  0.250000  0.686541  0.469130  1
  Si  Si14  1  0.750000  0.313238  0.529623  1
  Si  Si15  1  0.750000  0.185210  0.029274  1
  Si  Si16  1  0.250000  0.813708  0.971726  1
  Si  Si17  1  0.250000  0.009390  0.300813  1
  Si  Si18  1  0.750000  0.992397  0.698206  1
  Si  Si19  1  0.750000  0.510110  0.199714  1
  Ni  Ni20  1  0.250000  0.134999  0.130528  1
  Ni  Ni21  1  0.750000  0.635220  0.370467  1
  Ni  Ni22  1  0.250000  0.362640  0.626156  1
  Ge  Ge23  1  0.250000  0.493530  0.802273  1
