# generated using pymatgen
data_Fe4Ir
_symmetry_space_group_name_H-M   'P 1'
_cell_length_a   2.90291149
_cell_length_b   7.17113739
_cell_length_c   4.85945050
_cell_angle_alpha   42.44889212
_cell_angle_beta   72.45725718
_cell_angle_gamma   65.93559609
_symmetry_Int_Tables_number   1
_chemical_formula_structural   Fe4Ir
_chemical_formula_sum   'Fe4 Ir1'
_cell_volume   62.34211380
_cell_formula_units_Z   1
loop_
 _symmetry_equiv_pos_site_id
 _symmetry_equiv_pos_as_xyz
  1  'x, y, z'
loop_
 _atom_site_type_symbol
 _atom_site_label
 _atom_site_symmetry_multiplicity
 _atom_site_fract_x
 _atom_site_fract_y
 _atom_site_fract_z
 _atom_site_occupancy
  Fe  Fe0  1  0.846385  0.347468  0.534610  1
  Fe  Fe1  1  0.435646  0.554585  0.942581  1
  Fe  Fe2  1  0.050753  0.732026  0.357516  1
  Fe  Fe3  1  0.639614  0.939298  0.765593  1
  Ir  Ir4  1  0.243383  0.143554  0.149455  1
