# generated using pymatgen
data_CaHo5IO12
_symmetry_space_group_name_H-M   'P 1'
_cell_length_a   6.38406128
_cell_length_b   6.36127684
_cell_length_c   6.37725900
_cell_angle_alpha   98.24169718
_cell_angle_beta   98.94567284
_cell_angle_gamma   98.22418838
_symmetry_Int_Tables_number   1
_chemical_formula_structural   CaHo5IO12
_chemical_formula_sum   'Ca1 Ho5 I1 O12'
_cell_volume   249.54588784
_cell_formula_units_Z   1
loop_
 _symmetry_equiv_pos_site_id
 _symmetry_equiv_pos_as_xyz
  1  'x, y, z'
loop_
 _atom_site_type_symbol
 _atom_site_label
 _atom_site_symmetry_multiplicity
 _atom_site_fract_x
 _atom_site_fract_y
 _atom_site_fract_z
 _atom_site_occupancy
  Ca  Ca0  1  0.320916  0.148094  0.606165  1
  Ho  Ho1  1  0.389730  0.680351  0.849610  1
  Ho  Ho2  1  0.852701  0.386146  0.677419  1
  Ho  Ho3  1  0.678125  0.852705  0.389582  1
  Ho  Ho4  1  0.608865  0.319221  0.142785  1
  Ho  Ho5  1  0.148938  0.611149  0.324208  1
  I  I6  1  0.998699  0.998033  0.002020  1
  O  O7  1  0.175432  0.439991  0.597953  1
  O  O8  1  0.607445  0.177249  0.428416  1
  O  O9  1  0.429363  0.591606  0.175462  1
  O  O10  1  0.822620  0.566360  0.401515  1
  O  O11  1  0.411129  0.819722  0.564330  1
  O  O12  1  0.578238  0.420680  0.826549  1
  O  O13  1  0.923397  0.026671  0.708560  1
  O  O14  1  0.970259  0.294260  0.071641  1
  O  O15  1  0.292901  0.068001  0.980809  1
  O  O16  1  0.060860  0.963865  0.295062  1
  O  O17  1  0.028542  0.703915  0.929822  1
  O  O18  1  0.701839  0.931982  0.028091  1
