# generated using pymatgen
data_Pr5P12PdRu18
_symmetry_space_group_name_H-M   'P 1'
_cell_length_a   12.61861900
_cell_length_b   12.70797527
_cell_length_c   4.03015800
_cell_angle_alpha   90.00000000
_cell_angle_beta   90.00000000
_cell_angle_gamma   119.76766820
_symmetry_Int_Tables_number   1
_chemical_formula_structural   Pr5P12PdRu18
_chemical_formula_sum   'Pr5 P12 Pd1 Ru18'
_cell_volume   560.98710623
_cell_formula_units_Z   1
loop_
 _symmetry_equiv_pos_site_id
 _symmetry_equiv_pos_as_xyz
  1  'x, y, z'
loop_
 _atom_site_type_symbol
 _atom_site_label
 _atom_site_symmetry_multiplicity
 _atom_site_fract_x
 _atom_site_fract_y
 _atom_site_fract_z
 _atom_site_occupancy
  Pr  Pr0  1  0.817740  0.000000  0.500000  1
  Pr  Pr1  1  0.000543  0.816056  0.500000  1
  Pr  Pr2  1  0.184487  0.183944  0.500000  1
  Pr  Pr3  1  0.331730  0.662608  0.000000  1
  Pr  Pr4  1  0.669123  0.337392  0.000000  1
  P  P5  1  0.190927  0.000000  0.000000  1
  P  P6  1  0.999025  0.186835  0.000000  1
  P  P7  1  0.812189  0.813165  0.000000  1
  P  P8  1  0.522068  0.694212  0.500000  1
  P  P9  1  0.297895  0.819895  0.500000  1
  P  P10  1  0.169456  0.473631  0.500000  1
  P  P11  1  0.478000  0.180105  0.500000  1
  P  P12  1  0.695826  0.526369  0.500000  1
  P  P13  1  0.827856  0.305788  0.500000  1
  P  P14  1  0.632045  0.000000  0.000000  1
  P  P15  1  0.999139  0.623861  0.000000  1
  P  P16  1  0.375278  0.376139  0.000000  1
  Pd  Pd17  1  0.447292  0.000000  0.000000  1
  Ru  Ru18  1  0.999012  0.444709  0.000000  1
  Ru  Ru19  1  0.554303  0.555291  0.000000  1
  Ru  Ru20  1  0.289957  0.000000  0.500000  1
  Ru  Ru21  1  0.998477  0.284468  0.500000  1
  Ru  Ru22  1  0.714009  0.715532  0.500000  1
  Ru  Ru23  1  0.619731  0.805264  0.000000  1
  Ru  Ru24  1  0.194193  0.814244  0.000000  1
  Ru  Ru25  1  0.183196  0.376446  0.000000  1
  Ru  Ru26  1  0.379948  0.185756  0.000000  1
  Ru  Ru27  1  0.806750  0.623554  0.000000  1
  Ru  Ru28  1  0.814467  0.194736  0.000000  1
  Ru  Ru29  1  0.507703  0.875955  0.500000  1
  Ru  Ru30  1  0.121265  0.629490  0.500000  1
  Ru  Ru31  1  0.365990  0.491180  0.500000  1
  Ru  Ru32  1  0.491776  0.370510  0.500000  1
  Ru  Ru33  1  0.874810  0.508820  0.500000  1
  Ru  Ru34  1  0.631749  0.124045  0.500000  1
  Ru  Ru35  1  0.002044  0.000000  0.000000  1
