# generated using pymatgen
data_Dy5Er3(Si3Rh)4
_symmetry_space_group_name_H-M   'P 1'
_cell_length_a   8.16269400
_cell_length_b   8.16268050
_cell_length_c   7.87074900
_cell_angle_alpha   90.00000000
_cell_angle_beta   90.00000000
_cell_angle_gamma   120.00021299
_symmetry_Int_Tables_number   1
_chemical_formula_structural   Dy5Er3(Si3Rh)4
_chemical_formula_sum   'Dy5 Er3 Si12 Rh4'
_cell_volume   454.16334116
_cell_formula_units_Z   1
loop_
 _symmetry_equiv_pos_site_id
 _symmetry_equiv_pos_as_xyz
  1  'x, y, z'
loop_
 _atom_site_type_symbol
 _atom_site_label
 _atom_site_symmetry_multiplicity
 _atom_site_fract_x
 _atom_site_fract_y
 _atom_site_fract_z
 _atom_site_occupancy
  Dy  Dy0  1  0.999999  0.999999  0.250000  1
  Dy  Dy1  1  0.999999  0.000000  0.750000  1
  Dy  Dy2  1  0.493194  0.506807  0.250000  1
  Dy  Dy3  1  0.493193  0.986386  0.250000  1
  Dy  Dy4  1  0.013612  0.506806  0.250000  1
  Er  Er5  1  0.507626  0.492376  0.750000  1
  Er  Er6  1  0.984749  0.492375  0.750000  1
  Er  Er7  1  0.507626  0.015249  0.750000  1
  Si  Si8  1  0.833583  0.166417  0.501992  1
  Si  Si9  1  0.833583  0.667167  0.501993  1
  Si  Si10  1  0.332834  0.166417  0.501993  1
  Si  Si11  1  0.833583  0.166417  0.998008  1
  Si  Si12  1  0.833583  0.667167  0.998007  1
  Si  Si13  1  0.332834  0.166417  0.998007  1
  Si  Si14  1  0.166966  0.833034  0.000407  1
  Si  Si15  1  0.666068  0.833034  0.000407  1
  Si  Si16  1  0.166966  0.333933  0.000407  1
  Si  Si17  1  0.166966  0.833034  0.499593  1
  Si  Si18  1  0.666068  0.833034  0.499593  1
  Si  Si19  1  0.166966  0.333933  0.499593  1
  Rh  Rh20  1  0.666667  0.333333  0.475886  1
  Rh  Rh21  1  0.666667  0.333333  0.024114  1
  Rh  Rh22  1  0.333334  0.666667  0.965196  1
  Rh  Rh23  1  0.333334  0.666667  0.534804  1
