# generated using pymatgen
data_TbTh5(GePd)6
_symmetry_space_group_name_H-M   'P 1'
_cell_length_a   4.43331100
_cell_length_b   7.66471889
_cell_length_c   22.79752582
_cell_angle_alpha   90.19453770
_cell_angle_beta   90.00000000
_cell_angle_gamma   90.00000000
_symmetry_Int_Tables_number   1
_chemical_formula_structural   TbTh5(GePd)6
_chemical_formula_sum   'Tb2 Th10 Ge12 Pd12'
_cell_volume   774.65734452
_cell_formula_units_Z   2
loop_
 _symmetry_equiv_pos_site_id
 _symmetry_equiv_pos_as_xyz
  1  'x, y, z'
loop_
 _atom_site_type_symbol
 _atom_site_label
 _atom_site_symmetry_multiplicity
 _atom_site_fract_x
 _atom_site_fract_y
 _atom_site_fract_z
 _atom_site_occupancy
  Tb  Tb0  1  0.750000  0.222072  0.500580  1
  Tb  Tb1  1  0.250000  0.777928  0.499420  1
  Th  Th2  1  0.250000  0.737052  0.338936  1
  Th  Th3  1  0.750000  0.262948  0.661064  1
  Th  Th4  1  0.750000  0.241266  0.169306  1
  Th  Th5  1  0.250000  0.758734  0.830694  1
  Th  Th6  1  0.250000  0.761537  0.169609  1
  Th  Th7  1  0.750000  0.238463  0.830391  1
  Th  Th8  1  0.750000  0.268193  0.338380  1
  Th  Th9  1  0.250000  0.731807  0.661620  1
  Th  Th10  1  0.250000  0.740945  0.000243  1
  Th  Th11  1  0.750000  0.259055  0.999757  1
  Ge  Ge12  1  0.250000  0.085921  0.078049  1
  Ge  Ge13  1  0.750000  0.914079  0.921951  1
  Ge  Ge14  1  0.750000  0.582380  0.428925  1
  Ge  Ge15  1  0.250000  0.417620  0.571075  1
  Ge  Ge16  1  0.250000  0.085188  0.251775  1
  Ge  Ge17  1  0.750000  0.914812  0.748225  1
  Ge  Ge18  1  0.750000  0.588496  0.252058  1
  Ge  Ge19  1  0.250000  0.411504  0.747942  1
  Ge  Ge20  1  0.250000  0.091188  0.411875  1
  Ge  Ge21  1  0.750000  0.908812  0.588125  1
  Ge  Ge22  1  0.750000  0.583908  0.083803  1
  Ge  Ge23  1  0.250000  0.416092  0.916197  1
  Pd  Pd24  1  0.250000  0.419368  0.250895  1
  Pd  Pd25  1  0.750000  0.580632  0.749105  1
  Pd  Pd26  1  0.750000  0.921027  0.261702  1
  Pd  Pd27  1  0.250000  0.078973  0.738298  1
  Pd  Pd28  1  0.250000  0.420170  0.437669  1
  Pd  Pd29  1  0.750000  0.579830  0.562331  1
  Pd  Pd30  1  0.750000  0.918194  0.083994  1
  Pd  Pd31  1  0.250000  0.081806  0.916006  1
  Pd  Pd32  1  0.250000  0.418469  0.092689  1
  Pd  Pd33  1  0.750000  0.581531  0.907311  1
  Pd  Pd34  1  0.750000  0.917752  0.416013  1
  Pd  Pd35  1  0.250000  0.082248  0.583987  1
