# generated using pymatgen
data_Nd5YHo2(Si3Rh)4
_symmetry_space_group_name_H-M   'P 1'
_cell_length_a   8.23129957
_cell_length_b   8.23129836
_cell_length_c   8.16857700
_cell_angle_alpha   90.00000000
_cell_angle_beta   90.00000000
_cell_angle_gamma   120.04248819
_symmetry_Int_Tables_number   1
_chemical_formula_structural   Nd5YHo2(Si3Rh)4
_chemical_formula_sum   'Nd5 Y1 Ho2 Si12 Rh4'
_cell_volume   479.10167864
_cell_formula_units_Z   1
loop_
 _symmetry_equiv_pos_site_id
 _symmetry_equiv_pos_as_xyz
  1  'x, y, z'
loop_
 _atom_site_type_symbol
 _atom_site_label
 _atom_site_symmetry_multiplicity
 _atom_site_fract_x
 _atom_site_fract_y
 _atom_site_fract_z
 _atom_site_occupancy
  Nd  Nd0  1  0.000002  0.999998  0.250000  1
  Nd  Nd1  1  0.000012  0.999988  0.750000  1
  Nd  Nd2  1  0.505384  0.494616  0.250000  1
  Nd  Nd3  1  0.505372  0.010758  0.250000  1
  Nd  Nd4  1  0.989242  0.494628  0.250000  1
  Y  Y5  1  0.492062  0.507938  0.750000  1
  Ho  Ho6  1  0.492183  0.984470  0.750000  1
  Ho  Ho7  1  0.015530  0.507817  0.750000  1
  Si  Si8  1  0.166911  0.833089  0.506963  1
  Si  Si9  1  0.166736  0.333749  0.506709  1
  Si  Si10  1  0.666251  0.833264  0.506709  1
  Si  Si11  1  0.831675  0.168325  0.504327  1
  Si  Si12  1  0.831785  0.663371  0.504162  1
  Si  Si13  1  0.336629  0.168215  0.504162  1
  Si  Si14  1  0.831675  0.168325  0.995673  1
  Si  Si15  1  0.831785  0.663371  0.995838  1
  Si  Si16  1  0.336629  0.168215  0.995838  1
  Si  Si17  1  0.166911  0.833089  0.993037  1
  Si  Si18  1  0.166736  0.333749  0.993291  1
  Si  Si19  1  0.666251  0.833264  0.993291  1
  Rh  Rh20  1  0.333122  0.666878  0.488381  1
  Rh  Rh21  1  0.666997  0.333003  0.544706  1
  Rh  Rh22  1  0.666997  0.333003  0.955294  1
  Rh  Rh23  1  0.333122  0.666878  0.011619  1
