# generated using pymatgen
data_Ta9Al3NiGe
_symmetry_space_group_name_H-M   'P 1'
_cell_length_a   9.88223659
_cell_length_b   9.91275624
_cell_length_c   9.88223600
_cell_angle_alpha   93.79475747
_cell_angle_beta   93.64635508
_cell_angle_gamma   150.15057216
_symmetry_Int_Tables_number   1
_chemical_formula_structural   Ta9Al3NiGe
_chemical_formula_sum   'Ta18 Al6 Ni2 Ge2'
_cell_volume   466.28361817
_cell_formula_units_Z   2
loop_
 _symmetry_equiv_pos_site_id
 _symmetry_equiv_pos_as_xyz
  1  'x, y, z'
loop_
 _atom_site_type_symbol
 _atom_site_label
 _atom_site_symmetry_multiplicity
 _atom_site_fract_x
 _atom_site_fract_y
 _atom_site_fract_z
 _atom_site_occupancy
  Ta  Ta0  1  0.566499  0.793523  0.357088  1
  Ta  Ta1  1  0.082559  0.157128  0.243555  1
  Ta  Ta2  1  0.586428  0.342872  0.925431  1
  Ta  Ta3  1  0.653582  0.579150  0.243668  1
  Ta  Ta4  1  0.346418  0.420850  0.756332  1
  Ta  Ta5  1  0.790266  0.433343  0.227312  1
  Ta  Ta6  1  0.413572  0.657128  0.074569  1
  Ta  Ta7  1  0.164516  0.920850  0.074433  1
  Ta  Ta8  1  0.706031  0.933343  0.643077  1
  Ta  Ta9  1  0.433501  0.206477  0.642912  1
  Ta  Ta10  1  0.917441  0.842872  0.756445  1
  Ta  Ta11  1  0.063564  0.706477  0.772976  1
  Ta  Ta12  1  0.209734  0.566657  0.772688  1
  Ta  Ta13  1  0.251053  0.750000  0.501053  1
  Ta  Ta14  1  0.293969  0.066657  0.356923  1
  Ta  Ta15  1  0.748947  0.250000  0.498947  1
  Ta  Ta16  1  0.835484  0.079150  0.925567  1
  Ta  Ta17  1  0.936436  0.293523  0.227024  1
  Al  Al18  1  0.376092  0.875996  0.238165  1
  Al  Al19  1  0.862169  0.624004  0.500095  1
  Al  Al20  1  0.137831  0.375996  0.499905  1
  Al  Al21  1  0.623908  0.124004  0.761835  1
  Al  Al22  1  0.000000  0.500000  0.000000  1
  Al  Al23  1  0.000000  0.000000  0.500000  1
  Ni  Ni24  1  0.500000  0.000000  0.000000  1
  Ni  Ni25  1  0.500000  0.500000  0.500000  1
  Ge  Ge26  1  0.750647  0.750000  0.000647  1
  Ge  Ge27  1  0.249353  0.250000  0.999353  1
