# generated using pymatgen
data_Ho2UAl2GaIr3
_symmetry_space_group_name_H-M   'P 1'
_cell_length_a   7.05060346
_cell_length_b   7.20512852
_cell_length_c   3.92225800
_cell_angle_alpha   90.00000000
_cell_angle_beta   90.00000000
_cell_angle_gamma   120.51763415
_symmetry_Int_Tables_number   1
_chemical_formula_structural   Ho2UAl2GaIr3
_chemical_formula_sum   'Ho2 U1 Al2 Ga1 Ir3'
_cell_volume   171.65078974
_cell_formula_units_Z   1
loop_
 _symmetry_equiv_pos_site_id
 _symmetry_equiv_pos_as_xyz
  1  'x, y, z'
loop_
 _atom_site_type_symbol
 _atom_site_label
 _atom_site_symmetry_multiplicity
 _atom_site_fract_x
 _atom_site_fract_y
 _atom_site_fract_z
 _atom_site_occupancy
  Ho  Ho0  1  0.414193  0.417533  0.500000  1
  Ho  Ho1  1  0.589347  0.001201  0.500000  1
  U  U2  1  0.997770  0.579771  0.500000  1
  Al  Al3  1  0.250820  0.008004  0.000000  1
  Al  Al4  1  0.001924  0.229467  0.000000  1
  Ga  Ga5  1  0.743537  0.752651  0.000000  1
  Ir  Ir6  1  0.698038  0.355969  0.000000  1
  Ir  Ir7  1  0.296938  0.662784  0.000000  1
  Ir  Ir8  1  0.007433  0.992623  0.500000  1
