# generated using pymatgen
data_Hf16Ta3Co2Ni2Pb
_symmetry_space_group_name_H-M   'P 1'
_cell_length_a   8.81887777
_cell_length_b   8.81888003
_cell_length_c   8.82855304
_cell_angle_alpha   59.84182266
_cell_angle_beta   59.84181766
_cell_angle_gamma   59.75354077
_symmetry_Int_Tables_number   1
_chemical_formula_structural   Hf16Ta3Co2Ni2Pb
_chemical_formula_sum   'Hf16 Ta3 Co2 Ni2 Pb1'
_cell_volume   483.44515159
_cell_formula_units_Z   1
loop_
 _symmetry_equiv_pos_site_id
 _symmetry_equiv_pos_as_xyz
  1  'x, y, z'
loop_
 _atom_site_type_symbol
 _atom_site_label
 _atom_site_symmetry_multiplicity
 _atom_site_fract_x
 _atom_site_fract_y
 _atom_site_fract_z
 _atom_site_occupancy
  Hf  Hf0  1  0.708647  0.096310  0.092933  1
  Hf  Hf1  1  0.096310  0.708647  0.092933  1
  Hf  Hf2  1  0.094561  0.094561  0.710692  1
  Hf  Hf3  1  0.103672  0.103672  0.099685  1
  Hf  Hf4  1  0.315443  0.315443  0.693913  1
  Hf  Hf5  1  0.686615  0.686615  0.315025  1
  Hf  Hf6  1  0.315984  0.694855  0.314866  1
  Hf  Hf7  1  0.685290  0.316102  0.684846  1
  Hf  Hf8  1  0.694855  0.315984  0.314866  1
  Hf  Hf9  1  0.316102  0.685290  0.684846  1
  Hf  Hf10  1  0.955268  0.955268  0.541744  1
  Hf  Hf11  1  0.561006  0.561006  0.934804  1
  Hf  Hf12  1  0.953806  0.540782  0.953563  1
  Hf  Hf13  1  0.555593  0.935050  0.564536  1
  Hf  Hf14  1  0.540782  0.953806  0.953563  1
  Hf  Hf15  1  0.935050  0.555593  0.564536  1
  Ta  Ta16  1  0.993431  0.332859  0.331908  1
  Ta  Ta17  1  0.332859  0.993431  0.331908  1
  Ta  Ta18  1  0.332138  0.332138  0.993388  1
  Co  Co19  1  0.325988  0.887224  0.888827  1
  Co  Co20  1  0.887224  0.325988  0.888827  1
  Ni  Ni21  1  0.888596  0.888596  0.326802  1
  Ni  Ni22  1  0.888672  0.888672  0.889369  1
  Pb  Pb23  1  0.332103  0.332103  0.331614  1
