# generated using pymatgen
data_Nd2GdTeAs2
_symmetry_space_group_name_H-M   'P 1'
_cell_length_a   4.24298000
_cell_length_b   10.53863609
_cell_length_c   7.33220400
_cell_angle_alpha   89.80017237
_cell_angle_beta   90.00000000
_cell_angle_gamma   90.00000000
_symmetry_Int_Tables_number   1
_chemical_formula_structural   Nd2GdTeAs2
_chemical_formula_sum   'Nd4 Gd2 Te2 As4'
_cell_volume   327.85913690
_cell_formula_units_Z   2
loop_
 _symmetry_equiv_pos_site_id
 _symmetry_equiv_pos_as_xyz
  1  'x, y, z'
loop_
 _atom_site_type_symbol
 _atom_site_label
 _atom_site_symmetry_multiplicity
 _atom_site_fract_x
 _atom_site_fract_y
 _atom_site_fract_z
 _atom_site_occupancy
  Nd  Nd0  1  0.250000  0.806281  0.916013  1
  Nd  Nd1  1  0.750000  0.193719  0.083987  1
  Nd  Nd2  1  0.750000  0.805935  0.416182  1
  Nd  Nd3  1  0.250000  0.194065  0.583818  1
  Gd  Gd4  1  0.250000  0.499960  0.249853  1
  Gd  Gd5  1  0.750000  0.500040  0.750147  1
  Te  Te6  1  0.750000  0.000153  0.749748  1
  Te  Te7  1  0.250000  0.999847  0.250252  1
  As  As8  1  0.250000  0.653945  0.583588  1
  As  As9  1  0.750000  0.346055  0.416412  1
  As  As10  1  0.750000  0.654153  0.083361  1
  As  As11  1  0.250000  0.345847  0.916639  1
