# generated using pymatgen
data_La12NdThIr6
_symmetry_space_group_name_H-M   'P 1'
_cell_length_a   6.50915200
_cell_length_b   10.24065058
_cell_length_c   10.24065000
_cell_angle_alpha   119.99865773
_cell_angle_beta   89.99893794
_cell_angle_gamma   90.00106843
_symmetry_Int_Tables_number   1
_chemical_formula_structural   La12NdThIr6
_chemical_formula_sum   'La12 Nd1 Th1 Ir6'
_cell_volume   591.17490494
_cell_formula_units_Z   1
loop_
 _symmetry_equiv_pos_site_id
 _symmetry_equiv_pos_as_xyz
  1  'x, y, z'
loop_
 _atom_site_type_symbol
 _atom_site_label
 _atom_site_symmetry_multiplicity
 _atom_site_fract_x
 _atom_site_fract_y
 _atom_site_fract_z
 _atom_site_occupancy
  La  La0  1  0.249543  0.126354  0.873646  1
  La  La1  1  0.249604  0.747225  0.873619  1
  La  La2  1  0.249604  0.126381  0.252775  1
  La  La3  1  0.748936  0.873815  0.126185  1
  La  La4  1  0.748968  0.252403  0.126184  1
  La  La5  1  0.748968  0.873816  0.747597  1
  La  La6  1  0.436066  0.538702  0.461298  1
  La  La7  1  0.435936  0.922602  0.461330  1
  La  La8  1  0.435936  0.538670  0.077398  1
  La  La9  1  0.940862  0.460394  0.539606  1
  La  La10  1  0.940739  0.079186  0.539558  1
  La  La11  1  0.940739  0.460442  0.920814  1
  Nd  Nd12  1  0.972221  0.666668  0.333332  1
  Th  Th13  1  0.479812  0.333331  0.666669  1
  Ir  Ir14  1  0.189768  0.811816  0.188184  1
  Ir  Ir15  1  0.189767  0.376368  0.188207  1
  Ir  Ir16  1  0.189767  0.811793  0.623632  1
  Ir  Ir17  1  0.684913  0.191672  0.808328  1
  Ir  Ir18  1  0.684922  0.616678  0.808317  1
  Ir  Ir19  1  0.684922  0.191683  0.383322  1
