# generated using pymatgen
data_Dy3Er5In3Co
_symmetry_space_group_name_H-M   'P 1'
_cell_length_a   10.33541700
_cell_length_b   10.33541703
_cell_length_c   6.96233000
_cell_angle_alpha   90.00000000
_cell_angle_beta   90.00000000
_cell_angle_gamma   119.99999671
_symmetry_Int_Tables_number   1
_chemical_formula_structural   Dy3Er5In3Co
_chemical_formula_sum   'Dy6 Er10 In6 Co2'
_cell_volume   644.08214298
_cell_formula_units_Z   2
loop_
 _symmetry_equiv_pos_site_id
 _symmetry_equiv_pos_as_xyz
  1  'x, y, z'
loop_
 _atom_site_type_symbol
 _atom_site_label
 _atom_site_symmetry_multiplicity
 _atom_site_fract_x
 _atom_site_fract_y
 _atom_site_fract_z
 _atom_site_occupancy
  Dy  Dy0  1  0.534202  0.068404  0.791242  1
  Dy  Dy1  1  0.931596  0.465798  0.791242  1
  Dy  Dy2  1  0.534202  0.465798  0.791242  1
  Dy  Dy3  1  0.465798  0.931596  0.291242  1
  Dy  Dy4  1  0.068404  0.534202  0.291242  1
  Dy  Dy5  1  0.465798  0.534202  0.291242  1
  Er  Er6  1  0.821855  0.643711  0.500015  1
  Er  Er7  1  0.356289  0.178145  0.500015  1
  Er  Er8  1  0.821855  0.178145  0.500015  1
  Er  Er9  1  0.178145  0.356289  0.000015  1
  Er  Er10  1  0.643711  0.821855  0.000015  1
  Er  Er11  1  0.178145  0.821855  0.000015  1
  Er  Er12  1  0.666667  0.333333  0.182484  1
  Er  Er13  1  0.333333  0.666667  0.682484  1
  Er  Er14  1  0.000000  0.000000  0.779456  1
  Er  Er15  1  0.000000  0.000000  0.279456  1
  In  In16  1  0.837116  0.674233  0.037888  1
  In  In17  1  0.325767  0.162884  0.037888  1
  In  In18  1  0.837116  0.162884  0.037888  1
  In  In19  1  0.162884  0.325767  0.537888  1
  In  In20  1  0.674233  0.837116  0.537888  1
  In  In21  1  0.162884  0.837116  0.537888  1
  Co  Co22  1  0.666667  0.333333  0.568575  1
  Co  Co23  1  0.333333  0.666667  0.068575  1
