# generated using pymatgen
data_LiScH6Ir
_symmetry_space_group_name_H-M   'P 1'
_cell_length_a   6.72032300
_cell_length_b   6.72032300
_cell_length_c   6.72032300
_cell_angle_alpha   90.00000000
_cell_angle_beta   90.00000000
_cell_angle_gamma   90.00000000
_symmetry_Int_Tables_number   1
_chemical_formula_structural   LiScH6Ir
_chemical_formula_sum   'Li4 Sc4 H24 Ir4'
_cell_volume   303.50820859
_cell_formula_units_Z   4
loop_
 _symmetry_equiv_pos_site_id
 _symmetry_equiv_pos_as_xyz
  1  'x, y, z'
loop_
 _atom_site_type_symbol
 _atom_site_label
 _atom_site_symmetry_multiplicity
 _atom_site_fract_x
 _atom_site_fract_y
 _atom_site_fract_z
 _atom_site_occupancy
  Li  Li0  1  0.000000  0.000000  0.500000  1
  Li  Li1  1  0.000000  0.500000  0.000000  1
  Li  Li2  1  0.500000  0.000000  0.000000  1
  Li  Li3  1  0.000000  0.000000  0.000000  1
  Sc  Sc4  1  0.500000  0.500000  0.500000  1
  Sc  Sc5  1  0.000000  0.500000  0.500000  1
  Sc  Sc6  1  0.500000  0.000000  0.500000  1
  Sc  Sc7  1  0.500000  0.500000  0.000000  1
  H  H8  1  0.748785  0.748785  0.508520  1
  H  H9  1  0.251215  0.251215  0.508520  1
  H  H10  1  0.003324  0.746937  0.746937  1
  H  H11  1  0.253063  0.996676  0.746937  1
  H  H12  1  0.746937  0.003324  0.746937  1
  H  H13  1  0.996676  0.253063  0.746937  1
  H  H14  1  0.748785  0.508520  0.748785  1
  H  H15  1  0.508520  0.748785  0.748785  1
  H  H16  1  0.491480  0.251215  0.748785  1
  H  H17  1  0.251215  0.491480  0.748785  1
  H  H18  1  0.253063  0.746937  0.996676  1
  H  H19  1  0.746937  0.253063  0.996676  1
  H  H20  1  0.746937  0.746937  0.003324  1
  H  H21  1  0.253063  0.253063  0.003324  1
  H  H22  1  0.251215  0.508520  0.251215  1
  H  H23  1  0.491480  0.748785  0.251215  1
  H  H24  1  0.508520  0.251215  0.251215  1
  H  H25  1  0.748785  0.491480  0.251215  1
  H  H26  1  0.996676  0.746937  0.253063  1
  H  H27  1  0.746937  0.996676  0.253063  1
  H  H28  1  0.253063  0.003324  0.253063  1
  H  H29  1  0.003324  0.253063  0.253063  1
  H  H30  1  0.251215  0.748785  0.491480  1
  H  H31  1  0.748785  0.251215  0.491480  1
  Ir  Ir32  1  0.253199  0.746801  0.746801  1
  Ir  Ir33  1  0.746801  0.253199  0.746801  1
  Ir  Ir34  1  0.746801  0.746801  0.253199  1
  Ir  Ir35  1  0.253199  0.253199  0.253199  1
