# generated using pymatgen
data_Ho2Cr2FeNi7P6
_symmetry_space_group_name_H-M   'P 1'
_cell_length_a   3.67896500
_cell_length_b   10.44339900
_cell_length_c   11.94168000
_cell_angle_alpha   90.00000000
_cell_angle_beta   90.00000000
_cell_angle_gamma   90.00000000
_symmetry_Int_Tables_number   1
_chemical_formula_structural   Ho2Cr2FeNi7P6
_chemical_formula_sum   'Ho4 Cr4 Fe2 Ni14 P12'
_cell_volume   458.81008597
_cell_formula_units_Z   2
loop_
 _symmetry_equiv_pos_site_id
 _symmetry_equiv_pos_as_xyz
  1  'x, y, z'
loop_
 _atom_site_type_symbol
 _atom_site_label
 _atom_site_symmetry_multiplicity
 _atom_site_fract_x
 _atom_site_fract_y
 _atom_site_fract_z
 _atom_site_occupancy
  Ho  Ho0  1  0.250000  0.583738  0.705205  1
  Ho  Ho1  1  0.250000  0.916262  0.205205  1
  Ho  Ho2  1  0.750000  0.416869  0.294682  1
  Ho  Ho3  1  0.750000  0.083131  0.794682  1
  Cr  Cr4  1  0.250000  0.709118  0.987675  1
  Cr  Cr5  1  0.250000  0.790882  0.487675  1
  Cr  Cr6  1  0.750000  0.289415  0.010939  1
  Cr  Cr7  1  0.750000  0.210585  0.510939  1
  Fe  Fe8  1  0.750000  0.533381  0.067708  1
  Fe  Fe9  1  0.750000  0.966619  0.567708  1
  Ni  Ni10  1  0.250000  0.410465  0.490228  1
  Ni  Ni11  1  0.250000  0.089535  0.990228  1
  Ni  Ni12  1  0.750000  0.592037  0.511766  1
  Ni  Ni13  1  0.750000  0.907963  0.011766  1
  Ni  Ni14  1  0.250000  0.223455  0.178620  1
  Ni  Ni15  1  0.250000  0.276545  0.678620  1
  Ni  Ni16  1  0.750000  0.778578  0.820875  1
  Ni  Ni17  1  0.750000  0.721422  0.320875  1
  Ni  Ni18  1  0.250000  0.882394  0.701471  1
  Ni  Ni19  1  0.250000  0.617606  0.201471  1
  Ni  Ni20  1  0.750000  0.115524  0.299277  1
  Ni  Ni21  1  0.750000  0.384476  0.799277  1
  Ni  Ni22  1  0.250000  0.465907  0.929228  1
  Ni  Ni23  1  0.250000  0.034093  0.429228  1
  P  P24  1  0.250000  0.420818  0.111635  1
  P  P25  1  0.250000  0.079182  0.611635  1
  P  P26  1  0.750000  0.582961  0.889408  1
  P  P27  1  0.750000  0.917039  0.389408  1
  P  P28  1  0.250000  0.265876  0.872036  1
  P  P29  1  0.250000  0.234124  0.372036  1
  P  P30  1  0.750000  0.730614  0.127665  1
  P  P31  1  0.750000  0.769386  0.627665  1
  P  P32  1  0.250000  0.601001  0.391295  1
  P  P33  1  0.250000  0.898999  0.891295  1
  P  P34  1  0.750000  0.399162  0.610288  1
  P  P35  1  0.750000  0.100838  0.110288  1
