# generated using pymatgen
data_Tb2Dy(Cd2Ga)2
_symmetry_space_group_name_H-M   'P 1'
_cell_length_a   7.43351078
_cell_length_b   7.44000884
_cell_length_c   4.38371100
_cell_angle_alpha   90.00000000
_cell_angle_beta   90.00000000
_cell_angle_gamma   120.02892735
_symmetry_Int_Tables_number   1
_chemical_formula_structural   Tb2Dy(Cd2Ga)2
_chemical_formula_sum   'Tb2 Dy1 Cd4 Ga2'
_cell_volume   209.90041996
_cell_formula_units_Z   1
loop_
 _symmetry_equiv_pos_site_id
 _symmetry_equiv_pos_as_xyz
  1  'x, y, z'
loop_
 _atom_site_type_symbol
 _atom_site_label
 _atom_site_symmetry_multiplicity
 _atom_site_fract_x
 _atom_site_fract_y
 _atom_site_fract_z
 _atom_site_occupancy
  Tb  Tb0  1  0.426767  0.426935  0.500000  1
  Tb  Tb1  1  0.573233  0.000168  0.500000  1
  Dy  Dy2  1  0.000000  0.573178  0.500000  1
  Cd  Cd3  1  0.743692  0.743508  0.000000  1
  Cd  Cd4  1  0.256308  0.999817  0.000000  1
  Cd  Cd5  1  0.000000  0.256613  0.000000  1
  Cd  Cd6  1  0.000000  0.999561  0.500000  1
  Ga  Ga7  1  0.667138  0.333679  0.000000  1
  Ga  Ga8  1  0.332862  0.666542  0.000000  1
