# generated using pymatgen
data_Ce2FeN3
_symmetry_space_group_name_H-M   'P 1'
_cell_length_a   3.48400209
_cell_length_b   3.68911565
_cell_length_c   6.71174640
_cell_angle_alpha   105.95159553
_cell_angle_beta   105.04307799
_cell_angle_gamma   90.00000543
_symmetry_Int_Tables_number   1
_chemical_formula_structural   Ce2FeN3
_chemical_formula_sum   'Ce2 Fe1 N3'
_cell_volume   79.86451120
_cell_formula_units_Z   1
loop_
 _symmetry_equiv_pos_site_id
 _symmetry_equiv_pos_as_xyz
  1  'x, y, z'
loop_
 _atom_site_type_symbol
 _atom_site_label
 _atom_site_symmetry_multiplicity
 _atom_site_fract_x
 _atom_site_fract_y
 _atom_site_fract_z
 _atom_site_occupancy
  Ce  Ce0  1  0.645333  0.645334  0.290670  1
  Ce  Ce1  1  0.354666  0.354666  0.709331  1
  Fe  Fe2  1  0.000000  0.000000  0.000000  1
  N  N3  1  0.000001  0.499999  0.999999  1
  N  N4  1  0.164720  0.164720  0.329439  1
  N  N5  1  0.835279  0.835279  0.670561  1
