# generated using pymatgen
data_TaTi2SiC2
_symmetry_space_group_name_H-M   'P 1'
_cell_length_a   3.11370300
_cell_length_b   3.11370334
_cell_length_c   17.72131900
_cell_angle_alpha   90.00000000
_cell_angle_beta   90.00000000
_cell_angle_gamma   120.00000703
_symmetry_Int_Tables_number   1
_chemical_formula_structural   TaTi2SiC2
_chemical_formula_sum   'Ta2 Ti4 Si2 C4'
_cell_volume   148.79250716
_cell_formula_units_Z   2
loop_
 _symmetry_equiv_pos_site_id
 _symmetry_equiv_pos_as_xyz
  1  'x, y, z'
loop_
 _atom_site_type_symbol
 _atom_site_label
 _atom_site_symmetry_multiplicity
 _atom_site_fract_x
 _atom_site_fract_y
 _atom_site_fract_z
 _atom_site_occupancy
  Ta  Ta0  1  0.000000  0.000000  0.500000  1
  Ta  Ta1  1  0.000000  0.000000  0.000000  1
  Ti  Ti2  1  0.666667  0.333333  0.361517  1
  Ti  Ti3  1  0.333333  0.666667  0.638483  1
  Ti  Ti4  1  0.333333  0.666667  0.861517  1
  Ti  Ti5  1  0.666667  0.333333  0.138483  1
  Si  Si6  1  0.000000  0.000000  0.250000  1
  Si  Si7  1  0.000000  0.000000  0.750000  1
  C  C8  1  0.666667  0.333333  0.925140  1
  C  C9  1  0.333333  0.666667  0.074860  1
  C  C10  1  0.333333  0.666667  0.425140  1
  C  C11  1  0.666667  0.333333  0.574860  1
