# generated using pymatgen
data_Th7ReAu2
_symmetry_space_group_name_H-M   'P 1'
_cell_length_a   10.20954989
_cell_length_b   10.20098077
_cell_length_c   6.42380828
_cell_angle_alpha   90.00000268
_cell_angle_beta   90.43654884
_cell_angle_gamma   119.97223482
_symmetry_Int_Tables_number   1
_chemical_formula_structural   Th7ReAu2
_chemical_formula_sum   'Th14 Re2 Au4'
_cell_volume   579.53059333
_cell_formula_units_Z   2
loop_
 _symmetry_equiv_pos_site_id
 _symmetry_equiv_pos_as_xyz
  1  'x, y, z'
loop_
 _atom_site_type_symbol
 _atom_site_label
 _atom_site_symmetry_multiplicity
 _atom_site_fract_x
 _atom_site_fract_y
 _atom_site_fract_z
 _atom_site_occupancy
  Th  Th0  1  0.465810  0.540380  0.266277  1
  Th  Th1  1  0.075926  0.537963  0.271441  1
  Th  Th2  1  0.909467  0.454734  0.789556  1
  Th  Th3  1  0.258520  0.129260  0.511859  1
  Th  Th4  1  0.552352  0.087850  0.779454  1
  Th  Th5  1  0.754773  0.877386  0.008784  1
  Th  Th6  1  0.675887  0.337943  0.304816  1
  Th  Th7  1  0.112612  0.862778  0.005122  1
  Th  Th8  1  0.465810  0.925430  0.266277  1
  Th  Th9  1  0.552352  0.464502  0.779454  1
  Th  Th10  1  0.868375  0.133088  0.496959  1
  Th  Th11  1  0.112612  0.249834  0.005122  1
  Th  Th12  1  0.868375  0.735287  0.496959  1
  Th  Th13  1  0.332033  0.666017  0.846818  1
  Re  Re14  1  0.809594  0.629110  0.056730  1
  Re  Re15  1  0.809594  0.180483  0.056730  1
  Au  Au16  1  0.615930  0.807965  0.562219  1
  Au  Au17  1  0.371937  0.185969  0.060843  1
  Au  Au18  1  0.194021  0.382991  0.559288  1
  Au  Au19  1  0.194021  0.811031  0.559288  1
