# generated using pymatgen
data_Dy2Er3Co2
_symmetry_space_group_name_H-M   'P 1'
_cell_length_a   6.23885831
_cell_length_b   6.85740981
_cell_length_c   8.46879245
_cell_angle_alpha   96.41407014
_cell_angle_beta   111.61351419
_cell_angle_gamma   90.00000056
_symmetry_Int_Tables_number   1
_chemical_formula_structural   Dy2Er3Co2
_chemical_formula_sum   'Dy4 Er6 Co4'
_cell_volume   334.40017923
_cell_formula_units_Z   2
loop_
 _symmetry_equiv_pos_site_id
 _symmetry_equiv_pos_as_xyz
  1  'x, y, z'
loop_
 _atom_site_type_symbol
 _atom_site_label
 _atom_site_symmetry_multiplicity
 _atom_site_fract_x
 _atom_site_fract_y
 _atom_site_fract_z
 _atom_site_occupancy
  Dy  Dy0  1  0.792395  0.586902  0.810257  1
  Dy  Dy1  1  0.982138  0.913098  0.189743  1
  Dy  Dy2  1  0.207605  0.413098  0.189743  1
  Dy  Dy3  1  0.017862  0.086902  0.810257  1
  Er  Er4  1  0.213619  0.684351  0.567490  1
  Er  Er5  1  0.646129  0.815649  0.432510  1
  Er  Er6  1  0.786381  0.315649  0.432510  1
  Er  Er7  1  0.353871  0.184351  0.567490  1
  Er  Er8  1  0.427758  0.750000  0.000000  1
  Er  Er9  1  0.572242  0.250000  0.000000  1
  Co  Co10  1  0.599567  0.928427  0.777010  1
  Co  Co11  1  0.822556  0.571573  0.222990  1
  Co  Co12  1  0.400433  0.071573  0.222990  1
  Co  Co13  1  0.177444  0.428427  0.777010  1
