# generated using pymatgen
data_Ac2Ag3Sn4Ir
_symmetry_space_group_name_H-M   'P 1'
_cell_length_a   4.69644500
_cell_length_b   4.69644500
_cell_length_c   11.47875100
_cell_angle_alpha   90.00000000
_cell_angle_beta   90.00000000
_cell_angle_gamma   90.00000000
_symmetry_Int_Tables_number   1
_chemical_formula_structural   Ac2Ag3Sn4Ir
_chemical_formula_sum   'Ac2 Ag3 Sn4 Ir1'
_cell_volume   253.18216924
_cell_formula_units_Z   1
loop_
 _symmetry_equiv_pos_site_id
 _symmetry_equiv_pos_as_xyz
  1  'x, y, z'
loop_
 _atom_site_type_symbol
 _atom_site_label
 _atom_site_symmetry_multiplicity
 _atom_site_fract_x
 _atom_site_fract_y
 _atom_site_fract_z
 _atom_site_occupancy
  Ac  Ac0  1  0.000000  0.500000  0.751673  1
  Ac  Ac1  1  0.500000  0.000000  0.255714  1
  Ag  Ag2  1  0.000000  0.500000  0.366605  1
  Ag  Ag3  1  0.000000  0.000000  0.998029  1
  Ag  Ag4  1  0.500000  0.500000  0.998029  1
  Sn  Sn5  1  0.000000  0.500000  0.131841  1
  Sn  Sn6  1  0.000000  0.000000  0.508210  1
  Sn  Sn7  1  0.500000  0.000000  0.855065  1
  Sn  Sn8  1  0.500000  0.500000  0.508210  1
  Ir  Ir9  1  0.500000  0.000000  0.626622  1
