# generated using pymatgen
data_Ac2Sm(SnPt)3
_symmetry_space_group_name_H-M   'P 1'
_cell_length_a   7.81954556
_cell_length_b   7.75914416
_cell_length_c   4.25438100
_cell_angle_alpha   90.00000000
_cell_angle_beta   90.00000000
_cell_angle_gamma   119.74481228
_symmetry_Int_Tables_number   1
_chemical_formula_structural   Ac2Sm(SnPt)3
_chemical_formula_sum   'Ac2 Sm1 Sn3 Pt3'
_cell_volume   224.11626501
_cell_formula_units_Z   1
loop_
 _symmetry_equiv_pos_site_id
 _symmetry_equiv_pos_as_xyz
  1  'x, y, z'
loop_
 _atom_site_type_symbol
 _atom_site_label
 _atom_site_symmetry_multiplicity
 _atom_site_fract_x
 _atom_site_fract_y
 _atom_site_fract_z
 _atom_site_occupancy
  Ac  Ac0  1  0.414260  0.415561  0.000000  1
  Ac  Ac1  1  0.585740  0.001301  0.000000  1
  Sm  Sm2  1  0.000000  0.591015  0.000000  1
  Sn  Sn3  1  0.000000  0.251925  0.500000  1
  Sn  Sn4  1  0.760426  0.751684  0.500000  1
  Sn  Sn5  1  0.239574  0.991258  0.500000  1
  Pt  Pt6  1  0.319289  0.662145  0.500000  1
  Pt  Pt7  1  0.000000  0.992254  0.000000  1
  Pt  Pt8  1  0.680711  0.342855  0.500000  1
