# generated using pymatgen
data_LuThB6Ru
_symmetry_space_group_name_H-M   'P 1'
_cell_length_a   3.71520500
_cell_length_b   9.20660800
_cell_length_c   11.59371300
_cell_angle_alpha   90.00000000
_cell_angle_beta   90.00000000
_cell_angle_gamma   90.00000000
_symmetry_Int_Tables_number   1
_chemical_formula_structural   LuThB6Ru
_chemical_formula_sum   'Lu4 Th4 B24 Ru4'
_cell_volume   396.55641518
_cell_formula_units_Z   4
loop_
 _symmetry_equiv_pos_site_id
 _symmetry_equiv_pos_as_xyz
  1  'x, y, z'
loop_
 _atom_site_type_symbol
 _atom_site_label
 _atom_site_symmetry_multiplicity
 _atom_site_fract_x
 _atom_site_fract_y
 _atom_site_fract_z
 _atom_site_occupancy
  Lu  Lu0  1  0.000000  0.944577  0.374376  1
  Lu  Lu1  1  0.000000  0.055423  0.625624  1
  Lu  Lu2  1  0.000000  0.444577  0.125624  1
  Lu  Lu3  1  0.000000  0.555423  0.874376  1
  Th  Th4  1  0.000000  0.321787  0.413340  1
  Th  Th5  1  0.000000  0.678213  0.586660  1
  Th  Th6  1  0.000000  0.821787  0.086660  1
  Th  Th7  1  0.000000  0.178213  0.913340  1
  B  B8  1  0.500000  0.555356  0.430608  1
  B  B9  1  0.500000  0.444644  0.569392  1
  B  B10  1  0.500000  0.055356  0.069392  1
  B  B11  1  0.500000  0.944644  0.930608  1
  B  B12  1  0.500000  0.751692  0.417674  1
  B  B13  1  0.500000  0.248308  0.582326  1
  B  B14  1  0.500000  0.251692  0.082326  1
  B  B15  1  0.500000  0.748308  0.917674  1
  B  B16  1  0.500000  0.792295  0.267680  1
  B  B17  1  0.500000  0.207705  0.732320  1
  B  B18  1  0.500000  0.292295  0.232320  1
  B  B19  1  0.500000  0.707705  0.767680  1
  B  B20  1  0.500000  0.630195  0.184871  1
  B  B21  1  0.500000  0.369805  0.815129  1
  B  B22  1  0.500000  0.130195  0.315129  1
  B  B23  1  0.500000  0.869805  0.684871  1
  B  B24  1  0.500000  0.984973  0.215147  1
  B  B25  1  0.500000  0.015027  0.784853  1
  B  B26  1  0.500000  0.484973  0.284853  1
  B  B27  1  0.500000  0.515027  0.715147  1
  B  B28  1  0.500000  0.603018  0.028204  1
  B  B29  1  0.500000  0.396982  0.971796  1
  B  B30  1  0.500000  0.103018  0.471796  1
  B  B31  1  0.500000  0.896982  0.528204  1
  Ru  Ru32  1  0.000000  0.639894  0.319283  1
  Ru  Ru33  1  0.000000  0.360106  0.680717  1
  Ru  Ru34  1  0.000000  0.139894  0.180717  1
  Ru  Ru35  1  0.000000  0.860106  0.819283  1
