# generated using pymatgen
data_NdTcH5
_symmetry_space_group_name_H-M   'P 1'
_cell_length_a   4.71877200
_cell_length_b   4.54178300
_cell_length_c   11.90455500
_cell_angle_alpha   90.00000000
_cell_angle_beta   90.00000000
_cell_angle_gamma   90.00000000
_symmetry_Int_Tables_number   1
_chemical_formula_structural   NdTcH5
_chemical_formula_sum   'Nd4 Tc4 H20'
_cell_volume   255.13411867
_cell_formula_units_Z   4
loop_
 _symmetry_equiv_pos_site_id
 _symmetry_equiv_pos_as_xyz
  1  'x, y, z'
loop_
 _atom_site_type_symbol
 _atom_site_label
 _atom_site_symmetry_multiplicity
 _atom_site_fract_x
 _atom_site_fract_y
 _atom_site_fract_z
 _atom_site_occupancy
  Nd  Nd0  1  0.249758  0.249278  0.644954  1
  Nd  Nd1  1  0.749758  0.250722  0.355046  1
  Nd  Nd2  1  0.250242  0.750722  0.144954  1
  Nd  Nd3  1  0.750242  0.749278  0.855046  1
  Tc  Tc4  1  0.249383  0.211912  0.916114  1
  Tc  Tc5  1  0.749383  0.288088  0.083886  1
  Tc  Tc6  1  0.250617  0.788088  0.416114  1
  Tc  Tc7  1  0.750617  0.711912  0.583886  1
  H  H8  1  0.483124  0.521318  0.497557  1
  H  H9  1  0.983124  0.978682  0.502443  1
  H  H10  1  0.016876  0.478682  0.997557  1
  H  H11  1  0.516876  0.021318  0.002443  1
  H  H12  1  0.250386  0.902843  0.835434  1
  H  H13  1  0.750386  0.597157  0.164566  1
  H  H14  1  0.249614  0.097157  0.335434  1
  H  H15  1  0.749614  0.402843  0.664566  1
  H  H16  1  0.988104  0.282644  0.818479  1
  H  H17  1  0.488104  0.217356  0.181521  1
  H  H18  1  0.511896  0.717356  0.318479  1
  H  H19  1  0.011896  0.782644  0.681521  1
  H  H20  1  0.509913  0.284902  0.818259  1
  H  H21  1  0.009913  0.215098  0.181741  1
  H  H22  1  0.990087  0.715098  0.318259  1
  H  H23  1  0.490087  0.784902  0.681741  1
  H  H24  1  0.982609  0.021054  0.002684  1
  H  H25  1  0.482609  0.478946  0.997316  1
  H  H26  1  0.517391  0.978946  0.502684  1
  H  H27  1  0.017391  0.521054  0.497316  1
