# generated using pymatgen
data_Tm3Al3SiPt2
_symmetry_space_group_name_H-M   'P 1'
_cell_length_a   6.96445700
_cell_length_b   6.96445702
_cell_length_c   4.11893000
_cell_angle_alpha   90.00000000
_cell_angle_beta   90.00000000
_cell_angle_gamma   119.99999514
_symmetry_Int_Tables_number   1
_chemical_formula_structural   Tm3Al3SiPt2
_chemical_formula_sum   'Tm3 Al3 Si1 Pt2'
_cell_volume   173.01732305
_cell_formula_units_Z   1
loop_
 _symmetry_equiv_pos_site_id
 _symmetry_equiv_pos_as_xyz
  1  'x, y, z'
loop_
 _atom_site_type_symbol
 _atom_site_label
 _atom_site_symmetry_multiplicity
 _atom_site_fract_x
 _atom_site_fract_y
 _atom_site_fract_z
 _atom_site_occupancy
  Tm  Tm0  1  0.996574  0.414770  0.500000  1
  Tm  Tm1  1  0.585230  0.581805  0.500000  1
  Tm  Tm2  1  0.418195  0.003426  0.500000  1
  Al  Al3  1  0.990774  0.754237  0.000000  1
  Al  Al4  1  0.245763  0.236537  0.000000  1
  Al  Al5  1  0.763463  0.009226  0.000000  1
  Si  Si6  1  0.333333  0.666667  0.000000  1
  Pt  Pt7  1  0.666667  0.333333  0.000000  1
  Pt  Pt8  1  0.000000  0.000000  0.500000  1
