# generated using pymatgen
data_Ca2Pr18Si15Rh
_symmetry_space_group_name_H-M   'P 1'
_cell_length_a   7.93561330
_cell_length_b   7.93084609
_cell_length_c   15.23682478
_cell_angle_alpha   90.07884585
_cell_angle_beta   89.70069897
_cell_angle_gamma   90.31259405
_symmetry_Int_Tables_number   1
_chemical_formula_structural   Ca2Pr18Si15Rh
_chemical_formula_sum   'Ca2 Pr18 Si15 Rh1'
_cell_volume   958.91852384
_cell_formula_units_Z   1
loop_
 _symmetry_equiv_pos_site_id
 _symmetry_equiv_pos_as_xyz
  1  'x, y, z'
loop_
 _atom_site_type_symbol
 _atom_site_label
 _atom_site_symmetry_multiplicity
 _atom_site_fract_x
 _atom_site_fract_y
 _atom_site_fract_z
 _atom_site_occupancy
  Ca  Ca0  1  0.309815  0.309562  0.999442  1
  Ca  Ca1  1  0.189417  0.809940  0.250428  1
  Pr  Pr2  1  0.820119  0.187347  0.748210  1
  Pr  Pr3  1  0.690731  0.688118  0.500666  1
  Pr  Pr4  1  0.376561  0.009333  0.447165  1
  Pr  Pr5  1  0.488708  0.873666  0.699475  1
  Pr  Pr6  1  0.508866  0.123875  0.197866  1
  Pr  Pr7  1  0.874091  0.489041  0.299338  1
  Pr  Pr8  1  0.125126  0.510050  0.800811  1
  Pr  Pr9  1  0.625832  0.990739  0.949555  1
  Pr  Pr10  1  0.003987  0.376965  0.549960  1
  Pr  Pr11  1  0.990600  0.623658  0.052097  1
  Pr  Pr12  1  0.132824  0.986837  0.874872  1
  Pr  Pr13  1  0.514740  0.629194  0.125743  1
  Pr  Pr14  1  0.472249  0.362622  0.629470  1
  Pr  Pr15  1  0.628715  0.513611  0.875057  1
  Pr  Pr16  1  0.373250  0.483530  0.373373  1
  Pr  Pr17  1  0.873570  0.017358  0.376465  1
  Pr  Pr18  1  0.986456  0.126162  0.123736  1
  Pr  Pr19  1  0.027105  0.880026  0.625329  1
  Si  Si20  1  0.333830  0.698861  0.949489  1
  Si  Si21  1  0.663927  0.301548  0.450339  1
  Si  Si22  1  0.701794  0.335292  0.052175  1
  Si  Si23  1  0.304605  0.668883  0.547397  1
  Si  Si24  1  0.800800  0.835431  0.200350  1
  Si  Si25  1  0.165437  0.202137  0.298298  1
  Si  Si26  1  0.834327  0.801585  0.800239  1
  Si  Si27  1  0.286161  0.917990  0.059509  1
  Si  Si28  1  0.582031  0.786007  0.309411  1
  Si  Si29  1  0.426887  0.206467  0.812910  1
  Si  Si30  1  0.784697  0.579991  0.690984  1
  Si  Si31  1  0.212289  0.421062  0.189571  1
  Si  Si32  1  0.703134  0.074415  0.558759  1
  Si  Si33  1  0.918704  0.286846  0.941597  1
  Si  Si34  1  0.079682  0.715592  0.440773  1
  Rh  Rh35  1  0.188930  0.176260  0.699141  1
