# generated using pymatgen
data_Tm4Ga2As4Rh7
_symmetry_space_group_name_H-M   'P 1'
_cell_length_a   7.24080647
_cell_length_b   7.23186910
_cell_length_c   7.23186856
_cell_angle_alpha   109.66514021
_cell_angle_beta   109.34948784
_cell_angle_gamma   109.34947354
_symmetry_Int_Tables_number   1
_chemical_formula_structural   Tm4Ga2As4Rh7
_chemical_formula_sum   'Tm4 Ga2 As4 Rh7'
_cell_volume   291.69445886
_cell_formula_units_Z   1
loop_
 _symmetry_equiv_pos_site_id
 _symmetry_equiv_pos_as_xyz
  1  'x, y, z'
loop_
 _atom_site_type_symbol
 _atom_site_label
 _atom_site_symmetry_multiplicity
 _atom_site_fract_x
 _atom_site_fract_y
 _atom_site_fract_z
 _atom_site_occupancy
  Tm  Tm0  1  0.488038  0.488519  0.488519  1
  Tm  Tm1  1  0.998156  0.499078  0.999078  1
  Tm  Tm2  1  0.488038  0.999520  0.999520  1
  Tm  Tm3  1  0.998156  0.999078  0.499078  1
  Ga  Ga4  1  0.685964  0.994711  0.691254  1
  Ga  Ga5  1  0.685964  0.691254  0.994711  1
  As  As6  1  0.324710  0.328454  0.996257  1
  As  As7  1  0.991942  0.682083  0.682083  1
  As  As8  1  0.991942  0.309859  0.309859  1
  As  As9  1  0.324710  0.996257  0.328454  1
  Rh  Rh10  1  0.504257  0.752129  0.252129  1
  Rh  Rh11  1  0.751061  0.248892  0.502168  1
  Rh  Rh12  1  0.247790  0.745961  0.501828  1
  Rh  Rh13  1  0.247790  0.501828  0.745961  1
  Rh  Rh14  1  0.016163  0.008082  0.008082  1
  Rh  Rh15  1  0.504257  0.252129  0.752129  1
  Rh  Rh16  1  0.751061  0.502168  0.248892  1
