# generated using pymatgen
data_Nd7Sm(Nb3Si4)4
_symmetry_space_group_name_H-M   'P 1'
_cell_length_a   7.16627425
_cell_length_b   7.16546827
_cell_length_c   13.28969130
_cell_angle_alpha   90.02822531
_cell_angle_beta   90.00600946
_cell_angle_gamma   89.97701463
_symmetry_Int_Tables_number   1
_chemical_formula_structural   Nd7Sm(Nb3Si4)4
_chemical_formula_sum   'Nd7 Sm1 Nb12 Si16'
_cell_volume   682.42166276
_cell_formula_units_Z   1
loop_
 _symmetry_equiv_pos_site_id
 _symmetry_equiv_pos_as_xyz
  1  'x, y, z'
loop_
 _atom_site_type_symbol
 _atom_site_label
 _atom_site_symmetry_multiplicity
 _atom_site_fract_x
 _atom_site_fract_y
 _atom_site_fract_z
 _atom_site_occupancy
  Nd  Nd0  1  0.003805  0.661561  0.717762  1
  Nd  Nd1  1  0.161144  0.496119  0.467510  1
  Nd  Nd2  1  0.503921  0.838801  0.032733  1
  Nd  Nd3  1  0.838728  0.503759  0.967840  1
  Nd  Nd4  1  0.496366  0.161446  0.532080  1
  Nd  Nd5  1  0.338592  0.996236  0.782338  1
  Nd  Nd6  1  0.661155  0.003665  0.282205  1
  Sm  Sm7  1  0.997501  0.339445  0.217521  1
  Nb  Nb8  1  0.170430  0.170945  0.000177  1
  Nb  Nb9  1  0.829471  0.829428  0.499821  1
  Nb  Nb10  1  0.329194  0.670220  0.249981  1
  Nb  Nb11  1  0.670518  0.329529  0.750055  1
  Nb  Nb12  1  0.156398  0.990121  0.375205  1
  Nb  Nb13  1  0.843281  0.010073  0.875781  1
  Nb  Nb14  1  0.509970  0.656881  0.625604  1
  Nb  Nb15  1  0.343058  0.490136  0.874525  1
  Nb  Nb16  1  0.490073  0.342882  0.125766  1
  Nb  Nb17  1  0.657269  0.509124  0.374131  1
  Nb  Nb18  1  0.990182  0.156831  0.624205  1
  Nb  Nb19  1  0.009430  0.843215  0.124701  1
  Si  Si20  1  0.289356  0.044404  0.186598  1
  Si  Si21  1  0.709640  0.956579  0.686585  1
  Si  Si22  1  0.456238  0.790146  0.436480  1
  Si  Si23  1  0.209023  0.543290  0.063909  1
  Si  Si24  1  0.543998  0.209529  0.936660  1
  Si  Si25  1  0.790588  0.456244  0.563415  1
  Si  Si26  1  0.043611  0.290480  0.813380  1
  Si  Si27  1  0.956397  0.708238  0.313108  1
  Si  Si28  1  0.370026  0.298122  0.313701  1
  Si  Si29  1  0.628696  0.702239  0.814181  1
  Si  Si30  1  0.202215  0.871526  0.563976  1
  Si  Si31  1  0.128569  0.797843  0.936096  1
  Si  Si32  1  0.798758  0.129614  0.064984  1
  Si  Si33  1  0.871513  0.202501  0.435076  1
  Si  Si34  1  0.297931  0.371384  0.685905  1
  Si  Si35  1  0.702958  0.627448  0.186006  1
