# generated using pymatgen
data_AcPr4P12Ir11Ru8
_symmetry_space_group_name_H-M   'P 1'
_cell_length_a   12.78288035
_cell_length_b   12.75197565
_cell_length_c   4.03633200
_cell_angle_alpha   90.00000000
_cell_angle_beta   90.00000000
_cell_angle_gamma   119.99773327
_symmetry_Int_Tables_number   1
_chemical_formula_structural   AcPr4P12Ir11Ru8
_chemical_formula_sum   'Ac1 Pr4 P12 Ir11 Ru8'
_cell_volume   569.81467597
_cell_formula_units_Z   1
loop_
 _symmetry_equiv_pos_site_id
 _symmetry_equiv_pos_as_xyz
  1  'x, y, z'
loop_
 _atom_site_type_symbol
 _atom_site_label
 _atom_site_symmetry_multiplicity
 _atom_site_fract_x
 _atom_site_fract_y
 _atom_site_fract_z
 _atom_site_occupancy
  Ac  Ac0  1  0.334661  0.668834  0.000000  1
  Pr  Pr1  1  0.667015  0.331537  0.000000  1
  Pr  Pr2  1  0.813015  0.000683  0.500000  1
  Pr  Pr3  1  0.184689  0.186677  0.500000  1
  Pr  Pr4  1  0.999306  0.813798  0.500000  1
  P  P5  1  0.630196  0.998095  0.000000  1
  P  P6  1  0.366213  0.366985  0.000000  1
  P  P7  1  0.001141  0.633303  0.000000  1
  P  P8  1  0.690370  0.518478  0.500000  1
  P  P9  1  0.829477  0.305842  0.500000  1
  P  P10  1  0.317756  0.840362  0.500000  1
  P  P11  1  0.524562  0.691682  0.500000  1
  P  P12  1  0.181334  0.001801  0.000000  1
  P  P13  1  0.818015  0.816390  0.000000  1
  P  P14  1  0.995891  0.182583  0.000000  1
  P  P15  1  0.478962  0.167876  0.500000  1
  P  P16  1  0.165575  0.477648  0.500000  1
  Ir  Ir17  1  0.624802  0.801333  0.000000  1
  Ir  Ir18  1  0.180942  0.376813  0.000000  1
  Ir  Ir19  1  0.376665  0.182173  0.000000  1
  Ir  Ir20  1  0.194145  0.821120  0.000000  1
  Ir  Ir21  1  0.804142  0.620600  0.000000  1
  Ir  Ir22  1  0.871682  0.506912  0.500000  1
  Ir  Ir23  1  0.491955  0.361516  0.500000  1
  Ir  Ir24  1  0.635745  0.128134  0.500000  1
  Ir  Ir25  1  0.126898  0.640303  0.500000  1
  Ir  Ir26  1  0.363205  0.487089  0.500000  1
  Ir  Ir27  1  0.998635  0.000105  0.000000  1
  Ru  Ru28  1  0.516021  0.876506  0.500000  1
  Ru  Ru29  1  0.711994  0.708131  0.500000  1
  Ru  Ru30  1  0.000325  0.289126  0.500000  1
  Ru  Ru31  1  0.449520  0.999684  0.000000  1
  Ru  Ru32  1  0.548191  0.544798  0.000000  1
  Ru  Ru33  1  0.001279  0.453487  0.000000  1
  Ru  Ru34  1  0.817877  0.197123  0.000000  1
  Ru  Ru35  1  0.287797  0.002468  0.500000  1
