# generated using pymatgen
data_K4HfMnBr12
_symmetry_space_group_name_H-M   'P 1'
_cell_length_a   7.82707308
_cell_length_b   7.45042466
_cell_length_c   12.78262100
_cell_angle_alpha   54.32118899
_cell_angle_beta   89.99202098
_cell_angle_gamma   90.39537423
_symmetry_Int_Tables_number   1
_chemical_formula_structural   K4HfMnBr12
_chemical_formula_sum   'K4 Hf1 Mn1 Br12'
_cell_volume   605.48076001
_cell_formula_units_Z   1
loop_
 _symmetry_equiv_pos_site_id
 _symmetry_equiv_pos_as_xyz
  1  'x, y, z'
loop_
 _atom_site_type_symbol
 _atom_site_label
 _atom_site_symmetry_multiplicity
 _atom_site_fract_x
 _atom_site_fract_y
 _atom_site_fract_z
 _atom_site_occupancy
  K  K0  1  0.423155  0.727993  0.253787  1
  K  K1  1  0.923238  0.256381  0.257074  1
  K  K2  1  0.076762  0.743619  0.742926  1
  K  K3  1  0.576845  0.272007  0.746213  1
  Hf  Hf4  1  0.000000  0.000000  0.000000  1
  Mn  Mn5  1  0.500000  0.000000  0.500000  1
  Br  Br6  1  0.823208  0.331996  0.960695  1
  Br  Br7  1  0.510362  0.152467  0.270068  1
  Br  Br8  1  0.489638  0.847533  0.729932  1
  Br  Br9  1  0.286563  0.214007  0.964540  1
  Br  Br10  1  0.321940  0.688882  0.541391  1
  Br  Br11  1  0.237652  0.214437  0.461126  1
  Br  Br12  1  0.176792  0.668004  0.039305  1
  Br  Br13  1  0.762348  0.785563  0.538874  1
  Br  Br14  1  0.713437  0.785993  0.035460  1
  Br  Br15  1  0.008675  0.823293  0.247131  1
  Br  Br16  1  0.991325  0.176707  0.752869  1
  Br  Br17  1  0.678060  0.311118  0.458609  1
