# generated using pymatgen
data_Dy5Ti2P12Ir10Rh7
_symmetry_space_group_name_H-M   'P 1'
_cell_length_a   12.64295531
_cell_length_b   12.80574649
_cell_length_c   3.94064700
_cell_angle_alpha   90.00000000
_cell_angle_beta   90.00000000
_cell_angle_gamma   119.70376832
_symmetry_Int_Tables_number   1
_chemical_formula_structural   Dy5Ti2P12Ir10Rh7
_chemical_formula_sum   'Dy5 Ti2 P12 Ir10 Rh7'
_cell_volume   554.16657054
_cell_formula_units_Z   1
loop_
 _symmetry_equiv_pos_site_id
 _symmetry_equiv_pos_as_xyz
  1  'x, y, z'
loop_
 _atom_site_type_symbol
 _atom_site_label
 _atom_site_symmetry_multiplicity
 _atom_site_fract_x
 _atom_site_fract_y
 _atom_site_fract_z
 _atom_site_occupancy
  Dy  Dy0  1  0.329726  0.660490  0.500000  1
  Dy  Dy1  1  0.669236  0.338954  0.500000  1
  Dy  Dy2  1  0.999584  0.811166  0.000000  1
  Dy  Dy3  1  0.187594  0.188603  0.000000  1
  Dy  Dy4  1  0.811282  0.000769  0.000000  1
  Ti  Ti5  1  0.999169  0.445708  0.500000  1
  Ti  Ti6  1  0.552206  0.554431  0.500000  1
  P  P7  1  0.001127  0.638556  0.500000  1
  P  P8  1  0.363091  0.361464  0.500000  1
  P  P9  1  0.640073  0.999290  0.500000  1
  P  P10  1  0.514894  0.682320  0.000000  1
  P  P11  1  0.311481  0.826978  0.000000  1
  P  P12  1  0.162952  0.481609  0.000000  1
  P  P13  1  0.484314  0.173101  0.000000  1
  P  P14  1  0.682068  0.519411  0.000000  1
  P  P15  1  0.832628  0.317778  0.000000  1
  P  P16  1  0.999024  0.175456  0.500000  1
  P  P17  1  0.824515  0.824562  0.500000  1
  P  P18  1  0.182102  0.998680  0.500000  1
  Ir  Ir19  1  0.354866  0.489874  0.000000  1
  Ir  Ir20  1  0.485094  0.358205  0.000000  1
  Ir  Ir21  1  0.864156  0.508785  0.000000  1
  Ir  Ir22  1  0.642961  0.136990  0.000000  1
  Ir  Ir23  1  0.997892  0.280640  0.000000  1
  Ir  Ir24  1  0.717437  0.720164  0.000000  1
  Ir  Ir25  1  0.287393  0.999955  0.000000  1
  Ir  Ir26  1  0.807197  0.630121  0.500000  1
  Ir  Ir27  1  0.818142  0.194175  0.500000  1
  Ir  Ir28  1  0.004246  0.000877  0.500000  1
  Rh  Rh29  1  0.506320  0.862987  0.000000  1
  Rh  Rh30  1  0.126006  0.642634  0.000000  1
  Rh  Rh31  1  0.459972  0.000913  0.500000  1
  Rh  Rh32  1  0.623818  0.805505  0.500000  1
  Rh  Rh33  1  0.201466  0.821789  0.500000  1
  Rh  Rh34  1  0.177198  0.369426  0.500000  1
  Rh  Rh35  1  0.378770  0.177633  0.500000  1
