# generated using pymatgen
data_Y8Er12AlBi11
_symmetry_space_group_name_H-M   'P 1'
_cell_length_a   8.22189841
_cell_length_b   9.45949600
_cell_length_c   12.06487929
_cell_angle_alpha   90.00000000
_cell_angle_beta   90.26122937
_cell_angle_gamma   90.00000000
_symmetry_Int_Tables_number   1
_chemical_formula_structural   Y8Er12AlBi11
_chemical_formula_sum   'Y8 Er12 Al1 Bi11'
_cell_volume   938.33641576
_cell_formula_units_Z   1
loop_
 _symmetry_equiv_pos_site_id
 _symmetry_equiv_pos_as_xyz
  1  'x, y, z'
loop_
 _atom_site_type_symbol
 _atom_site_label
 _atom_site_symmetry_multiplicity
 _atom_site_fract_x
 _atom_site_fract_y
 _atom_site_fract_z
 _atom_site_occupancy
  Y  Y0  1  0.189282  0.750000  0.722839  1
  Y  Y1  1  0.677086  0.750000  0.786643  1
  Y  Y2  1  0.811726  0.250000  0.280821  1
  Y  Y3  1  0.313659  0.250000  0.220165  1
  Y  Y4  1  0.354899  0.750000  0.206916  1
  Y  Y5  1  0.852924  0.750000  0.285159  1
  Y  Y6  1  0.647828  0.250000  0.784860  1
  Y  Y7  1  0.149678  0.250000  0.715505  1
  Er  Er8  1  0.035841  0.750000  0.989943  1
  Er  Er9  1  0.525225  0.750000  0.510744  1
  Er  Er10  1  0.978289  0.250000  0.010101  1
  Er  Er11  1  0.475309  0.250000  0.489567  1
  Er  Er12  1  0.307859  0.448430  0.940724  1
  Er  Er13  1  0.806344  0.064245  0.559350  1
  Er  Er14  1  0.685285  0.929437  0.055601  1
  Er  Er15  1  0.193843  0.564453  0.439774  1
  Er  Er16  1  0.685285  0.570563  0.055601  1
  Er  Er17  1  0.193843  0.935547  0.439774  1
  Er  Er18  1  0.307859  0.051570  0.940724  1
  Er  Er19  1  0.806344  0.435755  0.559350  1
  Al  Al20  1  0.409769  0.750000  0.959289  1
  Bi  Bi21  1  0.435207  0.003331  0.673471  1
  Bi  Bi22  1  0.935047  0.496735  0.826387  1
  Bi  Bi23  1  0.564927  0.504339  0.327506  1
  Bi  Bi24  1  0.063918  0.996683  0.173762  1
  Bi  Bi25  1  0.564927  0.995661  0.327506  1
  Bi  Bi26  1  0.063918  0.503317  0.173762  1
  Bi  Bi27  1  0.435207  0.496669  0.673471  1
  Bi  Bi28  1  0.935047  0.003265  0.826387  1
  Bi  Bi29  1  0.909090  0.750000  0.544071  1
  Bi  Bi30  1  0.592354  0.250000  0.042640  1
  Bi  Bi31  1  0.092184  0.250000  0.457587  1
