# generated using pymatgen
data_CaPr4U5O19
_symmetry_space_group_name_H-M   'P 1'
_cell_length_a   6.84028838
_cell_length_b   7.72112609
_cell_length_c   8.65274118
_cell_angle_alpha   100.77426242
_cell_angle_beta   97.79477990
_cell_angle_gamma   107.19436254
_symmetry_Int_Tables_number   1
_chemical_formula_structural   CaPr4U5O19
_chemical_formula_sum   'Ca1 Pr4 U5 O19'
_cell_volume   419.90635088
_cell_formula_units_Z   1
loop_
 _symmetry_equiv_pos_site_id
 _symmetry_equiv_pos_as_xyz
  1  'x, y, z'
loop_
 _atom_site_type_symbol
 _atom_site_label
 _atom_site_symmetry_multiplicity
 _atom_site_fract_x
 _atom_site_fract_y
 _atom_site_fract_z
 _atom_site_occupancy
  Ca  Ca0  1  0.801097  0.098597  0.604642  1
  Pr  Pr1  1  0.385160  0.292566  0.796871  1
  Pr  Pr2  1  0.607603  0.705071  0.206552  1
  Pr  Pr3  1  0.997329  0.497049  0.993812  1
  Pr  Pr4  1  0.208979  0.912868  0.389256  1
  U  U5  1  0.780849  0.598202  0.601069  1
  U  U6  1  0.606593  0.204070  0.199388  1
  U  U7  1  0.999073  0.003344  0.995068  1
  U  U8  1  0.412183  0.808131  0.813676  1
  U  U9  1  0.198214  0.387669  0.390669  1
  O  O10  1  0.342137  0.058256  0.955781  1
  O  O11  1  0.426364  0.985583  0.654751  1
  O  O12  1  0.037779  0.210225  0.857462  1
  O  O13  1  0.727337  0.392279  0.735075  1
  O  O14  1  0.149772  0.185654  0.530978  1
  O  O15  1  0.361516  0.595460  0.950849  1
  O  O16  1  0.951410  0.265506  0.161200  1
  O  O17  1  0.907235  0.405287  0.459081  1
  O  O18  1  0.745135  0.852998  0.768014  1
  O  O19  1  0.544067  0.452303  0.363306  1
  O  O20  1  0.401364  0.556356  0.629721  1
  O  O21  1  0.254374  0.133216  0.232573  1
  O  O22  1  0.066626  0.718686  0.795842  1
  O  O23  1  0.645370  0.407684  0.062112  1
  O  O24  1  0.867279  0.796630  0.464804  1
  O  O25  1  0.248744  0.616278  0.274238  1
  O  O26  1  0.954725  0.787235  0.124465  1
  O  O27  1  0.576882  0.011340  0.347508  1
  O  O28  1  0.658721  0.949099  0.049476  1
