# generated using pymatgen
data_Pu3Ni6GeB2
_symmetry_space_group_name_H-M   'P 1'
_cell_length_a   5.22655400
_cell_length_b   5.22655217
_cell_length_c   13.80488400
_cell_angle_alpha   90.00000000
_cell_angle_beta   90.00000000
_cell_angle_gamma   119.99999894
_symmetry_Int_Tables_number   1
_chemical_formula_structural   Pu3Ni6GeB2
_chemical_formula_sum   'Pu6 Ni12 Ge2 B4'
_cell_volume   326.58341756
_cell_formula_units_Z   2
loop_
 _symmetry_equiv_pos_site_id
 _symmetry_equiv_pos_as_xyz
  1  'x, y, z'
loop_
 _atom_site_type_symbol
 _atom_site_label
 _atom_site_symmetry_multiplicity
 _atom_site_fract_x
 _atom_site_fract_y
 _atom_site_fract_z
 _atom_site_occupancy
  Pu  Pu0  1  0.333333  0.666667  0.750000  1
  Pu  Pu1  1  0.666667  0.333333  0.250000  1
  Pu  Pu2  1  0.333333  0.666667  0.541421  1
  Pu  Pu3  1  0.666667  0.333333  0.041421  1
  Pu  Pu4  1  0.666667  0.333333  0.458579  1
  Pu  Pu5  1  0.333333  0.666667  0.958579  1
  Ni  Ni6  1  0.167593  0.335184  0.150740  1
  Ni  Ni7  1  0.832407  0.664816  0.650740  1
  Ni  Ni8  1  0.664816  0.832407  0.150740  1
  Ni  Ni9  1  0.167593  0.832407  0.150740  1
  Ni  Ni10  1  0.832407  0.167593  0.650740  1
  Ni  Ni11  1  0.335184  0.167593  0.650740  1
  Ni  Ni12  1  0.832407  0.664816  0.849260  1
  Ni  Ni13  1  0.832407  0.167593  0.849260  1
  Ni  Ni14  1  0.335184  0.167593  0.849260  1
  Ni  Ni15  1  0.664816  0.832407  0.349260  1
  Ni  Ni16  1  0.167593  0.832407  0.349260  1
  Ni  Ni17  1  0.167593  0.335184  0.349260  1
  Ge  Ge18  1  0.000000  0.000000  0.000000  1
  Ge  Ge19  1  0.000000  0.000000  0.500000  1
  B  B20  1  0.333333  0.666667  0.250000  1
  B  B21  1  0.666667  0.333333  0.750000  1
  B  B22  1  0.000000  0.000000  0.250000  1
  B  B23  1  0.000000  0.000000  0.750000  1
