# generated using pymatgen
data_Hf5Zr11Ni4MoOs3
_symmetry_space_group_name_H-M   'P 1'
_cell_length_a   8.69768877
_cell_length_b   8.69768813
_cell_length_c   8.70892960
_cell_angle_alpha   60.06235167
_cell_angle_beta   60.06235133
_cell_angle_gamma   60.07483690
_symmetry_Int_Tables_number   1
_chemical_formula_structural   Hf5Zr11Ni4MoOs3
_chemical_formula_sum   'Hf5 Zr11 Ni4 Mo1 Os3'
_cell_volume   466.56442449
_cell_formula_units_Z   1
loop_
 _symmetry_equiv_pos_site_id
 _symmetry_equiv_pos_as_xyz
  1  'x, y, z'
loop_
 _atom_site_type_symbol
 _atom_site_label
 _atom_site_symmetry_multiplicity
 _atom_site_fract_x
 _atom_site_fract_y
 _atom_site_fract_z
 _atom_site_occupancy
  Hf  Hf0  1  0.189729  0.602584  0.604720  1
  Hf  Hf1  1  0.602584  0.189729  0.604720  1
  Hf  Hf2  1  0.602646  0.602646  0.604787  1
  Hf  Hf3  1  0.604611  0.604611  0.186013  1
  Hf  Hf4  1  0.457450  0.457450  0.042269  1
  Zr  Zr5  1  0.046303  0.046303  0.454773  1
  Zr  Zr6  1  0.455092  0.045882  0.044911  1
  Zr  Zr7  1  0.047242  0.452556  0.453325  1
  Zr  Zr8  1  0.045882  0.455092  0.044911  1
  Zr  Zr9  1  0.452556  0.047242  0.453325  1
  Zr  Zr10  1  0.814816  0.814816  0.186994  1
  Zr  Zr11  1  0.184832  0.184832  0.815721  1
  Zr  Zr12  1  0.814526  0.183223  0.186598  1
  Zr  Zr13  1  0.185167  0.813916  0.816352  1
  Zr  Zr14  1  0.183223  0.814526  0.186598  1
  Zr  Zr15  1  0.813916  0.185167  0.816352  1
  Ni  Ni16  1  0.821754  0.393252  0.391300  1
  Ni  Ni17  1  0.393252  0.821754  0.391300  1
  Ni  Ni18  1  0.393894  0.393894  0.388513  1
  Ni  Ni19  1  0.392733  0.392733  0.824777  1
  Mo  Mo20  1  0.831099  0.831099  0.506119  1
  Os  Os21  1  0.503284  0.831284  0.832196  1
  Os  Os22  1  0.831284  0.503284  0.832196  1
  Os  Os23  1  0.832128  0.832128  0.831232  1
