# generated using pymatgen
data_K2RbCu(AgP)2
_symmetry_space_group_name_H-M   'P 1'
_cell_length_a   7.73436539
_cell_length_b   7.64760950
_cell_length_c   7.64760990
_cell_angle_alpha   46.66769366
_cell_angle_beta   45.41085028
_cell_angle_gamma   45.41083158
_symmetry_Int_Tables_number   1
_chemical_formula_structural   K2RbCu(AgP)2
_chemical_formula_sum   'K2 Rb1 Cu1 Ag2 P2'
_cell_volume   212.08419373
_cell_formula_units_Z   1
loop_
 _symmetry_equiv_pos_site_id
 _symmetry_equiv_pos_as_xyz
  1  'x, y, z'
loop_
 _atom_site_type_symbol
 _atom_site_label
 _atom_site_symmetry_multiplicity
 _atom_site_fract_x
 _atom_site_fract_y
 _atom_site_fract_z
 _atom_site_occupancy
  K  K0  1  0.903349  0.908883  0.908883  1
  K  K1  1  0.096651  0.091117  0.091117  1
  Rb  Rb2  1  0.500000  0.500000  0.500000  1
  Cu  Cu3  1  0.000000  0.500000  0.500000  1
  Ag  Ag4  1  0.500000  0.500000  0.000000  1
  Ag  Ag5  1  0.500000  0.000000  0.500000  1
  P  P6  1  0.226150  0.265834  0.265834  1
  P  P7  1  0.773850  0.734166  0.734166  1
