# generated using pymatgen
data_Li3TbEr2Sn3
_symmetry_space_group_name_H-M   'P 1'
_cell_length_a   7.29332567
_cell_length_b   7.29332558
_cell_length_c   4.61230000
_cell_angle_alpha   90.00000000
_cell_angle_beta   90.00000000
_cell_angle_gamma   120.51854059
_symmetry_Int_Tables_number   1
_chemical_formula_structural   Li3TbEr2Sn3
_chemical_formula_sum   'Li3 Tb1 Er2 Sn3'
_cell_volume   211.35198540
_cell_formula_units_Z   1
loop_
 _symmetry_equiv_pos_site_id
 _symmetry_equiv_pos_as_xyz
  1  'x, y, z'
loop_
 _atom_site_type_symbol
 _atom_site_label
 _atom_site_symmetry_multiplicity
 _atom_site_fract_x
 _atom_site_fract_y
 _atom_site_fract_z
 _atom_site_occupancy
  Li  Li0  1  0.769391  0.000232  0.500000  1
  Li  Li1  1  0.230766  0.230765  0.500000  1
  Li  Li2  1  0.000232  0.769390  0.500000  1
  Tb  Tb3  1  0.559191  0.559191  0.000000  1
  Er  Er4  1  0.439440  0.000179  0.000000  1
  Er  Er5  1  0.000179  0.439440  0.000000  1
  Sn  Sn6  1  0.002787  0.002787  0.000000  1
  Sn  Sn7  1  0.667168  0.330846  0.500000  1
  Sn  Sn8  1  0.330845  0.667167  0.500000  1
