# generated using pymatgen
data_Nd3Tm2Zr3(Ni4P3)4
_symmetry_space_group_name_H-M   'P 1'
_cell_length_a   12.45246140
_cell_length_b   12.45246278
_cell_length_c   3.84329400
_cell_angle_alpha   90.00000000
_cell_angle_beta   90.00000000
_cell_angle_gamma   119.97105653
_symmetry_Int_Tables_number   1
_chemical_formula_structural   Nd3Tm2Zr3(Ni4P3)4
_chemical_formula_sum   'Nd3 Tm2 Zr3 Ni16 P12'
_cell_volume   516.26333876
_cell_formula_units_Z   1
loop_
 _symmetry_equiv_pos_site_id
 _symmetry_equiv_pos_as_xyz
  1  'x, y, z'
loop_
 _atom_site_type_symbol
 _atom_site_label
 _atom_site_symmetry_multiplicity
 _atom_site_fract_x
 _atom_site_fract_y
 _atom_site_fract_z
 _atom_site_occupancy
  Nd  Nd0  1  0.184106  0.184106  0.500000  1
  Nd  Nd1  1  0.333833  0.666469  0.000000  1
  Nd  Nd2  1  0.666469  0.333833  0.000000  1
  Tm  Tm3  1  0.814118  0.999387  0.500000  1
  Tm  Tm4  1  0.999387  0.814118  0.500000  1
  Zr  Zr5  1  0.564838  0.564838  0.000000  1
  Zr  Zr6  1  0.437576  0.999280  0.000000  1
  Zr  Zr7  1  0.999280  0.437576  0.000000  1
  Ni  Ni8  1  0.730140  0.730140  0.500000  1
  Ni  Ni9  1  0.270598  0.996410  0.500000  1
  Ni  Ni10  1  0.996410  0.270598  0.500000  1
  Ni  Ni11  1  0.184995  0.376947  0.000000  1
  Ni  Ni12  1  0.627784  0.811674  0.000000  1
  Ni  Ni13  1  0.188679  0.814682  0.000000  1
  Ni  Ni14  1  0.811674  0.627784  0.000000  1
  Ni  Ni15  1  0.814682  0.188679  0.000000  1
  Ni  Ni16  1  0.376947  0.184995  0.000000  1
  Ni  Ni17  1  0.362075  0.483849  0.500000  1
  Ni  Ni18  1  0.518638  0.878760  0.500000  1
  Ni  Ni19  1  0.121733  0.639406  0.500000  1
  Ni  Ni20  1  0.878760  0.518638  0.500000  1
  Ni  Ni21  1  0.639406  0.121733  0.500000  1
  Ni  Ni22  1  0.483849  0.362075  0.500000  1
  Ni  Ni23  1  0.997515  0.997515  0.000000  1
  P  P24  1  0.823180  0.823180  0.000000  1
  P  P25  1  0.174639  0.995101  0.000000  1
  P  P26  1  0.995101  0.174639  0.000000  1
  P  P27  1  0.168073  0.470390  0.500000  1
  P  P28  1  0.529373  0.698074  0.500000  1
  P  P29  1  0.303264  0.830215  0.500000  1
  P  P30  1  0.698074  0.529373  0.500000  1
  P  P31  1  0.830215  0.303264  0.500000  1
  P  P32  1  0.470390  0.168073  0.500000  1
  P  P33  1  0.360524  0.360524  0.000000  1
  P  P34  1  0.643878  0.999798  0.000000  1
  P  P35  1  0.999798  0.643878  0.000000  1
