# generated using pymatgen
data_HoPa2(GaCo4)3
_symmetry_space_group_name_H-M   'P 1'
_cell_length_a   8.40868800
_cell_length_b   8.40868850
_cell_length_c   4.07374000
_cell_angle_alpha   90.00000000
_cell_angle_beta   90.00000000
_cell_angle_gamma   119.99999803
_symmetry_Int_Tables_number   1
_chemical_formula_structural   HoPa2(GaCo4)3
_chemical_formula_sum   'Ho1 Pa2 Ga3 Co12'
_cell_volume   249.44824378
_cell_formula_units_Z   1
loop_
 _symmetry_equiv_pos_site_id
 _symmetry_equiv_pos_as_xyz
  1  'x, y, z'
loop_
 _atom_site_type_symbol
 _atom_site_label
 _atom_site_symmetry_multiplicity
 _atom_site_fract_x
 _atom_site_fract_y
 _atom_site_fract_z
 _atom_site_occupancy
  Ho  Ho0  1  0.333333  0.666667  0.000000  1
  Pa  Pa1  1  0.666667  0.333333  0.000000  1
  Pa  Pa2  1  0.000000  0.000000  0.000000  1
  Ga  Ga3  1  0.496442  0.992884  0.500000  1
  Ga  Ga4  1  0.007116  0.503558  0.500000  1
  Ga  Ga5  1  0.496442  0.503558  0.500000  1
  Co  Co6  1  0.327803  0.010051  0.000000  1
  Co  Co7  1  0.682249  0.010051  0.000000  1
  Co  Co8  1  0.989949  0.317751  0.000000  1
  Co  Co9  1  0.989949  0.672197  0.000000  1
  Co  Co10  1  0.682249  0.672197  0.000000  1
  Co  Co11  1  0.327803  0.317751  0.000000  1
  Co  Co12  1  0.160727  0.321455  0.500000  1
  Co  Co13  1  0.836672  0.673343  0.500000  1
  Co  Co14  1  0.678545  0.839273  0.500000  1
  Co  Co15  1  0.326657  0.163328  0.500000  1
  Co  Co16  1  0.160727  0.839273  0.500000  1
  Co  Co17  1  0.836672  0.163328  0.500000  1
