# generated using pymatgen
data_Gd2Al2GaOs
_symmetry_space_group_name_H-M   'P 1'
_cell_length_a   5.50331385
_cell_length_b   5.54807844
_cell_length_c   8.78951900
_cell_angle_alpha   90.00000000
_cell_angle_beta   90.00000000
_cell_angle_gamma   120.26943870
_symmetry_Int_Tables_number   1
_chemical_formula_structural   Gd2Al2GaOs
_chemical_formula_sum   'Gd4 Al4 Ga2 Os2'
_cell_volume   231.78059439
_cell_formula_units_Z   2
loop_
 _symmetry_equiv_pos_site_id
 _symmetry_equiv_pos_as_xyz
  1  'x, y, z'
loop_
 _atom_site_type_symbol
 _atom_site_label
 _atom_site_symmetry_multiplicity
 _atom_site_fract_x
 _atom_site_fract_y
 _atom_site_fract_z
 _atom_site_occupancy
  Gd  Gd0  1  0.665490  0.332744  0.052978  1
  Gd  Gd1  1  0.665490  0.332744  0.447022  1
  Gd  Gd2  1  0.332623  0.666312  0.550729  1
  Gd  Gd3  1  0.332623  0.666312  0.949271  1
  Al  Al4  1  0.680154  0.840076  0.250000  1
  Al  Al5  1  0.323581  0.161791  0.750000  1
  Al  Al6  1  0.838274  0.161507  0.750000  1
  Al  Al7  1  0.838273  0.676768  0.750000  1
  Ga  Ga8  1  0.166793  0.329772  0.250000  1
  Ga  Ga9  1  0.166793  0.837020  0.250000  1
  Os  Os10  1  0.994956  0.997478  0.997733  1
  Os  Os11  1  0.994956  0.997478  0.502267  1
