# generated using pymatgen
data_NdDyZn5Ge
_symmetry_space_group_name_H-M   'P 1'
_cell_length_a   8.30571460
_cell_length_b   8.30571423
_cell_length_c   8.84090800
_cell_angle_alpha   90.00000000
_cell_angle_beta   90.00000000
_cell_angle_gamma   149.52697763
_symmetry_Int_Tables_number   1
_chemical_formula_structural   NdDyZn5Ge
_chemical_formula_sum   'Nd2 Dy2 Zn10 Ge2'
_cell_volume   309.29464249
_cell_formula_units_Z   2
loop_
 _symmetry_equiv_pos_site_id
 _symmetry_equiv_pos_as_xyz
  1  'x, y, z'
loop_
 _atom_site_type_symbol
 _atom_site_label
 _atom_site_symmetry_multiplicity
 _atom_site_fract_x
 _atom_site_fract_y
 _atom_site_fract_z
 _atom_site_occupancy
  Nd  Nd0  1  0.000000  0.000000  0.500000  1
  Nd  Nd1  1  0.000000  0.000000  0.000000  1
  Dy  Dy2  1  0.201343  0.798657  0.250000  1
  Dy  Dy3  1  0.798657  0.201343  0.750000  1
  Zn  Zn4  1  0.812587  0.187413  0.391953  1
  Zn  Zn5  1  0.187413  0.812587  0.608047  1
  Zn  Zn6  1  0.812587  0.187413  0.108047  1
  Zn  Zn7  1  0.187413  0.812587  0.891953  1
  Zn  Zn8  1  0.653695  0.346305  0.476170  1
  Zn  Zn9  1  0.346305  0.653695  0.523830  1
  Zn  Zn10  1  0.653695  0.346305  0.023830  1
  Zn  Zn11  1  0.346305  0.653695  0.976170  1
  Zn  Zn12  1  0.399357  0.600643  0.250000  1
  Zn  Zn13  1  0.600643  0.399357  0.750000  1
  Ge  Ge14  1  0.556599  0.443401  0.250000  1
  Ge  Ge15  1  0.443401  0.556599  0.750000  1
