# generated using pymatgen
data_Lu4MgZn2Sb
_symmetry_space_group_name_H-M   'P 1'
_cell_length_a   8.36409169
_cell_length_b   8.36409136
_cell_length_c   8.36409258
_cell_angle_alpha   125.53837950
_cell_angle_beta   125.53837683
_cell_angle_gamma   80.64817980
_symmetry_Int_Tables_number   1
_chemical_formula_structural   Lu4MgZn2Sb
_chemical_formula_sum   'Lu8 Mg2 Zn4 Sb2'
_cell_volume   373.61466964
_cell_formula_units_Z   2
loop_
 _symmetry_equiv_pos_site_id
 _symmetry_equiv_pos_as_xyz
  1  'x, y, z'
loop_
 _atom_site_type_symbol
 _atom_site_label
 _atom_site_symmetry_multiplicity
 _atom_site_fract_x
 _atom_site_fract_y
 _atom_site_fract_z
 _atom_site_occupancy
  Lu  Lu0  1  0.512086  0.698391  0.500000  1
  Lu  Lu1  1  0.012086  0.512086  0.813695  1
  Lu  Lu2  1  0.698391  0.198391  0.186305  1
  Lu  Lu3  1  0.987914  0.487914  0.186305  1
  Lu  Lu4  1  0.198391  0.012086  0.500000  1
  Lu  Lu5  1  0.487914  0.301609  0.500000  1
  Lu  Lu6  1  0.801609  0.987914  0.500000  1
  Lu  Lu7  1  0.301609  0.801609  0.813695  1
  Mg  Mg8  1  0.000000  0.000000  0.000000  1
  Mg  Mg9  1  0.500000  0.500000  0.000000  1
  Zn  Zn10  1  0.364086  0.864086  0.228171  1
  Zn  Zn11  1  0.864086  0.635914  0.500000  1
  Zn  Zn12  1  0.635914  0.135914  0.771829  1
  Zn  Zn13  1  0.135914  0.364086  0.500000  1
  Sb  Sb14  1  0.750000  0.750000  0.000000  1
  Sb  Sb15  1  0.250000  0.250000  0.000000  1
