# generated using pymatgen
data_YbPr7(ErIr3)2
_symmetry_space_group_name_H-M   'P 1'
_cell_length_a   11.21535056
_cell_length_b   11.27319800
_cell_length_c   6.52412143
_cell_angle_alpha   90.00000000
_cell_angle_beta   90.39404902
_cell_angle_gamma   90.00000000
_symmetry_Int_Tables_number   1
_chemical_formula_structural   YbPr7(ErIr3)2
_chemical_formula_sum   'Yb2 Pr14 Er4 Ir12'
_cell_volume   824.84387240
_cell_formula_units_Z   2
loop_
 _symmetry_equiv_pos_site_id
 _symmetry_equiv_pos_as_xyz
  1  'x, y, z'
loop_
 _atom_site_type_symbol
 _atom_site_label
 _atom_site_symmetry_multiplicity
 _atom_site_fract_x
 _atom_site_fract_y
 _atom_site_fract_z
 _atom_site_occupancy
  Yb  Yb0  1  0.290082  0.084845  0.381246  1
  Yb  Yb1  1  0.290082  0.915155  0.881246  1
  Pr  Pr2  1  0.711092  0.086304  0.883798  1
  Pr  Pr3  1  0.711092  0.913696  0.383798  1
  Pr  Pr4  1  0.582934  0.789820  0.881190  1
  Pr  Pr5  1  0.582934  0.210180  0.381190  1
  Pr  Pr6  1  0.408711  0.793384  0.382397  1
  Pr  Pr7  1  0.408711  0.206616  0.882397  1
  Pr  Pr8  1  0.212462  0.412350  0.619235  1
  Pr  Pr9  1  0.212462  0.587650  0.119235  1
  Pr  Pr10  1  0.788934  0.412196  0.117692  1
  Pr  Pr11  1  0.788934  0.587804  0.617692  1
  Pr  Pr12  1  0.912016  0.712278  0.121005  1
  Pr  Pr13  1  0.912016  0.287722  0.621005  1
  Pr  Pr14  1  0.089913  0.713727  0.620565  1
  Pr  Pr15  1  0.089913  0.286273  0.120565  1
  Er  Er16  1  0.003392  0.000996  0.496995  1
  Er  Er17  1  0.003392  0.999004  0.996995  1
  Er  Er18  1  0.499521  0.498922  0.996743  1
  Er  Er19  1  0.499521  0.501078  0.496743  1
  Ir  Ir20  1  0.855002  0.147262  0.249627  1
  Ir  Ir21  1  0.855002  0.852738  0.749627  1
  Ir  Ir22  1  0.145109  0.149815  0.750935  1
  Ir  Ir23  1  0.145109  0.850185  0.250935  1
  Ir  Ir24  1  0.646150  0.352126  0.749025  1
  Ir  Ir25  1  0.646150  0.647874  0.249025  1
  Ir  Ir26  1  0.352636  0.354857  0.246980  1
  Ir  Ir27  1  0.352636  0.645143  0.746980  1
  Ir  Ir28  1  0.501070  0.000616  0.119201  1
  Ir  Ir29  1  0.501070  0.999384  0.619201  1
  Ir  Ir30  1  0.000977  0.500260  0.883365  1
  Ir  Ir31  1  0.000977  0.499740  0.383365  1
