# generated using pymatgen
data_Ca4Co17(As4Ru)3
_symmetry_space_group_name_H-M   'P 1'
_cell_length_a   3.79860600
_cell_length_b   10.74770542
_cell_length_c   12.31120820
_cell_angle_alpha   90.11219086
_cell_angle_beta   90.00000000
_cell_angle_gamma   90.00000000
_symmetry_Int_Tables_number   1
_chemical_formula_structural   Ca4Co17(As4Ru)3
_chemical_formula_sum   'Ca4 Co17 As12 Ru3'
_cell_volume   502.62009476
_cell_formula_units_Z   1
loop_
 _symmetry_equiv_pos_site_id
 _symmetry_equiv_pos_as_xyz
  1  'x, y, z'
loop_
 _atom_site_type_symbol
 _atom_site_label
 _atom_site_symmetry_multiplicity
 _atom_site_fract_x
 _atom_site_fract_y
 _atom_site_fract_z
 _atom_site_occupancy
  Ca  Ca0  1  0.250000  0.581949  0.702513  1
  Ca  Ca1  1  0.250000  0.915296  0.204679  1
  Ca  Ca2  1  0.750000  0.415364  0.295143  1
  Ca  Ca3  1  0.750000  0.084332  0.795203  1
  Co  Co4  1  0.750000  0.207516  0.512311  1
  Co  Co5  1  0.250000  0.405119  0.489202  1
  Co  Co6  1  0.250000  0.094134  0.989835  1
  Co  Co7  1  0.750000  0.594453  0.510070  1
  Co  Co8  1  0.750000  0.905962  0.010451  1
  Co  Co9  1  0.250000  0.213670  0.175612  1
  Co  Co10  1  0.250000  0.285029  0.675774  1
  Co  Co11  1  0.750000  0.785741  0.824483  1
  Co  Co12  1  0.750000  0.714837  0.324614  1
  Co  Co13  1  0.250000  0.885480  0.698018  1
  Co  Co14  1  0.250000  0.615356  0.198845  1
  Co  Co15  1  0.750000  0.117615  0.303972  1
  Co  Co16  1  0.750000  0.384648  0.801366  1
  Co  Co17  1  0.250000  0.465347  0.934129  1
  Co  Co18  1  0.250000  0.035390  0.433489  1
  Co  Co19  1  0.750000  0.535270  0.066359  1
  Co  Co20  1  0.750000  0.967197  0.565930  1
  As  As21  1  0.250000  0.416658  0.115306  1
  As  As22  1  0.250000  0.084496  0.613825  1
  As  As23  1  0.750000  0.582815  0.884443  1
  As  As24  1  0.750000  0.917695  0.384938  1
  As  As25  1  0.250000  0.268425  0.866325  1
  As  As26  1  0.250000  0.232381  0.368359  1
  As  As27  1  0.750000  0.731862  0.133836  1
  As  As28  1  0.750000  0.768817  0.633365  1
  As  As29  1  0.250000  0.594360  0.389795  1
  As  As30  1  0.250000  0.906011  0.888737  1
  As  As31  1  0.750000  0.399968  0.608025  1
  As  As32  1  0.750000  0.094622  0.111847  1
  Ru  Ru33  1  0.250000  0.710440  0.988339  1
  Ru  Ru34  1  0.250000  0.791714  0.488412  1
  Ru  Ru35  1  0.750000  0.290032  0.012445  1
