# generated using pymatgen
data_Lu10Cd3Tc
_symmetry_space_group_name_H-M   'P 1'
_cell_length_a   9.31871925
_cell_length_b   9.32223852
_cell_length_c   9.78636501
_cell_angle_alpha   89.99418717
_cell_angle_beta   90.00528906
_cell_angle_gamma   119.98753952
_symmetry_Int_Tables_number   1
_chemical_formula_structural   Lu10Cd3Tc
_chemical_formula_sum   'Lu20 Cd6 Tc2'
_cell_volume   736.34779960
_cell_formula_units_Z   2
loop_
 _symmetry_equiv_pos_site_id
 _symmetry_equiv_pos_as_xyz
  1  'x, y, z'
loop_
 _atom_site_type_symbol
 _atom_site_label
 _atom_site_symmetry_multiplicity
 _atom_site_fract_x
 _atom_site_fract_y
 _atom_site_fract_z
 _atom_site_occupancy
  Lu  Lu0  1  0.000223  0.000325  0.500069  1
  Lu  Lu1  1  0.999773  0.999752  0.000087  1
  Lu  Lu2  1  0.210343  0.789515  0.443102  1
  Lu  Lu3  1  0.210682  0.420921  0.443052  1
  Lu  Lu4  1  0.579412  0.789592  0.442916  1
  Lu  Lu5  1  0.789533  0.210480  0.556743  1
  Lu  Lu6  1  0.789545  0.579286  0.556940  1
  Lu  Lu7  1  0.420801  0.210596  0.556962  1
  Lu  Lu8  1  0.789668  0.210288  0.943031  1
  Lu  Lu9  1  0.789643  0.579152  0.943107  1
  Lu  Lu10  1  0.420630  0.210323  0.943038  1
  Lu  Lu11  1  0.210284  0.789523  0.056938  1
  Lu  Lu12  1  0.210470  0.420713  0.056922  1
  Lu  Lu13  1  0.579286  0.789570  0.056968  1
  Lu  Lu14  1  0.539115  0.461114  0.249906  1
  Lu  Lu15  1  0.538899  0.078048  0.249918  1
  Lu  Lu16  1  0.922000  0.460905  0.249956  1
  Lu  Lu17  1  0.461156  0.538911  0.750065  1
  Lu  Lu18  1  0.460766  0.921821  0.749920  1
  Lu  Lu19  1  0.078029  0.538932  0.749891  1
  Cd  Cd20  1  0.886194  0.113901  0.249906  1
  Cd  Cd21  1  0.886440  0.772460  0.250316  1
  Cd  Cd22  1  0.227676  0.114057  0.249895  1
  Cd  Cd23  1  0.113477  0.885908  0.750153  1
  Cd  Cd24  1  0.113637  0.227584  0.750240  1
  Cd  Cd25  1  0.772241  0.886296  0.749915  1
  Tc  Tc26  1  0.333367  0.666622  0.249949  1
  Tc  Tc27  1  0.666709  0.333402  0.750095  1
