# generated using pymatgen
data_TaTc5Te8
_symmetry_space_group_name_H-M   'P 1'
_cell_length_a   7.16480023
_cell_length_b   7.11393344
_cell_length_c   7.15450583
_cell_angle_alpha   94.35578913
_cell_angle_beta   93.46742294
_cell_angle_gamma   93.38858986
_symmetry_Int_Tables_number   1
_chemical_formula_structural   TaTc5Te8
_chemical_formula_sum   'Ta1 Tc5 Te8'
_cell_volume   362.20146913
_cell_formula_units_Z   1
loop_
 _symmetry_equiv_pos_site_id
 _symmetry_equiv_pos_as_xyz
  1  'x, y, z'
loop_
 _atom_site_type_symbol
 _atom_site_label
 _atom_site_symmetry_multiplicity
 _atom_site_fract_x
 _atom_site_fract_y
 _atom_site_fract_z
 _atom_site_occupancy
  Ta  Ta0  1  0.955840  0.253316  0.087459  1
  Tc  Tc1  1  0.910665  0.044148  0.746625  1
  Tc  Tc2  1  0.744586  0.913753  0.049146  1
  Tc  Tc3  1  0.044910  0.746722  0.914689  1
  Tc  Tc4  1  0.088333  0.957313  0.254288  1
  Tc  Tc5  1  0.250441  0.085408  0.950070  1
  Te  Te6  1  0.713487  0.710607  0.714767  1
  Te  Te7  1  0.300306  0.286571  0.290680  1
  Te  Te8  1  0.772087  0.120502  0.387590  1
  Te  Te9  1  0.379015  0.774074  0.119348  1
  Te  Te10  1  0.124937  0.378219  0.757592  1
  Te  Te11  1  0.223733  0.874940  0.619079  1
  Te  Te12  1  0.612371  0.224090  0.879392  1
  Te  Te13  1  0.879290  0.630335  0.229275  1
