# generated using pymatgen
data_EuTcP2Ru
_symmetry_space_group_name_H-M   'P 1'
_cell_length_a   5.95164783
_cell_length_b   5.95164793
_cell_length_c   5.95164854
_cell_angle_alpha   139.23828969
_cell_angle_beta   139.23829579
_cell_angle_gamma   59.01169260
_symmetry_Int_Tables_number   1
_chemical_formula_structural   EuTcP2Ru
_chemical_formula_sum   'Eu1 Tc1 P2 Ru1'
_cell_volume   89.01181828
_cell_formula_units_Z   1
loop_
 _symmetry_equiv_pos_site_id
 _symmetry_equiv_pos_as_xyz
  1  'x, y, z'
loop_
 _atom_site_type_symbol
 _atom_site_label
 _atom_site_symmetry_multiplicity
 _atom_site_fract_x
 _atom_site_fract_y
 _atom_site_fract_z
 _atom_site_occupancy
  Eu  Eu0  1  0.000000  0.000000  0.000000  1
  Tc  Tc1  1  0.750000  0.250000  0.500000  1
  P  P2  1  0.643347  0.643347  0.000000  1
  P  P3  1  0.356653  0.356653  0.000000  1
  Ru  Ru4  1  0.250000  0.750000  0.500000  1
