# generated using pymatgen
data_KBa4As3O
_symmetry_space_group_name_H-M   'P 1'
_cell_length_a   10.09407958
_cell_length_b   10.09407997
_cell_length_c   10.09408081
_cell_angle_alpha   130.06328455
_cell_angle_beta   130.06328448
_cell_angle_gamma   73.30561379
_symmetry_Int_Tables_number   1
_chemical_formula_structural   KBa4As3O
_chemical_formula_sum   'K2 Ba8 As6 O2'
_cell_volume   588.09377277
_cell_formula_units_Z   2
loop_
 _symmetry_equiv_pos_site_id
 _symmetry_equiv_pos_as_xyz
  1  'x, y, z'
loop_
 _atom_site_type_symbol
 _atom_site_label
 _atom_site_symmetry_multiplicity
 _atom_site_fract_x
 _atom_site_fract_y
 _atom_site_fract_z
 _atom_site_occupancy
  K  K0  1  0.500000  0.500000  0.000000  1
  K  K1  1  0.000000  0.000000  0.000000  1
  Ba  Ba2  1  0.814048  0.986220  0.500000  1
  Ba  Ba3  1  0.486220  0.314048  0.500000  1
  Ba  Ba4  1  0.986220  0.486220  0.172172  1
  Ba  Ba5  1  0.185952  0.013780  0.500000  1
  Ba  Ba6  1  0.685952  0.185952  0.172172  1
  Ba  Ba7  1  0.013780  0.513780  0.827828  1
  Ba  Ba8  1  0.314048  0.814048  0.827828  1
  Ba  Ba9  1  0.513780  0.685952  0.500000  1
  As  As10  1  0.893387  0.606613  0.500000  1
  As  As11  1  0.250000  0.250000  0.000000  1
  As  As12  1  0.393387  0.893387  0.286775  1
  As  As13  1  0.606613  0.106613  0.713225  1
  As  As14  1  0.106613  0.393387  0.500000  1
  As  As15  1  0.750000  0.750000  0.000000  1
  O  O16  1  0.250000  0.750000  0.500000  1
  O  O17  1  0.750000  0.250000  0.500000  1
