# generated using pymatgen
data_LaPrZn2(GeRh2)2
_symmetry_space_group_name_H-M   'P 1'
_cell_length_a   4.16968900
_cell_length_b   4.16968900
_cell_length_c   10.79722100
_cell_angle_alpha   90.00000000
_cell_angle_beta   90.00000000
_cell_angle_gamma   90.00000000
_symmetry_Int_Tables_number   1
_chemical_formula_structural   LaPrZn2(GeRh2)2
_chemical_formula_sum   'La1 Pr1 Zn2 Ge2 Rh4'
_cell_volume   187.72379211
_cell_formula_units_Z   1
loop_
 _symmetry_equiv_pos_site_id
 _symmetry_equiv_pos_as_xyz
  1  'x, y, z'
loop_
 _atom_site_type_symbol
 _atom_site_label
 _atom_site_symmetry_multiplicity
 _atom_site_fract_x
 _atom_site_fract_y
 _atom_site_fract_z
 _atom_site_occupancy
  La  La0  1  0.000000  0.500000  0.251197  1
  Pr  Pr1  1  0.500000  0.000000  0.750173  1
  Zn  Zn2  1  0.000000  0.000000  0.501818  1
  Zn  Zn3  1  0.500000  0.500000  0.501818  1
  Ge  Ge4  1  0.000000  0.500000  0.874268  1
  Ge  Ge5  1  0.500000  0.000000  0.123650  1
  Rh  Rh6  1  0.000000  0.000000  0.998943  1
  Rh  Rh7  1  0.500000  0.500000  0.998943  1
  Rh  Rh8  1  0.000000  0.500000  0.643421  1
  Rh  Rh9  1  0.500000  0.000000  0.355767  1
