# generated using pymatgen
data_K4Zr6IrBr18
_symmetry_space_group_name_H-M   'P 1'
_cell_length_a   10.64540144
_cell_length_b   10.77828728
_cell_length_c   10.88794335
_cell_angle_alpha   118.49314260
_cell_angle_beta   100.27721988
_cell_angle_gamma   103.74961838
_symmetry_Int_Tables_number   1
_chemical_formula_structural   K4Zr6IrBr18
_chemical_formula_sum   'K4 Zr6 Ir1 Br18'
_cell_volume   1002.25662775
_cell_formula_units_Z   1
loop_
 _symmetry_equiv_pos_site_id
 _symmetry_equiv_pos_as_xyz
  1  'x, y, z'
loop_
 _atom_site_type_symbol
 _atom_site_label
 _atom_site_symmetry_multiplicity
 _atom_site_fract_x
 _atom_site_fract_y
 _atom_site_fract_z
 _atom_site_occupancy
  K  K0  1  0.652019  0.536444  0.227035  1
  K  K1  1  0.347981  0.463556  0.772965  1
  K  K2  1  0.688349  0.227282  0.564582  1
  K  K3  1  0.311651  0.772718  0.435418  1
  Zr  Zr4  1  0.160772  0.060056  0.245074  1
  Zr  Zr5  1  0.839228  0.939944  0.754926  1
  Zr  Zr6  1  0.853377  0.134586  0.141306  1
  Zr  Zr7  1  0.146623  0.865414  0.858694  1
  Zr  Zr8  1  0.153976  0.253702  0.047399  1
  Zr  Zr9  1  0.846024  0.746298  0.952601  1
  Ir  Ir10  1  0.000000  0.000000  0.000000  1
  Br  Br11  1  0.009677  0.415729  0.200174  1
  Br  Br12  1  0.990323  0.584271  0.799826  1
  Br  Br13  1  0.332859  0.337978  0.315575  1
  Br  Br14  1  0.667141  0.662022  0.684425  1
  Br  Br15  1  0.330774  0.527854  0.103058  1
  Br  Br16  1  0.669226  0.472146  0.896942  1
  Br  Br17  1  0.005512  0.793586  0.213011  1
  Br  Br18  1  0.994488  0.206414  0.786989  1
  Br  Br19  1  0.702148  0.281491  0.294278  1
  Br  Br20  1  0.297852  0.718509  0.705722  1
  Br  Br21  1  0.319595  0.128700  0.901199  1
  Br  Br22  1  0.680405  0.871300  0.098801  1
  Br  Br23  1  0.016779  0.206853  0.413415  1
  Br  Br24  1  0.983221  0.793147  0.586585  1
  Br  Br25  1  0.323690  0.919754  0.110998  1
  Br  Br26  1  0.676310  0.080246  0.889002  1
  Br  Br27  1  0.341345  0.123193  0.508366  1
  Br  Br28  1  0.658655  0.876807  0.491634  1
