# generated using pymatgen
data_LiGd7(Si4Mo3)4
_symmetry_space_group_name_H-M   'P 1'
_cell_length_a   6.81243357
_cell_length_b   6.85490769
_cell_length_c   12.73675700
_cell_angle_alpha   89.95350244
_cell_angle_beta   89.82011654
_cell_angle_gamma   89.70882450
_symmetry_Int_Tables_number   1
_chemical_formula_structural   LiGd7(Si4Mo3)4
_chemical_formula_sum   'Li1 Gd7 Si16 Mo12'
_cell_volume   594.77796209
_cell_formula_units_Z   1
loop_
 _symmetry_equiv_pos_site_id
 _symmetry_equiv_pos_as_xyz
  1  'x, y, z'
loop_
 _atom_site_type_symbol
 _atom_site_label
 _atom_site_symmetry_multiplicity
 _atom_site_fract_x
 _atom_site_fract_y
 _atom_site_fract_z
 _atom_site_occupancy
  Li  Li0  1  0.975829  0.169995  0.093440  1
  Gd  Gd1  1  0.498984  0.333776  0.093094  1
  Gd  Gd2  1  0.999896  0.166206  0.407003  1
  Gd  Gd3  1  0.505134  0.665911  0.593372  1
  Gd  Gd4  1  0.001808  0.837279  0.912990  1
  Gd  Gd5  1  0.501314  0.665445  0.910351  1
  Gd  Gd6  1  0.004249  0.834099  0.593660  1
  Gd  Gd7  1  0.497672  0.332304  0.403063  1
  Si  Si8  1  0.660795  0.043979  0.545846  1
  Si  Si9  1  0.156109  0.448636  0.957055  1
  Si  Si10  1  0.329289  0.967927  0.048189  1
  Si  Si11  1  0.840464  0.544641  0.453963  1
  Si  Si12  1  0.342172  0.954739  0.452949  1
  Si  Si13  1  0.846916  0.530224  0.049053  1
  Si  Si14  1  0.658974  0.043072  0.956320  1
  Si  Si15  1  0.161516  0.456594  0.545623  1
  Si  Si16  1  0.537287  0.365563  0.750487  1
  Si  Si17  1  0.037116  0.134357  0.751415  1
  Si  Si18  1  0.463971  0.636157  0.249650  1
  Si  Si19  1  0.966571  0.873619  0.244759  1
  Si  Si20  1  0.806106  0.631148  0.752978  1
  Si  Si21  1  0.302730  0.867663  0.751705  1
  Si  Si22  1  0.185811  0.361215  0.241539  1
  Si  Si23  1  0.706398  0.131621  0.244228  1
  Mo  Mo24  1  0.832807  0.336927  0.626242  1
  Mo  Mo25  1  0.334556  0.163801  0.873957  1
  Mo  Mo26  1  0.171302  0.668803  0.126288  1
  Mo  Mo27  1  0.671772  0.837790  0.372034  1
  Mo  Mo28  1  0.166895  0.664252  0.372495  1
  Mo  Mo29  1  0.668567  0.833567  0.124341  1
  Mo  Mo30  1  0.830884  0.333525  0.875439  1
  Mo  Mo31  1  0.333309  0.162383  0.625651  1
  Mo  Mo32  1  0.665885  0.000098  0.750562  1
  Mo  Mo33  1  0.167035  0.498228  0.750772  1
  Mo  Mo34  1  0.335295  0.000798  0.249155  1
  Mo  Mo35  1  0.834579  0.503660  0.250334  1
