# generated using pymatgen
data_Tm16Cd4IrRuPt2
_symmetry_space_group_name_H-M   'P 1'
_cell_length_a   9.52187029
_cell_length_b   9.52561439
_cell_length_c   9.53106100
_cell_angle_alpha   59.98108717
_cell_angle_beta   59.96806907
_cell_angle_gamma   60.19247956
_symmetry_Int_Tables_number   1
_chemical_formula_structural   Tm16Cd4IrRuPt2
_chemical_formula_sum   'Tm16 Cd4 Ir1 Ru1 Pt2'
_cell_volume   611.93007362
_cell_formula_units_Z   1
loop_
 _symmetry_equiv_pos_site_id
 _symmetry_equiv_pos_as_xyz
  1  'x, y, z'
loop_
 _atom_site_type_symbol
 _atom_site_label
 _atom_site_symmetry_multiplicity
 _atom_site_fract_x
 _atom_site_fract_y
 _atom_site_fract_z
 _atom_site_occupancy
  Tm  Tm0  1  0.599778  0.600783  0.597007  1
  Tm  Tm1  1  0.599778  0.600783  0.202432  1
  Tm  Tm2  1  0.606668  0.193568  0.599882  1
  Tm  Tm3  1  0.195039  0.606514  0.599224  1
  Tm  Tm4  1  0.056654  0.439813  0.440479  1
  Tm  Tm5  1  0.439072  0.055995  0.065478  1
  Tm  Tm6  1  0.439072  0.055995  0.439456  1
  Tm  Tm7  1  0.056654  0.439813  0.063055  1
  Tm  Tm8  1  0.440981  0.440023  0.059498  1
  Tm  Tm9  1  0.063615  0.060780  0.437803  1
  Tm  Tm10  1  0.187874  0.816421  0.809708  1
  Tm  Tm11  1  0.815570  0.187452  0.185469  1
  Tm  Tm12  1  0.815570  0.187452  0.811507  1
  Tm  Tm13  1  0.187874  0.816421  0.185996  1
  Tm  Tm14  1  0.811750  0.814436  0.186907  1
  Tm  Tm15  1  0.186460  0.186879  0.813330  1
  Cd  Cd16  1  0.831238  0.831480  0.832099  1
  Cd  Cd17  1  0.831238  0.831480  0.505183  1
  Cd  Cd18  1  0.830445  0.506631  0.831461  1
  Cd  Cd19  1  0.505364  0.830932  0.831852  1
  Ir  Ir20  1  0.823319  0.390729  0.392976  1
  Ru  Ru21  1  0.392005  0.822743  0.392626  1
  Pt  Pt22  1  0.391991  0.391438  0.394943  1
  Pt  Pt23  1  0.391991  0.391438  0.821627  1
