# generated using pymatgen
data_Pr3PaTlInRh3
_symmetry_space_group_name_H-M   'P 1'
_cell_length_a   7.61165456
_cell_length_b   7.65931761
_cell_length_c   4.37479300
_cell_angle_alpha   90.00000000
_cell_angle_beta   90.00000000
_cell_angle_gamma   121.14856440
_symmetry_Int_Tables_number   1
_chemical_formula_structural   Pr3PaTlInRh3
_chemical_formula_sum   'Pr3 Pa1 Tl1 In1 Rh3'
_cell_volume   218.27984427
_cell_formula_units_Z   1
loop_
 _symmetry_equiv_pos_site_id
 _symmetry_equiv_pos_as_xyz
  1  'x, y, z'
loop_
 _atom_site_type_symbol
 _atom_site_label
 _atom_site_symmetry_multiplicity
 _atom_site_fract_x
 _atom_site_fract_y
 _atom_site_fract_z
 _atom_site_occupancy
  Pr  Pr0  1  0.027118  0.593123  0.500000  1
  Pr  Pr1  1  0.373584  0.372660  0.500000  1
  Pr  Pr2  1  0.593380  0.026693  0.500000  1
  Pa  Pa3  1  0.732035  0.733291  0.000000  1
  Tl  Tl4  1  0.997045  0.251859  0.000000  1
  In  In5  1  0.249428  0.995607  0.000000  1
  Rh  Rh6  1  0.380189  0.685787  0.000000  1
  Rh  Rh7  1  0.970139  0.962008  0.500000  1
  Rh  Rh8  1  0.677081  0.378972  0.000000  1
