# generated using pymatgen
data_SmYCo9Mo3As7
_symmetry_space_group_name_H-M   'P 1'
_cell_length_a   3.86327000
_cell_length_b   9.42247276
_cell_length_c   9.42247300
_cell_angle_alpha   119.99999732
_cell_angle_beta   90.00000000
_cell_angle_gamma   90.00000000
_symmetry_Int_Tables_number   1
_chemical_formula_structural   SmYCo9Mo3As7
_chemical_formula_sum   'Sm1 Y1 Co9 Mo3 As7'
_cell_volume   297.04038385
_cell_formula_units_Z   1
loop_
 _symmetry_equiv_pos_site_id
 _symmetry_equiv_pos_as_xyz
  1  'x, y, z'
loop_
 _atom_site_type_symbol
 _atom_site_label
 _atom_site_symmetry_multiplicity
 _atom_site_fract_x
 _atom_site_fract_y
 _atom_site_fract_z
 _atom_site_occupancy
  Sm  Sm0  1  0.500000  0.333333  0.666667  1
  Y  Y1  1  0.000000  0.666667  0.333333  1
  Co  Co2  1  0.000000  0.570862  0.941563  1
  Co  Co3  1  0.000000  0.370701  0.429138  1
  Co  Co4  1  0.000000  0.058437  0.629299  1
  Co  Co5  1  0.000000  0.876326  0.157994  1
  Co  Co6  1  0.000000  0.281668  0.123674  1
  Co  Co7  1  0.000000  0.842006  0.718332  1
  Co  Co8  1  0.500000  0.949213  0.382514  1
  Co  Co9  1  0.500000  0.433299  0.050787  1
  Co  Co10  1  0.500000  0.617486  0.566701  1
  Mo  Mo11  1  0.500000  0.781556  0.902510  1
  Mo  Mo12  1  0.500000  0.120955  0.218444  1
  Mo  Mo13  1  0.500000  0.097490  0.879045  1
  As  As14  1  0.000000  0.000000  0.000000  1
  As  As15  1  0.500000  0.707559  0.119526  1
  As  As16  1  0.500000  0.411968  0.292441  1
  As  As17  1  0.500000  0.880474  0.588032  1
  As  As18  1  0.000000  0.587458  0.699574  1
  As  As19  1  0.000000  0.112117  0.412542  1
  As  As20  1  0.000000  0.300426  0.887883  1
