# generated using pymatgen
data_DyY2Ta3(B2Ru5)2
_symmetry_space_group_name_H-M   'P 1'
_cell_length_a   9.61375710
_cell_length_b   9.61375708
_cell_length_c   3.11995400
_cell_angle_alpha   90.00000000
_cell_angle_beta   90.00000000
_cell_angle_gamma   90.44456182
_symmetry_Int_Tables_number   1
_chemical_formula_structural   DyY2Ta3(B2Ru5)2
_chemical_formula_sum   'Dy1 Y2 Ta3 B4 Ru10'
_cell_volume   288.35096343
_cell_formula_units_Z   1
loop_
 _symmetry_equiv_pos_site_id
 _symmetry_equiv_pos_as_xyz
  1  'x, y, z'
loop_
 _atom_site_type_symbol
 _atom_site_label
 _atom_site_symmetry_multiplicity
 _atom_site_fract_x
 _atom_site_fract_y
 _atom_site_fract_z
 _atom_site_occupancy
  Dy  Dy0  1  0.325777  0.825777  0.000000  1
  Y  Y1  1  0.823527  0.675244  0.000000  1
  Y  Y2  1  0.175244  0.323527  0.000000  1
  Ta  Ta3  1  0.675837  0.175837  0.000000  1
  Ta  Ta4  1  0.498167  0.502764  0.000000  1
  Ta  Ta5  1  0.002764  0.998167  0.000000  1
  B  B6  1  0.623437  0.881765  0.000000  1
  B  B7  1  0.381765  0.123437  0.000000  1
  B  B8  1  0.118681  0.618681  0.000000  1
  B  B9  1  0.875876  0.375876  0.000000  1
  Ru  Ru10  1  0.570348  0.722408  0.500000  1
  Ru  Ru11  1  0.441674  0.280269  0.500000  1
  Ru  Ru12  1  0.069654  0.780653  0.500000  1
  Ru  Ru13  1  0.915184  0.213052  0.500000  1
  Ru  Ru14  1  0.280653  0.569654  0.500000  1
  Ru  Ru15  1  0.713052  0.415184  0.500000  1
  Ru  Ru16  1  0.222408  0.070348  0.500000  1
  Ru  Ru17  1  0.780269  0.941674  0.500000  1
  Ru  Ru18  1  0.509918  0.009918  0.500000  1
  Ru  Ru19  1  0.995764  0.495764  0.500000  1
