# generated using pymatgen
data_DyEr7Ti9Si16Tc3
_symmetry_space_group_name_H-M   'P 1'
_cell_length_a   6.95791841
_cell_length_b   6.95739233
_cell_length_c   12.77492408
_cell_angle_alpha   90.06157109
_cell_angle_beta   89.93163610
_cell_angle_gamma   90.01321111
_symmetry_Int_Tables_number   1
_chemical_formula_structural   DyEr7Ti9Si16Tc3
_chemical_formula_sum   'Dy1 Er7 Ti9 Si16 Tc3'
_cell_volume   618.42007948
_cell_formula_units_Z   1
loop_
 _symmetry_equiv_pos_site_id
 _symmetry_equiv_pos_as_xyz
  1  'x, y, z'
loop_
 _atom_site_type_symbol
 _atom_site_label
 _atom_site_symmetry_multiplicity
 _atom_site_fract_x
 _atom_site_fract_y
 _atom_site_fract_z
 _atom_site_occupancy
  Dy  Dy0  1  0.340471  0.001749  0.467301  1
  Er  Er1  1  0.499074  0.841700  0.719605  1
  Er  Er2  1  0.500083  0.158697  0.217641  1
  Er  Er3  1  0.841796  0.499042  0.280466  1
  Er  Er4  1  0.158646  0.500083  0.782344  1
  Er  Er5  1  0.658824  0.999573  0.968420  1
  Er  Er6  1  0.001339  0.340702  0.532788  1
  Er  Er7  1  0.999547  0.658842  0.031529  1
  Ti  Ti8  1  0.673843  0.673624  0.500029  1
  Ti  Ti9  1  0.151605  0.005384  0.876846  1
  Ti  Ti10  1  0.494599  0.653054  0.124210  1
  Ti  Ti11  1  0.504998  0.348342  0.627340  1
  Ti  Ti12  1  0.653053  0.494626  0.875784  1
  Ti  Ti13  1  0.348251  0.504903  0.372709  1
  Ti  Ti14  1  0.847548  0.992534  0.375568  1
  Ti  Ti15  1  0.005279  0.151609  0.123177  1
  Ti  Ti16  1  0.992482  0.847513  0.624471  1
  Si  Si17  1  0.200482  0.130053  0.683757  1
  Si  Si18  1  0.369711  0.701170  0.932549  1
  Si  Si19  1  0.632564  0.297178  0.433900  1
  Si  Si20  1  0.701155  0.369735  0.067427  1
  Si  Si21  1  0.296600  0.631416  0.566296  1
  Si  Si22  1  0.798540  0.869384  0.183063  1
  Si  Si23  1  0.129524  0.201140  0.316162  1
  Si  Si24  1  0.869449  0.798479  0.816911  1
  Si  Si25  1  0.291055  0.952178  0.066589  1
  Si  Si26  1  0.547461  0.790459  0.315488  1
  Si  Si27  1  0.452252  0.210093  0.816721  1
  Si  Si28  1  0.790836  0.547070  0.684300  1
  Si  Si29  1  0.210004  0.452405  0.183253  1
  Si  Si30  1  0.708166  0.049240  0.567591  1
  Si  Si31  1  0.952211  0.291071  0.933389  1
  Si  Si32  1  0.048637  0.707023  0.432586  1
  Tc  Tc33  1  0.327999  0.327981  0.999982  1
  Tc  Tc34  1  0.173736  0.828057  0.248445  1
  Tc  Tc35  1  0.828181  0.173890  0.751362  1
