# generated using pymatgen
data_TiBeNb4Ga3
_symmetry_space_group_name_H-M   'P 1'
_cell_length_a   7.86284500
_cell_length_b   7.86284517
_cell_length_c   5.33829200
_cell_angle_alpha   90.00000000
_cell_angle_beta   90.00000000
_cell_angle_gamma   119.99999508
_symmetry_Int_Tables_number   1
_chemical_formula_structural   TiBeNb4Ga3
_chemical_formula_sum   'Ti2 Be2 Nb8 Ga6'
_cell_volume   285.81986992
_cell_formula_units_Z   2
loop_
 _symmetry_equiv_pos_site_id
 _symmetry_equiv_pos_as_xyz
  1  'x, y, z'
loop_
 _atom_site_type_symbol
 _atom_site_label
 _atom_site_symmetry_multiplicity
 _atom_site_fract_x
 _atom_site_fract_y
 _atom_site_fract_z
 _atom_site_occupancy
  Ti  Ti0  1  0.666667  0.333333  0.000000  1
  Ti  Ti1  1  0.333333  0.666667  0.000000  1
  Be  Be2  1  0.000000  0.000000  0.000000  1
  Be  Be3  1  0.000000  0.000000  0.500000  1
  Nb  Nb4  1  0.333333  0.666667  0.500000  1
  Nb  Nb5  1  0.666667  0.333333  0.500000  1
  Nb  Nb6  1  0.739672  0.739672  0.735639  1
  Nb  Nb7  1  0.260328  0.000000  0.735639  1
  Nb  Nb8  1  0.000000  0.260328  0.735639  1
  Nb  Nb9  1  0.260328  0.260328  0.264361  1
  Nb  Nb10  1  0.739672  0.000000  0.264361  1
  Nb  Nb11  1  0.000000  0.739672  0.264361  1
  Ga  Ga12  1  0.389364  0.389364  0.763132  1
  Ga  Ga13  1  0.610636  0.000000  0.763132  1
  Ga  Ga14  1  0.000000  0.610636  0.763132  1
  Ga  Ga15  1  0.610636  0.610636  0.236868  1
  Ga  Ga16  1  0.389364  0.000000  0.236868  1
  Ga  Ga17  1  0.000000  0.389364  0.236868  1
