# generated using pymatgen
data_Er12Mn2In2Tc
_symmetry_space_group_name_H-M   'P 1'
_cell_length_a   8.33000554
_cell_length_b   8.33022401
_cell_length_c   8.33000400
_cell_angle_alpha   108.78856832
_cell_angle_beta   108.60159797
_cell_angle_gamma   111.03385300
_symmetry_Int_Tables_number   1
_chemical_formula_structural   Er12Mn2In2Tc
_chemical_formula_sum   'Er12 Mn2 In2 Tc1'
_cell_volume   444.72015404
_cell_formula_units_Z   1
loop_
 _symmetry_equiv_pos_site_id
 _symmetry_equiv_pos_as_xyz
  1  'x, y, z'
loop_
 _atom_site_type_symbol
 _atom_site_label
 _atom_site_symmetry_multiplicity
 _atom_site_fract_x
 _atom_site_fract_y
 _atom_site_fract_z
 _atom_site_occupancy
  Er  Er0  1  0.307380  0.307391  0.614766  1
  Er  Er1  1  0.692620  0.692609  0.385234  1
  Er  Er2  1  0.307375  0.692609  0.999989  1
  Er  Er3  1  0.692625  0.307391  0.000011  1
  Er  Er4  1  0.430043  0.192016  0.238032  1
  Er  Er5  1  0.569957  0.807984  0.761968  1
  Er  Er6  1  0.953983  0.192016  0.761972  1
  Er  Er7  1  0.192069  0.954105  0.762037  1
  Er  Er8  1  0.046017  0.807984  0.238028  1
  Er  Er9  1  0.807931  0.045895  0.237963  1
  Er  Er10  1  0.192064  0.430030  0.237966  1
  Er  Er11  1  0.807936  0.569970  0.762034  1
  Mn  Mn12  1  0.386265  0.386269  0.000003  1
  Mn  Mn13  1  0.613735  0.613731  0.999997  1
  In  In14  1  0.500000  0.000000  0.500000  1
  In  In15  1  0.000000  0.500000  0.500000  1
  Tc  Tc16  1  0.000000  0.000000  0.000000  1
