# generated using pymatgen
data_Zr2Np5BiSb10
_symmetry_space_group_name_H-M   'P 1'
_cell_length_a   9.34492243
_cell_length_b   9.34492280
_cell_length_c   6.25091400
_cell_angle_alpha   90.00000000
_cell_angle_beta   90.00000000
_cell_angle_gamma   120.02294152
_symmetry_Int_Tables_number   1
_chemical_formula_structural   Zr2Np5BiSb10
_chemical_formula_sum   'Zr2 Np5 Bi1 Sb10'
_cell_volume   472.63418512
_cell_formula_units_Z   1
loop_
 _symmetry_equiv_pos_site_id
 _symmetry_equiv_pos_as_xyz
  1  'x, y, z'
loop_
 _atom_site_type_symbol
 _atom_site_label
 _atom_site_symmetry_multiplicity
 _atom_site_fract_x
 _atom_site_fract_y
 _atom_site_fract_z
 _atom_site_occupancy
  Zr  Zr0  1  0.003157  0.003157  0.498888  1
  Zr  Zr1  1  0.003157  0.003157  0.001112  1
  Np  Np2  1  0.614640  0.995408  0.750000  1
  Np  Np3  1  0.384057  0.000671  0.250000  1
  Np  Np4  1  0.995408  0.614640  0.750000  1
  Np  Np5  1  0.000671  0.384057  0.250000  1
  Np  Np6  1  0.398020  0.398020  0.750000  1
  Bi  Bi7  1  0.607195  0.607195  0.250000  1
  Sb  Sb8  1  0.272520  0.002902  0.750000  1
  Sb  Sb9  1  0.727885  0.997168  0.250000  1
  Sb  Sb10  1  0.002902  0.272520  0.750000  1
  Sb  Sb11  1  0.997168  0.727885  0.250000  1
  Sb  Sb12  1  0.737686  0.737686  0.750000  1
  Sb  Sb13  1  0.269739  0.269739  0.250000  1
  Sb  Sb14  1  0.326117  0.666780  0.498749  1
  Sb  Sb15  1  0.666780  0.326117  0.498749  1
  Sb  Sb16  1  0.666780  0.326117  0.001251  1
  Sb  Sb17  1  0.326117  0.666780  0.001251  1
