# generated using pymatgen
data_Ca2Al20Os3Pd
_symmetry_space_group_name_H-M   'P 1'
_cell_length_a   6.88689962
_cell_length_b   6.88870048
_cell_length_c   9.16908736
_cell_angle_alpha   90.32555372
_cell_angle_beta   90.16337788
_cell_angle_gamma   96.50042000
_symmetry_Int_Tables_number   1
_chemical_formula_structural   Ca2Al20Os3Pd
_chemical_formula_sum   'Ca2 Al20 Os3 Pd1'
_cell_volume   432.19166491
_cell_formula_units_Z   1
loop_
 _symmetry_equiv_pos_site_id
 _symmetry_equiv_pos_as_xyz
  1  'x, y, z'
loop_
 _atom_site_type_symbol
 _atom_site_label
 _atom_site_symmetry_multiplicity
 _atom_site_fract_x
 _atom_site_fract_y
 _atom_site_fract_z
 _atom_site_occupancy
  Ca  Ca0  1  0.628488  0.375250  0.748930  1
  Ca  Ca1  1  0.371512  0.624750  0.251070  1
  Al  Al2  1  0.276523  0.019755  0.743885  1
  Al  Al3  1  0.019584  0.282385  0.249555  1
  Al  Al4  1  0.723477  0.980245  0.256115  1
  Al  Al5  1  0.980416  0.717615  0.750445  1
  Al  Al6  1  0.882356  0.125216  0.951267  1
  Al  Al7  1  0.117644  0.874784  0.048733  1
  Al  Al8  1  0.877253  0.124351  0.544514  1
  Al  Al9  1  0.122747  0.875649  0.455486  1
  Al  Al10  1  0.647439  0.915622  0.747727  1
  Al  Al11  1  0.914782  0.644033  0.251077  1
  Al  Al12  1  0.352561  0.084378  0.252273  1
  Al  Al13  1  0.085218  0.355967  0.748923  1
  Al  Al14  1  0.339957  0.654432  0.895789  1
  Al  Al15  1  0.660043  0.345568  0.104211  1
  Al  Al16  1  0.344346  0.657314  0.598922  1
  Al  Al17  1  0.655654  0.342686  0.401078  1
  Al  Al18  1  0.725969  0.721707  0.997249  1
  Al  Al19  1  0.722366  0.721124  0.500956  1
  Al  Al20  1  0.274031  0.278293  0.002751  1
  Al  Al21  1  0.277634  0.278876  0.499044  1
  Os  Os22  1  0.000000  0.500000  0.000000  1
  Os  Os23  1  0.500000  0.000000  0.500000  1
  Os  Os24  1  0.000000  0.500000  0.500000  1
  Pd  Pd25  1  0.500000  0.000000  0.000000  1
