# generated using pymatgen
data_Pr12Os2RhAu
_symmetry_space_group_name_H-M   'P 1'
_cell_length_a   6.62520286
_cell_length_b   7.52829536
_cell_length_c   9.99306000
_cell_angle_alpha   90.00000000
_cell_angle_beta   90.00000000
_cell_angle_gamma   90.56032858
_symmetry_Int_Tables_number   1
_chemical_formula_structural   Pr12Os2RhAu
_chemical_formula_sum   'Pr12 Os2 Rh1 Au1'
_cell_volume   498.39486210
_cell_formula_units_Z   1
loop_
 _symmetry_equiv_pos_site_id
 _symmetry_equiv_pos_as_xyz
  1  'x, y, z'
loop_
 _atom_site_type_symbol
 _atom_site_label
 _atom_site_symmetry_multiplicity
 _atom_site_fract_x
 _atom_site_fract_y
 _atom_site_fract_z
 _atom_site_occupancy
  Pr  Pr0  1  0.341955  0.668188  0.060669  1
  Pr  Pr1  1  0.172415  0.188867  0.439834  1
  Pr  Pr2  1  0.670588  0.323961  0.567275  1
  Pr  Pr3  1  0.828629  0.823706  0.930218  1
  Pr  Pr4  1  0.670588  0.323961  0.932725  1
  Pr  Pr5  1  0.828629  0.823706  0.569782  1
  Pr  Pr6  1  0.341955  0.668188  0.439331  1
  Pr  Pr7  1  0.172415  0.188867  0.060166  1
  Pr  Pr8  1  0.852182  0.518967  0.250000  1
  Pr  Pr9  1  0.623570  0.043064  0.250000  1
  Pr  Pr10  1  0.143139  0.466474  0.750000  1
  Pr  Pr11  1  0.359086  0.956254  0.750000  1
  Os  Os12  1  0.432144  0.382041  0.250000  1
  Os  Os13  1  0.560150  0.618125  0.750000  1
  Rh  Rh14  1  0.936947  0.119461  0.750000  1
  Au  Au15  1  0.065609  0.886171  0.250000  1
