# generated using pymatgen
data_TbSc(Co3Si2)2
_symmetry_space_group_name_H-M   'P 1'
_cell_length_a   6.20578792
_cell_length_b   6.20499197
_cell_length_c   6.20516845
_cell_angle_alpha   130.51751002
_cell_angle_beta   112.65535174
_cell_angle_gamma   88.00080257
_symmetry_Int_Tables_number   1
_chemical_formula_structural   TbSc(Co3Si2)2
_chemical_formula_sum   'Tb1 Sc1 Co6 Si4'
_cell_volume   159.53523015
_cell_formula_units_Z   1
loop_
 _symmetry_equiv_pos_site_id
 _symmetry_equiv_pos_as_xyz
  1  'x, y, z'
loop_
 _atom_site_type_symbol
 _atom_site_label
 _atom_site_symmetry_multiplicity
 _atom_site_fract_x
 _atom_site_fract_y
 _atom_site_fract_z
 _atom_site_occupancy
  Tb  Tb0  1  0.750015  0.470681  0.720691  1
  Sc  Sc1  1  0.250033  0.543066  0.293100  1
  Co  Co2  1  0.995126  0.997071  0.492251  1
  Co  Co3  1  0.504882  0.997106  0.001936  1
  Co  Co4  1  0.719429  0.994830  0.719543  1
  Co  Co5  1  0.224737  0.500116  0.719557  1
  Co  Co6  1  0.275237  0.994831  0.275378  1
  Co  Co7  1  0.780562  0.500138  0.275400  1
  Si  Si8  1  0.087125  0.884198  0.796935  1
  Si  Si9  1  0.924970  0.129148  0.203980  1
  Si  Si10  1  0.574999  0.779004  0.204139  1
  Si  Si11  1  0.412884  0.209814  0.797089  1
