# generated using pymatgen
data_Zr18Fe2Re7Mo
_symmetry_space_group_name_H-M   'P 1'
_cell_length_a   8.68475000
_cell_length_b   8.68474989
_cell_length_c   8.52715700
_cell_angle_alpha   90.00000000
_cell_angle_beta   90.00000000
_cell_angle_gamma   120.00000041
_symmetry_Int_Tables_number   1
_chemical_formula_structural   Zr18Fe2Re7Mo
_chemical_formula_sum   'Zr18 Fe2 Re7 Mo1'
_cell_volume   556.99272946
_cell_formula_units_Z   1
loop_
 _symmetry_equiv_pos_site_id
 _symmetry_equiv_pos_as_xyz
  1  'x, y, z'
loop_
 _atom_site_type_symbol
 _atom_site_label
 _atom_site_symmetry_multiplicity
 _atom_site_fract_x
 _atom_site_fract_y
 _atom_site_fract_z
 _atom_site_occupancy
  Zr  Zr0  1  0.541283  0.082566  0.249580  1
  Zr  Zr1  1  0.458717  0.917434  0.750420  1
  Zr  Zr2  1  0.917434  0.458717  0.249580  1
  Zr  Zr3  1  0.541283  0.458717  0.249580  1
  Zr  Zr4  1  0.458717  0.541283  0.750420  1
  Zr  Zr5  1  0.082566  0.541283  0.750420  1
  Zr  Zr6  1  0.199830  0.399660  0.058475  1
  Zr  Zr7  1  0.799198  0.598396  0.558328  1
  Zr  Zr8  1  0.600340  0.800170  0.058475  1
  Zr  Zr9  1  0.199830  0.800170  0.058475  1
  Zr  Zr10  1  0.799198  0.200802  0.558328  1
  Zr  Zr11  1  0.401604  0.200802  0.558328  1
  Zr  Zr12  1  0.800170  0.600340  0.941525  1
  Zr  Zr13  1  0.800170  0.199830  0.941525  1
  Zr  Zr14  1  0.399660  0.199830  0.941525  1
  Zr  Zr15  1  0.598396  0.799198  0.441672  1
  Zr  Zr16  1  0.200802  0.799198  0.441672  1
  Zr  Zr17  1  0.200802  0.401604  0.441672  1
  Fe  Fe18  1  0.333333  0.666667  0.249673  1
  Fe  Fe19  1  0.666667  0.333333  0.750327  1
  Re  Re20  1  0.000000  0.000000  0.000000  1
  Re  Re21  1  0.890958  0.781915  0.250454  1
  Re  Re22  1  0.109042  0.218085  0.749546  1
  Re  Re23  1  0.218085  0.109042  0.250454  1
  Re  Re24  1  0.890958  0.109042  0.250454  1
  Re  Re25  1  0.109042  0.890958  0.749546  1
  Re  Re26  1  0.781915  0.890958  0.749546  1
  Mo  Mo27  1  0.000000  0.000000  0.500000  1
