# generated using pymatgen
data_Th4U4Re(B8W)3
_symmetry_space_group_name_H-M   'P 1'
_cell_length_a   3.76766200
_cell_length_b   9.41765100
_cell_length_c   11.54885200
_cell_angle_alpha   89.99887247
_cell_angle_beta   90.00000000
_cell_angle_gamma   90.00000000
_symmetry_Int_Tables_number   1
_chemical_formula_structural   Th4U4Re(B8W)3
_chemical_formula_sum   'Th4 U4 Re1 B24 W3'
_cell_volume   409.78243903
_cell_formula_units_Z   1
loop_
 _symmetry_equiv_pos_site_id
 _symmetry_equiv_pos_as_xyz
  1  'x, y, z'
loop_
 _atom_site_type_symbol
 _atom_site_label
 _atom_site_symmetry_multiplicity
 _atom_site_fract_x
 _atom_site_fract_y
 _atom_site_fract_z
 _atom_site_occupancy
  Th  Th0  1  0.000000  0.334928  0.407649  1
  Th  Th1  1  0.000000  0.664787  0.591895  1
  Th  Th2  1  0.000000  0.834737  0.092461  1
  Th  Th3  1  0.000000  0.165165  0.907989  1
  U  U4  1  0.000000  0.957080  0.396510  1
  U  U5  1  0.000000  0.043787  0.603418  1
  U  U6  1  0.000000  0.457563  0.103823  1
  U  U7  1  0.000000  0.541983  0.896119  1
  Re  Re8  1  0.000000  0.852403  0.817747  1
  B  B9  1  0.500000  0.555295  0.428695  1
  B  B10  1  0.500000  0.444800  0.571566  1
  B  B11  1  0.500000  0.055052  0.071288  1
  B  B12  1  0.500000  0.944047  0.927397  1
  B  B13  1  0.500000  0.746407  0.421852  1
  B  B14  1  0.500000  0.253474  0.578553  1
  B  B15  1  0.500000  0.246487  0.078196  1
  B  B16  1  0.500000  0.754273  0.920847  1
  B  B17  1  0.500000  0.803163  0.275136  1
  B  B18  1  0.500000  0.196815  0.725177  1
  B  B19  1  0.500000  0.303073  0.224730  1
  B  B20  1  0.500000  0.698039  0.774966  1
  B  B21  1  0.500000  0.643553  0.187389  1
  B  B22  1  0.500000  0.356725  0.812689  1
  B  B23  1  0.500000  0.143254  0.312291  1
  B  B24  1  0.500000  0.856327  0.688331  1
  B  B25  1  0.500000  0.990771  0.221368  1
  B  B26  1  0.500000  0.007830  0.779296  1
  B  B27  1  0.500000  0.491151  0.278302  1
  B  B28  1  0.500000  0.509314  0.721403  1
  B  B29  1  0.500000  0.635646  0.036522  1
  B  B30  1  0.500000  0.365133  0.963055  1
  B  B31  1  0.500000  0.134675  0.463061  1
  B  B32  1  0.500000  0.864970  0.537745  1
  W  W33  1  0.000000  0.647726  0.317653  1
  W  W34  1  0.000000  0.352248  0.682821  1
  W  W35  1  0.000000  0.147322  0.182057  1
