# generated using pymatgen
data_Hf3Zr3CoBiSb
_symmetry_space_group_name_H-M   'P 1'
_cell_length_a   7.84214200
_cell_length_b   7.84214010
_cell_length_c   3.64094500
_cell_angle_alpha   90.00000000
_cell_angle_beta   90.00000000
_cell_angle_gamma   120.00000801
_symmetry_Int_Tables_number   1
_chemical_formula_structural   Hf3Zr3CoBiSb
_chemical_formula_sum   'Hf3 Zr3 Co1 Bi1 Sb1'
_cell_volume   193.91616510
_cell_formula_units_Z   1
loop_
 _symmetry_equiv_pos_site_id
 _symmetry_equiv_pos_as_xyz
  1  'x, y, z'
loop_
 _atom_site_type_symbol
 _atom_site_label
 _atom_site_symmetry_multiplicity
 _atom_site_fract_x
 _atom_site_fract_y
 _atom_site_fract_z
 _atom_site_occupancy
  Hf  Hf0  1  0.235317  0.002181  0.500000  1
  Hf  Hf1  1  0.997819  0.233135  0.500000  1
  Hf  Hf2  1  0.766865  0.764683  0.500000  1
  Zr  Zr3  1  0.607039  0.007505  0.000000  1
  Zr  Zr4  1  0.992495  0.599533  0.000000  1
  Zr  Zr5  1  0.400467  0.392961  0.000000  1
  Co  Co6  1  0.000000  0.000000  0.000000  1
  Bi  Bi7  1  0.333333  0.666667  0.500000  1
  Sb  Sb8  1  0.666667  0.333333  0.500000  1
