# generated using pymatgen
data_Sm5Te9
_symmetry_space_group_name_H-M   'P 1'
_cell_length_a   13.38506166
_cell_length_b   13.38506028
_cell_length_c   11.01278200
_cell_angle_alpha   80.42007707
_cell_angle_beta   80.42007373
_cell_angle_gamma   26.79219797
_symmetry_Int_Tables_number   1
_chemical_formula_structural   Sm5Te9
_chemical_formula_sum   'Sm10 Te18'
_cell_volume   876.25195873
_cell_formula_units_Z   2
loop_
 _symmetry_equiv_pos_site_id
 _symmetry_equiv_pos_as_xyz
  1  'x, y, z'
loop_
 _atom_site_type_symbol
 _atom_site_label
 _atom_site_symmetry_multiplicity
 _atom_site_fract_x
 _atom_site_fract_y
 _atom_site_fract_z
 _atom_site_occupancy
  Sm  Sm0  1  0.946503  0.044411  0.241392  1
  Sm  Sm1  1  0.146917  0.247806  0.842442  1
  Sm  Sm2  1  0.344945  0.450072  0.437217  1
  Sm  Sm3  1  0.539651  0.652269  0.037021  1
  Sm  Sm4  1  0.753639  0.836671  0.637459  1
  Sm  Sm5  1  0.347732  0.460348  0.962979  1
  Sm  Sm6  1  0.549927  0.655056  0.562783  1
  Sm  Sm7  1  0.752195  0.853082  0.157558  1
  Sm  Sm8  1  0.955588  0.053498  0.758608  1
  Sm  Sm9  1  0.163326  0.246364  0.362541  1
  Te  Te10  1  0.473917  0.571618  0.821418  1
  Te  Te11  1  0.071923  0.177770  0.621260  1
  Te  Te12  1  0.869476  0.979478  0.019906  1
  Te  Te13  1  0.681124  0.763231  0.422284  1
  Te  Te14  1  0.273245  0.375546  0.221362  1
  Te  Te15  1  0.020522  0.130524  0.980094  1
  Te  Te16  1  0.624454  0.726755  0.778638  1
  Te  Te17  1  0.428382  0.526083  0.178582  1
  Te  Te18  1  0.236769  0.318876  0.577716  1
  Te  Te19  1  0.822230  0.928077  0.378740  1
  Te  Te20  1  0.699474  0.300526  0.500000  1
  Te  Te21  1  0.298836  0.900819  0.300700  1
  Te  Te22  1  0.099181  0.701164  0.699300  1
  Te  Te23  1  0.894257  0.493308  0.112786  1
  Te  Te24  1  0.506692  0.105743  0.887214  1
  Te  Te25  1  0.002429  0.602560  0.894804  1
  Te  Te26  1  0.199222  0.800778  0.500000  1
  Te  Te27  1  0.397440  0.997571  0.105196  1
