# generated using pymatgen
data_La2Mn3Re14C3
_symmetry_space_group_name_H-M   'P 1'
_cell_length_a   6.98708061
_cell_length_b   6.98708042
_cell_length_c   6.98708166
_cell_angle_alpha   82.85874880
_cell_angle_beta   82.85873580
_cell_angle_gamma   82.85874330
_symmetry_Int_Tables_number   1
_chemical_formula_structural   La2Mn3Re14C3
_chemical_formula_sum   'La2 Mn3 Re14 C3'
_cell_volume   333.77358186
_cell_formula_units_Z   1
loop_
 _symmetry_equiv_pos_site_id
 _symmetry_equiv_pos_as_xyz
  1  'x, y, z'
loop_
 _atom_site_type_symbol
 _atom_site_label
 _atom_site_symmetry_multiplicity
 _atom_site_fract_x
 _atom_site_fract_y
 _atom_site_fract_z
 _atom_site_occupancy
  La  La0  1  0.647421  0.647421  0.647421  1
  La  La1  1  0.352579  0.352579  0.352579  1
  Mn  Mn2  1  0.000000  0.000000  0.500000  1
  Mn  Mn3  1  0.500000  0.000000  0.000000  1
  Mn  Mn4  1  0.000000  0.500000  0.000000  1
  Re  Re5  1  0.721755  0.278245  0.000000  1
  Re  Re6  1  0.000000  0.721755  0.278245  1
  Re  Re7  1  0.278245  0.000000  0.721755  1
  Re  Re8  1  0.000000  0.278245  0.721755  1
  Re  Re9  1  0.721755  0.000000  0.278245  1
  Re  Re10  1  0.278245  0.721755  0.000000  1
  Re  Re11  1  0.343804  0.343804  0.865526  1
  Re  Re12  1  0.865526  0.343804  0.343804  1
  Re  Re13  1  0.343804  0.865526  0.343804  1
  Re  Re14  1  0.656196  0.656196  0.134474  1
  Re  Re15  1  0.134474  0.656196  0.656196  1
  Re  Re16  1  0.656196  0.134474  0.656196  1
  Re  Re17  1  0.901243  0.901243  0.901243  1
  Re  Re18  1  0.098757  0.098757  0.098757  1
  C  C19  1  0.500000  0.500000  0.000000  1
  C  C20  1  0.000000  0.500000  0.500000  1
  C  C21  1  0.500000  0.000000  0.500000  1
