# generated using pymatgen
data_LuSc4Co19(Si5P)2
_symmetry_space_group_name_H-M   'P 1'
_cell_length_a   11.99201836
_cell_length_b   12.00824928
_cell_length_c   3.62989900
_cell_angle_alpha   90.00000000
_cell_angle_beta   90.00000000
_cell_angle_gamma   119.98332334
_symmetry_Int_Tables_number   1
_chemical_formula_structural   LuSc4Co19(Si5P)2
_chemical_formula_sum   'Lu1 Sc4 Co19 Si10 P2'
_cell_volume   452.76214522
_cell_formula_units_Z   1
loop_
 _symmetry_equiv_pos_site_id
 _symmetry_equiv_pos_as_xyz
  1  'x, y, z'
loop_
 _atom_site_type_symbol
 _atom_site_label
 _atom_site_symmetry_multiplicity
 _atom_site_fract_x
 _atom_site_fract_y
 _atom_site_fract_z
 _atom_site_occupancy
  Lu  Lu0  1  0.816142  0.815679  0.000000  1
  Sc  Sc1  1  0.332513  0.665821  0.500000  1
  Sc  Sc2  1  0.666143  0.333892  0.500000  1
  Sc  Sc3  1  0.185303  0.000447  0.000000  1
  Sc  Sc4  1  0.001134  0.185951  0.000000  1
  Co  Co5  1  0.196120  0.372042  0.500000  1
  Co  Co6  1  0.623318  0.820932  0.500000  1
  Co  Co7  1  0.177065  0.803395  0.500000  1
  Co  Co8  1  0.824370  0.626542  0.500000  1
  Co  Co9  1  0.802975  0.180594  0.500000  1
  Co  Co10  1  0.372229  0.195940  0.500000  1
  Co  Co11  1  0.556975  0.000549  0.500000  1
  Co  Co12  1  0.001057  0.557139  0.500000  1
  Co  Co13  1  0.441962  0.441475  0.500000  1
  Co  Co14  1  0.124388  0.478279  0.000000  1
  Co  Co15  1  0.519992  0.644018  0.000000  1
  Co  Co16  1  0.353799  0.875609  0.000000  1
  Co  Co17  1  0.645184  0.520150  0.000000  1
  Co  Co18  1  0.876491  0.355506  0.000000  1
  Co  Co19  1  0.477641  0.124200  0.000000  1
  Co  Co20  1  0.718096  0.001280  0.000000  1
  Co  Co21  1  0.001142  0.721781  0.000000  1
  Co  Co22  1  0.277467  0.277558  0.000000  1
  Co  Co23  1  0.006206  0.000947  0.500000  1
  Si  Si24  1  0.366189  0.999916  0.500000  1
  Si  Si25  1  0.000413  0.366325  0.500000  1
  Si  Si26  1  0.631394  0.630937  0.500000  1
  Si  Si27  1  0.318475  0.481013  0.000000  1
  Si  Si28  1  0.517488  0.836703  0.000000  1
  Si  Si29  1  0.163291  0.680461  0.000000  1
  Si  Si30  1  0.837847  0.518306  0.000000  1
  Si  Si31  1  0.680582  0.164197  0.000000  1
  Si  Si32  1  0.481254  0.318415  0.000000  1
  Si  Si33  1  0.822620  0.003252  0.500000  1
  P  P34  1  0.002520  0.820681  0.500000  1
  P  P35  1  0.180214  0.180066  0.500000  1
