# generated using pymatgen
data_Y3ZnSiAg3Ge
_symmetry_space_group_name_H-M   'P 1'
_cell_length_a   7.19235000
_cell_length_b   7.19235189
_cell_length_c   4.17018200
_cell_angle_alpha   90.00000000
_cell_angle_beta   90.00000000
_cell_angle_gamma   119.99999129
_symmetry_Int_Tables_number   1
_chemical_formula_structural   Y3ZnSiAg3Ge
_chemical_formula_sum   'Y3 Zn1 Si1 Ag3 Ge1'
_cell_volume   186.82174318
_cell_formula_units_Z   1
loop_
 _symmetry_equiv_pos_site_id
 _symmetry_equiv_pos_as_xyz
  1  'x, y, z'
loop_
 _atom_site_type_symbol
 _atom_site_label
 _atom_site_symmetry_multiplicity
 _atom_site_fract_x
 _atom_site_fract_y
 _atom_site_fract_z
 _atom_site_occupancy
  Y  Y0  1  0.998855  0.418425  0.500000  1
  Y  Y1  1  0.581575  0.580430  0.500000  1
  Y  Y2  1  0.419570  0.001145  0.500000  1
  Zn  Zn3  1  0.000000  0.000000  0.500000  1
  Si  Si4  1  0.666667  0.333333  0.000000  1
  Ag  Ag5  1  0.991053  0.746675  0.000000  1
  Ag  Ag6  1  0.253325  0.244378  0.000000  1
  Ag  Ag7  1  0.755622  0.008947  0.000000  1
  Ge  Ge8  1  0.333333  0.666667  0.000000  1
