# generated using pymatgen
data_TbYb6Sm(MgRu)2
_symmetry_space_group_name_H-M   'P 1'
_cell_length_a   9.94982750
_cell_length_b   9.94982719
_cell_length_c   9.93233300
_cell_angle_alpha   60.05814179
_cell_angle_beta   60.05814282
_cell_angle_gamma   60.09215495
_symmetry_Int_Tables_number   1
_chemical_formula_structural   TbYb6Sm(MgRu)2
_chemical_formula_sum   'Tb2 Yb12 Sm2 Mg4 Ru4'
_cell_volume   696.38684680
_cell_formula_units_Z   2
loop_
 _symmetry_equiv_pos_site_id
 _symmetry_equiv_pos_as_xyz
  1  'x, y, z'
loop_
 _atom_site_type_symbol
 _atom_site_label
 _atom_site_symmetry_multiplicity
 _atom_site_fract_x
 _atom_site_fract_y
 _atom_site_fract_z
 _atom_site_occupancy
  Tb  Tb0  1  0.339037  0.339037  0.339335  1
  Tb  Tb1  1  0.339037  0.339037  0.982590  1
  Yb  Yb2  1  0.953222  0.546498  0.547770  1
  Yb  Yb3  1  0.546498  0.953222  0.952510  1
  Yb  Yb4  1  0.546498  0.953222  0.547770  1
  Yb  Yb5  1  0.953222  0.546498  0.952510  1
  Yb  Yb6  1  0.545706  0.545706  0.954294  1
  Yb  Yb7  1  0.951618  0.951618  0.548382  1
  Yb  Yb8  1  0.809833  0.190745  0.190063  1
  Yb  Yb9  1  0.190745  0.809833  0.809359  1
  Yb  Yb10  1  0.190745  0.809833  0.190063  1
  Yb  Yb11  1  0.809833  0.190745  0.809359  1
  Yb  Yb12  1  0.191106  0.191106  0.808894  1
  Yb  Yb13  1  0.810306  0.810306  0.189694  1
  Sm  Sm14  1  0.339748  0.980960  0.339645  1
  Sm  Sm15  1  0.980960  0.339748  0.339645  1
  Mg  Mg16  1  0.576644  0.576644  0.578177  1
  Mg  Mg17  1  0.576644  0.576644  0.268535  1
  Mg  Mg18  1  0.576393  0.267666  0.577970  1
  Mg  Mg19  1  0.267666  0.576393  0.577970  1
  Ru  Ru20  1  0.139517  0.139517  0.136442  1
  Ru  Ru21  1  0.139517  0.139517  0.584524  1
  Ru  Ru22  1  0.140622  0.584881  0.137248  1
  Ru  Ru23  1  0.584881  0.140622  0.137248  1
