# generated using pymatgen
data_Nd6Tl7Hg2Ge
_symmetry_space_group_name_H-M   'P 1'
_cell_length_a   8.66573729
_cell_length_b   8.68544462
_cell_length_c   8.67824848
_cell_angle_alpha   120.66905493
_cell_angle_beta   120.61115764
_cell_angle_gamma   89.05935614
_symmetry_Int_Tables_number   1
_chemical_formula_structural   Nd6Tl7Hg2Ge
_chemical_formula_sum   'Nd6 Tl7 Hg2 Ge1'
_cell_volume   456.65521675
_cell_formula_units_Z   1
loop_
 _symmetry_equiv_pos_site_id
 _symmetry_equiv_pos_as_xyz
  1  'x, y, z'
loop_
 _atom_site_type_symbol
 _atom_site_label
 _atom_site_symmetry_multiplicity
 _atom_site_fract_x
 _atom_site_fract_y
 _atom_site_fract_z
 _atom_site_occupancy
  Nd  Nd0  1  0.761697  0.761221  0.995387  1
  Nd  Nd1  1  0.237469  0.236821  0.003338  1
  Nd  Nd2  1  0.676619  0.146947  0.821999  1
  Nd  Nd3  1  0.321921  0.856519  0.177698  1
  Nd  Nd4  1  0.151998  0.322283  0.469874  1
  Nd  Nd5  1  0.853666  0.678824  0.530792  1
  Tl  Tl6  1  0.328525  0.807286  0.788843  1
  Tl  Tl7  1  0.673937  0.196698  0.215748  1
  Tl  Tl8  1  0.017664  0.540709  0.211919  1
  Tl  Tl9  1  0.805957  0.018623  0.476686  1
  Tl  Tl10  1  0.460354  0.669869  0.478584  1
  Tl  Tl11  1  0.981093  0.458445  0.786203  1
  Tl  Tl12  1  0.193124  0.981215  0.523627  1
  Hg  Hg13  1  0.538685  0.324629  0.521232  1
  Hg  Hg14  1  0.498192  0.499152  0.998311  1
  Ge  Ge15  1  0.999099  0.000757  0.999759  1
