# generated using pymatgen
data_Ac4TmMgSi4
_symmetry_space_group_name_H-M   'P 1'
_cell_length_a   7.77645300
_cell_length_b   7.77645300
_cell_length_c   4.69123600
_cell_angle_alpha   90.00000000
_cell_angle_beta   90.00000000
_cell_angle_gamma   90.00000000
_symmetry_Int_Tables_number   1
_chemical_formula_structural   Ac4TmMgSi4
_chemical_formula_sum   'Ac4 Tm1 Mg1 Si4'
_cell_volume   283.69415262
_cell_formula_units_Z   1
loop_
 _symmetry_equiv_pos_site_id
 _symmetry_equiv_pos_as_xyz
  1  'x, y, z'
loop_
 _atom_site_type_symbol
 _atom_site_label
 _atom_site_symmetry_multiplicity
 _atom_site_fract_x
 _atom_site_fract_y
 _atom_site_fract_z
 _atom_site_occupancy
  Ac  Ac0  1  0.673011  0.187476  0.500000  1
  Ac  Ac1  1  0.326989  0.812524  0.500000  1
  Ac  Ac2  1  0.187476  0.326989  0.500000  1
  Ac  Ac3  1  0.812524  0.673011  0.500000  1
  Tm  Tm4  1  0.000000  0.000000  0.000000  1
  Mg  Mg5  1  0.500000  0.500000  0.000000  1
  Si  Si6  1  0.103065  0.619982  0.000000  1
  Si  Si7  1  0.896935  0.380018  0.000000  1
  Si  Si8  1  0.619982  0.896935  0.000000  1
  Si  Si9  1  0.380018  0.103065  0.000000  1
