# generated using pymatgen
data_Hg3Sb(Pt2O7)2
_symmetry_space_group_name_H-M   'P 1'
_cell_length_a   7.20384098
_cell_length_b   7.34755850
_cell_length_c   7.20384000
_cell_angle_alpha   60.64494965
_cell_angle_beta   59.99999532
_cell_angle_gamma   60.64494858
_symmetry_Int_Tables_number   1
_chemical_formula_structural   Hg3Sb(Pt2O7)2
_chemical_formula_sum   'Hg3 Sb1 Pt4 O14'
_cell_volume   272.22111600
_cell_formula_units_Z   1
loop_
 _symmetry_equiv_pos_site_id
 _symmetry_equiv_pos_as_xyz
  1  'x, y, z'
loop_
 _atom_site_type_symbol
 _atom_site_label
 _atom_site_symmetry_multiplicity
 _atom_site_fract_x
 _atom_site_fract_y
 _atom_site_fract_z
 _atom_site_occupancy
  Hg  Hg0  1  0.125000  0.125000  0.125000  1
  Hg  Hg1  1  0.625000  0.125000  0.125000  1
  Hg  Hg2  1  0.125000  0.125000  0.625000  1
  Sb  Sb3  1  0.125000  0.625000  0.125000  1
  Pt  Pt4  1  0.625000  0.625000  0.625000  1
  Pt  Pt5  1  0.125000  0.625000  0.625000  1
  Pt  Pt6  1  0.625000  0.625000  0.125000  1
  Pt  Pt7  1  0.625000  0.125000  0.625000  1
  O  O8  1  0.015630  0.953111  0.015630  1
  O  O9  1  0.234370  0.296889  0.234370  1
  O  O10  1  0.519770  0.557473  0.961379  1
  O  O11  1  0.289456  0.295451  0.707546  1
  O  O12  1  0.961379  0.557473  0.961379  1
  O  O13  1  0.961379  0.557473  0.519770  1
  O  O14  1  0.542454  0.954549  0.960544  1
  O  O15  1  0.542454  0.954549  0.542454  1
  O  O16  1  0.960544  0.954549  0.542454  1
  O  O17  1  0.707546  0.295451  0.289456  1
  O  O18  1  0.288621  0.692527  0.730230  1
  O  O19  1  0.730230  0.692527  0.288621  1
  O  O20  1  0.707546  0.295451  0.707546  1
  O  O21  1  0.288621  0.692527  0.288621  1
