# generated using pymatgen
data_TbEr5Al24Os5Pt3
_symmetry_space_group_name_H-M   'P 1'
_cell_length_a   8.80576026
_cell_length_b   8.82225820
_cell_length_c   9.53611403
_cell_angle_alpha   90.14734571
_cell_angle_beta   89.70781712
_cell_angle_gamma   119.51902029
_symmetry_Int_Tables_number   1
_chemical_formula_structural   TbEr5Al24Os5Pt3
_chemical_formula_sum   'Tb1 Er5 Al24 Os5 Pt3'
_cell_volume   644.65534063
_cell_formula_units_Z   1
loop_
 _symmetry_equiv_pos_site_id
 _symmetry_equiv_pos_as_xyz
  1  'x, y, z'
loop_
 _atom_site_type_symbol
 _atom_site_label
 _atom_site_symmetry_multiplicity
 _atom_site_fract_x
 _atom_site_fract_y
 _atom_site_fract_z
 _atom_site_occupancy
  Tb  Tb0  1  0.187652  0.381833  0.250395  1
  Er  Er1  1  0.811967  0.615377  0.749002  1
  Er  Er2  1  0.611604  0.813748  0.252239  1
  Er  Er3  1  0.387806  0.186362  0.747724  1
  Er  Er4  1  0.195908  0.808789  0.251874  1
  Er  Er5  1  0.804526  0.191769  0.748148  1
  Al  Al6  1  0.335164  0.671469  0.029911  1
  Al  Al7  1  0.664810  0.328787  0.969066  1
  Al  Al8  1  0.669159  0.331595  0.529330  1
  Al  Al9  1  0.330597  0.668686  0.471553  1
  Al  Al10  1  0.158138  0.325666  0.575720  1
  Al  Al11  1  0.841892  0.674531  0.425216  1
  Al  Al12  1  0.673550  0.840847  0.575663  1
  Al  Al13  1  0.836878  0.676338  0.077955  1
  Al  Al14  1  0.326799  0.159199  0.424789  1
  Al  Al15  1  0.163411  0.323901  0.921022  1
  Al  Al16  1  0.163689  0.835131  0.576910  1
  Al  Al17  1  0.325793  0.158616  0.076150  1
  Al  Al18  1  0.835788  0.164899  0.423789  1
  Al  Al19  1  0.674712  0.841419  0.923236  1
  Al  Al20  1  0.831203  0.159148  0.077781  1
  Al  Al21  1  0.168368  0.840884  0.921654  1
  Al  Al22  1  0.560558  0.125089  0.249971  1
  Al  Al23  1  0.439740  0.875383  0.750126  1
  Al  Al24  1  0.874035  0.438351  0.252849  1
  Al  Al25  1  0.126089  0.562235  0.747538  1
  Al  Al26  1  0.563031  0.437066  0.249834  1
  Al  Al27  1  0.438073  0.563502  0.750256  1
  Al  Al28  1  0.996861  0.999973  0.250155  1
  Al  Al29  1  0.001485  0.997314  0.749678  1
  Os  Os30  1  0.499988  0.000090  0.000043  1
  Os  Os31  1  0.500058  0.000152  0.500063  1
  Os  Os32  1  0.999656  0.500157  0.500736  1
  Os  Os33  1  0.000132  0.000276  0.999940  1
  Os  Os34  1  0.000080  0.000195  0.499902  1
  Pt  Pt35  1  0.999582  0.500245  0.999641  1
  Pt  Pt36  1  0.500775  0.500548  0.999668  1
  Pt  Pt37  1  0.500442  0.500430  0.500475  1
