# generated using pymatgen
data_Li2Pr3CdAgSn4
_symmetry_space_group_name_H-M   'P 1'
_cell_length_a   8.97187665
_cell_length_b   8.95083417
_cell_length_c   8.95083353
_cell_angle_alpha   149.40657623
_cell_angle_beta   131.01670037
_cell_angle_gamma   58.84159560
_symmetry_Int_Tables_number   1
_chemical_formula_structural   Li2Pr3CdAgSn4
_chemical_formula_sum   'Li2 Pr3 Cd1 Ag1 Sn4'
_cell_volume   273.90374597
_cell_formula_units_Z   1
loop_
 _symmetry_equiv_pos_site_id
 _symmetry_equiv_pos_as_xyz
  1  'x, y, z'
loop_
 _atom_site_type_symbol
 _atom_site_label
 _atom_site_symmetry_multiplicity
 _atom_site_fract_x
 _atom_site_fract_y
 _atom_site_fract_z
 _atom_site_occupancy
  Li  Li0  1  0.860748  0.670799  0.189948  1
  Li  Li1  1  0.148284  0.330641  0.817642  1
  Pr  Pr2  1  0.499619  0.999448  0.500169  1
  Pr  Pr3  1  0.873124  0.873896  0.999229  1
  Pr  Pr4  1  0.117498  0.126338  0.991160  1
  Cd  Cd5  1  0.481033  0.671495  0.809537  1
  Ag  Ag6  1  0.516460  0.328339  0.188121  1
  Sn  Sn7  1  0.269801  0.784364  0.485438  1
  Sn  Sn8  1  0.740966  0.217734  0.523232  1
  Sn  Sn9  1  0.803506  0.501372  0.302135  1
  Sn  Sn10  1  0.188961  0.495574  0.693387  1
