# generated using pymatgen
data_Er5Lu15(Zn3Os)2
_symmetry_space_group_name_H-M   'P 1'
_cell_length_a   9.21751100
_cell_length_b   9.21750910
_cell_length_c   9.46197900
_cell_angle_alpha   90.00000000
_cell_angle_beta   90.00000000
_cell_angle_gamma   119.95904919
_symmetry_Int_Tables_number   1
_chemical_formula_structural   Er5Lu15(Zn3Os)2
_chemical_formula_sum   'Er5 Lu15 Zn6 Os2'
_cell_volume   696.49646061
_cell_formula_units_Z   1
loop_
 _symmetry_equiv_pos_site_id
 _symmetry_equiv_pos_as_xyz
  1  'x, y, z'
loop_
 _atom_site_type_symbol
 _atom_site_label
 _atom_site_symmetry_multiplicity
 _atom_site_fract_x
 _atom_site_fract_y
 _atom_site_fract_z
 _atom_site_occupancy
  Er  Er0  1  0.538326  0.078112  0.250000  1
  Er  Er1  1  0.921888  0.461674  0.250000  1
  Er  Er2  1  0.460704  0.539296  0.750000  1
  Er  Er3  1  0.461462  0.923244  0.750000  1
  Er  Er4  1  0.076756  0.538538  0.750000  1
  Lu  Lu5  1  0.000259  0.999741  0.499909  1
  Lu  Lu6  1  0.000259  0.999741  0.000091  1
  Lu  Lu7  1  0.207777  0.792223  0.444395  1
  Lu  Lu8  1  0.207994  0.414961  0.444004  1
  Lu  Lu9  1  0.585039  0.792006  0.444004  1
  Lu  Lu10  1  0.792466  0.207534  0.555320  1
  Lu  Lu11  1  0.791454  0.584412  0.555483  1
  Lu  Lu12  1  0.415588  0.208546  0.555483  1
  Lu  Lu13  1  0.792466  0.207534  0.944680  1
  Lu  Lu14  1  0.791454  0.584412  0.944517  1
  Lu  Lu15  1  0.415588  0.208546  0.944517  1
  Lu  Lu16  1  0.207777  0.792223  0.055605  1
  Lu  Lu17  1  0.207994  0.414961  0.055996  1
  Lu  Lu18  1  0.585039  0.792006  0.055996  1
  Lu  Lu19  1  0.538300  0.461700  0.250000  1
  Zn  Zn20  1  0.887997  0.112003  0.250000  1
  Zn  Zn21  1  0.885871  0.775601  0.250000  1
  Zn  Zn22  1  0.224399  0.114129  0.250000  1
  Zn  Zn23  1  0.112077  0.887923  0.750000  1
  Zn  Zn24  1  0.113024  0.223986  0.750000  1
  Zn  Zn25  1  0.776014  0.886976  0.750000  1
  Os  Os26  1  0.334225  0.665775  0.250000  1
  Os  Os27  1  0.667806  0.332194  0.750000  1
