# generated using pymatgen
data_AcH6Rh
_symmetry_space_group_name_H-M   'P 1'
_cell_length_a   4.88618792
_cell_length_b   4.88619045
_cell_length_c   4.88903669
_cell_angle_alpha   58.80729822
_cell_angle_beta   58.80731136
_cell_angle_gamma   58.80308379
_symmetry_Int_Tables_number   1
_chemical_formula_structural   AcH6Rh
_chemical_formula_sum   'Ac1 H6 Rh1'
_cell_volume   80.28635673
_cell_formula_units_Z   1
loop_
 _symmetry_equiv_pos_site_id
 _symmetry_equiv_pos_as_xyz
  1  'x, y, z'
loop_
 _atom_site_type_symbol
 _atom_site_label
 _atom_site_symmetry_multiplicity
 _atom_site_fract_x
 _atom_site_fract_y
 _atom_site_fract_z
 _atom_site_occupancy
  Ac  Ac0  1  0.500000  0.500000  0.500000  1
  H  H1  1  0.589017  0.095326  0.095239  1
  H  H2  1  0.095326  0.589017  0.095239  1
  H  H3  1  0.904907  0.904907  0.410585  1
  H  H4  1  0.095093  0.095093  0.589414  1
  H  H5  1  0.904674  0.410982  0.904761  1
  H  H6  1  0.410982  0.904674  0.904761  1
  Rh  Rh7  1  0.000000  0.000000  0.000000  1
