# generated using pymatgen
data_Dy3Cd(Ir2O7)2
_symmetry_space_group_name_H-M   'P 1'
_cell_length_a   7.29949826
_cell_length_b   7.19631916
_cell_length_c   7.29950000
_cell_angle_alpha   59.52456759
_cell_angle_beta   60.00000117
_cell_angle_gamma   59.52456453
_symmetry_Int_Tables_number   1
_chemical_formula_structural   Dy3Cd(Ir2O7)2
_chemical_formula_sum   'Dy3 Cd1 Ir4 O14'
_cell_volume   269.16770771
_cell_formula_units_Z   1
loop_
 _symmetry_equiv_pos_site_id
 _symmetry_equiv_pos_as_xyz
  1  'x, y, z'
loop_
 _atom_site_type_symbol
 _atom_site_label
 _atom_site_symmetry_multiplicity
 _atom_site_fract_x
 _atom_site_fract_y
 _atom_site_fract_z
 _atom_site_occupancy
  Dy  Dy0  1  0.625000  0.125000  0.125000  1
  Dy  Dy1  1  0.125000  0.125000  0.625000  1
  Dy  Dy2  1  0.125000  0.125000  0.125000  1
  Cd  Cd3  1  0.125000  0.625000  0.125000  1
  Ir  Ir4  1  0.125000  0.625000  0.625000  1
  Ir  Ir5  1  0.625000  0.125000  0.625000  1
  Ir  Ir6  1  0.625000  0.625000  0.125000  1
  Ir  Ir7  1  0.625000  0.625000  0.625000  1
  O  O8  1  0.696297  0.712743  0.295479  1
  O  O9  1  0.290546  0.286478  0.711488  1
  O  O10  1  0.711488  0.286478  0.711488  1
  O  O11  1  0.295479  0.712743  0.295479  1
  O  O12  1  0.295479  0.712743  0.696297  1
  O  O13  1  0.711488  0.286478  0.290546  1
  O  O14  1  0.553703  0.537257  0.954521  1
  O  O15  1  0.959454  0.963522  0.538512  1
  O  O16  1  0.538512  0.963522  0.538512  1
  O  O17  1  0.954521  0.537257  0.954521  1
  O  O18  1  0.954521  0.537257  0.553703  1
  O  O19  1  0.538512  0.963522  0.959454  1
  O  O20  1  0.250818  0.247547  0.250818  1
  O  O21  1  0.999182  0.002453  0.999182  1
