# generated using pymatgen
data_Zr3NpH15
_symmetry_space_group_name_H-M   'P 1'
_cell_length_a   7.12037647
_cell_length_b   7.15061419
_cell_length_c   7.18252817
_cell_angle_alpha   109.57476182
_cell_angle_beta   109.40482014
_cell_angle_gamma   109.16713486
_symmetry_Int_Tables_number   1
_chemical_formula_structural   Zr3NpH15
_chemical_formula_sum   'Zr6 Np2 H30'
_cell_volume   282.43606210
_cell_formula_units_Z   2
loop_
 _symmetry_equiv_pos_site_id
 _symmetry_equiv_pos_as_xyz
  1  'x, y, z'
loop_
 _atom_site_type_symbol
 _atom_site_label
 _atom_site_symmetry_multiplicity
 _atom_site_fract_x
 _atom_site_fract_y
 _atom_site_fract_z
 _atom_site_occupancy
  Zr  Zr0  1  0.004805  0.104393  0.504718  1
  Zr  Zr1  1  0.099554  0.496892  0.001006  1
  Zr  Zr2  1  0.000088  0.599675  0.495282  1
  Zr  Zr3  1  0.598548  0.495886  0.998994  1
  Zr  Zr4  1  0.496144  0.000372  0.591508  1
  Zr  Zr5  1  0.404636  0.408865  0.408492  1
  Np  Np6  1  0.907393  0.907104  0.906342  1
  Np  Np7  1  0.501050  0.000762  0.093658  1
  H  H8  1  0.663399  0.973655  0.394153  1
  H  H9  1  0.225775  0.311291  0.844537  1
  H  H10  1  0.188892  0.416484  0.535129  1
  H  H11  1  0.092950  0.286530  0.128997  1
  H  H12  1  0.281351  0.141042  0.103364  1
  H  H13  1  0.126611  0.098098  0.288520  1
  H  H14  1  0.463952  0.157533  0.871003  1
  H  H15  1  0.725806  0.341373  0.812682  1
  H  H16  1  0.626180  0.377318  0.250704  1
  H  H17  1  0.247443  0.624774  0.372924  1
  H  H18  1  0.754189  0.871715  0.132200  1
  H  H19  1  0.121989  0.739515  0.867800  1
  H  H20  1  0.374519  0.251850  0.627076  1
  H  H21  1  0.875476  0.126614  0.749296  1
  H  H22  1  0.769246  0.579503  0.605847  1
  H  H23  1  0.306471  0.836169  0.228938  1
  H  H24  1  0.375825  0.640865  0.969065  1
  H  H25  1  0.974899  0.382537  0.660455  1
  H  H26  1  0.530926  0.192976  0.424482  1
  H  H27  1  0.413124  0.528691  0.187318  1
  H  H28  1  0.859822  0.234846  0.327144  1
  H  H29  1  0.906759  0.671798  0.030935  1
  H  H30  1  0.814445  0.722081  0.339545  1
  H  H31  1  0.153764  0.881356  0.464871  1
  H  H32  1  0.677986  0.037678  0.896636  1
  H  H33  1  0.338091  0.809578  0.711480  1
  H  H34  1  0.881238  0.466753  0.155463  1
  H  H35  1  0.606443  0.768494  0.575518  1
  H  H36  1  0.577533  0.607232  0.771062  1
  H  H37  1  0.032679  0.907702  0.672856  1
