# generated using pymatgen
data_Pr12SiGe2BBr12
_symmetry_space_group_name_H-M   'P 1'
_cell_length_a   10.58751778
_cell_length_b   10.47877023
_cell_length_c   10.42045539
_cell_angle_alpha   109.25920587
_cell_angle_beta   109.68423230
_cell_angle_gamma   109.90455430
_symmetry_Int_Tables_number   1
_chemical_formula_structural   Pr12SiGe2BBr12
_chemical_formula_sum   'Pr12 Si1 Ge2 B1 Br12'
_cell_volume   885.13331563
_cell_formula_units_Z   1
loop_
 _symmetry_equiv_pos_site_id
 _symmetry_equiv_pos_as_xyz
  1  'x, y, z'
loop_
 _atom_site_type_symbol
 _atom_site_label
 _atom_site_symmetry_multiplicity
 _atom_site_fract_x
 _atom_site_fract_y
 _atom_site_fract_z
 _atom_site_occupancy
  Pr  Pr0  1  0.467195  0.494718  0.224734  1
  Pr  Pr1  1  0.753862  0.241157  0.262433  1
  Pr  Pr2  1  0.753941  0.011753  0.493156  1
  Pr  Pr3  1  0.239215  0.481403  0.493156  1
  Pr  Pr4  1  0.257540  0.730016  0.224734  1
  Pr  Pr5  1  0.031696  0.274149  0.004195  1
  Pr  Pr6  1  0.008570  0.021275  0.262432  1
  Pr  Pr7  1  0.472501  0.730047  0.004195  1
  Pr  Pr8  1  0.490559  0.240559  0.481118  1
  Pr  Pr9  1  0.025435  0.492343  0.765630  1
  Pr  Pr10  1  0.258447  0.008446  0.016892  1
  Pr  Pr11  1  0.240197  0.273290  0.765632  1
  Si  Si12  1  0.000137  0.250137  0.500275  1
  Ge  Ge13  1  0.250324  0.249912  0.249823  1
  Ge  Ge14  1  0.499500  0.999914  0.249825  1
  B  B15  1  0.250886  0.500886  0.001771  1
  Br  Br16  1  0.250276  0.755395  0.745237  1
  Br  Br17  1  0.509846  0.505068  0.756332  1
  Br  Br18  1  0.991048  0.744139  0.995349  1
  Br  Br19  1  0.746487  0.251265  0.756332  1
  Br  Br20  1  0.994962  0.989844  0.745238  1
  Br  Br21  1  0.250235  0.996909  0.503076  1
  Br  Br22  1  0.752840  0.506167  0.503076  1
  Br  Br23  1  0.504301  0.251210  0.995349  1
  Br  Br24  1  0.753068  0.743634  0.248537  1
  Br  Br25  1  0.746807  0.996806  0.993612  1
  Br  Br26  1  0.995470  0.504904  0.248543  1
  Br  Br27  1  0.504658  0.754657  0.509314  1
