# generated using pymatgen
data_La4PrIr3
_symmetry_space_group_name_H-M   'P 1'
_cell_length_a   11.42774100
_cell_length_b   11.42774100
_cell_length_c   6.66645700
_cell_angle_alpha   90.00000000
_cell_angle_beta   90.00000000
_cell_angle_gamma   90.00000000
_symmetry_Int_Tables_number   1
_chemical_formula_structural   La4PrIr3
_chemical_formula_sum   'La16 Pr4 Ir12'
_cell_volume   870.59438137
_cell_formula_units_Z   4
loop_
 _symmetry_equiv_pos_site_id
 _symmetry_equiv_pos_as_xyz
  1  'x, y, z'
loop_
 _atom_site_type_symbol
 _atom_site_label
 _atom_site_symmetry_multiplicity
 _atom_site_fract_x
 _atom_site_fract_y
 _atom_site_fract_z
 _atom_site_occupancy
  La  La0  1  0.291103  0.090633  0.385437  1
  La  La1  1  0.291103  0.909367  0.885437  1
  La  La2  1  0.708897  0.090633  0.885437  1
  La  La3  1  0.708897  0.909367  0.385437  1
  La  La4  1  0.590633  0.791103  0.885437  1
  La  La5  1  0.590633  0.208897  0.385437  1
  La  La6  1  0.409367  0.791103  0.385437  1
  La  La7  1  0.409367  0.208897  0.885437  1
  La  La8  1  0.208897  0.409367  0.614563  1
  La  La9  1  0.208897  0.590633  0.114563  1
  La  La10  1  0.791103  0.409367  0.114563  1
  La  La11  1  0.791103  0.590633  0.614563  1
  La  La12  1  0.909367  0.708897  0.114563  1
  La  La13  1  0.909367  0.291103  0.614563  1
  La  La14  1  0.090633  0.708897  0.614563  1
  La  La15  1  0.090633  0.291103  0.114563  1
  Pr  Pr16  1  0.000000  0.000000  0.500000  1
  Pr  Pr17  1  0.000000  0.000000  0.000000  1
  Pr  Pr18  1  0.500000  0.500000  0.000000  1
  Pr  Pr19  1  0.500000  0.500000  0.500000  1
  Ir  Ir20  1  0.845295  0.154705  0.250000  1
  Ir  Ir21  1  0.845295  0.845295  0.750000  1
  Ir  Ir22  1  0.154705  0.154705  0.750000  1
  Ir  Ir23  1  0.154705  0.845295  0.250000  1
  Ir  Ir24  1  0.654705  0.345295  0.750000  1
  Ir  Ir25  1  0.654705  0.654705  0.250000  1
  Ir  Ir26  1  0.345295  0.345295  0.250000  1
  Ir  Ir27  1  0.345295  0.654705  0.750000  1
  Ir  Ir28  1  0.500000  0.000000  0.116680  1
  Ir  Ir29  1  0.500000  0.000000  0.616680  1
  Ir  Ir30  1  0.000000  0.500000  0.883320  1
  Ir  Ir31  1  0.000000  0.500000  0.383320  1
