# generated using pymatgen
data_Tb20GaBi7Ir4
_symmetry_space_group_name_H-M   'P 1'
_cell_length_a   8.00772332
_cell_length_b   9.01389245
_cell_length_c   12.47879807
_cell_angle_alpha   90.09596208
_cell_angle_beta   90.05779117
_cell_angle_gamma   90.09282129
_symmetry_Int_Tables_number   1
_chemical_formula_structural   Tb20GaBi7Ir4
_chemical_formula_sum   'Tb20 Ga1 Bi7 Ir4'
_cell_volume   900.72618189
_cell_formula_units_Z   1
loop_
 _symmetry_equiv_pos_site_id
 _symmetry_equiv_pos_as_xyz
  1  'x, y, z'
loop_
 _atom_site_type_symbol
 _atom_site_label
 _atom_site_symmetry_multiplicity
 _atom_site_fract_x
 _atom_site_fract_y
 _atom_site_fract_z
 _atom_site_occupancy
  Tb  Tb0  1  0.833514  0.740877  0.790547  1
  Tb  Tb1  1  0.157687  0.250250  0.203027  1
  Tb  Tb2  1  0.348491  0.258707  0.711903  1
  Tb  Tb3  1  0.656361  0.752002  0.292961  1
  Tb  Tb4  1  0.384601  0.739546  0.700989  1
  Tb  Tb5  1  0.623001  0.249654  0.305844  1
  Tb  Tb6  1  0.861452  0.258703  0.806249  1
  Tb  Tb7  1  0.123624  0.749966  0.194557  1
  Tb  Tb8  1  0.950257  0.752103  0.502461  1
  Tb  Tb9  1  0.054808  0.248030  0.498599  1
  Tb  Tb10  1  0.457586  0.262422  0.990587  1
  Tb  Tb11  1  0.552836  0.737525  0.995512  1
  Tb  Tb12  1  0.678357  0.040876  0.566631  1
  Tb  Tb13  1  0.322348  0.956574  0.435354  1
  Tb  Tb14  1  0.177548  0.962206  0.933241  1
  Tb  Tb15  1  0.322851  0.540023  0.434231  1
  Tb  Tb16  1  0.818663  0.037229  0.064446  1
  Tb  Tb17  1  0.674183  0.461998  0.574008  1
  Tb  Tb18  1  0.822119  0.458191  0.064106  1
  Tb  Tb19  1  0.182472  0.540684  0.931716  1
  Ga  Ga20  1  0.568481  0.494412  0.830044  1
  Bi  Bi21  1  0.428854  0.508953  0.174190  1
  Bi  Bi22  1  0.071259  0.507487  0.671558  1
  Bi  Bi23  1  0.428366  0.992065  0.167992  1
  Bi  Bi24  1  0.929010  0.491355  0.328697  1
  Bi  Bi25  1  0.570623  0.006952  0.828685  1
  Bi  Bi26  1  0.930217  0.009555  0.326313  1
  Bi  Bi27  1  0.071138  0.992838  0.675899  1
  Ir  Ir28  1  0.571888  0.749471  0.511263  1
  Ir  Ir29  1  0.430112  0.249451  0.492181  1
  Ir  Ir30  1  0.065910  0.250397  0.988296  1
  Ir  Ir31  1  0.931383  0.749496  0.007916  1
