# generated using pymatgen
data_Lu5Zr3(V3Si4)4
_symmetry_space_group_name_H-M   'P 1'
_cell_length_a   6.70694563
_cell_length_b   6.70886995
_cell_length_c   12.41619535
_cell_angle_alpha   90.08083312
_cell_angle_beta   89.94412275
_cell_angle_gamma   89.97661018
_symmetry_Int_Tables_number   1
_chemical_formula_structural   Lu5Zr3(V3Si4)4
_chemical_formula_sum   'Lu5 Zr3 V12 Si16'
_cell_volume   558.67858035
_cell_formula_units_Z   1
loop_
 _symmetry_equiv_pos_site_id
 _symmetry_equiv_pos_as_xyz
  1  'x, y, z'
loop_
 _atom_site_type_symbol
 _atom_site_label
 _atom_site_symmetry_multiplicity
 _atom_site_fract_x
 _atom_site_fract_y
 _atom_site_fract_z
 _atom_site_occupancy
  Lu  Lu0  1  0.500253  0.836437  0.721145  1
  Lu  Lu1  1  0.500586  0.163067  0.220009  1
  Lu  Lu2  1  0.000264  0.337565  0.529170  1
  Lu  Lu3  1  0.663055  0.999146  0.970412  1
  Lu  Lu4  1  0.338334  0.999660  0.469469  1
  Zr  Zr5  1  0.004324  0.659133  0.030172  1
  Zr  Zr6  1  0.840053  0.504927  0.280539  1
  Zr  Zr7  1  0.159392  0.495117  0.780704  1
  V  V8  1  0.328290  0.334873  0.999992  1
  V  V9  1  0.164658  0.828689  0.249364  1
  V  V10  1  0.835504  0.170361  0.750860  1
  V  V11  1  0.670278  0.667590  0.500356  1
  V  V12  1  0.002493  0.159986  0.125296  1
  V  V13  1  0.340201  0.504912  0.374456  1
  V  V14  1  0.660288  0.496862  0.876351  1
  V  V15  1  0.508304  0.343997  0.624948  1
  V  V16  1  0.490518  0.657418  0.123694  1
  V  V17  1  0.995379  0.841475  0.626970  1
  V  V18  1  0.157733  0.007734  0.874600  1
  V  V19  1  0.840654  0.990689  0.372931  1
  Si  Si20  1  0.287009  0.959706  0.064346  1
  Si  Si21  1  0.539627  0.787836  0.314084  1
  Si  Si22  1  0.460680  0.212540  0.814945  1
  Si  Si23  1  0.792863  0.540545  0.685650  1
  Si  Si24  1  0.207288  0.459019  0.185255  1
  Si  Si25  1  0.711194  0.039731  0.564411  1
  Si  Si26  1  0.958806  0.291706  0.935506  1
  Si  Si27  1  0.040346  0.710054  0.435404  1
  Si  Si28  1  0.703914  0.376978  0.069013  1
  Si  Si29  1  0.122904  0.202559  0.316647  1
  Si  Si30  1  0.876971  0.795114  0.819499  1
  Si  Si31  1  0.203945  0.127682  0.682887  1
  Si  Si32  1  0.797533  0.870002  0.180671  1
  Si  Si33  1  0.298324  0.625797  0.568571  1
  Si  Si34  1  0.370530  0.701512  0.930796  1
  Si  Si35  1  0.627505  0.299579  0.430875  1
