# generated using pymatgen
data_Er20Ir7Os3Rh2
_symmetry_space_group_name_H-M   'P 1'
_cell_length_a   10.75372904
_cell_length_b   10.75371203
_cell_length_c   6.36826901
_cell_angle_alpha   89.99794624
_cell_angle_beta   90.00620647
_cell_angle_gamma   89.99215725
_symmetry_Int_Tables_number   1
_chemical_formula_structural   Er20Ir7Os3Rh2
_chemical_formula_sum   'Er20 Ir7 Os3 Rh2'
_cell_volume   736.44257123
_cell_formula_units_Z   1
loop_
 _symmetry_equiv_pos_site_id
 _symmetry_equiv_pos_as_xyz
  1  'x, y, z'
loop_
 _atom_site_type_symbol
 _atom_site_label
 _atom_site_symmetry_multiplicity
 _atom_site_fract_x
 _atom_site_fract_y
 _atom_site_fract_z
 _atom_site_occupancy
  Er  Er0  1  0.293844  0.086175  0.376786  1
  Er  Er1  1  0.293906  0.914079  0.876465  1
  Er  Er2  1  0.705721  0.085448  0.876103  1
  Er  Er3  1  0.705664  0.912778  0.376971  1
  Er  Er4  1  0.586066  0.793805  0.876782  1
  Er  Er5  1  0.585245  0.206263  0.377026  1
  Er  Er6  1  0.413721  0.794005  0.376789  1
  Er  Er7  1  0.414000  0.206124  0.876574  1
  Er  Er8  1  0.208322  0.413157  0.625604  1
  Er  Er9  1  0.207634  0.587091  0.119847  1
  Er  Er10  1  0.792131  0.413972  0.119509  1
  Er  Er11  1  0.791706  0.586856  0.625805  1
  Er  Er12  1  0.912979  0.707812  0.119929  1
  Er  Er13  1  0.913625  0.292187  0.626418  1
  Er  Er14  1  0.086685  0.708298  0.625931  1
  Er  Er15  1  0.088046  0.292764  0.119662  1
  Er  Er16  1  0.000246  0.999762  0.499826  1
  Er  Er17  1  0.000206  0.999704  0.999745  1
  Er  Er18  1  0.500054  0.500088  0.999888  1
  Er  Er19  1  0.499951  0.500003  0.499667  1
  Ir  Ir20  1  0.848124  0.847328  0.749545  1
  Ir  Ir21  1  0.151428  0.153115  0.749967  1
  Ir  Ir22  1  0.151526  0.846453  0.250553  1
  Ir  Ir23  1  0.653368  0.347908  0.749741  1
  Ir  Ir24  1  0.653684  0.651463  0.250781  1
  Ir  Ir25  1  0.346445  0.348410  0.250297  1
  Ir  Ir26  1  0.346909  0.651815  0.749670  1
  Os  Os27  1  0.500362  0.000269  0.124005  1
  Os  Os28  1  0.500307  0.000260  0.623476  1
  Os  Os29  1  0.999800  0.499555  0.876940  1
  Rh  Rh30  1  0.848521  0.153429  0.250586  1
  Rh  Rh31  1  0.999772  0.499623  0.379109  1
