# generated using pymatgen
data_DyHo2Th(Ga3Ir)6
_symmetry_space_group_name_H-M   'P 1'
_cell_length_a   7.62276102
_cell_length_b   7.62546165
_cell_length_c   9.48989900
_cell_angle_alpha   90.00000000
_cell_angle_beta   90.00000000
_cell_angle_gamma   119.76826022
_symmetry_Int_Tables_number   1
_chemical_formula_structural   DyHo2Th(Ga3Ir)6
_chemical_formula_sum   'Dy1 Ho2 Th1 Ga18 Ir6'
_cell_volume   478.82860587
_cell_formula_units_Z   1
loop_
 _symmetry_equiv_pos_site_id
 _symmetry_equiv_pos_as_xyz
  1  'x, y, z'
loop_
 _atom_site_type_symbol
 _atom_site_label
 _atom_site_symmetry_multiplicity
 _atom_site_fract_x
 _atom_site_fract_y
 _atom_site_fract_z
 _atom_site_occupancy
  Dy  Dy0  1  0.669945  0.997075  0.250000  1
  Ho  Ho1  1  0.002334  0.331099  0.750000  1
  Ho  Ho2  1  0.330540  0.002064  0.750000  1
  Th  Th3  1  0.996925  0.669128  0.250000  1
  Ga  Ga4  1  0.129373  0.131498  0.250000  1
  Ga  Ga5  1  0.873776  0.875448  0.750000  1
  Ga  Ga6  1  0.999404  0.329176  0.077627  1
  Ga  Ga7  1  0.000988  0.665261  0.913659  1
  Ga  Ga8  1  0.000988  0.665261  0.586341  1
  Ga  Ga9  1  0.340301  0.004470  0.422249  1
  Ga  Ga10  1  0.999404  0.329176  0.422373  1
  Ga  Ga11  1  0.665526  0.001768  0.581891  1
  Ga  Ga12  1  0.665526  0.001768  0.918109  1
  Ga  Ga13  1  0.340301  0.004470  0.077751  1
  Ga  Ga14  1  0.330951  0.330805  0.567191  1
  Ga  Ga15  1  0.663104  0.668129  0.439077  1
  Ga  Ga16  1  0.663104  0.668129  0.060923  1
  Ga  Ga17  1  0.330951  0.330805  0.932809  1
  Ga  Ga18  1  0.342243  0.546305  0.250000  1
  Ga  Ga19  1  0.659156  0.451526  0.750000  1
  Ga  Ga20  1  0.542166  0.336590  0.250000  1
  Ga  Ga21  1  0.452180  0.660931  0.750000  1
  Ir  Ir22  1  0.673592  0.331067  0.000636  1
  Ir  Ir23  1  0.326380  0.670813  0.000520  1
  Ir  Ir24  1  0.326380  0.670813  0.499480  1
  Ir  Ir25  1  0.673592  0.331067  0.499364  1
  Ir  Ir26  1  0.000434  0.997679  0.000820  1
  Ir  Ir27  1  0.000434  0.997679  0.499180  1
