# generated using pymatgen
data_Cs2LiAg3F12
_symmetry_space_group_name_H-M   'P 1'
_cell_length_a   7.39202267
_cell_length_b   7.39202357
_cell_length_c   7.39202216
_cell_angle_alpha   66.23831876
_cell_angle_beta   113.76168207
_cell_angle_gamma   113.76168362
_symmetry_Int_Tables_number   1
_chemical_formula_structural   Cs2LiAg3F12
_chemical_formula_sum   'Cs2 Li1 Ag3 F12'
_cell_volume   324.08249394
_cell_formula_units_Z   1
loop_
 _symmetry_equiv_pos_site_id
 _symmetry_equiv_pos_as_xyz
  1  'x, y, z'
loop_
 _atom_site_type_symbol
 _atom_site_label
 _atom_site_symmetry_multiplicity
 _atom_site_fract_x
 _atom_site_fract_y
 _atom_site_fract_z
 _atom_site_occupancy
  Cs  Cs0  1  0.865863  0.134138  0.134136  1
  Cs  Cs1  1  0.134137  0.865864  0.865862  1
  Li  Li2  1  0.500001  0.500001  0.499999  1
  Ag  Ag3  1  0.499999  0.500001  0.000000  1
  Ag  Ag4  1  0.000000  0.500001  0.499999  1
  Ag  Ag5  1  0.500000  0.000000  0.500000  1
  F  F6  1  0.448105  0.198680  0.099774  1
  F  F7  1  0.375065  0.484900  0.198174  1
  F  F8  1  0.900227  0.551896  0.198681  1
  F  F9  1  0.484900  0.801826  0.375066  1
  F  F10  1  0.198682  0.900228  0.448104  1
  F  F11  1  0.198174  0.375064  0.515101  1
  F  F12  1  0.801826  0.624935  0.484900  1
  F  F13  1  0.801320  0.099774  0.551895  1
  F  F14  1  0.515099  0.198174  0.624934  1
  F  F15  1  0.099772  0.448104  0.801319  1
  F  F16  1  0.624934  0.515099  0.801826  1
  F  F17  1  0.551896  0.801319  0.900228  1
