# generated using pymatgen
data_Li4Sm(ThSn2)2
_symmetry_space_group_name_H-M   'P 1'
_cell_length_a   8.74684319
_cell_length_b   8.74684236
_cell_length_c   8.74684366
_cell_angle_alpha   148.73855825
_cell_angle_beta   131.51745280
_cell_angle_gamma   58.82482425
_symmetry_Int_Tables_number   1
_chemical_formula_structural   Li4Sm(ThSn2)2
_chemical_formula_sum   'Li4 Sm1 Th2 Sn4'
_cell_volume   257.95232993
_cell_formula_units_Z   1
loop_
 _symmetry_equiv_pos_site_id
 _symmetry_equiv_pos_as_xyz
  1  'x, y, z'
loop_
 _atom_site_type_symbol
 _atom_site_label
 _atom_site_symmetry_multiplicity
 _atom_site_fract_x
 _atom_site_fract_y
 _atom_site_fract_z
 _atom_site_occupancy
  Li  Li0  1  0.485939  0.671393  0.814547  1
  Li  Li1  1  0.856848  0.671393  0.185453  1
  Li  Li2  1  0.143152  0.328607  0.814547  1
  Li  Li3  1  0.514061  0.328607  0.185453  1
  Sm  Sm4  1  0.500000  0.000000  0.500000  1
  Th  Th5  1  0.874043  0.874043  0.000000  1
  Th  Th6  1  0.125957  0.125957  0.000000  1
  Sn  Sn7  1  0.284132  0.784132  0.500000  1
  Sn  Sn8  1  0.715868  0.215868  0.500000  1
  Sn  Sn9  1  0.796855  0.500000  0.296855  1
  Sn  Sn10  1  0.203145  0.500000  0.703145  1
