# generated using pymatgen
data_ErTmRe2F14
_symmetry_space_group_name_H-M   'P 1'
_cell_length_a   5.56085200
_cell_length_b   8.85453597
_cell_length_c   12.00358768
_cell_angle_alpha   62.79735744
_cell_angle_beta   90.00000000
_cell_angle_gamma   90.00000000
_symmetry_Int_Tables_number   1
_chemical_formula_structural   ErTmRe2F14
_chemical_formula_sum   'Er2 Tm2 Re4 F28'
_cell_volume   525.66981239
_cell_formula_units_Z   2
loop_
 _symmetry_equiv_pos_site_id
 _symmetry_equiv_pos_as_xyz
  1  'x, y, z'
loop_
 _atom_site_type_symbol
 _atom_site_label
 _atom_site_symmetry_multiplicity
 _atom_site_fract_x
 _atom_site_fract_y
 _atom_site_fract_z
 _atom_site_occupancy
  Er  Er0  1  0.242051  0.185639  0.235692  1
  Er  Er1  1  0.742051  0.814361  0.264308  1
  Tm  Tm2  1  0.757751  0.814955  0.764379  1
  Tm  Tm3  1  0.257751  0.185045  0.735621  1
  Re  Re4  1  0.758351  0.273468  0.955985  1
  Re  Re5  1  0.258351  0.726532  0.544015  1
  Re  Re6  1  0.242117  0.727454  0.042125  1
  Re  Re7  1  0.742117  0.272546  0.457875  1
  F  F8  1  0.442631  0.705154  0.914341  1
  F  F9  1  0.942631  0.294846  0.585659  1
  F  F10  1  0.557574  0.294900  0.084082  1
  F  F11  1  0.057574  0.705100  0.415918  1
  F  F12  1  0.439920  0.274934  0.546956  1
  F  F13  1  0.939920  0.725066  0.953044  1
  F  F14  1  0.559368  0.723760  0.454657  1
  F  F15  1  0.059368  0.276240  0.045343  1
  F  F16  1  0.775231  0.524440  0.857129  1
  F  F17  1  0.275231  0.475560  0.642871  1
  F  F18  1  0.223943  0.476748  0.141801  1
  F  F19  1  0.723943  0.523252  0.358199  1
  F  F20  1  0.755858  0.023269  0.052817  1
  F  F21  1  0.255858  0.976731  0.447183  1
  F  F22  1  0.244988  0.977663  0.945662  1
  F  F23  1  0.744988  0.022337  0.554338  1
  F  F24  1  0.968895  0.727330  0.640453  1
  F  F25  1  0.468895  0.272670  0.859547  1
  F  F26  1  0.032538  0.273532  0.361692  1
  F  F27  1  0.532538  0.726468  0.138308  1
  F  F28  1  0.048815  0.747549  0.174410  1
  F  F29  1  0.548815  0.252451  0.325590  1
  F  F30  1  0.953763  0.252603  0.824595  1
  F  F31  1  0.453763  0.747397  0.675405  1
  F  F32  1  0.418498  0.970049  0.232704  1
  F  F33  1  0.918498  0.029951  0.267296  1
  F  F34  1  0.577706  0.027972  0.766722  1
  F  F35  1  0.077706  0.972028  0.733278  1
