# generated using pymatgen
data_Tb2Dy2Sn4Sb2Rh7
_symmetry_space_group_name_H-M   'P 1'
_cell_length_a   7.62559445
_cell_length_b   7.61979395
_cell_length_c   7.61604500
_cell_angle_alpha   109.28129140
_cell_angle_beta   109.54535165
_cell_angle_gamma   109.56748422
_symmetry_Int_Tables_number   1
_chemical_formula_structural   Tb2Dy2Sn4Sb2Rh7
_chemical_formula_sum   'Tb2 Dy2 Sn4 Sb2 Rh7'
_cell_volume   340.74279848
_cell_formula_units_Z   1
loop_
 _symmetry_equiv_pos_site_id
 _symmetry_equiv_pos_as_xyz
  1  'x, y, z'
loop_
 _atom_site_type_symbol
 _atom_site_label
 _atom_site_symmetry_multiplicity
 _atom_site_fract_x
 _atom_site_fract_y
 _atom_site_fract_z
 _atom_site_occupancy
  Tb  Tb0  1  0.997767  0.998886  0.498897  1
  Tb  Tb1  1  0.492280  0.493727  0.493702  1
  Dy  Dy2  1  0.492226  0.998507  0.998522  1
  Dy  Dy3  1  0.997674  0.498849  0.998845  1
  Sn  Sn4  1  0.994325  0.314590  0.314286  1
  Sn  Sn5  1  0.687075  0.997458  0.690122  1
  Sn  Sn6  1  0.687072  0.689818  0.997153  1
  Sn  Sn7  1  0.994777  0.679973  0.680286  1
  Sb  Sb8  1  0.319542  0.997518  0.321571  1
  Sb  Sb9  1  0.319538  0.321819  0.997761  1
  Rh  Rh10  1  0.015056  0.007524  0.007525  1
  Rh  Rh11  1  0.502081  0.751168  0.250933  1
  Rh  Rh12  1  0.748344  0.501072  0.246799  1
  Rh  Rh13  1  0.250623  0.749237  0.501340  1
  Rh  Rh14  1  0.250641  0.501594  0.749505  1
  Rh  Rh15  1  0.502617  0.251188  0.751431  1
  Rh  Rh16  1  0.748362  0.247071  0.501322  1
