# generated using pymatgen
data_NdSm6FeBr12
_symmetry_space_group_name_H-M   'P 1'
_cell_length_a   9.41020796
_cell_length_b   9.30591780
_cell_length_c   9.40897727
_cell_angle_alpha   106.55045100
_cell_angle_beta   106.75006265
_cell_angle_gamma   106.96013980
_symmetry_Int_Tables_number   1
_chemical_formula_structural   NdSm6FeBr12
_chemical_formula_sum   'Nd1 Sm6 Fe1 Br12'
_cell_volume   690.74783743
_cell_formula_units_Z   1
loop_
 _symmetry_equiv_pos_site_id
 _symmetry_equiv_pos_as_xyz
  1  'x, y, z'
loop_
 _atom_site_type_symbol
 _atom_site_label
 _atom_site_symmetry_multiplicity
 _atom_site_fract_x
 _atom_site_fract_y
 _atom_site_fract_z
 _atom_site_occupancy
  Nd  Nd0  1  0.096121  0.298668  0.021606  1
  Sm  Sm1  1  0.500096  0.499216  0.500773  1
  Sm  Sm2  1  0.021603  0.098949  0.307566  1
  Sm  Sm3  1  0.309332  0.022714  0.099437  1
  Sm  Sm4  1  0.904740  0.705799  0.978145  1
  Sm  Sm5  1  0.977984  0.899564  0.691331  1
  Sm  Sm6  1  0.690587  0.978383  0.900240  1
  Fe  Fe7  1  0.000000  0.000890  0.999374  1
  Br  Br8  1  0.464829  0.386254  0.169219  1
  Br  Br9  1  0.167901  0.462220  0.388635  1
  Br  Br10  1  0.384107  0.162625  0.460977  1
  Br  Br11  1  0.540114  0.614740  0.833989  1
  Br  Br12  1  0.833411  0.538285  0.616932  1
  Br  Br13  1  0.615635  0.835317  0.538702  1
  Br  Br14  1  0.772703  0.317749  0.927245  1
  Br  Br15  1  0.927321  0.773699  0.315676  1
  Br  Br16  1  0.317796  0.927733  0.776015  1
  Br  Br17  1  0.222522  0.683481  0.071444  1
  Br  Br18  1  0.071203  0.222564  0.678941  1
  Br  Br19  1  0.681994  0.071153  0.223756  1
