# generated using pymatgen
data_Pa5Fe3O16
_symmetry_space_group_name_H-M   'P 1'
_cell_length_a   10.76356700
_cell_length_b   5.31526289
_cell_length_c   5.32790322
_cell_angle_alpha   90.42509435
_cell_angle_beta   90.00000000
_cell_angle_gamma   90.00000000
_symmetry_Int_Tables_number   1
_chemical_formula_structural   Pa5Fe3O16
_chemical_formula_sum   'Pa5 Fe3 O16'
_cell_volume   304.80728471
_cell_formula_units_Z   1
loop_
 _symmetry_equiv_pos_site_id
 _symmetry_equiv_pos_as_xyz
  1  'x, y, z'
loop_
 _atom_site_type_symbol
 _atom_site_label
 _atom_site_symmetry_multiplicity
 _atom_site_fract_x
 _atom_site_fract_y
 _atom_site_fract_z
 _atom_site_occupancy
  Pa  Pa0  1  0.374466  0.500000  0.500000  1
  Pa  Pa1  1  0.875619  0.500000  0.500000  1
  Pa  Pa2  1  0.375348  0.000000  0.000000  1
  Pa  Pa3  1  0.634354  0.000000  0.500000  1
  Pa  Pa4  1  0.113683  0.500000  0.000000  1
  Fe  Fe5  1  0.871289  0.000000  0.000000  1
  Fe  Fe6  1  0.125384  0.000000  0.500000  1
  Fe  Fe7  1  0.632723  0.500000  0.000000  1
  O  O8  1  0.028160  0.286476  0.686528  1
  O  O9  1  0.513640  0.261799  0.762009  1
  O  O10  1  0.970148  0.250960  0.181216  1
  O  O11  1  0.480072  0.224410  0.274927  1
  O  O12  1  0.269638  0.270418  0.773236  1
  O  O13  1  0.778257  0.190279  0.750377  1
  O  O14  1  0.236471  0.241818  0.259641  1
  O  O15  1  0.722501  0.304893  0.285039  1
  O  O16  1  0.269638  0.729582  0.226764  1
  O  O17  1  0.778257  0.809721  0.249623  1
  O  O18  1  0.236471  0.758182  0.740359  1
  O  O19  1  0.722501  0.695107  0.714961  1
  O  O20  1  0.028160  0.713524  0.313472  1
  O  O21  1  0.513640  0.738201  0.237991  1
  O  O22  1  0.480072  0.775590  0.725073  1
  O  O23  1  0.970148  0.749040  0.818784  1
