# generated using pymatgen
data_Ce3Y(BRu)16
_symmetry_space_group_name_H-M   'P 1'
_cell_length_a   7.51147037
_cell_length_b   7.51146997
_cell_length_c   9.25613486
_cell_angle_alpha   113.99613163
_cell_angle_beta   113.99613081
_cell_angle_gamma   89.87027722
_symmetry_Int_Tables_number   1
_chemical_formula_structural   Ce3Y(BRu)16
_chemical_formula_sum   'Ce3 Y1 B16 Ru16'
_cell_volume   427.47308560
_cell_formula_units_Z   1
loop_
 _symmetry_equiv_pos_site_id
 _symmetry_equiv_pos_as_xyz
  1  'x, y, z'
loop_
 _atom_site_type_symbol
 _atom_site_label
 _atom_site_symmetry_multiplicity
 _atom_site_fract_x
 _atom_site_fract_y
 _atom_site_fract_z
 _atom_site_occupancy
  Ce  Ce0  1  0.500000  0.000000  0.000000  1
  Ce  Ce1  1  0.000000  0.500000  0.000000  1
  Ce  Ce2  1  0.250000  0.250000  0.499999  1
  Y  Y3  1  0.749999  0.749999  0.499999  1
  B  B4  1  0.250346  0.223686  0.164235  1
  B  B5  1  0.750132  0.440607  0.165919  1
  B  B6  1  0.415788  0.725312  0.165919  1
  B  B7  1  0.913889  0.940549  0.164235  1
  B  B8  1  0.835204  0.026201  0.335461  1
  B  B9  1  0.500257  0.309260  0.335461  1
  B  B10  1  0.999639  0.526537  0.336956  1
  B  B11  1  0.337316  0.810418  0.336956  1
  B  B12  1  0.689582  0.162684  0.663045  1
  B  B13  1  0.973462  0.500361  0.663045  1
  B  B14  1  0.473800  0.664797  0.664540  1
  B  B15  1  0.190740  0.999744  0.664540  1
  B  B16  1  0.774688  0.084212  0.834081  1
  B  B17  1  0.276314  0.249654  0.835765  1
  B  B18  1  0.559451  0.586111  0.835765  1
  B  B19  1  0.059393  0.749869  0.834081  1
  Ru  Ru20  1  0.946905  0.210928  0.122429  1
  Ru  Ru21  1  0.447073  0.412547  0.122780  1
  Ru  Ru22  1  0.675705  0.710233  0.122780  1
  Ru  Ru23  1  0.175523  0.911501  0.122429  1
  Ru  Ru24  1  0.574375  0.041746  0.377436  1
  Ru  Ru25  1  0.803062  0.335691  0.377436  1
  Ru  Ru26  1  0.302923  0.538945  0.376556  1
  Ru  Ru27  1  0.073633  0.837610  0.376556  1
  Ru  Ru28  1  0.961054  0.197077  0.623444  1
  Ru  Ru29  1  0.662389  0.426367  0.623444  1
  Ru  Ru30  1  0.164310  0.696938  0.622564  1
  Ru  Ru31  1  0.458254  0.925625  0.622564  1
  Ru  Ru32  1  0.087453  0.052927  0.877220  1
  Ru  Ru33  1  0.588499  0.324477  0.877571  1
  Ru  Ru34  1  0.289072  0.553094  0.877571  1
  Ru  Ru35  1  0.789767  0.824294  0.877220  1
