# generated using pymatgen
data_Y5NbRuO12
_symmetry_space_group_name_H-M   'P 1'
_cell_length_a   6.84632971
_cell_length_b   6.84632813
_cell_length_c   7.51213624
_cell_angle_alpha   73.96426307
_cell_angle_beta   73.96425671
_cell_angle_gamma   50.59708979
_symmetry_Int_Tables_number   1
_chemical_formula_structural   Y5NbRuO12
_chemical_formula_sum   'Y5 Nb1 Ru1 O12'
_cell_volume   259.06533860
_cell_formula_units_Z   1
loop_
 _symmetry_equiv_pos_site_id
 _symmetry_equiv_pos_as_xyz
  1  'x, y, z'
loop_
 _atom_site_type_symbol
 _atom_site_label
 _atom_site_symmetry_multiplicity
 _atom_site_fract_x
 _atom_site_fract_y
 _atom_site_fract_z
 _atom_site_occupancy
  Y  Y0  1  0.694565  0.681486  0.675213  1
  Y  Y1  1  0.701474  0.690663  0.138915  1
  Y  Y2  1  0.000976  0.999024  0.000000  1
  Y  Y3  1  0.309337  0.298526  0.861085  1
  Y  Y4  1  0.318514  0.305435  0.324787  1
  Nb  Nb5  1  0.208152  0.791848  0.500000  1
  Ru  Ru6  1  0.753228  0.246772  0.500000  1
  O  O7  1  0.408813  0.897918  0.924871  1
  O  O8  1  0.580028  0.090696  0.584247  1
  O  O9  1  0.909304  0.419972  0.415753  1
  O  O10  1  0.102082  0.591187  0.075129  1
  O  O11  1  0.991978  0.007460  0.299685  1
  O  O12  1  0.495344  0.504209  0.684231  1
  O  O13  1  0.907269  0.402347  0.925636  1
  O  O14  1  0.101068  0.568117  0.583396  1
  O  O15  1  0.431883  0.898932  0.416604  1
  O  O16  1  0.597653  0.092731  0.074364  1
  O  O17  1  0.495791  0.504656  0.315769  1
  O  O18  1  0.992540  0.008022  0.700315  1
