# generated using pymatgen
data_Ba2SrCr2FeF14
_symmetry_space_group_name_H-M   'P 1'
_cell_length_a   7.54271839
_cell_length_b   7.54271762
_cell_length_c   15.39592197
_cell_angle_alpha   89.06167315
_cell_angle_beta   89.06167354
_cell_angle_gamma   42.80722893
_symmetry_Int_Tables_number   1
_chemical_formula_structural   Ba2SrCr2FeF14
_chemical_formula_sum   'Ba4 Sr2 Cr4 Fe2 F28'
_cell_volume   595.12111912
_cell_formula_units_Z   2
loop_
 _symmetry_equiv_pos_site_id
 _symmetry_equiv_pos_as_xyz
  1  'x, y, z'
loop_
 _atom_site_type_symbol
 _atom_site_label
 _atom_site_symmetry_multiplicity
 _atom_site_fract_x
 _atom_site_fract_y
 _atom_site_fract_z
 _atom_site_occupancy
  Ba  Ba0  1  0.646120  0.734241  0.879563  1
  Ba  Ba1  1  0.353880  0.265759  0.120437  1
  Ba  Ba2  1  0.265759  0.353880  0.620437  1
  Ba  Ba3  1  0.734241  0.646120  0.379563  1
  Sr  Sr4  1  0.947285  0.052715  0.750000  1
  Sr  Sr5  1  0.052715  0.947285  0.250000  1
  Cr  Cr6  1  0.621601  0.621900  0.622337  1
  Cr  Cr7  1  0.378399  0.378100  0.377663  1
  Cr  Cr8  1  0.378100  0.378399  0.877663  1
  Cr  Cr9  1  0.621900  0.621601  0.122337  1
  Fe  Fe10  1  0.000000  0.000000  0.500000  1
  Fe  Fe11  1  0.000000  0.000000  0.000000  1
  F  F12  1  0.354692  0.902927  0.701522  1
  F  F13  1  0.645308  0.097073  0.298478  1
  F  F14  1  0.097073  0.645308  0.798478  1
  F  F15  1  0.902927  0.354692  0.201522  1
  F  F16  1  0.544036  0.130792  0.780441  1
  F  F17  1  0.455964  0.869208  0.219559  1
  F  F18  1  0.869208  0.455964  0.719559  1
  F  F19  1  0.130792  0.544036  0.280441  1
  F  F20  1  0.404109  0.770258  0.518722  1
  F  F21  1  0.595891  0.229742  0.481278  1
  F  F22  1  0.229742  0.595891  0.981278  1
  F  F23  1  0.770258  0.404109  0.018722  1
  F  F24  1  0.571218  0.410515  0.654400  1
  F  F25  1  0.428782  0.589485  0.345600  1
  F  F26  1  0.589485  0.428782  0.845600  1
  F  F27  1  0.410515  0.571218  0.154400  1
  F  F28  1  0.666005  0.079322  0.950802  1
  F  F29  1  0.333995  0.920678  0.049198  1
  F  F30  1  0.920678  0.333995  0.549198  1
  F  F31  1  0.079322  0.666005  0.450802  1
  F  F32  1  0.849398  0.033403  0.113666  1
  F  F33  1  0.150602  0.966597  0.886334  1
  F  F34  1  0.966597  0.150602  0.386334  1
  F  F35  1  0.033403  0.849398  0.613666  1
  F  F36  1  0.695163  0.809933  0.589895  1
  F  F37  1  0.304837  0.190067  0.410105  1
  F  F38  1  0.190067  0.304837  0.910105  1
  F  F39  1  0.809933  0.695163  0.089895  1
