# generated using pymatgen
data_Tb4Ho10Th2Cd3AgIr4
_symmetry_space_group_name_H-M   'P 1'
_cell_length_a   9.67828298
_cell_length_b   9.67428637
_cell_length_c   9.66833800
_cell_angle_alpha   60.04712918
_cell_angle_beta   60.00746099
_cell_angle_gamma   60.16159679
_symmetry_Int_Tables_number   1
_chemical_formula_structural   Tb4Ho10Th2Cd3AgIr4
_chemical_formula_sum   'Tb4 Ho10 Th2 Cd3 Ag1 Ir4'
_cell_volume   641.15207552
_cell_formula_units_Z   1
loop_
 _symmetry_equiv_pos_site_id
 _symmetry_equiv_pos_as_xyz
  1  'x, y, z'
loop_
 _atom_site_type_symbol
 _atom_site_label
 _atom_site_symmetry_multiplicity
 _atom_site_fract_x
 _atom_site_fract_y
 _atom_site_fract_z
 _atom_site_occupancy
  Tb  Tb0  1  0.814972  0.185073  0.813474  1
  Tb  Tb1  1  0.186811  0.815300  0.184170  1
  Tb  Tb2  1  0.815455  0.815416  0.183276  1
  Tb  Tb3  1  0.190915  0.190985  0.808944  1
  Ho  Ho4  1  0.602388  0.197270  0.600222  1
  Ho  Ho5  1  0.197245  0.602456  0.600231  1
  Ho  Ho6  1  0.062274  0.438806  0.438385  1
  Ho  Ho7  1  0.438891  0.061995  0.060637  1
  Ho  Ho8  1  0.438589  0.062308  0.438705  1
  Ho  Ho9  1  0.062045  0.438777  0.060502  1
  Ho  Ho10  1  0.436024  0.436067  0.064022  1
  Ho  Ho11  1  0.060721  0.060742  0.439398  1
  Ho  Ho12  1  0.185991  0.813908  0.812344  1
  Ho  Ho13  1  0.814176  0.187728  0.185510  1
  Th  Th14  1  0.597003  0.596617  0.600048  1
  Th  Th15  1  0.596809  0.597170  0.205818  1
  Cd  Cd16  1  0.831564  0.832334  0.508337  1
  Cd  Cd17  1  0.832303  0.505099  0.832085  1
  Cd  Cd18  1  0.505124  0.832341  0.831297  1
  Ag  Ag19  1  0.833587  0.832491  0.830016  1
  Ir  Ir20  1  0.391318  0.390656  0.395389  1
  Ir  Ir21  1  0.390444  0.391092  0.822866  1
  Ir  Ir22  1  0.392289  0.823085  0.392665  1
  Ir  Ir23  1  0.823067  0.392288  0.391660  1
