# generated using pymatgen
data_TbYb(Pr3In4)2
_symmetry_space_group_name_H-M   'P 1'
_cell_length_a   6.76784613
_cell_length_b   6.76784553
_cell_length_c   10.27914100
_cell_angle_alpha   90.00000000
_cell_angle_beta   90.00000000
_cell_angle_gamma   98.25340388
_symmetry_Int_Tables_number   1
_chemical_formula_structural   TbYb(Pr3In4)2
_chemical_formula_sum   'Tb1 Yb1 Pr6 In8'
_cell_volume   465.94669217
_cell_formula_units_Z   1
loop_
 _symmetry_equiv_pos_site_id
 _symmetry_equiv_pos_as_xyz
  1  'x, y, z'
loop_
 _atom_site_type_symbol
 _atom_site_label
 _atom_site_symmetry_multiplicity
 _atom_site_fract_x
 _atom_site_fract_y
 _atom_site_fract_z
 _atom_site_occupancy
  Tb  Tb0  1  0.020748  0.020748  0.750000  1
  Yb  Yb1  1  0.975063  0.975063  0.250000  1
  Pr  Pr2  1  0.539222  0.539222  0.250000  1
  Pr  Pr3  1  0.468468  0.468468  0.750000  1
  Pr  Pr4  1  0.244726  0.751849  0.498587  1
  Pr  Pr5  1  0.244726  0.751849  0.001413  1
  Pr  Pr6  1  0.751849  0.244726  0.498587  1
  Pr  Pr7  1  0.751849  0.244726  0.001413  1
  In  In8  1  0.249723  0.249723  0.020936  1
  In  In9  1  0.751222  0.751222  0.973797  1
  In  In10  1  0.249723  0.249723  0.479064  1
  In  In11  1  0.751222  0.751222  0.526203  1
  In  In12  1  0.475601  0.027553  0.250000  1
  In  In13  1  0.976630  0.521676  0.750000  1
  In  In14  1  0.521676  0.976630  0.750000  1
  In  In15  1  0.027553  0.475601  0.250000  1
