# generated using pymatgen
data_Tb3PrS4
_symmetry_space_group_name_H-M   'P 1'
_cell_length_a   13.04732205
_cell_length_b   13.04732228
_cell_length_c   13.04732186
_cell_angle_alpha   17.60362308
_cell_angle_beta   17.60362098
_cell_angle_gamma   17.60362107
_symmetry_Int_Tables_number   1
_chemical_formula_structural   Tb3PrS4
_chemical_formula_sum   'Tb3 Pr1 S4'
_cell_volume   177.31576358
_cell_formula_units_Z   1
loop_
 _symmetry_equiv_pos_site_id
 _symmetry_equiv_pos_as_xyz
  1  'x, y, z'
loop_
 _atom_site_type_symbol
 _atom_site_label
 _atom_site_symmetry_multiplicity
 _atom_site_fract_x
 _atom_site_fract_y
 _atom_site_fract_z
 _atom_site_occupancy
  Tb  Tb0  1  0.248693  0.248693  0.248693  1
  Tb  Tb1  1  0.500000  0.500000  0.500000  1
  Tb  Tb2  1  0.751307  0.751307  0.751307  1
  Pr  Pr3  1  0.000000  0.000000  0.000000  1
  S  S4  1  0.378757  0.378757  0.378757  1
  S  S5  1  0.125978  0.125978  0.125978  1
  S  S6  1  0.621243  0.621243  0.621243  1
  S  S7  1  0.874022  0.874022  0.874022  1
