# generated using pymatgen
data_Rb3Cr(AsSe2)6
_symmetry_space_group_name_H-M   'P 1'
_cell_length_a   9.84188600
_cell_length_b   9.84188751
_cell_length_c   8.29675900
_cell_angle_alpha   90.00000000
_cell_angle_beta   90.00000000
_cell_angle_gamma   120.00000123
_symmetry_Int_Tables_number   1
_chemical_formula_structural   Rb3Cr(AsSe2)6
_chemical_formula_sum   'Rb3 Cr1 As6 Se12'
_cell_volume   695.97850779
_cell_formula_units_Z   1
loop_
 _symmetry_equiv_pos_site_id
 _symmetry_equiv_pos_as_xyz
  1  'x, y, z'
loop_
 _atom_site_type_symbol
 _atom_site_label
 _atom_site_symmetry_multiplicity
 _atom_site_fract_x
 _atom_site_fract_y
 _atom_site_fract_z
 _atom_site_occupancy
  Rb  Rb0  1  0.000000  0.000000  0.000000  1
  Rb  Rb1  1  0.333333  0.666667  0.849029  1
  Rb  Rb2  1  0.666667  0.333333  0.150971  1
  Cr  Cr3  1  0.000000  0.000000  0.500000  1
  As  As4  1  0.274535  0.827239  0.398485  1
  As  As5  1  0.172761  0.447296  0.398485  1
  As  As6  1  0.552704  0.725465  0.398485  1
  As  As7  1  0.725465  0.172761  0.601515  1
  As  As8  1  0.827239  0.552704  0.601515  1
  As  As9  1  0.447296  0.274535  0.601515  1
  Se  Se10  1  0.227987  0.034405  0.320571  1
  Se  Se11  1  0.965595  0.193583  0.320571  1
  Se  Se12  1  0.806417  0.772013  0.320571  1
  Se  Se13  1  0.772013  0.965595  0.679429  1
  Se  Se14  1  0.034405  0.806417  0.679429  1
  Se  Se15  1  0.193583  0.227987  0.679429  1
  Se  Se16  1  0.516256  0.914876  0.233686  1
  Se  Se17  1  0.085124  0.601379  0.233686  1
  Se  Se18  1  0.398621  0.483744  0.233686  1
  Se  Se19  1  0.483744  0.085124  0.766314  1
  Se  Se20  1  0.914876  0.398621  0.766314  1
  Se  Se21  1  0.601379  0.516256  0.766314  1
