# generated using pymatgen
data_Ho10In8CoRh3
_symmetry_space_group_name_H-M   'P 1'
_cell_length_a   8.00644425
_cell_length_b   18.25906509
_cell_length_c   3.59436700
_cell_angle_alpha   90.00000000
_cell_angle_beta   90.00000000
_cell_angle_gamma   89.87498515
_symmetry_Int_Tables_number   1
_chemical_formula_structural   Ho10In8CoRh3
_chemical_formula_sum   'Ho10 In8 Co1 Rh3'
_cell_volume   525.45993185
_cell_formula_units_Z   1
loop_
 _symmetry_equiv_pos_site_id
 _symmetry_equiv_pos_as_xyz
  1  'x, y, z'
loop_
 _atom_site_type_symbol
 _atom_site_label
 _atom_site_symmetry_multiplicity
 _atom_site_fract_x
 _atom_site_fract_y
 _atom_site_fract_z
 _atom_site_occupancy
  Ho  Ho0  1  0.499922  0.498583  0.000000  1
  Ho  Ho1  1  0.000577  0.001621  0.000000  1
  Ho  Ho2  1  0.756333  0.278853  0.000000  1
  Ho  Ho3  1  0.249301  0.721838  0.000000  1
  Ho  Ho4  1  0.749459  0.777621  0.000000  1
  Ho  Ho5  1  0.245809  0.224194  0.000000  1
  Ho  Ho6  1  0.619958  0.090232  0.000000  1
  Ho  Ho7  1  0.380965  0.911798  0.000000  1
  Ho  Ho8  1  0.881281  0.587291  0.000000  1
  Ho  Ho9  1  0.116563  0.407454  0.000000  1
  In  In10  1  0.707162  0.932246  0.500000  1
  In  In11  1  0.294727  0.069674  0.500000  1
  In  In12  1  0.796102  0.429445  0.500000  1
  In  In13  1  0.205665  0.567053  0.500000  1
  In  In14  1  0.566498  0.648651  0.500000  1
  In  In15  1  0.432645  0.349957  0.500000  1
  In  In16  1  0.936452  0.152912  0.500000  1
  In  In17  1  0.065882  0.850383  0.500000  1
  Co  Co18  1  0.021545  0.304969  0.500000  1
  Rh  Rh19  1  0.524650  0.195914  0.500000  1
  Rh  Rh20  1  0.474541  0.804937  0.500000  1
  Rh  Rh21  1  0.973962  0.694375  0.500000  1
