# generated using pymatgen
data_LuNb3(AsO4)6
_symmetry_space_group_name_H-M   'P 1'
_cell_length_a   9.50520540
_cell_length_b   9.50520478
_cell_length_c   9.50520471
_cell_angle_alpha   58.20767176
_cell_angle_beta   58.20766744
_cell_angle_gamma   58.20766147
_symmetry_Int_Tables_number   1
_chemical_formula_structural   LuNb3(AsO4)6
_chemical_formula_sum   'Lu1 Nb3 As6 O24'
_cell_volume   582.31423910
_cell_formula_units_Z   1
loop_
 _symmetry_equiv_pos_site_id
 _symmetry_equiv_pos_as_xyz
  1  'x, y, z'
loop_
 _atom_site_type_symbol
 _atom_site_label
 _atom_site_symmetry_multiplicity
 _atom_site_fract_x
 _atom_site_fract_y
 _atom_site_fract_z
 _atom_site_occupancy
  Lu  Lu0  1  0.860554  0.860554  0.860554  1
  Nb  Nb1  1  0.140771  0.140771  0.140771  1
  Nb  Nb2  1  0.358388  0.358388  0.358388  1
  Nb  Nb3  1  0.641449  0.641449  0.641449  1
  As  As4  1  0.032455  0.466845  0.750624  1
  As  As5  1  0.466845  0.750624  0.032455  1
  As  As6  1  0.750624  0.032455  0.466845  1
  As  As7  1  0.259494  0.965707  0.523853  1
  As  As8  1  0.523853  0.259494  0.965707  1
  As  As9  1  0.965707  0.523853  0.259494  1
  O  O10  1  0.135620  0.482892  0.308857  1
  O  O11  1  0.308857  0.135620  0.482892  1
  O  O12  1  0.054296  0.284511  0.939169  1
  O  O13  1  0.482892  0.308857  0.135620  1
  O  O14  1  0.222217  0.409158  0.581513  1
  O  O15  1  0.019961  0.645132  0.756564  1
  O  O16  1  0.284511  0.939169  0.054296  1
  O  O17  1  0.409158  0.581513  0.222217  1
  O  O18  1  0.581513  0.222217  0.409158  1
  O  O19  1  0.237753  0.995155  0.340273  1
  O  O20  1  0.083084  0.949482  0.705580  1
  O  O21  1  0.340273  0.237753  0.995155  1
  O  O22  1  0.645132  0.756564  0.019961  1
  O  O23  1  0.939169  0.054296  0.284511  1
  O  O24  1  0.756564  0.019961  0.645132  1
  O  O25  1  0.444558  0.781425  0.549775  1
  O  O26  1  0.549775  0.444558  0.781425  1
  O  O27  1  0.705580  0.083084  0.949482  1
  O  O28  1  0.995155  0.340273  0.237753  1
  O  O29  1  0.781425  0.549775  0.444558  1
  O  O30  1  0.495847  0.727376  0.849663  1
  O  O31  1  0.949482  0.705580  0.083084  1
  O  O32  1  0.727376  0.849663  0.495847  1
  O  O33  1  0.849663  0.495847  0.727376  1
