# generated using pymatgen
data_Ho3Al5Pt
_symmetry_space_group_name_H-M   'P 1'
_cell_length_a   7.03556700
_cell_length_b   7.03556660
_cell_length_c   4.28079200
_cell_angle_alpha   90.00000000
_cell_angle_beta   90.00000000
_cell_angle_gamma   120.00000659
_symmetry_Int_Tables_number   1
_chemical_formula_structural   Ho3Al5Pt
_chemical_formula_sum   'Ho3 Al5 Pt1'
_cell_volume   183.50711640
_cell_formula_units_Z   1
loop_
 _symmetry_equiv_pos_site_id
 _symmetry_equiv_pos_as_xyz
  1  'x, y, z'
loop_
 _atom_site_type_symbol
 _atom_site_label
 _atom_site_symmetry_multiplicity
 _atom_site_fract_x
 _atom_site_fract_y
 _atom_site_fract_z
 _atom_site_occupancy
  Ho  Ho0  1  0.414109  0.000000  0.000000  1
  Ho  Ho1  1  0.000000  0.414109  0.000000  1
  Ho  Ho2  1  0.585891  0.585890  0.000000  1
  Al  Al3  1  0.766837  0.000000  0.500001  1
  Al  Al4  1  0.233163  0.233163  0.500001  1
  Al  Al5  1  0.000000  0.766836  0.500001  1
  Al  Al6  1  0.666666  0.333333  0.500001  1
  Al  Al7  1  0.333333  0.666666  0.500001  1
  Pt  Pt8  1  0.000000  0.000000  0.000000  1
