# generated using pymatgen
data_Tb3YGa12Ag
_symmetry_space_group_name_H-M   'P 1'
_cell_length_a   7.56480398
_cell_length_b   7.56480312
_cell_length_c   7.56480423
_cell_angle_alpha   109.45700902
_cell_angle_beta   109.45700893
_cell_angle_gamma   109.45699975
_symmetry_Int_Tables_number   1
_chemical_formula_structural   Tb3YGa12Ag
_chemical_formula_sum   'Tb3 Y1 Ga12 Ag1'
_cell_volume   333.42600179
_cell_formula_units_Z   1
loop_
 _symmetry_equiv_pos_site_id
 _symmetry_equiv_pos_as_xyz
  1  'x, y, z'
loop_
 _atom_site_type_symbol
 _atom_site_label
 _atom_site_symmetry_multiplicity
 _atom_site_fract_x
 _atom_site_fract_y
 _atom_site_fract_z
 _atom_site_occupancy
  Tb  Tb0  1  0.000000  0.000000  0.500000  1
  Tb  Tb1  1  0.000000  0.500000  0.000000  1
  Tb  Tb2  1  0.500000  0.000000  0.000000  1
  Y  Y3  1  0.500000  0.500000  0.500000  1
  Ga  Ga4  1  0.500000  0.749983  0.250017  1
  Ga  Ga5  1  0.500000  0.250017  0.749983  1
  Ga  Ga6  1  0.250017  0.500000  0.749983  1
  Ga  Ga7  1  0.749983  0.500000  0.250017  1
  Ga  Ga8  1  0.749983  0.250017  0.500000  1
  Ga  Ga9  1  0.250017  0.749983  0.500000  1
  Ga  Ga10  1  0.999887  0.305690  0.305690  1
  Ga  Ga11  1  0.000113  0.694310  0.694310  1
  Ga  Ga12  1  0.305690  0.999887  0.305690  1
  Ga  Ga13  1  0.694310  0.000113  0.694310  1
  Ga  Ga14  1  0.305690  0.305690  0.999887  1
  Ga  Ga15  1  0.694310  0.694310  0.000113  1
  Ag  Ag16  1  0.000000  0.000000  0.000000  1
