# generated using pymatgen
data_Nd2B4IrRu3
_symmetry_space_group_name_H-M   'P 1'
_cell_length_a   6.83115114
_cell_length_b   6.01557197
_cell_length_c   5.59173179
_cell_angle_alpha   71.99924244
_cell_angle_beta   56.87761359
_cell_angle_gamma   51.74117656
_symmetry_Int_Tables_number   1
_chemical_formula_structural   Nd2B4IrRu3
_chemical_formula_sum   'Nd2 B4 Ir1 Ru3'
_cell_volume   150.96095787
_cell_formula_units_Z   1
loop_
 _symmetry_equiv_pos_site_id
 _symmetry_equiv_pos_as_xyz
  1  'x, y, z'
loop_
 _atom_site_type_symbol
 _atom_site_label
 _atom_site_symmetry_multiplicity
 _atom_site_fract_x
 _atom_site_fract_y
 _atom_site_fract_z
 _atom_site_occupancy
  Nd  Nd0  1  0.999828  0.999828  0.000172  1
  Nd  Nd1  1  0.250890  0.250890  0.249110  1
  B  B2  1  0.315011  0.682742  0.317203  1
  B  B3  1  0.682742  0.315011  0.685044  1
  B  B4  1  0.569009  0.932290  0.568945  1
  B  B5  1  0.932290  0.569009  0.929756  1
  Ir  Ir6  1  0.635632  0.635632  0.364368  1
  Ru  Ru7  1  0.364268  0.364268  0.635732  1
  Ru  Ru8  1  0.614113  0.614113  0.885887  1
  Ru  Ru9  1  0.886217  0.886217  0.613783  1
