# generated using pymatgen
data_Dy17Tm3(Ir3Rh)3
_symmetry_space_group_name_H-M   'P 1'
_cell_length_a   10.86400802
_cell_length_b   10.86457202
_cell_length_c   6.37849300
_cell_angle_alpha   90.00000000
_cell_angle_beta   90.00000000
_cell_angle_gamma   90.00734109
_symmetry_Int_Tables_number   1
_chemical_formula_structural   Dy17Tm3(Ir3Rh)3
_chemical_formula_sum   'Dy17 Tm3 Ir9 Rh3'
_cell_volume   752.87136714
_cell_formula_units_Z   1
loop_
 _symmetry_equiv_pos_site_id
 _symmetry_equiv_pos_as_xyz
  1  'x, y, z'
loop_
 _atom_site_type_symbol
 _atom_site_label
 _atom_site_symmetry_multiplicity
 _atom_site_fract_x
 _atom_site_fract_y
 _atom_site_fract_z
 _atom_site_occupancy
  Dy  Dy0  1  0.290173  0.088576  0.379897  1
  Dy  Dy1  1  0.290059  0.910937  0.879670  1
  Dy  Dy2  1  0.709941  0.089063  0.879670  1
  Dy  Dy3  1  0.709827  0.911424  0.379897  1
  Dy  Dy4  1  0.589075  0.790164  0.879762  1
  Dy  Dy5  1  0.588689  0.209512  0.379788  1
  Dy  Dy6  1  0.411311  0.790488  0.379788  1
  Dy  Dy7  1  0.410925  0.209836  0.879762  1
  Dy  Dy8  1  0.208838  0.411260  0.619196  1
  Dy  Dy9  1  0.209440  0.588995  0.121374  1
  Dy  Dy10  1  0.790560  0.411005  0.121374  1
  Dy  Dy11  1  0.791162  0.588740  0.619196  1
  Dy  Dy12  1  0.911008  0.709536  0.121468  1
  Dy  Dy13  1  0.911380  0.290851  0.619083  1
  Dy  Dy14  1  0.088620  0.709149  0.619083  1
  Dy  Dy15  1  0.088992  0.290464  0.121468  1
  Dy  Dy16  1  0.500000  0.500000  0.500265  1
  Tm  Tm17  1  0.000000  0.000000  0.500254  1
  Tm  Tm18  1  0.000000  0.000000  0.000074  1
  Tm  Tm19  1  0.500000  0.500000  0.000067  1
  Ir  Ir20  1  0.846436  0.152343  0.249846  1
  Ir  Ir21  1  0.846687  0.847225  0.749822  1
  Ir  Ir22  1  0.153313  0.152775  0.749822  1
  Ir  Ir23  1  0.153564  0.847657  0.249846  1
  Ir  Ir24  1  0.653243  0.346217  0.750488  1
  Ir  Ir25  1  0.652809  0.654016  0.249168  1
  Ir  Ir26  1  0.347191  0.345984  0.249168  1
  Ir  Ir27  1  0.346757  0.653783  0.750488  1
  Ir  Ir28  1  0.000000  0.500000  0.375098  1
  Rh  Rh29  1  0.500000  0.000000  0.124465  1
  Rh  Rh30  1  0.500000  0.000000  0.624712  1
  Rh  Rh31  1  0.000000  0.500000  0.875943  1
