# generated using pymatgen
data_Y3ThAl4(Ga7Ir3)2
_symmetry_space_group_name_H-M   'P 1'
_cell_length_a   7.60775064
_cell_length_b   7.62261189
_cell_length_c   9.51703400
_cell_angle_alpha   90.00000000
_cell_angle_beta   90.00000000
_cell_angle_gamma   119.63111534
_symmetry_Int_Tables_number   1
_chemical_formula_structural   Y3ThAl4(Ga7Ir3)2
_chemical_formula_sum   'Y3 Th1 Al4 Ga14 Ir6'
_cell_volume   479.72757798
_cell_formula_units_Z   1
loop_
 _symmetry_equiv_pos_site_id
 _symmetry_equiv_pos_as_xyz
  1  'x, y, z'
loop_
 _atom_site_type_symbol
 _atom_site_label
 _atom_site_symmetry_multiplicity
 _atom_site_fract_x
 _atom_site_fract_y
 _atom_site_fract_z
 _atom_site_occupancy
  Y  Y0  1  0.999661  0.329167  0.750000  1
  Y  Y1  1  0.672571  0.998766  0.250000  1
  Y  Y2  1  0.328472  0.000202  0.750000  1
  Th  Th3  1  0.998870  0.670522  0.250000  1
  Al  Al4  1  0.331226  0.331272  0.556020  1
  Al  Al5  1  0.663976  0.667534  0.452064  1
  Al  Al6  1  0.663976  0.667534  0.047936  1
  Al  Al7  1  0.331226  0.331272  0.943980  1
  Ga  Ga8  1  0.130502  0.132676  0.250000  1
  Ga  Ga9  1  0.872937  0.875669  0.750000  1
  Ga  Ga10  1  0.000493  0.330351  0.076863  1
  Ga  Ga11  1  0.999544  0.664322  0.914737  1
  Ga  Ga12  1  0.999544  0.664322  0.585263  1
  Ga  Ga13  1  0.341000  0.004784  0.422995  1
  Ga  Ga14  1  0.000493  0.330351  0.423137  1
  Ga  Ga15  1  0.664463  0.001105  0.579994  1
  Ga  Ga16  1  0.664463  0.001105  0.920006  1
  Ga  Ga17  1  0.341000  0.004784  0.077005  1
  Ga  Ga18  1  0.351240  0.551249  0.250000  1
  Ga  Ga19  1  0.651275  0.447424  0.750000  1
  Ga  Ga20  1  0.545517  0.343056  0.250000  1
  Ga  Ga21  1  0.448260  0.654442  0.750000  1
  Ir  Ir22  1  0.671352  0.333350  0.000706  1
  Ir  Ir23  1  0.328316  0.668457  0.000717  1
  Ir  Ir24  1  0.328316  0.668457  0.499283  1
  Ir  Ir25  1  0.671352  0.333350  0.499294  1
  Ir  Ir26  1  0.999976  0.997239  0.001324  1
  Ir  Ir27  1  0.999976  0.997239  0.498676  1
