# generated using pymatgen
data_Li2AsPIr2
_symmetry_space_group_name_H-M   'P 1'
_cell_length_a   3.90311000
_cell_length_b   6.73106400
_cell_length_c   6.89484500
_cell_angle_alpha   90.00000000
_cell_angle_beta   90.00000000
_cell_angle_gamma   90.00000000
_symmetry_Int_Tables_number   1
_chemical_formula_structural   Li2AsPIr2
_chemical_formula_sum   'Li4 As2 P2 Ir4'
_cell_volume   181.14194155
_cell_formula_units_Z   2
loop_
 _symmetry_equiv_pos_site_id
 _symmetry_equiv_pos_as_xyz
  1  'x, y, z'
loop_
 _atom_site_type_symbol
 _atom_site_label
 _atom_site_symmetry_multiplicity
 _atom_site_fract_x
 _atom_site_fract_y
 _atom_site_fract_z
 _atom_site_occupancy
  Li  Li0  1  0.250000  0.024006  0.340165  1
  Li  Li1  1  0.250000  0.524006  0.159835  1
  Li  Li2  1  0.750000  0.983853  0.661864  1
  Li  Li3  1  0.750000  0.483853  0.838136  1
  As  As4  1  0.750000  0.717651  0.368560  1
  As  As5  1  0.750000  0.217651  0.131440  1
  P  P6  1  0.250000  0.288136  0.635404  1
  P  P7  1  0.250000  0.788136  0.864596  1
  Ir  Ir8  1  0.250000  0.137139  0.933720  1
  Ir  Ir9  1  0.250000  0.637139  0.566280  1
  Ir  Ir10  1  0.750000  0.849214  0.036869  1
  Ir  Ir11  1  0.750000  0.349214  0.463131  1
