# generated using pymatgen
data_ErLu2Ti2(Co2Si5)2
_symmetry_space_group_name_H-M   'P 1'
_cell_length_a   12.03922300
_cell_length_b   12.03922300
_cell_length_c   3.94794500
_cell_angle_alpha   90.00000000
_cell_angle_beta   90.00000000
_cell_angle_gamma   90.00000000
_symmetry_Int_Tables_number   1
_chemical_formula_structural   ErLu2Ti2(Co2Si5)2
_chemical_formula_sum   'Er2 Lu4 Ti4 Co8 Si20'
_cell_volume   572.22655961
_cell_formula_units_Z   2
loop_
 _symmetry_equiv_pos_site_id
 _symmetry_equiv_pos_as_xyz
  1  'x, y, z'
loop_
 _atom_site_type_symbol
 _atom_site_label
 _atom_site_symmetry_multiplicity
 _atom_site_fract_x
 _atom_site_fract_y
 _atom_site_fract_z
 _atom_site_occupancy
  Er  Er0  1  0.000000  0.000000  0.000000  1
  Er  Er1  1  0.500000  0.500000  0.000000  1
  Lu  Lu2  1  0.886092  0.386092  0.500000  1
  Lu  Lu3  1  0.386092  0.113908  0.500000  1
  Lu  Lu4  1  0.613908  0.886092  0.500000  1
  Lu  Lu5  1  0.113908  0.613908  0.500000  1
  Ti  Ti6  1  0.674369  0.174369  0.500000  1
  Ti  Ti7  1  0.174369  0.325631  0.500000  1
  Ti  Ti8  1  0.825631  0.674369  0.500000  1
  Ti  Ti9  1  0.325631  0.825631  0.500000  1
  Co  Co10  1  0.522020  0.253147  0.000000  1
  Co  Co11  1  0.253147  0.477980  0.000000  1
  Co  Co12  1  0.746853  0.522020  0.000000  1
  Co  Co13  1  0.477980  0.746853  0.000000  1
  Co  Co14  1  0.977980  0.753147  0.000000  1
  Co  Co15  1  0.022020  0.246853  0.000000  1
  Co  Co16  1  0.753147  0.022020  0.000000  1
  Co  Co17  1  0.246853  0.977980  0.000000  1
  Si  Si18  1  0.570406  0.070406  0.000000  1
  Si  Si19  1  0.070406  0.429594  0.000000  1
  Si  Si20  1  0.929594  0.570406  0.000000  1
  Si  Si21  1  0.429594  0.929594  0.000000  1
  Si  Si22  1  0.195233  0.161229  0.000000  1
  Si  Si23  1  0.161229  0.804767  0.000000  1
  Si  Si24  1  0.838771  0.195233  0.000000  1
  Si  Si25  1  0.804767  0.838771  0.000000  1
  Si  Si26  1  0.304767  0.661229  0.000000  1
  Si  Si27  1  0.695233  0.338771  0.000000  1
  Si  Si28  1  0.661229  0.695233  0.000000  1
  Si  Si29  1  0.338771  0.304767  0.000000  1
  Si  Si30  1  0.013157  0.165272  0.500000  1
  Si  Si31  1  0.165272  0.986843  0.500000  1
  Si  Si32  1  0.834728  0.013157  0.500000  1
  Si  Si33  1  0.986843  0.834728  0.500000  1
  Si  Si34  1  0.486843  0.665272  0.500000  1
  Si  Si35  1  0.513157  0.334728  0.500000  1
  Si  Si36  1  0.665272  0.513157  0.500000  1
  Si  Si37  1  0.334728  0.486843  0.500000  1
