# generated using pymatgen
data_Rb7MnGeO8
_symmetry_space_group_name_H-M   'P 1'
_cell_length_a   10.84264500
_cell_length_b   6.67258973
_cell_length_c   21.60280500
_cell_angle_alpha   86.75363556
_cell_angle_beta   90.00000000
_cell_angle_gamma   90.00000000
_symmetry_Int_Tables_number   1
_chemical_formula_structural   Rb7MnGeO8
_chemical_formula_sum   'Rb28 Mn4 Ge4 O32'
_cell_volume   1560.42291759
_cell_formula_units_Z   4
loop_
 _symmetry_equiv_pos_site_id
 _symmetry_equiv_pos_as_xyz
  1  'x, y, z'
loop_
 _atom_site_type_symbol
 _atom_site_label
 _atom_site_symmetry_multiplicity
 _atom_site_fract_x
 _atom_site_fract_y
 _atom_site_fract_z
 _atom_site_occupancy
  Rb  Rb0  1  0.579873  0.408148  0.884943  1
  Rb  Rb1  1  0.084095  0.595800  0.616650  1
  Rb  Rb2  1  0.915905  0.595800  0.116650  1
  Rb  Rb3  1  0.420127  0.408148  0.384943  1
  Rb  Rb4  1  0.593492  0.910607  0.810774  1
  Rb  Rb5  1  0.081800  0.089517  0.696198  1
  Rb  Rb6  1  0.918200  0.089517  0.196198  1
  Rb  Rb7  1  0.406508  0.910607  0.310774  1
  Rb  Rb8  1  0.949633  0.269256  0.866644  1
  Rb  Rb9  1  0.453948  0.722001  0.627192  1
  Rb  Rb10  1  0.546052  0.722001  0.127192  1
  Rb  Rb11  1  0.050367  0.269256  0.366644  1
  Rb  Rb12  1  0.809245  0.767350  0.950678  1
  Rb  Rb13  1  0.316007  0.231948  0.544193  1
  Rb  Rb14  1  0.683993  0.231948  0.044193  1
  Rb  Rb15  1  0.190755  0.767350  0.450678  1
  Rb  Rb16  1  0.142966  0.716974  0.967087  1
  Rb  Rb17  1  0.638673  0.281159  0.528954  1
  Rb  Rb18  1  0.361327  0.281159  0.028954  1
  Rb  Rb19  1  0.857034  0.716974  0.467087  1
  Rb  Rb20  1  0.297392  0.078220  0.868425  1
  Rb  Rb21  1  0.792581  0.913185  0.633872  1
  Rb  Rb22  1  0.207419  0.913185  0.133872  1
  Rb  Rb23  1  0.702608  0.078220  0.368425  1
  Rb  Rb24  1  0.246327  0.625551  0.787231  1
  Rb  Rb25  1  0.756812  0.382737  0.719210  1
  Rb  Rb26  1  0.243188  0.382737  0.219210  1
  Rb  Rb27  1  0.753673  0.625551  0.287231  1
  Mn  Mn28  1  0.972306  0.211626  0.527343  1
  Mn  Mn29  1  0.027694  0.211626  0.027343  1
  Mn  Mn30  1  0.405758  0.215064  0.706781  1
  Mn  Mn31  1  0.594242  0.215064  0.206781  1
  Ge  Ge32  1  0.469982  0.787853  0.973172  1
  Ge  Ge33  1  0.530018  0.787853  0.473172  1
  Ge  Ge34  1  0.910827  0.784598  0.792627  1
  Ge  Ge35  1  0.089173  0.784598  0.292627  1
  O  O36  1  0.363927  0.821488  0.036013  1
  O  O37  1  0.869901  0.184471  0.467600  1
  O  O38  1  0.130099  0.184471  0.967600  1
  O  O39  1  0.636073  0.821488  0.536013  1
  O  O40  1  0.971135  0.679791  0.723450  1
  O  O41  1  0.464176  0.312963  0.772954  1
  O  O42  1  0.535824  0.312963  0.272954  1
  O  O43  1  0.028865  0.679791  0.223450  1
  O  O44  1  0.792037  0.620971  0.826324  1
  O  O45  1  0.289469  0.370752  0.676135  1
  O  O46  1  0.710531  0.370752  0.176135  1
  O  O47  1  0.207963  0.620971  0.326324  1
  O  O48  1  0.033337  0.824041  0.846788  1
  O  O49  1  0.520389  0.189582  0.652692  1
  O  O50  1  0.479611  0.189582  0.152692  1
  O  O51  1  0.966663  0.824041  0.346788  1
  O  O52  1  0.841723  0.025423  0.769334  1
  O  O53  1  0.341846  0.981719  0.727531  1
  O  O54  1  0.658154  0.981719  0.227531  1
  O  O55  1  0.158277  0.025423  0.269334  1
  O  O56  1  0.585675  0.608126  0.000656  1
  O  O57  1  0.083541  0.384305  0.502618  1
  O  O58  1  0.916459  0.384305  0.002618  1
  O  O59  1  0.414325  0.608126  0.500656  1
  O  O60  1  0.388757  0.694884  0.906907  1
  O  O61  1  0.895856  0.300964  0.590757  1
  O  O62  1  0.104144  0.300964  0.090757  1
  O  O63  1  0.611243  0.694884  0.406907  1
  O  O64  1  0.541019  0.024521  0.946882  1
  O  O65  1  0.040379  0.984400  0.551387  1
  O  O66  1  0.959621  0.984400  0.051387  1
  O  O67  1  0.458981  0.024521  0.446882  1
