# generated using pymatgen
data_Ho3Er4Th(CdNi)2
_symmetry_space_group_name_H-M   'P 1'
_cell_length_a   9.52219993
_cell_length_b   9.52219973
_cell_length_c   9.52588600
_cell_angle_alpha   59.98719323
_cell_angle_beta   59.98719390
_cell_angle_gamma   59.93102583
_symmetry_Int_Tables_number   1
_chemical_formula_structural   Ho3Er4Th(CdNi)2
_chemical_formula_sum   'Ho6 Er8 Th2 Cd4 Ni4'
_cell_volume   610.31502499
_cell_formula_units_Z   2
loop_
 _symmetry_equiv_pos_site_id
 _symmetry_equiv_pos_as_xyz
  1  'x, y, z'
loop_
 _atom_site_type_symbol
 _atom_site_label
 _atom_site_symmetry_multiplicity
 _atom_site_fract_x
 _atom_site_fract_y
 _atom_site_fract_z
 _atom_site_occupancy
  Ho  Ho0  1  0.936425  0.564800  0.565775  1
  Ho  Ho1  1  0.564800  0.936425  0.933001  1
  Ho  Ho2  1  0.564800  0.936425  0.565775  1
  Ho  Ho3  1  0.936425  0.564800  0.933001  1
  Ho  Ho4  1  0.564807  0.564807  0.935193  1
  Ho  Ho5  1  0.936425  0.936425  0.563575  1
  Er  Er6  1  0.349442  0.949148  0.350705  1
  Er  Er7  1  0.949148  0.349442  0.350705  1
  Er  Er8  1  0.812912  0.189213  0.186955  1
  Er  Er9  1  0.189213  0.812912  0.810919  1
  Er  Er10  1  0.189213  0.812912  0.186955  1
  Er  Er11  1  0.812912  0.189213  0.810919  1
  Er  Er12  1  0.187480  0.187480  0.812520  1
  Er  Er13  1  0.812564  0.812564  0.187436  1
  Th  Th14  1  0.343983  0.343983  0.350954  1
  Th  Th15  1  0.343983  0.343983  0.961079  1
  Cd  Cd16  1  0.582771  0.582771  0.579908  1
  Cd  Cd17  1  0.582771  0.582771  0.254552  1
  Cd  Cd18  1  0.583524  0.254776  0.580850  1
  Cd  Cd19  1  0.254776  0.583524  0.580850  1
  Ni  Ni20  1  0.142482  0.142482  0.142937  1
  Ni  Ni21  1  0.142482  0.142482  0.572098  1
  Ni  Ni22  1  0.145290  0.571374  0.141667  1
  Ni  Ni23  1  0.571374  0.145290  0.141667  1
