# generated using pymatgen
data_Ho2Lu(GaNi4)3
_symmetry_space_group_name_H-M   'P 1'
_cell_length_a   8.48180300
_cell_length_b   8.48180200
_cell_length_c   4.02906000
_cell_angle_alpha   90.00000000
_cell_angle_beta   90.00000000
_cell_angle_gamma   120.00000001
_symmetry_Int_Tables_number   1
_chemical_formula_structural   Ho2Lu(GaNi4)3
_chemical_formula_sum   'Ho2 Lu1 Ga3 Ni12'
_cell_volume   251.02135972
_cell_formula_units_Z   1
loop_
 _symmetry_equiv_pos_site_id
 _symmetry_equiv_pos_as_xyz
  1  'x, y, z'
loop_
 _atom_site_type_symbol
 _atom_site_label
 _atom_site_symmetry_multiplicity
 _atom_site_fract_x
 _atom_site_fract_y
 _atom_site_fract_z
 _atom_site_occupancy
  Ho  Ho0  1  0.333333  0.666667  0.000000  1
  Ho  Ho1  1  0.666667  0.333333  0.000000  1
  Lu  Lu2  1  0.000000  0.000000  0.000000  1
  Ga  Ga3  1  0.500000  0.000000  0.500000  1
  Ga  Ga4  1  0.000000  0.500000  0.500000  1
  Ga  Ga5  1  0.500000  0.500000  0.500000  1
  Ni  Ni6  1  0.326906  0.000000  0.000000  1
  Ni  Ni7  1  0.673094  0.000000  0.000000  1
  Ni  Ni8  1  0.000000  0.326906  0.000000  1
  Ni  Ni9  1  0.000000  0.673094  0.000000  1
  Ni  Ni10  1  0.673094  0.673094  0.000000  1
  Ni  Ni11  1  0.326906  0.326906  0.000000  1
  Ni  Ni12  1  0.167186  0.334372  0.500000  1
  Ni  Ni13  1  0.832814  0.665628  0.500000  1
  Ni  Ni14  1  0.665628  0.832814  0.500000  1
  Ni  Ni15  1  0.334372  0.167186  0.500000  1
  Ni  Ni16  1  0.167186  0.832814  0.500000  1
  Ni  Ni17  1  0.832814  0.167186  0.500000  1
