# generated using pymatgen
data_Eu3Th5(Pt2Pb)4
_symmetry_space_group_name_H-M   'P 1'
_cell_length_a   8.09017800
_cell_length_b   8.09017820
_cell_length_c   7.50289200
_cell_angle_alpha   90.00000000
_cell_angle_beta   90.00000000
_cell_angle_gamma   90.32878310
_symmetry_Int_Tables_number   1
_chemical_formula_structural   Eu3Th5(Pt2Pb)4
_chemical_formula_sum   'Eu3 Th5 Pt8 Pb4'
_cell_volume   491.06356171
_cell_formula_units_Z   1
loop_
 _symmetry_equiv_pos_site_id
 _symmetry_equiv_pos_as_xyz
  1  'x, y, z'
loop_
 _atom_site_type_symbol
 _atom_site_label
 _atom_site_symmetry_multiplicity
 _atom_site_fract_x
 _atom_site_fract_y
 _atom_site_fract_z
 _atom_site_occupancy
  Eu  Eu0  1  0.667901  0.667901  0.500000  1
  Eu  Eu1  1  0.834758  0.165626  0.000000  1
  Eu  Eu2  1  0.165626  0.834758  0.000000  1
  Th  Th3  1  0.674932  0.674932  0.000000  1
  Th  Th4  1  0.337184  0.337184  0.500000  1
  Th  Th5  1  0.824498  0.173111  0.500000  1
  Th  Th6  1  0.325817  0.325817  0.000000  1
  Th  Th7  1  0.173111  0.824498  0.500000  1
  Pt  Pt8  1  0.874744  0.874744  0.737033  1
  Pt  Pt9  1  0.132485  0.132485  0.731803  1
  Pt  Pt10  1  0.623317  0.369989  0.757939  1
  Pt  Pt11  1  0.623317  0.369989  0.242061  1
  Pt  Pt12  1  0.369989  0.623317  0.242061  1
  Pt  Pt13  1  0.132485  0.132485  0.268197  1
  Pt  Pt14  1  0.874744  0.874744  0.262967  1
  Pt  Pt15  1  0.369989  0.623317  0.757939  1
  Pb  Pb16  1  0.501149  0.996404  0.751803  1
  Pb  Pb17  1  0.501149  0.996404  0.248197  1
  Pb  Pb18  1  0.996404  0.501149  0.751803  1
  Pb  Pb19  1  0.996404  0.501149  0.248197  1
