# generated using pymatgen
data_Hf6Ti7Al9Ir8
_symmetry_space_group_name_H-M   'P 1'
_cell_length_a   8.89775906
_cell_length_b   8.89775776
_cell_length_c   8.89775822
_cell_angle_alpha   59.73166994
_cell_angle_beta   59.73167566
_cell_angle_gamma   59.73168041
_symmetry_Int_Tables_number   1
_chemical_formula_structural   Hf6Ti7Al9Ir8
_chemical_formula_sum   'Hf6 Ti7 Al9 Ir8'
_cell_volume   495.07640943
_cell_formula_units_Z   1
loop_
 _symmetry_equiv_pos_site_id
 _symmetry_equiv_pos_as_xyz
  1  'x, y, z'
loop_
 _atom_site_type_symbol
 _atom_site_label
 _atom_site_symmetry_multiplicity
 _atom_site_fract_x
 _atom_site_fract_y
 _atom_site_fract_z
 _atom_site_occupancy
  Hf  Hf0  1  0.210073  0.210073  0.789034  1
  Hf  Hf1  1  0.789034  0.210073  0.210073  1
  Hf  Hf2  1  0.210073  0.789034  0.210073  1
  Hf  Hf3  1  0.795546  0.795546  0.194508  1
  Hf  Hf4  1  0.194508  0.795546  0.795546  1
  Hf  Hf5  1  0.795546  0.194508  0.795546  1
  Ti  Ti6  1  0.378378  0.378378  0.378378  1
  Ti  Ti7  1  0.379381  0.864970  0.379381  1
  Ti  Ti8  1  0.864970  0.379381  0.379381  1
  Ti  Ti9  1  0.379381  0.379381  0.864970  1
  Ti  Ti10  1  0.834877  0.498608  0.834877  1
  Ti  Ti11  1  0.498608  0.834877  0.834877  1
  Ti  Ti12  1  0.834877  0.834877  0.498608  1
  Al  Al13  1  0.162385  0.162385  0.162385  1
  Al  Al14  1  0.165256  0.505555  0.165256  1
  Al  Al15  1  0.505555  0.165256  0.165256  1
  Al  Al16  1  0.165256  0.165256  0.505555  1
  Al  Al17  1  0.619781  0.619781  0.619781  1
  Al  Al18  1  0.618873  0.143529  0.618873  1
  Al  Al19  1  0.143529  0.618873  0.618873  1
  Al  Al20  1  0.618873  0.618873  0.143529  1
  Al  Al21  1  0.826858  0.826858  0.826858  1
  Ir  Ir22  1  0.003133  0.003133  0.498419  1
  Ir  Ir23  1  0.498419  0.003133  0.003133  1
  Ir  Ir24  1  0.003133  0.498419  0.003133  1
  Ir  Ir25  1  0.498223  0.498223  0.003626  1
  Ir  Ir26  1  0.003626  0.498223  0.498223  1
  Ir  Ir27  1  0.498223  0.003626  0.498223  1
  Ir  Ir28  1  0.500765  0.500765  0.500765  1
  Ir  Ir29  1  0.002859  0.002859  0.002859  1
