# generated using pymatgen
data_Sc2SiMo2P
_symmetry_space_group_name_H-M   'P 1'
_cell_length_a   6.98226800
_cell_length_b   3.48437400
_cell_length_c   8.12530200
_cell_angle_alpha   90.00000000
_cell_angle_beta   90.00000000
_cell_angle_gamma   90.00000000
_symmetry_Int_Tables_number   1
_chemical_formula_structural   Sc2SiMo2P
_chemical_formula_sum   'Sc4 Si2 Mo4 P2'
_cell_volume   197.67911608
_cell_formula_units_Z   2
loop_
 _symmetry_equiv_pos_site_id
 _symmetry_equiv_pos_as_xyz
  1  'x, y, z'
loop_
 _atom_site_type_symbol
 _atom_site_label
 _atom_site_symmetry_multiplicity
 _atom_site_fract_x
 _atom_site_fract_y
 _atom_site_fract_z
 _atom_site_occupancy
  Sc  Sc0  1  0.039740  0.250001  0.168294  1
  Sc  Sc1  1  0.539741  0.250001  0.331705  1
  Sc  Sc2  1  0.457709  0.750001  0.663096  1
  Sc  Sc3  1  0.957709  0.750001  0.836905  1
  Si  Si4  1  0.762034  0.250001  0.636825  1
  Si  Si5  1  0.262034  0.250001  0.863176  1
  Mo  Mo6  1  0.368314  0.750001  0.065364  1
  Mo  Mo7  1  0.868314  0.750001  0.434636  1
  Mo  Mo8  1  0.132766  0.250001  0.556291  1
  Mo  Mo9  1  0.632766  0.250001  0.943710  1
  P  P10  1  0.739435  0.750001  0.137418  1
  P  P11  1  0.239436  0.750001  0.362582  1
