# generated using pymatgen
data_TaNb3Si3Ru2
_symmetry_space_group_name_H-M   'P 1'
_cell_length_a   7.57298118
_cell_length_b   7.57298063
_cell_length_c   7.57298080
_cell_angle_alpha   126.38433351
_cell_angle_beta   124.67594562
_cell_angle_gamma   80.66926288
_symmetry_Int_Tables_number   1
_chemical_formula_structural   TaNb3Si3Ru2
_chemical_formula_sum   'Ta2 Nb6 Si6 Ru4'
_cell_volume   277.27223469
_cell_formula_units_Z   2
loop_
 _symmetry_equiv_pos_site_id
 _symmetry_equiv_pos_as_xyz
  1  'x, y, z'
loop_
 _atom_site_type_symbol
 _atom_site_label
 _atom_site_symmetry_multiplicity
 _atom_site_fract_x
 _atom_site_fract_y
 _atom_site_fract_z
 _atom_site_occupancy
  Ta  Ta0  1  0.500000  0.252454  0.752454  1
  Ta  Ta1  1  0.000000  0.252454  0.252454  1
  Nb  Nb2  1  0.557475  0.090701  0.033226  1
  Nb  Nb3  1  0.442525  0.475752  0.533226  1
  Nb  Nb4  1  0.959848  0.484005  0.024157  1
  Nb  Nb5  1  0.040152  0.064309  0.524157  1
  Nb  Nb6  1  0.753211  0.916577  0.663367  1
  Nb  Nb7  1  0.246789  0.910157  0.163367  1
  Si  Si8  1  0.782304  0.561028  0.278726  1
  Si  Si9  1  0.217696  0.496422  0.778726  1
  Si  Si10  1  0.335196  0.816579  0.493412  1
  Si  Si11  1  0.664804  0.158214  0.481382  1
  Si  Si12  1  0.823168  0.816579  0.981382  1
  Si  Si13  1  0.176832  0.158214  0.993412  1
  Ru  Ru14  1  0.164141  0.748508  0.660008  1
  Ru  Ru15  1  0.835859  0.495869  0.584367  1
  Ru  Ru16  1  0.588499  0.748508  0.084367  1
  Ru  Ru17  1  0.411501  0.495869  0.160008  1
