# generated using pymatgen
data_TbDy3Co12(CuB3)2
_symmetry_space_group_name_H-M   'P 1'
_cell_length_a   5.04125700
_cell_length_b   5.03762923
_cell_length_c   12.76992500
_cell_angle_alpha   89.99984751
_cell_angle_beta   90.00031614
_cell_angle_gamma   120.02380504
_symmetry_Int_Tables_number   1
_chemical_formula_structural   TbDy3Co12(CuB3)2
_chemical_formula_sum   'Tb1 Dy3 Co12 Cu2 B6'
_cell_volume   280.78880571
_cell_formula_units_Z   1
loop_
 _symmetry_equiv_pos_site_id
 _symmetry_equiv_pos_as_xyz
  1  'x, y, z'
loop_
 _atom_site_type_symbol
 _atom_site_label
 _atom_site_symmetry_multiplicity
 _atom_site_fract_x
 _atom_site_fract_y
 _atom_site_fract_z
 _atom_site_occupancy
  Tb  Tb0  1  0.999988  0.000000  0.000046  1
  Dy  Dy1  1  0.999992  0.000000  0.499952  1
  Dy  Dy2  1  0.999986  0.000000  0.261462  1
  Dy  Dy3  1  0.000000  0.000000  0.738541  1
  Co  Co4  1  0.499985  0.000000  0.159693  1
  Co  Co5  1  0.499985  0.500000  0.159706  1
  Co  Co6  1  0.999985  0.500000  0.159706  1
  Co  Co7  1  0.500000  0.000000  0.840352  1
  Co  Co8  1  0.499999  0.500001  0.840323  1
  Co  Co9  1  0.999998  0.499999  0.840323  1
  Co  Co10  1  0.499988  0.000000  0.385509  1
  Co  Co11  1  0.499989  0.500000  0.385533  1
  Co  Co12  1  0.999988  0.500000  0.385533  1
  Co  Co13  1  0.499996  0.000000  0.614460  1
  Co  Co14  1  0.499996  0.500000  0.614436  1
  Co  Co15  1  0.999996  0.500000  0.614436  1
  Cu  Cu16  1  0.333361  0.666747  0.000011  1
  Cu  Cu17  1  0.666615  0.333253  0.000011  1
  B  B18  1  0.333395  0.666809  0.499966  1
  B  B19  1  0.666588  0.333191  0.499966  1
  B  B20  1  0.333357  0.666742  0.268993  1
  B  B21  1  0.666615  0.333258  0.268993  1
  B  B22  1  0.666597  0.333200  0.731022  1
  B  B23  1  0.333398  0.666800  0.731022  1
