# generated using pymatgen
data_ErTe28
_symmetry_space_group_name_H-M   'P 1'
_cell_length_a   9.15470591
_cell_length_b   12.08577603
_cell_length_c   12.14071889
_cell_angle_alpha   121.76984712
_cell_angle_beta   101.02441926
_cell_angle_gamma   97.05037385
_symmetry_Int_Tables_number   1
_chemical_formula_structural   ErTe28
_chemical_formula_sum   'Er1 Te28'
_cell_volume   1080.00866540
_cell_formula_units_Z   1
loop_
 _symmetry_equiv_pos_site_id
 _symmetry_equiv_pos_as_xyz
  1  'x, y, z'
loop_
 _atom_site_type_symbol
 _atom_site_label
 _atom_site_symmetry_multiplicity
 _atom_site_fract_x
 _atom_site_fract_y
 _atom_site_fract_z
 _atom_site_occupancy
  Er  Er0  1  0.500000  0.000000  0.000000  1
  Te  Te1  1  0.170092  0.132035  0.392721  1
  Te  Te2  1  0.614540  0.080432  0.414552  1
  Te  Te3  1  0.245123  0.303830  0.869577  1
  Te  Te4  1  0.790978  0.305706  0.840663  1
  Te  Te5  1  0.171336  0.514268  0.703659  1
  Te  Te6  1  0.674339  0.513671  0.643930  1
  Te  Te7  1  0.385460  0.919568  0.585448  1
  Te  Te8  1  0.829908  0.867965  0.607279  1
  Te  Te9  1  0.209022  0.694294  0.159337  1
  Te  Te10  1  0.754877  0.696170  0.130423  1
  Te  Te11  1  0.325661  0.486329  0.356070  1
  Te  Te12  1  0.828664  0.485732  0.296341  1
  Te  Te13  1  0.738292  0.056023  0.857164  1
  Te  Te14  1  0.234382  0.034940  0.815911  1
  Te  Te15  1  0.871946  0.590365  0.897832  1
  Te  Te16  1  0.385544  0.715397  0.958246  1
  Te  Te17  1  0.668932  0.248561  0.313521  1
  Te  Te18  1  0.059593  0.328496  0.344943  1
  Te  Te19  1  0.765618  0.965060  0.184089  1
  Te  Te20  1  0.261708  0.943977  0.142836  1
  Te  Te21  1  0.614456  0.284603  0.041754  1
  Te  Te22  1  0.128054  0.409635  0.102168  1
  Te  Te23  1  0.940407  0.671504  0.655057  1
  Te  Te24  1  0.331068  0.751439  0.686479  1
  Te  Te25  1  0.922380  0.198087  0.623967  1
  Te  Te26  1  0.450163  0.239220  0.609776  1
  Te  Te27  1  0.549837  0.760780  0.390224  1
  Te  Te28  1  0.077620  0.801913  0.376033  1
