# generated using pymatgen
data_Y2HoAuO7
_symmetry_space_group_name_H-M   'P 1'
_cell_length_a   6.49267688
_cell_length_b   6.49562705
_cell_length_c   7.44906200
_cell_angle_alpha   90.00003068
_cell_angle_beta   90.00006172
_cell_angle_gamma   108.82990449
_symmetry_Int_Tables_number   1
_chemical_formula_structural   Y2HoAuO7
_chemical_formula_sum   'Y4 Ho2 Au2 O14'
_cell_volume   297.34341745
_cell_formula_units_Z   2
loop_
 _symmetry_equiv_pos_site_id
 _symmetry_equiv_pos_as_xyz
  1  'x, y, z'
loop_
 _atom_site_type_symbol
 _atom_site_label
 _atom_site_symmetry_multiplicity
 _atom_site_fract_x
 _atom_site_fract_y
 _atom_site_fract_z
 _atom_site_occupancy
  Y  Y0  1  0.501609  0.502123  0.499820  1
  Y  Y1  1  0.498391  0.497877  0.999820  1
  Y  Y2  1  0.997947  0.527638  0.249006  1
  Y  Y3  1  0.002053  0.472362  0.749006  1
  Ho  Ho4  1  0.529142  0.998373  0.751162  1
  Ho  Ho5  1  0.470858  0.001627  0.251161  1
  Au  Au6  1  0.999418  0.999439  0.500058  1
  Au  Au7  1  0.000583  0.000562  0.000058  1
  O  O8  1  0.918738  0.077842  0.749907  1
  O  O9  1  0.081262  0.922158  0.249907  1
  O  O10  1  0.362666  0.639882  0.249583  1
  O  O11  1  0.637334  0.360118  0.749583  1
  O  O12  1  0.368138  0.634876  0.750332  1
  O  O13  1  0.631862  0.365124  0.250331  1
  O  O14  1  0.330654  0.079424  0.976231  1
  O  O15  1  0.669346  0.920577  0.476231  1
  O  O16  1  0.328984  0.076385  0.525624  1
  O  O17  1  0.671016  0.923614  0.025624  1
  O  O18  1  0.084758  0.329611  0.475580  1
  O  O19  1  0.915242  0.670389  0.975580  1
  O  O20  1  0.914600  0.669143  0.522698  1
  O  O21  1  0.085399  0.330857  0.022699  1
