# generated using pymatgen
data_LaHo2Er(WO6)2
_symmetry_space_group_name_H-M   'P 1'
_cell_length_a   5.45389300
_cell_length_b   7.77263542
_cell_length_c   11.55887085
_cell_angle_alpha   75.64282044
_cell_angle_beta   90.00000000
_cell_angle_gamma   90.00000000
_symmetry_Int_Tables_number   1
_chemical_formula_structural   LaHo2Er(WO6)2
_chemical_formula_sum   'La2 Ho4 Er2 W4 O24'
_cell_volume   474.69039417
_cell_formula_units_Z   2
loop_
 _symmetry_equiv_pos_site_id
 _symmetry_equiv_pos_as_xyz
  1  'x, y, z'
loop_
 _atom_site_type_symbol
 _atom_site_label
 _atom_site_symmetry_multiplicity
 _atom_site_fract_x
 _atom_site_fract_y
 _atom_site_fract_z
 _atom_site_occupancy
  La  La0  1  0.687012  0.500247  0.749846  1
  La  La1  1  0.312988  0.500247  0.249846  1
  Ho  Ho2  1  0.740898  0.999754  0.749971  1
  Ho  Ho3  1  0.259102  0.999754  0.249971  1
  Ho  Ho4  1  0.188381  0.199854  0.923640  1
  Ho  Ho5  1  0.811619  0.199854  0.423640  1
  Er  Er6  1  0.188137  0.799681  0.576708  1
  Er  Er7  1  0.811863  0.799681  0.076708  1
  W  W8  1  0.251805  0.728962  0.884463  1
  W  W9  1  0.748195  0.728962  0.384463  1
  W  W10  1  0.251841  0.271342  0.615587  1
  W  W11  1  0.748159  0.271342  0.115587  1
  O  O12  1  0.037949  0.941960  0.896008  1
  O  O13  1  0.530895  0.846843  0.931483  1
  O  O14  1  0.962051  0.941960  0.396008  1
  O  O15  1  0.454317  0.796545  0.727192  1
  O  O16  1  0.469105  0.846843  0.431483  1
  O  O17  1  0.988647  0.721982  0.768294  1
  O  O18  1  0.545683  0.796545  0.227192  1
  O  O19  1  0.861818  0.644059  0.544421  1
  O  O20  1  0.346594  0.494290  0.888837  1
  O  O21  1  0.011353  0.721982  0.268294  1
  O  O22  1  0.346166  0.506361  0.611271  1
  O  O23  1  0.860746  0.356402  0.955579  1
  O  O24  1  0.138182  0.644059  0.044421  1
  O  O25  1  0.653406  0.494290  0.388837  1
  O  O26  1  0.988063  0.277988  0.731212  1
  O  O27  1  0.653834  0.506361  0.111271  1
  O  O28  1  0.139254  0.356402  0.455579  1
  O  O29  1  0.455034  0.203827  0.772414  1
  O  O30  1  0.011937  0.277988  0.231212  1
  O  O31  1  0.530306  0.152823  0.568875  1
  O  O32  1  0.544966  0.203827  0.272414  1
  O  O33  1  0.039180  0.057080  0.604199  1
  O  O34  1  0.469694  0.152823  0.068875  1
  O  O35  1  0.960820  0.057080  0.104199  1
