# generated using pymatgen
data_Hf3Al2GaNi3
_symmetry_space_group_name_H-M   'P 1'
_cell_length_a   6.84197156
_cell_length_b   6.89647701
_cell_length_c   3.44639300
_cell_angle_alpha   90.00000000
_cell_angle_beta   90.00000000
_cell_angle_gamma   120.26388391
_symmetry_Int_Tables_number   1
_chemical_formula_structural   Hf3Al2GaNi3
_chemical_formula_sum   'Hf3 Al2 Ga1 Ni3'
_cell_volume   140.45688003
_cell_formula_units_Z   1
loop_
 _symmetry_equiv_pos_site_id
 _symmetry_equiv_pos_as_xyz
  1  'x, y, z'
loop_
 _atom_site_type_symbol
 _atom_site_label
 _atom_site_symmetry_multiplicity
 _atom_site_fract_x
 _atom_site_fract_y
 _atom_site_fract_z
 _atom_site_occupancy
  Hf  Hf0  1  0.403711  0.403678  0.500000  1
  Hf  Hf1  1  0.596289  0.999966  0.500000  1
  Hf  Hf2  1  0.000000  0.591995  0.500000  1
  Al  Al3  1  0.749494  0.746289  0.000000  1
  Al  Al4  1  0.250506  0.996795  0.000000  1
  Ga  Ga5  1  0.000000  0.257867  0.000000  1
  Ni  Ni6  1  0.663011  0.333501  0.000000  1
  Ni  Ni7  1  0.336989  0.670491  0.000000  1
  Ni  Ni8  1  0.000000  0.999418  0.500000  1
