# generated using pymatgen
data_RbPr6RuBr12
_symmetry_space_group_name_H-M   'P 1'
_cell_length_a   9.63939701
_cell_length_b   9.63936658
_cell_length_c   9.63948235
_cell_angle_alpha   104.04090699
_cell_angle_beta   104.04084310
_cell_angle_gamma   104.03926788
_symmetry_Int_Tables_number   1
_chemical_formula_structural   RbPr6RuBr12
_chemical_formula_sum   'Rb1 Pr6 Ru1 Br12'
_cell_volume   798.54654678
_cell_formula_units_Z   1
loop_
 _symmetry_equiv_pos_site_id
 _symmetry_equiv_pos_as_xyz
  1  'x, y, z'
loop_
 _atom_site_type_symbol
 _atom_site_label
 _atom_site_symmetry_multiplicity
 _atom_site_fract_x
 _atom_site_fract_y
 _atom_site_fract_z
 _atom_site_occupancy
  Rb  Rb0  1  0.500000  0.500000  0.500000  1
  Pr  Pr1  1  0.098983  0.303561  0.005688  1
  Pr  Pr2  1  0.303569  0.005684  0.098991  1
  Pr  Pr3  1  0.005687  0.098989  0.303560  1
  Pr  Pr4  1  0.994314  0.901011  0.696441  1
  Pr  Pr5  1  0.696431  0.994317  0.901009  1
  Pr  Pr6  1  0.901017  0.696439  0.994312  1
  Ru  Ru7  1  0.000000  0.000000  0.000000  1
  Br  Br8  1  0.215495  0.671148  0.076513  1
  Br  Br9  1  0.421729  0.327205  0.107572  1
  Br  Br10  1  0.671149  0.076508  0.215485  1
  Br  Br11  1  0.923490  0.784509  0.328855  1
  Br  Br12  1  0.107575  0.421738  0.327209  1
  Br  Br13  1  0.327204  0.107566  0.421730  1
  Br  Br14  1  0.672796  0.892434  0.578271  1
  Br  Br15  1  0.892426  0.578262  0.672791  1
  Br  Br16  1  0.076511  0.215491  0.671146  1
  Br  Br17  1  0.328852  0.923493  0.784515  1
  Br  Br18  1  0.578271  0.672795  0.892429  1
  Br  Br19  1  0.784505  0.328852  0.923487  1
