# generated using pymatgen
data_Tm5FeRhO12
_symmetry_space_group_name_H-M   'P 1'
_cell_length_a   6.71196006
_cell_length_b   6.71195951
_cell_length_c   7.19378563
_cell_angle_alpha   74.28974328
_cell_angle_beta   74.28974060
_cell_angle_gamma   51.45016917
_symmetry_Int_Tables_number   1
_chemical_formula_structural   Tm5FeRhO12
_chemical_formula_sum   'Tm5 Fe1 Rh1 O12'
_cell_volume   241.73521541
_cell_formula_units_Z   1
loop_
 _symmetry_equiv_pos_site_id
 _symmetry_equiv_pos_as_xyz
  1  'x, y, z'
loop_
 _atom_site_type_symbol
 _atom_site_label
 _atom_site_symmetry_multiplicity
 _atom_site_fract_x
 _atom_site_fract_y
 _atom_site_fract_z
 _atom_site_occupancy
  Tm  Tm0  1  0.805873  0.801047  0.360210  1
  Tm  Tm1  1  0.198953  0.194127  0.639790  1
  Tm  Tm2  1  0.188945  0.190139  0.172525  1
  Tm  Tm3  1  0.809861  0.811055  0.827475  1
  Tm  Tm4  1  0.502885  0.497115  0.500000  1
  Fe  Fe5  1  0.252283  0.747717  0.000000  1
  Rh  Rh6  1  0.740997  0.259003  0.000000  1
  O  O7  1  0.400522  0.923411  0.917824  1
  O  O8  1  0.076589  0.599478  0.082176  1
  O  O9  1  0.596591  0.067442  0.083718  1
  O  O10  1  0.932558  0.403409  0.916282  1
  O  O11  1  0.596819  0.095386  0.575599  1
  O  O12  1  0.904614  0.403181  0.424401  1
  O  O13  1  0.403435  0.901978  0.425636  1
  O  O14  1  0.995741  0.005169  0.807486  1
  O  O15  1  0.994831  0.004259  0.192514  1
  O  O16  1  0.500462  0.499982  0.811551  1
  O  O17  1  0.500018  0.499538  0.188449  1
  O  O18  1  0.098022  0.596565  0.574364  1
