# generated using pymatgen
data_Nb3Tc(PN3)4
_symmetry_space_group_name_H-M   'P 1'
_cell_length_a   6.59545938
_cell_length_b   6.59545841
_cell_length_c   4.97453785
_cell_angle_alpha   81.90210079
_cell_angle_beta   81.90211008
_cell_angle_gamma   83.37602317
_symmetry_Int_Tables_number   1
_chemical_formula_structural   Nb3Tc(PN3)4
_chemical_formula_sum   'Nb3 Tc1 P4 N12'
_cell_volume   211.08955667
_cell_formula_units_Z   1
loop_
 _symmetry_equiv_pos_site_id
 _symmetry_equiv_pos_as_xyz
  1  'x, y, z'
loop_
 _atom_site_type_symbol
 _atom_site_label
 _atom_site_symmetry_multiplicity
 _atom_site_fract_x
 _atom_site_fract_y
 _atom_site_fract_z
 _atom_site_occupancy
  Nb  Nb0  1  0.750940  0.249060  0.750000  1
  Nb  Nb1  1  0.921462  0.078538  0.250000  1
  Nb  Nb2  1  0.263188  0.736812  0.250000  1
  Tc  Tc3  1  0.073879  0.926121  0.750000  1
  P  P4  1  0.228068  0.398107  0.797922  1
  P  P5  1  0.393948  0.226158  0.299966  1
  P  P6  1  0.773842  0.606052  0.200034  1
  P  P7  1  0.601893  0.771932  0.702078  1
  N  N8  1  0.293416  0.427550  0.101404  1
  N  N9  1  0.046959  0.232301  0.861044  1
  N  N10  1  0.956337  0.772937  0.145453  1
  N  N11  1  0.423892  0.290918  0.599741  1
  N  N12  1  0.612119  0.153247  0.129740  1
  N  N13  1  0.383181  0.846173  0.864775  1
  N  N14  1  0.846753  0.387881  0.370260  1
  N  N15  1  0.709082  0.576108  0.900259  1
  N  N16  1  0.767699  0.953041  0.638956  1
  N  N17  1  0.153827  0.616819  0.635225  1
  N  N18  1  0.227063  0.043663  0.354547  1
  N  N19  1  0.572450  0.706584  0.398596  1
