# generated using pymatgen
data_Y7Th(CdPt)2
_symmetry_space_group_name_H-M   'P 1'
_cell_length_a   9.78942733
_cell_length_b   9.78942790
_cell_length_c   9.77494442
_cell_angle_alpha   60.07647441
_cell_angle_beta   60.07647247
_cell_angle_gamma   60.02236959
_symmetry_Int_Tables_number   1
_chemical_formula_structural   Y7Th(CdPt)2
_chemical_formula_sum   'Y14 Th2 Cd4 Pt4'
_cell_volume   663.26711821
_cell_formula_units_Z   2
loop_
 _symmetry_equiv_pos_site_id
 _symmetry_equiv_pos_as_xyz
  1  'x, y, z'
loop_
 _atom_site_type_symbol
 _atom_site_label
 _atom_site_symmetry_multiplicity
 _atom_site_fract_x
 _atom_site_fract_y
 _atom_site_fract_z
 _atom_site_occupancy
  Y  Y0  1  0.353540  0.939930  0.353909  1
  Y  Y1  1  0.939930  0.353540  0.353909  1
  Y  Y2  1  0.810941  0.190534  0.190010  1
  Y  Y3  1  0.190497  0.811332  0.809661  1
  Y  Y4  1  0.190534  0.810941  0.190010  1
  Y  Y5  1  0.811332  0.190497  0.809661  1
  Y  Y6  1  0.188668  0.188668  0.812283  1
  Y  Y7  1  0.809830  0.809830  0.190604  1
  Y  Y8  1  0.936104  0.565605  0.565792  1
  Y  Y9  1  0.564696  0.935925  0.933550  1
  Y  Y10  1  0.565605  0.936104  0.565792  1
  Y  Y11  1  0.935925  0.564696  0.933550  1
  Y  Y12  1  0.566296  0.566296  0.933833  1
  Y  Y13  1  0.935898  0.935898  0.563223  1
  Th  Th14  1  0.349255  0.349255  0.352491  1
  Th  Th15  1  0.350235  0.350235  0.945629  1
  Cd  Cd16  1  0.583293  0.583293  0.580771  1
  Cd  Cd17  1  0.582871  0.582871  0.253124  1
  Cd  Cd18  1  0.584174  0.251268  0.581812  1
  Cd  Cd19  1  0.251268  0.584174  0.581812  1
  Pt  Pt20  1  0.143020  0.143020  0.144068  1
  Pt  Pt21  1  0.141869  0.141869  0.570033  1
  Pt  Pt22  1  0.144147  0.570072  0.142235  1
  Pt  Pt23  1  0.570072  0.144147  0.142235  1
