# generated using pymatgen
data_Yb16DyPa3Pt16
_symmetry_space_group_name_H-M   'P 1'
_cell_length_a   7.51976401
_cell_length_b   7.59210498
_cell_length_c   14.58113232
_cell_angle_alpha   90.15797144
_cell_angle_beta   89.93729915
_cell_angle_gamma   89.94568399
_symmetry_Int_Tables_number   1
_chemical_formula_structural   Yb16DyPa3Pt16
_chemical_formula_sum   'Yb16 Dy1 Pa3 Pt16'
_cell_volume   832.44502227
_cell_formula_units_Z   1
loop_
 _symmetry_equiv_pos_site_id
 _symmetry_equiv_pos_as_xyz
  1  'x, y, z'
loop_
 _atom_site_type_symbol
 _atom_site_label
 _atom_site_symmetry_multiplicity
 _atom_site_fract_x
 _atom_site_fract_y
 _atom_site_fract_z
 _atom_site_occupancy
  Yb  Yb0  1  0.357062  0.834905  0.379229  1
  Yb  Yb1  1  0.858345  0.663461  0.121009  1
  Yb  Yb2  1  0.639706  0.165539  0.879944  1
  Yb  Yb3  1  0.141369  0.332554  0.620708  1
  Yb  Yb4  1  0.486047  0.672680  0.592636  1
  Yb  Yb5  1  0.985284  0.824897  0.906648  1
  Yb  Yb6  1  0.515267  0.325470  0.096241  1
  Yb  Yb7  1  0.012914  0.181785  0.405023  1
  Yb  Yb8  1  0.511350  0.321320  0.402962  1
  Yb  Yb9  1  0.003965  0.182125  0.098146  1
  Yb  Yb10  1  0.493945  0.683532  0.903472  1
  Yb  Yb11  1  0.993020  0.813987  0.593473  1
  Yb  Yb12  1  0.802047  0.511660  0.749296  1
  Yb  Yb13  1  0.301521  0.985302  0.750223  1
  Yb  Yb14  1  0.191800  0.489257  0.251149  1
  Yb  Yb15  1  0.700737  0.008835  0.251716  1
  Dy  Dy16  1  0.857897  0.659784  0.377049  1
  Pa  Pa17  1  0.645045  0.154596  0.623860  1
  Pa  Pa18  1  0.145981  0.344105  0.876772  1
  Pa  Pa19  1  0.353017  0.844656  0.123779  1
  Pt  Pt20  1  0.703147  0.966409  0.464524  1
  Pt  Pt21  1  0.207993  0.547160  0.036402  1
  Pt  Pt22  1  0.290534  0.048542  0.964124  1
  Pt  Pt23  1  0.795391  0.445317  0.541567  1
  Pt  Pt24  1  0.329610  0.035377  0.546391  1
  Pt  Pt25  1  0.833171  0.461465  0.954181  1
  Pt  Pt26  1  0.663940  0.957951  0.044929  1
  Pt  Pt27  1  0.178058  0.533213  0.456490  1
  Pt  Pt28  1  0.442530  0.370068  0.744156  1
  Pt  Pt29  1  0.943835  0.129134  0.758091  1
  Pt  Pt30  1  0.551127  0.628454  0.240692  1
  Pt  Pt31  1  0.065619  0.876247  0.248296  1
  Pt  Pt32  1  0.676729  0.871691  0.741676  1
  Pt  Pt33  1  0.173527  0.626977  0.757835  1
  Pt  Pt34  1  0.333666  0.132955  0.243952  1
  Pt  Pt35  1  0.814806  0.368590  0.253362  1
