# generated using pymatgen
data_Er2LuSn3RuPt2
_symmetry_space_group_name_H-M   'P 1'
_cell_length_a   7.70283996
_cell_length_b   7.72076457
_cell_length_c   3.69067300
_cell_angle_alpha   90.00000000
_cell_angle_beta   90.00000000
_cell_angle_gamma   120.07698994
_symmetry_Int_Tables_number   1
_chemical_formula_structural   Er2LuSn3RuPt2
_chemical_formula_sum   'Er2 Lu1 Sn3 Ru1 Pt2'
_cell_volume   189.93715750
_cell_formula_units_Z   1
loop_
 _symmetry_equiv_pos_site_id
 _symmetry_equiv_pos_as_xyz
  1  'x, y, z'
loop_
 _atom_site_type_symbol
 _atom_site_label
 _atom_site_symmetry_multiplicity
 _atom_site_fract_x
 _atom_site_fract_y
 _atom_site_fract_z
 _atom_site_occupancy
  Er  Er0  1  0.398533  0.398229  0.500000  1
  Er  Er1  1  0.601467  0.999697  0.500000  1
  Lu  Lu2  1  0.000000  0.602172  0.500000  1
  Sn  Sn3  1  0.736260  0.735157  0.000000  1
  Sn  Sn4  1  0.263740  0.998898  0.000000  1
  Sn  Sn5  1  0.000000  0.264955  0.000000  1
  Ru  Ru6  1  0.000000  0.999478  0.500000  1
  Pt  Pt7  1  0.669670  0.335542  0.000000  1
  Pt  Pt8  1  0.330330  0.665873  0.000000  1
