# generated using pymatgen
data_Na(BIr)4
_symmetry_space_group_name_H-M   'P 1'
_cell_length_a   7.57882700
_cell_length_b   7.57882700
_cell_length_c   3.99718700
_cell_angle_alpha   90.00000000
_cell_angle_beta   90.00000000
_cell_angle_gamma   90.00000000
_symmetry_Int_Tables_number   1
_chemical_formula_structural   Na(BIr)4
_chemical_formula_sum   'Na2 B8 Ir8'
_cell_volume   229.59289995
_cell_formula_units_Z   2
loop_
 _symmetry_equiv_pos_site_id
 _symmetry_equiv_pos_as_xyz
  1  'x, y, z'
loop_
 _atom_site_type_symbol
 _atom_site_label
 _atom_site_symmetry_multiplicity
 _atom_site_fract_x
 _atom_site_fract_y
 _atom_site_fract_z
 _atom_site_occupancy
  Na  Na0  1  0.500000  0.500000  0.000000  1
  Na  Na1  1  0.000000  0.000000  0.500000  1
  B  B2  1  0.656745  0.778573  0.612365  1
  B  B3  1  0.156745  0.278573  0.887635  1
  B  B4  1  0.278573  0.843255  0.112365  1
  B  B5  1  0.721427  0.156745  0.112365  1
  B  B6  1  0.343255  0.221427  0.612365  1
  B  B7  1  0.843255  0.721427  0.887635  1
  B  B8  1  0.221427  0.656745  0.387635  1
  B  B9  1  0.778573  0.343255  0.387635  1
  Ir  Ir10  1  0.350017  0.114096  0.111133  1
  Ir  Ir11  1  0.649983  0.885904  0.111133  1
  Ir  Ir12  1  0.614096  0.149983  0.611133  1
  Ir  Ir13  1  0.114096  0.649983  0.888867  1
  Ir  Ir14  1  0.149983  0.385904  0.388867  1
  Ir  Ir15  1  0.850017  0.614096  0.388867  1
  Ir  Ir16  1  0.885904  0.350017  0.888867  1
  Ir  Ir17  1  0.385904  0.850017  0.611133  1
