# generated using pymatgen
data_Er2TmSc3(B2Ir5)2
_symmetry_space_group_name_H-M   'P 1'
_cell_length_a   3.14598200
_cell_length_b   9.71306243
_cell_length_c   9.71306089
_cell_angle_alpha   89.46457975
_cell_angle_beta   90.00000000
_cell_angle_gamma   90.00000000
_symmetry_Int_Tables_number   1
_chemical_formula_structural   Er2TmSc3(B2Ir5)2
_chemical_formula_sum   'Er2 Tm1 Sc3 B4 Ir10'
_cell_volume   296.79020363
_cell_formula_units_Z   1
loop_
 _symmetry_equiv_pos_site_id
 _symmetry_equiv_pos_as_xyz
  1  'x, y, z'
loop_
 _atom_site_type_symbol
 _atom_site_label
 _atom_site_symmetry_multiplicity
 _atom_site_fract_x
 _atom_site_fract_y
 _atom_site_fract_z
 _atom_site_occupancy
  Er  Er0  1  0.000000  0.176757  0.678051  1
  Er  Er1  1  0.000000  0.821949  0.323243  1
  Tm  Tm2  1  0.000000  0.324018  0.175982  1
  Sc  Sc3  1  0.000000  0.676911  0.823089  1
  Sc  Sc4  1  0.000000  0.000867  0.000025  1
  Sc  Sc5  1  0.000000  0.499975  0.499133  1
  B  B6  1  0.000000  0.622256  0.117187  1
  B  B7  1  0.000000  0.382813  0.877744  1
  B  B8  1  0.000000  0.876511  0.623489  1
  B  B9  1  0.000000  0.119192  0.380808  1
  Ir  Ir10  1  0.500000  0.069223  0.225321  1
  Ir  Ir11  1  0.500000  0.924774  0.778714  1
  Ir  Ir12  1  0.500000  0.775740  0.064799  1
  Ir  Ir13  1  0.500000  0.435201  0.724260  1
  Ir  Ir14  1  0.500000  0.227170  0.931196  1
  Ir  Ir15  1  0.500000  0.568804  0.272830  1
  Ir  Ir16  1  0.500000  0.721286  0.575226  1
  Ir  Ir17  1  0.500000  0.274679  0.430777  1
  Ir  Ir18  1  0.500000  0.997773  0.502227  1
  Ir  Ir19  1  0.500000  0.504099  0.995901  1
