# generated using pymatgen
data_CeDy8Ho3Co4
_symmetry_space_group_name_H-M   'P 1'
_cell_length_a   6.23569756
_cell_length_b   6.88949240
_cell_length_c   9.48514732
_cell_angle_alpha   90.02971111
_cell_angle_beta   89.82444738
_cell_angle_gamma   92.04672736
_symmetry_Int_Tables_number   1
_chemical_formula_structural   CeDy8Ho3Co4
_chemical_formula_sum   'Ce1 Dy8 Ho3 Co4'
_cell_volume   407.22752007
_cell_formula_units_Z   1
loop_
 _symmetry_equiv_pos_site_id
 _symmetry_equiv_pos_as_xyz
  1  'x, y, z'
loop_
 _atom_site_type_symbol
 _atom_site_label
 _atom_site_symmetry_multiplicity
 _atom_site_fract_x
 _atom_site_fract_y
 _atom_site_fract_z
 _atom_site_occupancy
  Ce  Ce0  1  0.350552  0.560749  0.249653  1
  Dy  Dy1  1  0.672686  0.174818  0.069923  1
  Dy  Dy2  1  0.138274  0.045239  0.249881  1
  Dy  Dy3  1  0.826170  0.673220  0.434485  1
  Dy  Dy4  1  0.324627  0.827528  0.930591  1
  Dy  Dy5  1  0.178249  0.326443  0.567961  1
  Dy  Dy6  1  0.672558  0.174662  0.429976  1
  Dy  Dy7  1  0.858703  0.957261  0.750060  1
  Dy  Dy8  1  0.644850  0.454756  0.750355  1
  Ho  Ho9  1  0.177509  0.326301  0.932512  1
  Ho  Ho10  1  0.325138  0.827618  0.569455  1
  Ho  Ho11  1  0.826565  0.673547  0.065380  1
  Co  Co12  1  0.982074  0.397583  0.248364  1
  Co  Co13  1  0.446391  0.113059  0.749728  1
  Co  Co14  1  0.529708  0.855037  0.250995  1
  Co  Co15  1  0.045944  0.612178  0.750681  1
