# generated using pymatgen
data_Gd7Y(BeSi3)4
_symmetry_space_group_name_H-M   'P 1'
_cell_length_a   7.86410200
_cell_length_b   7.86460506
_cell_length_c   8.12965700
_cell_angle_alpha   90.00000000
_cell_angle_beta   90.00000000
_cell_angle_gamma   120.00212389
_symmetry_Int_Tables_number   1
_chemical_formula_structural   Gd7Y(BeSi3)4
_chemical_formula_sum   'Gd7 Y1 Be4 Si12'
_cell_volume   435.43127108
_cell_formula_units_Z   1
loop_
 _symmetry_equiv_pos_site_id
 _symmetry_equiv_pos_as_xyz
  1  'x, y, z'
loop_
 _atom_site_type_symbol
 _atom_site_label
 _atom_site_symmetry_multiplicity
 _atom_site_fract_x
 _atom_site_fract_y
 _atom_site_fract_z
 _atom_site_occupancy
  Gd  Gd0  1  0.999937  0.999969  0.250000  1
  Gd  Gd1  1  0.999970  0.999985  0.750000  1
  Gd  Gd2  1  0.999056  0.499527  0.250000  1
  Gd  Gd3  1  0.500417  0.499666  0.250000  1
  Gd  Gd4  1  0.499655  0.999251  0.750000  1
  Gd  Gd5  1  0.500417  0.000750  0.250000  1
  Gd  Gd6  1  0.499655  0.500404  0.750000  1
  Y  Y7  1  0.000655  0.500328  0.750000  1
  Be  Be8  1  0.333192  0.666596  0.999015  1
  Be  Be9  1  0.333192  0.666596  0.500985  1
  Be  Be10  1  0.666836  0.333418  0.000607  1
  Be  Be11  1  0.666836  0.333418  0.499393  1
  Si  Si12  1  0.172479  0.344974  0.999964  1
  Si  Si13  1  0.655080  0.827540  0.999899  1
  Si  Si14  1  0.172479  0.344974  0.500036  1
  Si  Si15  1  0.344948  0.172475  0.999861  1
  Si  Si16  1  0.172479  0.827506  0.999964  1
  Si  Si17  1  0.655080  0.827540  0.500101  1
  Si  Si18  1  0.827552  0.655051  0.999927  1
  Si  Si19  1  0.344948  0.172475  0.500139  1
  Si  Si20  1  0.172479  0.827506  0.500036  1
  Si  Si21  1  0.827552  0.655051  0.500073  1
  Si  Si22  1  0.827552  0.172500  0.999927  1
  Si  Si23  1  0.827552  0.172500  0.500073  1
