# generated using pymatgen
data_Hf18V3Ni2Os5
_symmetry_space_group_name_H-M   'P 1'
_cell_length_a   8.63934700
_cell_length_b   8.63935088
_cell_length_c   8.34642500
_cell_angle_alpha   90.00000000
_cell_angle_beta   90.00000000
_cell_angle_gamma   120.11490909
_symmetry_Int_Tables_number   1
_chemical_formula_structural   Hf18V3Ni2Os5
_chemical_formula_sum   'Hf18 V3 Ni2 Os5'
_cell_volume   538.87634809
_cell_formula_units_Z   1
loop_
 _symmetry_equiv_pos_site_id
 _symmetry_equiv_pos_as_xyz
  1  'x, y, z'
loop_
 _atom_site_type_symbol
 _atom_site_label
 _atom_site_symmetry_multiplicity
 _atom_site_fract_x
 _atom_site_fract_y
 _atom_site_fract_z
 _atom_site_occupancy
  Hf  Hf0  1  0.196579  0.803422  0.442517  1
  Hf  Hf1  1  0.195364  0.392192  0.443497  1
  Hf  Hf2  1  0.607804  0.804635  0.443495  1
  Hf  Hf3  1  0.803345  0.196654  0.556312  1
  Hf  Hf4  1  0.803678  0.607301  0.557174  1
  Hf  Hf5  1  0.392699  0.196323  0.557175  1
  Hf  Hf6  1  0.803345  0.196654  0.943688  1
  Hf  Hf7  1  0.803678  0.607301  0.942826  1
  Hf  Hf8  1  0.392699  0.196323  0.942825  1
  Hf  Hf9  1  0.196579  0.803422  0.057483  1
  Hf  Hf10  1  0.195364  0.392192  0.056503  1
  Hf  Hf11  1  0.607804  0.804635  0.056505  1
  Hf  Hf12  1  0.542193  0.457809  0.250000  1
  Hf  Hf13  1  0.545786  0.084143  0.250000  1
  Hf  Hf14  1  0.915856  0.454213  0.250000  1
  Hf  Hf15  1  0.457914  0.542087  0.750000  1
  Hf  Hf16  1  0.457011  0.915797  0.750000  1
  Hf  Hf17  1  0.084202  0.542990  0.750000  1
  V  V18  1  0.890043  0.109955  0.250000  1
  V  V19  1  0.999833  0.000169  0.496562  1
  V  V20  1  0.999833  0.000169  0.003438  1
  Ni  Ni21  1  0.333068  0.666933  0.250000  1
  Ni  Ni22  1  0.666073  0.333927  0.750000  1
  Os  Os23  1  0.888811  0.780768  0.250000  1
  Os  Os24  1  0.219233  0.111190  0.250000  1
  Os  Os25  1  0.109571  0.890429  0.750000  1
  Os  Os26  1  0.110849  0.219214  0.750000  1
  Os  Os27  1  0.780786  0.889151  0.750000  1
