# generated using pymatgen
data_Y5Ho15CoBi8Os3
_symmetry_space_group_name_H-M   'P 1'
_cell_length_a   7.96502574
_cell_length_b   8.99607700
_cell_length_c   12.46536708
_cell_angle_alpha   90.00000000
_cell_angle_beta   89.73293179
_cell_angle_gamma   90.00000000
_symmetry_Int_Tables_number   1
_chemical_formula_structural   Y5Ho15CoBi8Os3
_chemical_formula_sum   'Y5 Ho15 Co1 Bi8 Os3'
_cell_volume   893.18352107
_cell_formula_units_Z   1
loop_
 _symmetry_equiv_pos_site_id
 _symmetry_equiv_pos_as_xyz
  1  'x, y, z'
loop_
 _atom_site_type_symbol
 _atom_site_label
 _atom_site_symmetry_multiplicity
 _atom_site_fract_x
 _atom_site_fract_y
 _atom_site_fract_z
 _atom_site_occupancy
  Y  Y0  1  0.344106  0.750000  0.703001  1
  Y  Y1  1  0.156784  0.750000  0.207308  1
  Y  Y2  1  0.877831  0.750000  0.805140  1
  Y  Y3  1  0.618214  0.750000  0.311646  1
  Y  Y4  1  0.055504  0.750000  0.496801  1
  Ho  Ho5  1  0.658313  0.250000  0.292657  1
  Ho  Ho6  1  0.842204  0.250000  0.791528  1
  Ho  Ho7  1  0.119700  0.250000  0.193198  1
  Ho  Ho8  1  0.378767  0.250000  0.692551  1
  Ho  Ho9  1  0.673935  0.541336  0.563683  1
  Ho  Ho10  1  0.325932  0.459735  0.436947  1
  Ho  Ho11  1  0.174077  0.457487  0.936296  1
  Ho  Ho12  1  0.325932  0.040265  0.436947  1
  Ho  Ho13  1  0.825121  0.543034  0.064007  1
  Ho  Ho14  1  0.673935  0.958664  0.563683  1
  Ho  Ho15  1  0.825121  0.956966  0.064007  1
  Ho  Ho16  1  0.174077  0.042513  0.936296  1
  Ho  Ho17  1  0.944295  0.250000  0.503046  1
  Ho  Ho18  1  0.559256  0.250000  0.003660  1
  Ho  Ho19  1  0.441733  0.750000  0.995733  1
  Co  Co20  1  0.430679  0.750000  0.491496  1
  Bi  Bi21  1  0.569479  0.507820  0.827701  1
  Bi  Bi22  1  0.430224  0.491707  0.172700  1
  Bi  Bi23  1  0.070993  0.491256  0.671754  1
  Bi  Bi24  1  0.430224  0.008293  0.172700  1
  Bi  Bi25  1  0.929748  0.508043  0.328521  1
  Bi  Bi26  1  0.569479  0.992180  0.827701  1
  Bi  Bi27  1  0.929748  0.991957  0.328521  1
  Bi  Bi28  1  0.070993  0.008744  0.671754  1
  Os  Os29  1  0.075902  0.750000  0.988855  1
  Os  Os30  1  0.923818  0.250000  0.010142  1
  Os  Os31  1  0.573876  0.250000  0.510025  1
