# generated using pymatgen
data_Tm16MgIn2HgRh4
_symmetry_space_group_name_H-M   'P 1'
_cell_length_a   9.54535446
_cell_length_b   9.52505351
_cell_length_c   9.52505238
_cell_angle_alpha   59.72440959
_cell_angle_beta   59.93784524
_cell_angle_gamma   59.93784461
_symmetry_Int_Tables_number   1
_chemical_formula_structural   Tm16MgIn2HgRh4
_chemical_formula_sum   'Tm16 Mg1 In2 Hg1 Rh4'
_cell_volume   610.50917870
_cell_formula_units_Z   1
loop_
 _symmetry_equiv_pos_site_id
 _symmetry_equiv_pos_as_xyz
  1  'x, y, z'
loop_
 _atom_site_type_symbol
 _atom_site_label
 _atom_site_symmetry_multiplicity
 _atom_site_fract_x
 _atom_site_fract_y
 _atom_site_fract_z
 _atom_site_occupancy
  Tm  Tm0  1  0.062287  0.062775  0.437384  1
  Tm  Tm1  1  0.435536  0.066169  0.436754  1
  Tm  Tm2  1  0.062287  0.437384  0.062775  1
  Tm  Tm3  1  0.053846  0.647814  0.647814  1
  Tm  Tm4  1  0.435536  0.436754  0.066169  1
  Tm  Tm5  1  0.647933  0.049042  0.650120  1
  Tm  Tm6  1  0.190398  0.811187  0.189496  1
  Tm  Tm7  1  0.190398  0.189496  0.811187  1
  Tm  Tm8  1  0.811536  0.811554  0.189744  1
  Tm  Tm9  1  0.437879  0.062671  0.062671  1
  Tm  Tm10  1  0.816262  0.186658  0.186658  1
  Tm  Tm11  1  0.064126  0.436309  0.436309  1
  Tm  Tm12  1  0.811536  0.189744  0.811554  1
  Tm  Tm13  1  0.191957  0.809241  0.809241  1
  Tm  Tm14  1  0.647933  0.650120  0.049042  1
  Tm  Tm15  1  0.651428  0.652919  0.652919  1
  Mg  Mg16  1  0.730961  0.422650  0.422650  1
  In  In17  1  0.418457  0.747859  0.417237  1
  In  In18  1  0.418457  0.417237  0.747859  1
  Hg  Hg19  1  0.417247  0.413034  0.413034  1
  Rh  Rh20  1  0.859587  0.856811  0.427807  1
  Rh  Rh21  1  0.858451  0.856281  0.856281  1
  Rh  Rh22  1  0.426375  0.858479  0.858479  1
  Rh  Rh23  1  0.859587  0.427807  0.856811  1
