# generated using pymatgen
data_Dy6AlCuTc
_symmetry_space_group_name_H-M   'P 1'
_cell_length_a   8.45107422
_cell_length_b   8.45107482
_cell_length_c   8.45107400
_cell_angle_alpha   104.18822295
_cell_angle_beta   110.95844408
_cell_angle_gamma   113.40332018
_symmetry_Int_Tables_number   1
_chemical_formula_structural   Dy6AlCuTc
_chemical_formula_sum   'Dy12 Al2 Cu2 Tc2'
_cell_volume   461.47849814
_cell_formula_units_Z   2
loop_
 _symmetry_equiv_pos_site_id
 _symmetry_equiv_pos_as_xyz
  1  'x, y, z'
loop_
 _atom_site_type_symbol
 _atom_site_label
 _atom_site_symmetry_multiplicity
 _atom_site_fract_x
 _atom_site_fract_y
 _atom_site_fract_z
 _atom_site_occupancy
  Dy  Dy0  1  0.691933  0.259200  0.951132  1
  Dy  Dy1  1  0.308067  0.740800  0.048868  1
  Dy  Dy2  1  0.691933  0.740800  0.432734  1
  Dy  Dy3  1  0.308067  0.259200  0.567266  1
  Dy  Dy4  1  0.811436  0.147627  0.336191  1
  Dy  Dy5  1  0.811436  0.475246  0.663809  1
  Dy  Dy6  1  0.188564  0.852373  0.663809  1
  Dy  Dy7  1  0.188564  0.524754  0.336191  1
  Dy  Dy8  1  0.593380  0.776404  0.816975  1
  Dy  Dy9  1  0.959428  0.776404  0.183025  1
  Dy  Dy10  1  0.040572  0.223596  0.816975  1
  Dy  Dy11  1  0.406620  0.223596  0.183025  1
  Al  Al12  1  0.500000  0.500000  0.000000  1
  Al  Al13  1  0.500000  0.000000  0.500000  1
  Cu  Cu14  1  0.000000  0.118909  0.118909  1
  Cu  Cu15  1  0.000000  0.881091  0.881091  1
  Tc  Tc16  1  0.821180  0.500000  0.321180  1
  Tc  Tc17  1  0.178820  0.500000  0.678820  1
