# generated using pymatgen
data_Tb5Ho15(Bi5Sb)2
_symmetry_space_group_name_H-M   'P 1'
_cell_length_a   8.21412635
_cell_length_b   9.48604214
_cell_length_c   12.00666315
_cell_angle_alpha   89.99085481
_cell_angle_beta   90.02360027
_cell_angle_gamma   90.00884344
_symmetry_Int_Tables_number   1
_chemical_formula_structural   Tb5Ho15(Bi5Sb)2
_chemical_formula_sum   'Tb5 Ho15 Bi10 Sb2'
_cell_volume   935.55367160
_cell_formula_units_Z   1
loop_
 _symmetry_equiv_pos_site_id
 _symmetry_equiv_pos_as_xyz
  1  'x, y, z'
loop_
 _atom_site_type_symbol
 _atom_site_label
 _atom_site_symmetry_multiplicity
 _atom_site_fract_x
 _atom_site_fract_y
 _atom_site_fract_z
 _atom_site_occupancy
  Tb  Tb0  1  0.190403  0.565261  0.441978  1
  Tb  Tb1  1  0.313030  0.250022  0.219077  1
  Tb  Tb2  1  0.813255  0.249992  0.280872  1
  Tb  Tb3  1  0.684773  0.750067  0.781821  1
  Tb  Tb4  1  0.184778  0.750235  0.718466  1
  Ho  Ho5  1  0.353783  0.750279  0.213291  1
  Ho  Ho6  1  0.853102  0.750266  0.286399  1
  Ho  Ho7  1  0.647589  0.250076  0.783767  1
  Ho  Ho8  1  0.147671  0.250237  0.716247  1
  Ho  Ho9  1  0.690588  0.566186  0.057991  1
  Ho  Ho10  1  0.190564  0.933726  0.441900  1
  Ho  Ho11  1  0.307974  0.060673  0.941218  1
  Ho  Ho12  1  0.808268  0.439247  0.558783  1
  Ho  Ho13  1  0.308080  0.439284  0.941158  1
  Ho  Ho14  1  0.807649  0.060609  0.558992  1
  Ho  Ho15  1  0.690665  0.933849  0.057930  1
  Ho  Ho16  1  0.475461  0.250063  0.488166  1
  Ho  Ho17  1  0.975346  0.250128  0.011721  1
  Ho  Ho18  1  0.528655  0.750080  0.512281  1
  Ho  Ho19  1  0.028453  0.750014  0.987776  1
  Bi  Bi20  1  0.593036  0.250005  0.041833  1
  Bi  Bi21  1  0.092605  0.248553  0.458372  1
  Bi  Bi22  1  0.565409  0.994897  0.325789  1
  Bi  Bi23  1  0.065235  0.505329  0.173956  1
  Bi  Bi24  1  0.434394  0.494853  0.674348  1
  Bi  Bi25  1  0.934317  0.005335  0.825908  1
  Bi  Bi26  1  0.434383  0.005319  0.674160  1
  Bi  Bi27  1  0.934200  0.494849  0.825911  1
  Bi  Bi28  1  0.565806  0.505292  0.325676  1
  Bi  Bi29  1  0.065362  0.994831  0.174050  1
  Sb  Sb30  1  0.407779  0.749978  0.959202  1
  Sb  Sb31  1  0.907387  0.750467  0.540961  1
