# generated using pymatgen
data_Nd10Al7Si11Au2
_symmetry_space_group_name_H-M   'P 1'
_cell_length_a   4.12691722
_cell_length_b   4.32150500
_cell_length_c   36.67700597
_cell_angle_alpha   86.62256896
_cell_angle_beta   86.77482575
_cell_angle_gamma   90.00000662
_symmetry_Int_Tables_number   1
_chemical_formula_structural   Nd10Al7Si11Au2
_chemical_formula_sum   'Nd10 Al7 Si11 Au2'
_cell_volume   651.94186267
_cell_formula_units_Z   1
loop_
 _symmetry_equiv_pos_site_id
 _symmetry_equiv_pos_as_xyz
  1  'x, y, z'
loop_
 _atom_site_type_symbol
 _atom_site_label
 _atom_site_symmetry_multiplicity
 _atom_site_fract_x
 _atom_site_fract_y
 _atom_site_fract_z
 _atom_site_occupancy
  Nd  Nd0  1  0.950371  0.450371  0.099259  1
  Nd  Nd1  1  0.350040  0.850040  0.299921  1
  Nd  Nd2  1  0.750181  0.250181  0.499638  1
  Nd  Nd3  1  0.148151  0.648151  0.703698  1
  Nd  Nd4  1  0.546317  0.046317  0.907367  1
  Nd  Nd5  1  0.000560  0.000560  0.998880  1
  Nd  Nd6  1  0.400415  0.400415  0.199169  1
  Nd  Nd7  1  0.800420  0.800420  0.399161  1
  Nd  Nd8  1  0.203187  0.203187  0.593625  1
  Nd  Nd9  1  0.602194  0.602194  0.795611  1
  Al  Al10  1  0.467576  0.967576  0.064849  1
  Al  Al11  1  0.867284  0.367284  0.265431  1
  Al  Al12  1  0.267418  0.767418  0.465165  1
  Al  Al13  1  0.667431  0.167431  0.665139  1
  Al  Al14  1  0.065923  0.565923  0.868154  1
  Al  Al15  1  0.916825  0.916825  0.166351  1
  Al  Al16  1  0.316710  0.316710  0.366581  1
  Si  Si17  1  0.717857  0.717857  0.564285  1
  Si  Si18  1  0.116618  0.116618  0.766764  1
  Si  Si19  1  0.515785  0.515785  0.968429  1
  Si  Si20  1  0.434284  0.934284  0.131431  1
  Si  Si21  1  0.834049  0.334049  0.331904  1
  Si  Si22  1  0.234277  0.734277  0.531446  1
  Si  Si23  1  0.633608  0.133608  0.732782  1
  Si  Si24  1  0.032267  0.532267  0.935468  1
  Si  Si25  1  0.483525  0.483525  0.032950  1
  Si  Si26  1  0.883516  0.883516  0.232968  1
  Si  Si27  1  0.283492  0.283492  0.433015  1
  Au  Au28  1  0.684197  0.684197  0.631606  1
  Au  Au29  1  0.082723  0.082723  0.834554  1
