# generated using pymatgen
data_YbDyY2Ni13C4
_symmetry_space_group_name_H-M   'P 1'
_cell_length_a   8.35171034
_cell_length_b   8.35171115
_cell_length_c   3.84836000
_cell_angle_alpha   90.00000000
_cell_angle_beta   90.00000000
_cell_angle_gamma   91.11681830
_symmetry_Int_Tables_number   1
_chemical_formula_structural   YbDyY2Ni13C4
_chemical_formula_sum   'Yb1 Dy1 Y2 Ni13 C4'
_cell_volume   268.37624482
_cell_formula_units_Z   1
loop_
 _symmetry_equiv_pos_site_id
 _symmetry_equiv_pos_as_xyz
  1  'x, y, z'
loop_
 _atom_site_type_symbol
 _atom_site_label
 _atom_site_symmetry_multiplicity
 _atom_site_fract_x
 _atom_site_fract_y
 _atom_site_fract_z
 _atom_site_occupancy
  Yb  Yb0  1  0.191881  0.808119  0.500000  1
  Dy  Dy1  1  0.813169  0.186831  0.500000  1
  Y  Y2  1  0.346242  0.349249  0.500000  1
  Y  Y3  1  0.650751  0.653758  0.500000  1
  Ni  Ni4  1  0.000886  0.999114  0.000000  1
  Ni  Ni5  1  0.215269  0.571335  0.000000  1
  Ni  Ni6  1  0.784415  0.430849  0.000000  1
  Ni  Ni7  1  0.428665  0.784731  0.000000  1
  Ni  Ni8  1  0.569151  0.215585  0.000000  1
  Ni  Ni9  1  0.997588  0.501402  0.500000  1
  Ni  Ni10  1  0.498598  0.002412  0.500000  1
  Ni  Ni11  1  0.072469  0.290184  0.000000  1
  Ni  Ni12  1  0.925563  0.710122  0.000000  1
  Ni  Ni13  1  0.709816  0.927531  0.000000  1
  Ni  Ni14  1  0.289878  0.074437  0.000000  1
  Ni  Ni15  1  0.124319  0.116327  0.500000  1
  Ni  Ni16  1  0.883673  0.875681  0.500000  1
  C  C17  1  0.000472  0.501480  0.000000  1
  C  C18  1  0.498520  0.999528  0.000000  1
  C  C19  1  0.442177  0.557823  0.000000  1
  C  C20  1  0.556499  0.443501  0.000000  1
