# generated using pymatgen
data_K4Rb12ZrSnSb8
_symmetry_space_group_name_H-M   'P 1'
_cell_length_a   12.00184641
_cell_length_b   12.00184567
_cell_length_c   12.00184700
_cell_angle_alpha   59.99999909
_cell_angle_beta   60.00000113
_cell_angle_gamma   60.00000190
_symmetry_Int_Tables_number   1
_chemical_formula_structural   K4Rb12ZrSnSb8
_chemical_formula_sum   'K4 Rb12 Zr1 Sn1 Sb8'
_cell_volume   1222.44463191
_cell_formula_units_Z   1
loop_
 _symmetry_equiv_pos_site_id
 _symmetry_equiv_pos_as_xyz
  1  'x, y, z'
loop_
 _atom_site_type_symbol
 _atom_site_label
 _atom_site_symmetry_multiplicity
 _atom_site_fract_x
 _atom_site_fract_y
 _atom_site_fract_z
 _atom_site_occupancy
  K  K0  1  0.623869  0.128393  0.623869  1
  K  K1  1  0.623869  0.623869  0.128393  1
  K  K2  1  0.128393  0.623869  0.623869  1
  K  K3  1  0.623869  0.623869  0.623869  1
  Rb  Rb4  1  0.022787  0.022787  0.477213  1
  Rb  Rb5  1  0.775100  0.224900  0.224900  1
  Rb  Rb6  1  0.224900  0.775100  0.775100  1
  Rb  Rb7  1  0.775100  0.775100  0.224900  1
  Rb  Rb8  1  0.775100  0.224900  0.775100  1
  Rb  Rb9  1  0.224900  0.775100  0.224900  1
  Rb  Rb10  1  0.477213  0.022787  0.477213  1
  Rb  Rb11  1  0.477213  0.022787  0.022787  1
  Rb  Rb12  1  0.022787  0.477213  0.477213  1
  Rb  Rb13  1  0.022787  0.477213  0.022787  1
  Rb  Rb14  1  0.224900  0.224900  0.775100  1
  Rb  Rb15  1  0.477213  0.477213  0.022787  1
  Zr  Zr16  1  0.750000  0.750000  0.750000  1
  Sn  Sn17  1  0.500000  0.500000  0.500000  1
  Sb  Sb18  1  0.399584  0.801248  0.399584  1
  Sb  Sb19  1  0.848097  0.848097  0.455709  1
  Sb  Sb20  1  0.455709  0.848097  0.848097  1
  Sb  Sb21  1  0.848097  0.848097  0.848097  1
  Sb  Sb22  1  0.801248  0.399584  0.399584  1
  Sb  Sb23  1  0.399584  0.399584  0.399584  1
  Sb  Sb24  1  0.399584  0.399584  0.801248  1
  Sb  Sb25  1  0.848097  0.455709  0.848097  1
